MODEL 1
REMARK VINA RESULT:     -11.6      0.000      0.000
REMARK SMILES O=C(CCC1CC[NH+]([C@H]2CCO[C@@]3(CCSC3)C2)CC1)NCCCCNC(=O)c1ccc(-c2c3nc(c(-c4ccccc4)c4ccc([nH]4)c(-c4ccccc4)c4nc(c(-c5ccccc5)c5ccc2[nH]5)C=C4)C=C3)cc1
REMARK SMILES IDX 23 1 22 2 21 3 1 4 2 5 3 7 4 8 5 9 6 10 20 11 7 12 19 13
REMARK SMILES IDX 8 14 9 16 10 17 18 18 11 19 13 20 12 21 14 22 17 23 15 24
REMARK SMILES IDX 16 25 24 26 25 27 26 28 27 29 28 31 29 32 30 33 76 34 31 35
REMARK SMILES IDX 75 36 32 37 33 38 34 39 69 40 35 41 74 42 68 43 70 44 36 45
REMARK SMILES IDX 73 46 67 47 66 48 37 50 59 51 44 52 58 53 45 54 48 55 57 56
REMARK SMILES IDX 71 57 46 58 47 59 56 61 72 62 49 63 38 64 39 65 43 66 40 67
REMARK SMILES IDX 42 68 41 69 60 70 61 71 65 72 62 73 64 74 63 75 50 76 51 77
REMARK SMILES IDX 55 78 52 79 54 80 53 81
REMARK H PARENT 21 6 8 15 26 30 70 49 48 60
REMARK Flexibility Score: inf
ROOT
ATOM      1  C   UNL A   1      35.351  22.074  26.153  1.00  0.00     0.023 C 
ENDROOT
BRANCH   1   2
ATOM      2  C   UNL A   1      35.226  21.347  24.816  1.00  0.00     0.116 C 
BRANCH   2   3
ATOM      3  N   UNL A   1      34.273  21.978  23.925  1.00  0.00    -0.356 N 
ATOM      4  O   UNL A   1      32.485  20.686  24.562  1.00  0.00    -0.275 OA
ATOM      5  C   UNL A   1      32.943  21.616  23.907  1.00  0.00     0.220 C 
ATOM      6  H   UNL A   1      34.584  22.685  23.314  1.00  0.00     0.163 HD
BRANCH   5   7
ATOM      7  C   UNL A   1      32.059  22.521  23.063  1.00  0.00     0.100 C 
BRANCH   7   8
ATOM      8  C   UNL A   1      32.327  23.997  23.392  1.00  0.00     0.014 C 
BRANCH   8   9
ATOM      9  C   UNL A   1      31.095  24.888  23.102  1.00  0.00     0.000 C 
ATOM     10  C   UNL A   1      31.359  25.882  21.957  1.00  0.00     0.065 C 
ATOM     11  C   UNL A   1      30.520  25.507  24.390  1.00  0.00     0.065 C 
ATOM     12  C   UNL A   1      31.645  27.322  22.378  1.00  0.00     0.262 C 
ATOM     13  C   UNL A   1      30.930  26.954  24.634  1.00  0.00     0.262 C 
ATOM     14  N   UNL A   1      30.809  27.823  23.468  1.00  0.00    -0.332 N 
ATOM     15  H   UNL A   1      31.181  28.716  23.791  1.00  0.00     0.348 HD
BRANCH  14  16
ATOM     16  C   UNL A   1      29.486  28.359  23.082  1.00  0.00     0.189 C 
ATOM     17  C   UNL A   1      28.244  27.641  23.630  1.00  0.00     0.093 C 
ATOM     18  C   UNL A   1      29.367  29.879  23.340  1.00  0.00     0.101 C 
ATOM     19  C   UNL A   1      26.957  28.316  23.193  1.00  0.00     0.167 C 
ATOM     20  C   UNL A   1      27.998  30.452  22.903  1.00  0.00     0.084 C 
ATOM     21  O   UNL A   1      26.956  29.692  23.536  1.00  0.00    -0.374 OA
ATOM     22  C   UNL A   1      27.809  31.898  23.393  1.00  0.00     0.047 C 
ATOM     23  C   UNL A   1      27.796  30.523  21.378  1.00  0.00     0.105 C 
ATOM     24  C   UNL A   1      28.596  32.825  22.488  1.00  0.00     0.072 C 
ATOM     25  S   UNL A   1      28.380  32.151  20.825  1.00  0.00    -0.159 SA
ENDBRANCH  14  16
ENDBRANCH   8   9
ENDBRANCH   7   8
ENDBRANCH   5   7
ENDBRANCH   2   3
ENDBRANCH   1   2
BRANCH   1  26
ATOM     26  C   UNL A   1      36.058  23.434  26.100  1.00  0.00     0.023 C 
BRANCH  26  27
ATOM     27  C   UNL A   1      37.235  23.529  25.129  1.00  0.00     0.116 C 
BRANCH  27  28
ATOM     28  N   UNL A   1      38.333  22.647  25.493  1.00  0.00    -0.352 N 
ATOM     29  C   UNL A   1      39.492  22.909  26.178  1.00  0.00     0.251 C 
ATOM     30  H   UNL A   1      38.226  21.713  25.201  1.00  0.00     0.163 HD
ATOM     31  O   UNL A   1      40.375  22.051  26.228  1.00  0.00    -0.269 OA
BRANCH  29  32
ATOM     32  C   UNL A   1      39.713  24.213  26.842  1.00  0.00     0.039 A 
ATOM     33  C   UNL A   1      39.167  24.422  28.113  1.00  0.00     0.014 A 
ATOM     34  C   UNL A   1      40.412  25.245  26.212  1.00  0.00     0.014 A 
ATOM     35  C   UNL A   1      39.380  25.635  28.778  1.00  0.00     0.010 A 
ATOM     36  C   UNL A   1      40.677  26.430  26.900  1.00  0.00     0.010 A 
ATOM     37  C   UNL A   1      40.168  26.636  28.192  1.00  0.00    -0.014 A 
BRANCH  37  38
ATOM     38  C   UNL A   1      40.488  27.894  28.915  1.00  0.00     0.031 A 
ATOM     39  C   UNL A   1      41.795  28.050  29.645  1.00  0.00     0.074 A 
ATOM     40  C   UNL A   1      39.569  28.880  28.978  1.00  0.00     0.049 A 
ATOM     41  N   UNL A   1      42.217  29.047  30.382  1.00  0.00    -0.248 NA
ATOM     42  C   UNL A   1      42.745  26.930  29.551  1.00  0.00     0.031 C 
ATOM     43  C   UNL A   1      38.246  28.847  28.349  1.00  0.00     0.029 A 
ATOM     44  N   UNL A   1      39.605  30.097  29.611  1.00  0.00    -0.354 N 
ATOM     45  C   UNL A   1      43.465  28.667  30.856  1.00  0.00     0.074 A 
ATOM     46  C   UNL A   1      43.717  27.332  30.357  1.00  0.00     0.031 C 
ATOM     47  C   UNL A   1      37.609  30.001  28.606  1.00  0.00     0.029 A 
ATOM     48  C   UNL A   1      38.458  30.836  29.451  1.00  0.00     0.049 A 
ATOM     49  H   UNL A   1      40.379  30.412  30.131  1.00  0.00     0.167 HD
ATOM     50  C   UNL A   1      44.334  29.368  31.625  1.00  0.00     0.031 A 
ATOM     51  C   UNL A   1      38.120  32.047  29.934  1.00  0.00     0.031 A 
ATOM     52  C   UNL A   1      44.095  30.700  32.112  1.00  0.00     0.049 A 
ATOM     53  C   UNL A   1      39.094  32.797  30.798  1.00  0.00     0.074 A 
ATOM     54  C   UNL A   1      44.945  31.515  32.843  1.00  0.00     0.029 A 
ATOM     55  N   UNL A   1      42.923  31.413  31.924  1.00  0.00    -0.354 N 
ATOM     56  N   UNL A   1      40.299  32.451  31.177  1.00  0.00    -0.248 NA
ATOM     57  C   UNL A   1      38.661  34.113  31.293  1.00  0.00     0.031 C 
ATOM     58  C   UNL A   1      44.266  32.702  33.138  1.00  0.00     0.029 A 
ATOM     59  C   UNL A   1      43.016  32.647  32.546  1.00  0.00     0.049 A 
ATOM     60  H   UNL A   1      42.139  31.090  31.424  1.00  0.00     0.167 HD
ATOM     61  C   UNL A   1      40.780  33.515  31.928  1.00  0.00     0.074 A 
ATOM     62  C   UNL A   1      39.742  34.524  31.941  1.00  0.00     0.031 C 
ATOM     63  C   UNL A   1      41.977  33.644  32.551  1.00  0.00     0.031 A 
BRANCH  50  64
ATOM     64  C   UNL A   1      45.628  28.698  31.996  1.00  0.00    -0.014 A 
ATOM     65  C   UNL A   1      46.772  28.832  31.194  1.00  0.00     0.009 A 
ATOM     66  C   UNL A   1      45.715  27.959  33.186  1.00  0.00     0.009 A 
ATOM     67  C   UNL A   1      47.968  28.209  31.557  1.00  0.00     0.001 A 
ATOM     68  C   UNL A   1      46.920  27.363  33.562  1.00  0.00     0.001 A 
ATOM     69  C   UNL A   1      48.042  27.480  32.743  1.00  0.00     0.000 A 
ENDBRANCH  50  64
BRANCH  51  70
ATOM     70  C   UNL A   1      36.798  32.639  29.602  1.00  0.00    -0.014 A 
ATOM     71  C   UNL A   1      35.754  32.614  30.539  1.00  0.00     0.009 A 
ATOM     72  C   UNL A   1      36.569  33.221  28.346  1.00  0.00     0.009 A 
ATOM     73  C   UNL A   1      34.500  33.135  30.216  1.00  0.00     0.001 A 
ATOM     74  C   UNL A   1      35.322  33.767  28.035  1.00  0.00     0.001 A 
ATOM     75  C   UNL A   1      34.286  33.715  28.966  1.00  0.00     0.000 A 
ENDBRANCH  51  70
BRANCH  63  76
ATOM     76  C   UNL A   1      42.244  34.938  33.266  1.00  0.00    -0.014 A 
ATOM     77  C   UNL A   1      43.025  35.947  32.682  1.00  0.00     0.009 A 
ATOM     78  C   UNL A   1      41.674  35.164  34.529  1.00  0.00     0.009 A 
ATOM     79  C   UNL A   1      43.256  37.145  33.363  1.00  0.00     0.001 A 
ATOM     80  C   UNL A   1      41.883  36.372  35.196  1.00  0.00     0.001 A 
ATOM     81  C   UNL A   1      42.681  37.357  34.616  1.00  0.00     0.000 A 
ENDBRANCH  63  76
ENDBRANCH  37  38
ENDBRANCH  29  32
ENDBRANCH  27  28
ENDBRANCH  26  27
ENDBRANCH   1  26
TORSDOF 14
ENDMDL
MODEL 2
REMARK VINA RESULT:     -11.6      4.420      6.698
REMARK SMILES O=C(CCC1CC[NH+]([C@H]2CCO[C@@]3(CCSC3)C2)CC1)NCCCCNC(=O)c1ccc(-c2c3nc(c(-c4ccccc4)c4ccc([nH]4)c(-c4ccccc4)c4nc(c(-c5ccccc5)c5ccc2[nH]5)C=C4)C=C3)cc1
REMARK SMILES IDX 23 1 22 2 21 3 1 4 2 5 3 7 4 8 5 9 6 10 20 11 7 12 19 13
REMARK SMILES IDX 8 14 9 16 10 17 18 18 11 19 13 20 12 21 14 22 17 23 15 24
REMARK SMILES IDX 16 25 24 26 25 27 26 28 27 29 28 31 29 32 30 33 76 34 31 35
REMARK SMILES IDX 75 36 32 37 33 38 34 39 69 40 35 41 74 42 68 43 70 44 36 45
REMARK SMILES IDX 73 46 67 47 66 48 37 50 59 51 44 52 58 53 45 54 48 55 57 56
REMARK SMILES IDX 71 57 46 58 47 59 56 61 72 62 49 63 38 64 39 65 43 66 40 67
REMARK SMILES IDX 42 68 41 69 60 70 61 71 65 72 62 73 64 74 63 75 50 76 51 77
REMARK SMILES IDX 55 78 52 79 54 80 53 81
REMARK H PARENT 21 6 8 15 26 30 70 49 48 60
REMARK Flexibility Score: inf
ROOT
ATOM      1  C   UNL A   1      42.024  20.866  26.950  1.00  0.00     0.023 C 
ENDROOT
BRANCH   1   2
ATOM      2  C   UNL A   1      40.863  21.831  26.715  1.00  0.00     0.116 C 
BRANCH   2   3
ATOM      3  N   UNL A   1      39.735  21.198  26.063  1.00  0.00    -0.356 N 
ATOM      4  O   UNL A   1      38.366  23.039  26.154  1.00  0.00    -0.275 OA
ATOM      5  C   UNL A   1      38.572  21.886  25.790  1.00  0.00     0.220 C 
ATOM      6  H   UNL A   1      39.800  20.249  25.808  1.00  0.00     0.163 HD
BRANCH   5   7
ATOM      7  C   UNL A   1      37.582  21.124  24.924  1.00  0.00     0.100 C 
BRANCH   7   8
ATOM      8  C   UNL A   1      37.098  21.999  23.759  1.00  0.00     0.014 C 
BRANCH   8   9
ATOM      9  C   UNL A   1      35.606  22.387  23.906  1.00  0.00     0.000 C 
ATOM     10  C   UNL A   1      35.429  23.881  24.234  1.00  0.00     0.065 C 
ATOM     11  C   UNL A   1      34.851  21.417  24.834  1.00  0.00     0.065 C 
ATOM     12  C   UNL A   1      35.117  24.210  25.692  1.00  0.00     0.262 C 
ATOM     13  C   UNL A   1      34.648  21.929  26.255  1.00  0.00     0.262 C 
ATOM     14  N   UNL A   1      34.168  23.305  26.339  1.00  0.00    -0.332 N 
ATOM     15  H   UNL A   1      34.153  23.496  27.340  1.00  0.00     0.348 HD
BRANCH  14  16
ATOM     16  C   UNL A   1      32.735  23.601  26.124  1.00  0.00     0.189 C 
ATOM     17  C   UNL A   1      31.723  22.910  27.050  1.00  0.00     0.093 C 
ATOM     18  C   UNL A   1      32.446  25.120  26.075  1.00  0.00     0.101 C 
ATOM     19  C   UNL A   1      30.297  23.333  26.750  1.00  0.00     0.167 C 
ATOM     20  C   UNL A   1      30.955  25.435  25.814  1.00  0.00     0.084 C 
ATOM     21  O   UNL A   1      30.158  24.743  26.789  1.00  0.00    -0.374 OA
ATOM     22  C   UNL A   1      30.650  26.929  26.016  1.00  0.00     0.047 C 
ATOM     23  C   UNL A   1      30.483  25.127  24.380  1.00  0.00     0.105 C 
ATOM     24  C   UNL A   1      31.127  27.693  24.797  1.00  0.00     0.072 C 
ATOM     25  S   UNL A   1      30.723  26.630  23.391  1.00  0.00    -0.159 SA
ENDBRANCH  14  16
ENDBRANCH   8   9
ENDBRANCH   7   8
ENDBRANCH   5   7
ENDBRANCH   2   3
ENDBRANCH   1   2
BRANCH   1  26
ATOM     26  C   UNL A   1      42.092  19.672  25.992  1.00  0.00     0.023 C 
BRANCH  26  27
ATOM     27  C   UNL A   1      43.315  18.768  26.147  1.00  0.00     0.116 C 
BRANCH  27  28
ATOM     28  N   UNL A   1      44.025  18.567  24.894  1.00  0.00    -0.352 N 
ATOM     29  C   UNL A   1      44.687  19.465  24.095  1.00  0.00     0.251 C 
ATOM     30  H   UNL A   1      44.033  17.639  24.567  1.00  0.00     0.163 HD
ATOM     31  O   UNL A   1      45.076  19.114  22.980  1.00  0.00    -0.269 OA
BRANCH  29  32
ATOM     32  C   UNL A   1      44.926  20.856  24.539  1.00  0.00     0.039 A 
ATOM     33  C   UNL A   1      44.471  21.908  23.736  1.00  0.00     0.014 A 
ATOM     34  C   UNL A   1      45.630  21.138  25.712  1.00  0.00     0.014 A 
ATOM     35  C   UNL A   1      44.659  23.234  24.141  1.00  0.00     0.010 A 
ATOM     36  C   UNL A   1      45.762  22.458  26.146  1.00  0.00     0.010 A 
ATOM     37  C   UNL A   1      45.275  23.519  25.369  1.00  0.00    -0.014 A 
BRANCH  37  38
ATOM     38  C   UNL A   1      45.402  24.914  25.866  1.00  0.00     0.031 A 
ATOM     39  C   UNL A   1      46.733  25.618  25.846  1.00  0.00     0.074 A 
ATOM     40  C   UNL A   1      44.331  25.531  26.405  1.00  0.00     0.049 A 
ATOM     41  N   UNL A   1      47.046  26.807  26.298  1.00  0.00    -0.248 NA
ATOM     42  C   UNL A   1      47.864  24.880  25.262  1.00  0.00     0.031 C 
ATOM     43  C   UNL A   1      42.990  24.954  26.522  1.00  0.00     0.029 A 
ATOM     44  N   UNL A   1      44.205  26.779  26.964  1.00  0.00    -0.354 N 
ATOM     45  C   UNL A   1      48.409  26.950  26.074  1.00  0.00     0.074 A 
ATOM     46  C   UNL A   1      48.872  25.713  25.482  1.00  0.00     0.031 C 
ATOM     47  C   UNL A   1      42.172  25.854  27.091  1.00  0.00     0.029 A 
ATOM     48  C   UNL A   1      42.938  27.054  27.418  1.00  0.00     0.049 A 
ATOM     49  H   UNL A   1      44.952  27.416  27.035  1.00  0.00     0.167 HD
ATOM     50  C   UNL A   1      49.204  28.019  26.321  1.00  0.00     0.031 A 
ATOM     51  C   UNL A   1      42.445  28.144  28.036  1.00  0.00     0.031 A 
ATOM     52  C   UNL A   1      48.747  29.257  26.895  1.00  0.00     0.049 A 
ATOM     53  C   UNL A   1      43.351  29.310  28.314  1.00  0.00     0.074 A 
ATOM     54  C   UNL A   1      49.467  30.419  27.122  1.00  0.00     0.029 A 
ATOM     55  N   UNL A   1      47.456  29.494  27.337  1.00  0.00    -0.354 N 
ATOM     56  N   UNL A   1      44.621  29.455  28.030  1.00  0.00    -0.248 NA
ATOM     57  C   UNL A   1      42.749  30.468  28.992  1.00  0.00     0.031 C 
ATOM     58  C   UNL A   1      48.622  31.342  27.746  1.00  0.00     0.029 A 
ATOM     59  C   UNL A   1      47.364  30.774  27.859  1.00  0.00     0.049 A 
ATOM     60  H   UNL A   1      46.714  28.849  27.288  1.00  0.00     0.167 HD
ATOM     61  C   UNL A   1      44.964  30.729  28.465  1.00  0.00     0.074 A 
ATOM     62  C   UNL A   1      43.764  31.319  29.021  1.00  0.00     0.031 C 
ATOM     63  C   UNL A   1      46.165  31.352  28.408  1.00  0.00     0.031 A 
BRANCH  50  64
ATOM     64  C   UNL A   1      50.662  27.893  25.977  1.00  0.00    -0.014 A 
ATOM     65  C   UNL A   1      51.163  28.357  24.751  1.00  0.00     0.009 A 
ATOM     66  C   UNL A   1      51.554  27.342  26.911  1.00  0.00     0.009 A 
ATOM     67  C   UNL A   1      52.522  28.238  24.452  1.00  0.00     0.001 A 
ATOM     68  C   UNL A   1      52.916  27.252  26.620  1.00  0.00     0.001 A 
ATOM     69  C   UNL A   1      53.398  27.690  25.388  1.00  0.00     0.000 A 
ENDBRANCH  50  64
BRANCH  51  70
ATOM     70  C   UNL A   1      41.012  28.196  28.425  1.00  0.00    -0.014 A 
ATOM     71  C   UNL A   1      40.583  27.621  29.631  1.00  0.00     0.009 A 
ATOM     72  C   UNL A   1      40.064  28.808  27.590  1.00  0.00     0.009 A 
ATOM     73  C   UNL A   1      39.231  27.634  29.981  1.00  0.00     0.001 A 
ATOM     74  C   UNL A   1      38.717  28.845  27.956  1.00  0.00     0.001 A 
ATOM     75  C   UNL A   1      38.300  28.250  29.145  1.00  0.00     0.000 A 
ENDBRANCH  51  70
BRANCH  63  76
ATOM     76  C   UNL A   1      46.234  32.762  28.925  1.00  0.00    -0.014 A 
ATOM     77  C   UNL A   1      46.620  33.037  30.245  1.00  0.00     0.009 A 
ATOM     78  C   UNL A   1      45.943  33.831  28.064  1.00  0.00     0.009 A 
ATOM     79  C   UNL A   1      46.681  34.355  30.702  1.00  0.00     0.001 A 
ATOM     80  C   UNL A   1      46.032  35.149  28.514  1.00  0.00     0.001 A 
ATOM     81  C   UNL A   1      46.393  35.410  29.835  1.00  0.00     0.000 A 
ENDBRANCH  63  76
ENDBRANCH  37  38
ENDBRANCH  29  32
ENDBRANCH  27  28
ENDBRANCH  26  27
ENDBRANCH   1  26
TORSDOF 14
ENDMDL
MODEL 3
REMARK VINA RESULT:     -11.3      0.857      5.895
REMARK SMILES O=C(CCC1CC[NH+]([C@H]2CCO[C@@]3(CCSC3)C2)CC1)NCCCCNC(=O)c1ccc(-c2c3nc(c(-c4ccccc4)c4ccc([nH]4)c(-c4ccccc4)c4nc(c(-c5ccccc5)c5ccc2[nH]5)C=C4)C=C3)cc1
REMARK SMILES IDX 23 1 22 2 21 3 1 4 2 5 3 7 4 8 5 9 6 10 20 11 7 12 19 13
REMARK SMILES IDX 8 14 9 16 10 17 18 18 11 19 13 20 12 21 14 22 17 23 15 24
REMARK SMILES IDX 16 25 24 26 25 27 26 28 27 29 28 31 29 32 30 33 76 34 31 35
REMARK SMILES IDX 75 36 32 37 33 38 34 39 69 40 35 41 74 42 68 43 70 44 36 45
REMARK SMILES IDX 73 46 67 47 66 48 37 50 59 51 44 52 58 53 45 54 48 55 57 56
REMARK SMILES IDX 71 57 46 58 47 59 56 61 72 62 49 63 38 64 39 65 43 66 40 67
REMARK SMILES IDX 42 68 41 69 60 70 61 71 65 72 62 73 64 74 63 75 50 76 51 77
REMARK SMILES IDX 55 78 52 79 54 80 53 81
REMARK H PARENT 21 6 8 15 26 30 70 49 48 60
REMARK Flexibility Score: inf
ROOT
ATOM      1  C   UNL A   1      35.163  22.785  26.306  1.00  0.00     0.023 C 
ENDROOT
BRANCH   1   2
ATOM      2  C   UNL A   1      34.990  21.754  25.191  1.00  0.00     0.116 C 
BRANCH   2   3
ATOM      3  N   UNL A   1      34.228  22.267  24.071  1.00  0.00    -0.356 N 
ATOM      4  O   UNL A   1      32.437  20.859  24.360  1.00  0.00    -0.275 OA
ATOM      5  C   UNL A   1      32.967  21.796  23.772  1.00  0.00     0.220 C 
ATOM      6  H   UNL A   1      34.622  22.970  23.506  1.00  0.00     0.163 HD
BRANCH   5   7
ATOM      7  C   UNL A   1      32.242  22.589  22.696  1.00  0.00     0.100 C 
BRANCH   7   8
ATOM      8  C   UNL A   1      32.556  24.087  22.824  1.00  0.00     0.014 C 
BRANCH   8   9
ATOM      9  C   UNL A   1      31.301  24.964  22.596  1.00  0.00     0.000 C 
ATOM     10  C   UNL A   1      31.609  26.193  21.722  1.00  0.00     0.065 C 
ATOM     11  C   UNL A   1      30.564  25.264  23.915  1.00  0.00     0.065 C 
ATOM     12  C   UNL A   1      31.756  27.518  22.465  1.00  0.00     0.262 C 
ATOM     13  C   UNL A   1      30.852  26.640  24.502  1.00  0.00     0.262 C 
ATOM     14  N   UNL A   1      30.787  27.734  23.539  1.00  0.00    -0.332 N 
ATOM     15  H   UNL A   1      31.065  28.552  24.080  1.00  0.00     0.348 HD
BRANCH  14  16
ATOM     16  C   UNL A   1      29.474  28.282  23.132  1.00  0.00     0.189 C 
ATOM     17  C   UNL A   1      28.219  27.588  23.678  1.00  0.00     0.093 C 
ATOM     18  C   UNL A   1      29.373  29.807  23.369  1.00  0.00     0.101 C 
ATOM     19  C   UNL A   1      26.945  28.273  23.220  1.00  0.00     0.167 C 
ATOM     20  C   UNL A   1      28.016  30.392  22.911  1.00  0.00     0.084 C 
ATOM     21  O   UNL A   1      26.958  29.654  23.544  1.00  0.00    -0.374 OA
ATOM     22  C   UNL A   1      27.841  31.847  23.379  1.00  0.00     0.047 C 
ATOM     23  C   UNL A   1      27.829  30.444  21.383  1.00  0.00     0.105 C 
ATOM     24  C   UNL A   1      28.649  32.751  22.470  1.00  0.00     0.072 C 
ATOM     25  S   UNL A   1      28.439  32.057  20.814  1.00  0.00    -0.159 SA
ENDBRANCH  14  16
ENDBRANCH   8   9
ENDBRANCH   7   8
ENDBRANCH   5   7
ENDBRANCH   2   3
ENDBRANCH   1   2
BRANCH   1  26
ATOM     26  C   UNL A   1      36.367  23.722  26.155  1.00  0.00     0.023 C 
BRANCH  26  27
ATOM     27  C   UNL A   1      37.337  23.375  25.026  1.00  0.00     0.116 C 
BRANCH  27  28
ATOM     28  N   UNL A   1      38.387  22.462  25.451  1.00  0.00    -0.352 N 
ATOM     29  C   UNL A   1      39.548  22.704  26.141  1.00  0.00     0.251 C 
ATOM     30  H   UNL A   1      38.241  21.521  25.202  1.00  0.00     0.163 HD
ATOM     31  O   UNL A   1      40.388  21.810  26.248  1.00  0.00    -0.269 OA
BRANCH  29  32
ATOM     32  C   UNL A   1      39.819  24.028  26.745  1.00  0.00     0.039 A 
ATOM     33  C   UNL A   1      39.571  24.209  28.110  1.00  0.00     0.014 A 
ATOM     34  C   UNL A   1      40.273  25.102  25.976  1.00  0.00     0.014 A 
ATOM     35  C   UNL A   1      39.842  25.441  28.716  1.00  0.00     0.010 A 
ATOM     36  C   UNL A   1      40.601  26.311  26.592  1.00  0.00     0.010 A 
ATOM     37  C   UNL A   1      40.394  26.492  27.969  1.00  0.00    -0.014 A 
BRANCH  37  38
ATOM     38  C   UNL A   1      40.779  27.778  28.607  1.00  0.00     0.031 A 
ATOM     39  C   UNL A   1      39.766  28.876  28.793  1.00  0.00     0.074 A 
ATOM     40  C   UNL A   1      42.063  27.991  28.959  1.00  0.00     0.049 A 
ATOM     41  N   UNL A   1      39.935  30.085  29.268  1.00  0.00    -0.248 NA
ATOM     42  C   UNL A   1      38.387  28.585  28.370  1.00  0.00     0.031 C 
ATOM     43  C   UNL A   1      43.156  27.028  28.802  1.00  0.00     0.029 A 
ATOM     44  N   UNL A   1      42.668  29.092  29.514  1.00  0.00    -0.354 N 
ATOM     45  C   UNL A   1      38.694  30.704  29.180  1.00  0.00     0.074 A 
ATOM     46  C   UNL A   1      37.790  29.752  28.571  1.00  0.00     0.031 C 
ATOM     47  C   UNL A   1      44.290  27.571  29.273  1.00  0.00     0.029 A 
ATOM     48  C   UNL A   1      44.016  28.931  29.726  1.00  0.00     0.049 A 
ATOM     49  H   UNL A   1      42.182  29.918  29.738  1.00  0.00     0.167 HD
ATOM     50  C   UNL A   1      38.332  31.945  29.584  1.00  0.00     0.031 A 
ATOM     51  C   UNL A   1      44.933  29.784  30.221  1.00  0.00     0.031 A 
ATOM     52  C   UNL A   1      39.222  32.890  30.205  1.00  0.00     0.049 A 
ATOM     53  C   UNL A   1      44.509  31.161  30.647  1.00  0.00     0.074 A 
ATOM     54  C   UNL A   1      38.929  34.147  30.707  1.00  0.00     0.029 A 
ATOM     55  N   UNL A   1      40.578  32.686  30.404  1.00  0.00    -0.354 N 
ATOM     56  N   UNL A   1      43.317  31.703  30.623  1.00  0.00    -0.248 NA
ATOM     57  C   UNL A   1      45.561  32.042  31.179  1.00  0.00     0.031 C 
ATOM     58  C   UNL A   1      40.119  34.723  31.166  1.00  0.00     0.029 A 
ATOM     59  C   UNL A   1      41.140  33.804  30.998  1.00  0.00     0.049 A 
ATOM     60  H   UNL A   1      41.068  31.869  30.159  1.00  0.00     0.167 HD
ATOM     61  C   UNL A   1      43.467  32.974  31.162  1.00  0.00     0.074 A 
ATOM     62  C   UNL A   1      44.864  33.117  31.516  1.00  0.00     0.031 C 
ATOM     63  C   UNL A   1      42.531  33.935  31.347  1.00  0.00     0.031 A 
BRANCH  50  64
ATOM     64  C   UNL A   1      36.905  32.359  29.359  1.00  0.00    -0.014 A 
ATOM     65  C   UNL A   1      35.919  32.130  30.332  1.00  0.00     0.009 A 
ATOM     66  C   UNL A   1      36.549  33.024  28.175  1.00  0.00     0.009 A 
ATOM     67  C   UNL A   1      34.599  32.528  30.109  1.00  0.00     0.001 A 
ATOM     68  C   UNL A   1      35.235  33.447  27.968  1.00  0.00     0.001 A 
ATOM     69  C   UNL A   1      34.259  33.190  28.929  1.00  0.00     0.000 A 
ENDBRANCH  50  64
BRANCH  51  70
ATOM     70  C   UNL A   1      46.350  29.357  30.358  1.00  0.00    -0.014 A 
ATOM     71  C   UNL A   1      46.801  28.771  31.551  1.00  0.00     0.009 A 
ATOM     72  C   UNL A   1      47.259  29.542  29.306  1.00  0.00     0.009 A 
ATOM     73  C   UNL A   1      48.141  28.405  31.697  1.00  0.00     0.001 A 
ATOM     74  C   UNL A   1      48.592  29.149  29.444  1.00  0.00     0.001 A 
ATOM     75  C   UNL A   1      49.034  28.590  30.642  1.00  0.00     0.000 A 
ENDBRANCH  51  70
BRANCH  63  76
ATOM     76  C   UNL A   1      42.978  35.214  31.998  1.00  0.00    -0.014 A 
ATOM     77  C   UNL A   1      43.570  36.245  31.252  1.00  0.00     0.009 A 
ATOM     78  C   UNL A   1      42.768  35.404  33.373  1.00  0.00     0.009 A 
ATOM     79  C   UNL A   1      43.972  37.427  31.877  1.00  0.00     0.001 A 
ATOM     80  C   UNL A   1      43.145  36.597  33.990  1.00  0.00     0.001 A 
ATOM     81  C   UNL A   1      43.755  37.604  33.243  1.00  0.00     0.000 A 
ENDBRANCH  63  76
ENDBRANCH  37  38
ENDBRANCH  29  32
ENDBRANCH  27  28
ENDBRANCH  26  27
ENDBRANCH   1  26
TORSDOF 14
ENDMDL
