MODEL 1
REMARK VINA RESULT:     -11.8      0.000      0.000
REMARK SMILES CC(C)(C)c1cc2c(cc1Cl)C=C(C(=O)NCCCCNC(=O)c1ccc(-c3c4nc(c(-c5ccccc5)c5ccc([nH]5)c(-c5ccccc5)c5nc(c(-c6ccccc6)c6ccc3[nH]6)C=C5)C=C4)cc1)[C@H](C(F)(F)F)O2
REMARK SMILES IDX 19 1 18 2 17 3 16 4 14 5 15 6 13 8 5 9 6 10 10 11 7 12 9 13
REMARK SMILES IDX 11 14 8 15 77 16 12 17 72 18 2 19 1 20 3 21 4 22 73 23 74 24
REMARK SMILES IDX 75 25 76 26 20 27 21 28 22 29 23 31 24 32 25 33 71 34 26 35
REMARK SMILES IDX 70 36 27 37 28 38 29 39 64 40 30 41 69 42 63 43 65 44 31 45
REMARK SMILES IDX 68 46 62 47 61 48 32 50 54 51 39 52 53 53 40 54 43 55 52 56
REMARK SMILES IDX 66 57 41 58 42 59 51 61 67 62 44 63 33 64 34 65 38 66 35 67
REMARK SMILES IDX 37 68 36 69 55 70 56 71 60 72 57 73 59 74 58 75 45 76 46 77
REMARK SMILES IDX 50 78 47 79 49 80 48 81
REMARK H PARENT 16 7 21 30 65 49 43 60
REMARK Flexibility Score: inf
ROOT
ATOM      1  C   UNL A   1      32.239  28.782  27.000  1.00  0.00     0.023 C 
ENDROOT
BRANCH   1   2
ATOM      2  C   UNL A   1      31.512  29.713  26.028  1.00  0.00     0.023 C 
BRANCH   2   3
ATOM      3  C   UNL A   1      31.469  29.211  24.584  1.00  0.00     0.116 C 
BRANCH   3   4
ATOM      4  N   UNL A   1      32.734  29.426  23.910  1.00  0.00    -0.352 N 
ATOM      5  C   UNL A   1      33.667  28.633  23.333  1.00  0.00     0.251 C 
ATOM      6  O   UNL A   1      34.585  29.225  22.757  1.00  0.00    -0.270 OA
ATOM      7  H   UNL A   1      32.972  30.381  23.858  1.00  0.00     0.163 HD
BRANCH   5   8
ATOM      8  C   UNL A   1      33.650  27.143  23.353  1.00  0.00     0.067 C 
ATOM      9  C   UNL A   1      33.745  22.279  24.847  1.00  0.00    -0.020 A 
ATOM     10  C   UNL A   1      33.713  22.965  23.610  1.00  0.00     0.053 A 
ATOM     11  C   UNL A   1      33.853  23.092  26.000  1.00  0.00     0.045 A 
ATOM     12  C   UNL A   1      33.742  24.359  23.527  1.00  0.00     0.128 A 
ATOM     13  C   UNL A   1      33.887  24.498  25.908  1.00  0.00     0.032 A 
ATOM     14  Cl  UNL A   1      34.013  22.483  27.610  1.00  0.00    -0.084 Cl
ATOM     15  C   UNL A   1      33.833  25.135  24.672  1.00  0.00     0.019 A 
ATOM     16  O   UNL A   1      33.720  24.901  22.272  1.00  0.00    -0.475 OA
ATOM     17  C   UNL A   1      33.918  26.583  24.548  1.00  0.00     0.025 C 
ATOM     18  C   UNL A   1      33.241  26.273  22.193  1.00  0.00     0.314 C 
BRANCH   9  19
ATOM     19  C   UNL A   1      33.720  20.729  24.849  1.00  0.00    -0.012 C 
ATOM     20  C   UNL A   1      32.971  20.133  26.075  1.00  0.00     0.016 C 
ATOM     21  C   UNL A   1      35.128  20.090  24.900  1.00  0.00     0.016 C 
ATOM     22  C   UNL A   1      32.970  20.247  23.590  1.00  0.00     0.016 C 
ENDBRANCH   9  19
BRANCH  18  23
ATOM     23  C   UNL A   1      31.729  26.286  21.911  1.00  0.00     0.429 C 
ATOM     24  F   UNL A   1      31.010  25.644  22.857  1.00  0.00    -0.167 F 
ATOM     25  F   UNL A   1      31.229  27.539  21.815  1.00  0.00    -0.167 F 
ATOM     26  F   UNL A   1      31.473  25.672  20.726  1.00  0.00    -0.167 F 
ENDBRANCH  18  23
ENDBRANCH   5   8
ENDBRANCH   3   4
ENDBRANCH   2   3
ENDBRANCH   1   2
BRANCH   1  27
ATOM     27  C   UNL A   1      33.658  29.207  27.353  1.00  0.00     0.116 C 
BRANCH  27  28
ATOM     28  N   UNL A   1      33.743  30.517  27.984  1.00  0.00    -0.352 N 
ATOM     29  C   UNL A   1      34.834  31.076  28.610  1.00  0.00     0.251 C 
ATOM     30  H   UNL A   1      32.927  31.067  27.959  1.00  0.00     0.163 HD
ATOM     31  O   UNL A   1      34.763  32.169  29.162  1.00  0.00    -0.269 OA
BRANCH  29  32
ATOM     32  C   UNL A   1      36.082  30.291  28.652  1.00  0.00     0.039 A 
ATOM     33  C   UNL A   1      36.447  29.636  29.829  1.00  0.00     0.014 A 
ATOM     34  C   UNL A   1      36.944  30.335  27.556  1.00  0.00     0.014 A 
ATOM     35  C   UNL A   1      37.748  29.179  29.971  1.00  0.00     0.010 A 
ATOM     36  C   UNL A   1      38.226  29.800  27.675  1.00  0.00     0.010 A 
ATOM     37  C   UNL A   1      38.655  29.267  28.901  1.00  0.00    -0.014 A 
BRANCH  37  38
ATOM     38  C   UNL A   1      40.052  28.807  29.092  1.00  0.00     0.031 A 
ATOM     39  C   UNL A   1      40.476  27.433  28.650  1.00  0.00     0.074 A 
ATOM     40  C   UNL A   1      40.953  29.661  29.608  1.00  0.00     0.049 A 
ATOM     41  N   UNL A   1      41.653  26.868  28.750  1.00  0.00    -0.248 NA
ATOM     42  C   UNL A   1      39.455  26.583  28.015  1.00  0.00     0.031 C 
ATOM     43  C   UNL A   1      40.665  31.033  30.033  1.00  0.00     0.029 A 
ATOM     44  N   UNL A   1      42.297  29.518  29.831  1.00  0.00    -0.354 N 
ATOM     45  C   UNL A   1      41.508  25.593  28.217  1.00  0.00     0.074 A 
ATOM     46  C   UNL A   1      40.128  25.459  27.806  1.00  0.00     0.031 C 
ATOM     47  C   UNL A   1      41.809  31.626  30.403  1.00  0.00     0.029 A 
ATOM     48  C   UNL A   1      42.894  30.655  30.317  1.00  0.00     0.049 A 
ATOM     49  H   UNL A   1      42.788  28.682  29.661  1.00  0.00     0.167 HD
ATOM     50  C   UNL A   1      42.446  24.625  28.082  1.00  0.00     0.031 A 
ATOM     51  C   UNL A   1      44.170  30.891  30.673  1.00  0.00     0.031 A 
ATOM     52  C   UNL A   1      43.822  24.769  28.476  1.00  0.00     0.049 A 
ATOM     53  C   UNL A   1      45.174  29.783  30.568  1.00  0.00     0.074 A 
ATOM     54  C   UNL A   1      44.847  23.846  28.368  1.00  0.00     0.029 A 
ATOM     55  N   UNL A   1      44.364  25.909  29.046  1.00  0.00    -0.354 N 
ATOM     56  N   UNL A   1      45.013  28.572  30.094  1.00  0.00    -0.248 NA
ATOM     57  C   UNL A   1      46.527  30.065  31.066  1.00  0.00     0.031 C 
ATOM     58  C   UNL A   1      46.002  24.412  28.915  1.00  0.00     0.029 A 
ATOM     59  C   UNL A   1      45.706  25.704  29.318  1.00  0.00     0.049 A 
ATOM     60  H   UNL A   1      43.871  26.740  29.230  1.00  0.00     0.167 HD
ATOM     61  C   UNL A   1      46.241  27.945  30.237  1.00  0.00     0.074 A 
ATOM     62  C   UNL A   1      47.144  28.916  30.822  1.00  0.00     0.031 C 
ATOM     63  C   UNL A   1      46.585  26.674  29.916  1.00  0.00     0.031 A 
BRANCH  50  64
ATOM     64  C   UNL A   1      42.018  23.306  27.503  1.00  0.00    -0.014 A 
ATOM     65  C   UNL A   1      41.447  22.334  28.340  1.00  0.00     0.009 A 
ATOM     66  C   UNL A   1      42.258  22.988  26.158  1.00  0.00     0.009 A 
ATOM     67  C   UNL A   1      41.132  21.067  27.845  1.00  0.00     0.001 A 
ATOM     68  C   UNL A   1      41.922  21.727  25.660  1.00  0.00     0.001 A 
ATOM     69  C   UNL A   1      41.367  20.765  26.505  1.00  0.00     0.000 A 
ENDBRANCH  50  64
BRANCH  51  70
ATOM     70  C   UNL A   1      44.542  32.237  31.176  1.00  0.00    -0.014 A 
ATOM     71  C   UNL A   1      45.016  33.220  30.293  1.00  0.00     0.009 A 
ATOM     72  C   UNL A   1      44.500  32.518  32.548  1.00  0.00     0.009 A 
ATOM     73  C   UNL A   1      45.471  34.447  30.776  1.00  0.00     0.001 A 
ATOM     74  C   UNL A   1      44.931  33.757  33.027  1.00  0.00     0.001 A 
ATOM     75  C   UNL A   1      45.426  34.715  32.142  1.00  0.00     0.000 A 
ENDBRANCH  51  70
BRANCH  63  76
ATOM     76  C   UNL A   1      47.996  26.249  30.194  1.00  0.00    -0.014 A 
ATOM     77  C   UNL A   1      48.952  26.283  29.168  1.00  0.00     0.009 A 
ATOM     78  C   UNL A   1      48.354  25.732  31.448  1.00  0.00     0.009 A 
ATOM     79  C   UNL A   1      50.241  25.795  29.388  1.00  0.00     0.001 A 
ATOM     80  C   UNL A   1      49.650  25.264  31.671  1.00  0.00     0.001 A 
ATOM     81  C   UNL A   1      50.589  25.289  30.640  1.00  0.00     0.000 A 
ENDBRANCH  63  76
ENDBRANCH  37  38
ENDBRANCH  29  32
ENDBRANCH  27  28
ENDBRANCH   1  27
TORSDOF 13
ENDMDL
MODEL 2
REMARK VINA RESULT:     -11.8      2.533      7.667
REMARK SMILES CC(C)(C)c1cc2c(cc1Cl)C=C(C(=O)NCCCCNC(=O)c1ccc(-c3c4nc(c(-c5ccccc5)c5ccc([nH]5)c(-c5ccccc5)c5nc(c(-c6ccccc6)c6ccc3[nH]6)C=C5)C=C4)cc1)[C@H](C(F)(F)F)O2
REMARK SMILES IDX 19 1 18 2 17 3 16 4 14 5 15 6 13 8 5 9 6 10 10 11 7 12 9 13
REMARK SMILES IDX 11 14 8 15 77 16 12 17 72 18 2 19 1 20 3 21 4 22 73 23 74 24
REMARK SMILES IDX 75 25 76 26 20 27 21 28 22 29 23 31 24 32 25 33 71 34 26 35
REMARK SMILES IDX 70 36 27 37 28 38 29 39 64 40 30 41 69 42 63 43 65 44 31 45
REMARK SMILES IDX 68 46 62 47 61 48 32 50 54 51 39 52 53 53 40 54 43 55 52 56
REMARK SMILES IDX 66 57 41 58 42 59 51 61 67 62 44 63 33 64 34 65 38 66 35 67
REMARK SMILES IDX 37 68 36 69 55 70 56 71 60 72 57 73 59 74 58 75 45 76 46 77
REMARK SMILES IDX 50 78 47 79 49 80 48 81
REMARK H PARENT 16 7 21 30 65 49 43 60
REMARK Flexibility Score: inf
ROOT
ATOM      1  C   UNL A   1      37.771  20.774  24.919  1.00  0.00     0.023 C 
ENDROOT
BRANCH   1   2
ATOM      2  C   UNL A   1      37.136  22.116  24.550  1.00  0.00     0.023 C 
BRANCH   2   3
ATOM      3  C   UNL A   1      36.725  22.973  25.748  1.00  0.00     0.116 C 
BRANCH   3   4
ATOM      4  N   UNL A   1      35.742  22.296  26.571  1.00  0.00    -0.352 N 
ATOM      5  C   UNL A   1      34.396  22.347  26.705  1.00  0.00     0.251 C 
ATOM      6  O   UNL A   1      33.905  21.510  27.469  1.00  0.00    -0.270 OA
ATOM      7  H   UNL A   1      36.152  21.639  27.179  1.00  0.00     0.163 HD
BRANCH   5   8
ATOM      8  C   UNL A   1      33.506  23.321  26.009  1.00  0.00     0.067 C 
ATOM      9  C   UNL A   1      31.433  27.590  24.170  1.00  0.00    -0.020 A 
ATOM     10  C   UNL A   1      31.087  26.218  24.199  1.00  0.00     0.053 A 
ATOM     11  C   UNL A   1      32.605  27.943  24.879  1.00  0.00     0.045 A 
ATOM     12  C   UNL A   1      31.872  25.262  24.847  1.00  0.00     0.128 A 
ATOM     13  C   UNL A   1      33.390  26.974  25.535  1.00  0.00     0.032 A 
ATOM     14  Cl  UNL A   1      33.173  29.565  25.076  1.00  0.00    -0.084 Cl
ATOM     15  C   UNL A   1      33.024  25.631  25.522  1.00  0.00     0.019 A 
ATOM     16  O   UNL A   1      31.421  23.971  24.814  1.00  0.00    -0.475 OA
ATOM     17  C   UNL A   1      33.790  24.618  26.234  1.00  0.00     0.025 C 
ATOM     18  C   UNL A   1      32.439  22.949  25.013  1.00  0.00     0.314 C 
BRANCH   9  19
ATOM     19  C   UNL A   1      30.499  28.586  23.437  1.00  0.00    -0.012 C 
ATOM     20  C   UNL A   1      30.265  29.901  24.234  1.00  0.00     0.016 C 
ATOM     21  C   UNL A   1      29.081  28.026  23.179  1.00  0.00     0.016 C 
ATOM     22  C   UNL A   1      31.158  28.986  22.101  1.00  0.00     0.016 C 
ENDBRANCH   9  19
BRANCH  18  23
ATOM     23  C   UNL A   1      32.992  22.486  23.655  1.00  0.00     0.429 C 
ATOM     24  F   UNL A   1      32.170  22.775  22.623  1.00  0.00    -0.167 F 
ATOM     25  F   UNL A   1      34.194  23.035  23.370  1.00  0.00    -0.167 F 
ATOM     26  F   UNL A   1      33.171  21.139  23.663  1.00  0.00    -0.167 F 
ENDBRANCH  18  23
ENDBRANCH   5   8
ENDBRANCH   3   4
ENDBRANCH   2   3
ENDBRANCH   1   2
BRANCH   1  27
ATOM     27  C   UNL A   1      39.025  20.875  25.777  1.00  0.00     0.116 C 
BRANCH  27  28
ATOM     28  N   UNL A   1      39.894  19.709  25.695  1.00  0.00    -0.352 N 
ATOM     29  C   UNL A   1      41.223  19.628  26.043  1.00  0.00     0.251 C 
ATOM     30  H   UNL A   1      39.483  18.883  25.351  1.00  0.00     0.163 HD
ATOM     31  O   UNL A   1      41.867  18.599  25.868  1.00  0.00    -0.269 OA
BRANCH  29  32
ATOM     32  C   UNL A   1      41.869  20.839  26.581  1.00  0.00     0.039 A 
ATOM     33  C   UNL A   1      41.919  21.042  27.961  1.00  0.00     0.014 A 
ATOM     34  C   UNL A   1      42.293  21.829  25.692  1.00  0.00     0.014 A 
ATOM     35  C   UNL A   1      42.226  22.304  28.447  1.00  0.00     0.010 A 
ATOM     36  C   UNL A   1      42.681  23.072  26.191  1.00  0.00     0.010 A 
ATOM     37  C   UNL A   1      42.598  23.335  27.567  1.00  0.00    -0.014 A 
BRANCH  37  38
ATOM     38  C   UNL A   1      42.883  24.685  28.110  1.00  0.00     0.031 A 
ATOM     39  C   UNL A   1      44.296  25.116  28.396  1.00  0.00     0.074 A 
ATOM     40  C   UNL A   1      41.864  25.546  28.282  1.00  0.00     0.049 A 
ATOM     41  N   UNL A   1      44.722  26.256  28.880  1.00  0.00    -0.248 NA
ATOM     42  C   UNL A   1      45.369  24.152  28.103  1.00  0.00     0.031 C 
ATOM     43  C   UNL A   1      40.458  25.251  27.999  1.00  0.00     0.029 A 
ATOM     44  N   UNL A   1      41.854  26.849  28.703  1.00  0.00    -0.354 N 
ATOM     45  C   UNL A   1      46.103  26.136  28.973  1.00  0.00     0.074 A 
ATOM     46  C   UNL A   1      46.447  24.810  28.509  1.00  0.00     0.031 C 
ATOM     47  C   UNL A   1      39.731  26.361  28.190  1.00  0.00     0.029 A 
ATOM     48  C   UNL A   1      40.605  27.419  28.683  1.00  0.00     0.049 A 
ATOM     49  H   UNL A   1      42.662  27.331  28.991  1.00  0.00     0.167 HD
ATOM     50  C   UNL A   1      47.001  27.053  29.406  1.00  0.00     0.031 A 
ATOM     51  C   UNL A   1      40.199  28.651  29.041  1.00  0.00     0.031 A 
ATOM     52  C   UNL A   1      46.657  28.378  29.849  1.00  0.00     0.049 A 
ATOM     53  C   UNL A   1      41.206  29.627  29.570  1.00  0.00     0.074 A 
ATOM     54  C   UNL A   1      47.500  29.381  30.295  1.00  0.00     0.029 A 
ATOM     55  N   UNL A   1      45.368  28.884  29.897  1.00  0.00    -0.354 N 
ATOM     56  N   UNL A   1      42.504  29.486  29.685  1.00  0.00    -0.248 NA
ATOM     57  C   UNL A   1      40.692  30.921  30.041  1.00  0.00     0.031 C 
ATOM     58  C   UNL A   1      46.716  30.480  30.657  1.00  0.00     0.029 A 
ATOM     59  C   UNL A   1      45.390  30.178  30.388  1.00  0.00     0.049 A 
ATOM     60  H   UNL A   1      44.558  28.398  29.623  1.00  0.00     0.167 HD
ATOM     61  C   UNL A   1      42.964  30.670  30.241  1.00  0.00     0.074 A 
ATOM     62  C   UNL A   1      41.810  31.527  30.422  1.00  0.00     0.031 C 
ATOM     63  C   UNL A   1      44.231  31.010  30.577  1.00  0.00     0.031 A 
BRANCH  50  64
ATOM     64  C   UNL A   1      48.450  26.657  29.445  1.00  0.00    -0.014 A 
ATOM     65  C   UNL A   1      48.970  26.044  30.597  1.00  0.00     0.009 A 
ATOM     66  C   UNL A   1      49.319  26.966  28.389  1.00  0.00     0.009 A 
ATOM     67  C   UNL A   1      50.332  25.756  30.694  1.00  0.00     0.001 A 
ATOM     68  C   UNL A   1      50.678  26.656  28.479  1.00  0.00     0.001 A 
ATOM     69  C   UNL A   1      51.185  26.059  29.634  1.00  0.00     0.000 A 
ENDBRANCH  50  64
BRANCH  51  70
ATOM     70  C   UNL A   1      38.763  29.003  28.915  1.00  0.00    -0.014 A 
ATOM     71  C   UNL A   1      38.261  29.528  27.713  1.00  0.00     0.009 A 
ATOM     72  C   UNL A   1      37.905  28.889  30.018  1.00  0.00     0.009 A 
ATOM     73  C   UNL A   1      36.939  29.962  27.627  1.00  0.00     0.001 A 
ATOM     74  C   UNL A   1      36.574  29.300  29.921  1.00  0.00     0.001 A 
ATOM     75  C   UNL A   1      36.096  29.847  28.730  1.00  0.00     0.000 A 
ENDBRANCH  51  70
BRANCH  63  76
ATOM     76  C   UNL A   1      44.446  32.365  31.183  1.00  0.00    -0.014 A 
ATOM     77  C   UNL A   1      44.762  33.457  30.360  1.00  0.00     0.009 A 
ATOM     78  C   UNL A   1      44.421  32.540  32.574  1.00  0.00     0.009 A 
ATOM     79  C   UNL A   1      45.062  34.699  30.921  1.00  0.00     0.001 A 
ATOM     80  C   UNL A   1      44.702  33.789  33.131  1.00  0.00     0.001 A 
ATOM     81  C   UNL A   1      45.029  34.865  32.305  1.00  0.00     0.000 A 
ENDBRANCH  63  76
ENDBRANCH  37  38
ENDBRANCH  29  32
ENDBRANCH  27  28
ENDBRANCH   1  27
TORSDOF 13
ENDMDL
MODEL 3
REMARK VINA RESULT:     -11.8      2.534      7.536
REMARK SMILES CC(C)(C)c1cc2c(cc1Cl)C=C(C(=O)NCCCCNC(=O)c1ccc(-c3c4nc(c(-c5ccccc5)c5ccc([nH]5)c(-c5ccccc5)c5nc(c(-c6ccccc6)c6ccc3[nH]6)C=C5)C=C4)cc1)[C@H](C(F)(F)F)O2
REMARK SMILES IDX 19 1 18 2 17 3 16 4 14 5 15 6 13 8 5 9 6 10 10 11 7 12 9 13
REMARK SMILES IDX 11 14 8 15 77 16 12 17 72 18 2 19 1 20 3 21 4 22 73 23 74 24
REMARK SMILES IDX 75 25 76 26 20 27 21 28 22 29 23 31 24 32 25 33 71 34 26 35
REMARK SMILES IDX 70 36 27 37 28 38 29 39 64 40 30 41 69 42 63 43 65 44 31 45
REMARK SMILES IDX 68 46 62 47 61 48 32 50 54 51 39 52 53 53 40 54 43 55 52 56
REMARK SMILES IDX 66 57 41 58 42 59 51 61 67 62 44 63 33 64 34 65 38 66 35 67
REMARK SMILES IDX 37 68 36 69 55 70 56 71 60 72 57 73 59 74 58 75 45 76 46 77
REMARK SMILES IDX 50 78 47 79 49 80 48 81
REMARK H PARENT 16 7 21 30 65 49 43 60
REMARK Flexibility Score: inf
ROOT
ATOM      1  C   UNL A   1      37.393  21.451  24.668  1.00  0.00     0.023 C 
ENDROOT
BRANCH   1   2
ATOM      2  C   UNL A   1      35.976  21.495  25.241  1.00  0.00     0.023 C 
BRANCH   2   3
ATOM      3  C   UNL A   1      35.668  22.741  26.073  1.00  0.00     0.116 C 
BRANCH   3   4
ATOM      4  N   UNL A   1      34.690  22.460  27.106  1.00  0.00    -0.352 N 
ATOM      5  C   UNL A   1      33.399  22.798  27.330  1.00  0.00     0.251 C 
ATOM      6  O   UNL A   1      32.869  22.256  28.305  1.00  0.00    -0.270 OA
ATOM      7  H   UNL A   1      35.053  21.882  27.816  1.00  0.00     0.163 HD
BRANCH   5   8
ATOM      8  C   UNL A   1      32.611  23.753  26.499  1.00  0.00     0.067 C 
ATOM      9  C   UNL A   1      30.853  27.962  24.241  1.00  0.00    -0.020 A 
ATOM     10  C   UNL A   1      30.466  26.603  24.308  1.00  0.00     0.053 A 
ATOM     11  C   UNL A   1      31.961  28.326  25.043  1.00  0.00     0.045 A 
ATOM     12  C   UNL A   1      31.155  25.666  25.080  1.00  0.00     0.128 A 
ATOM     13  C   UNL A   1      32.649  27.376  25.825  1.00  0.00     0.032 A 
ATOM     14  Cl  UNL A   1      32.554  29.942  25.210  1.00  0.00    -0.084 Cl
ATOM     15  C   UNL A   1      32.247  26.044  25.846  1.00  0.00     0.019 A 
ATOM     16  O   UNL A   1      30.672  24.386  25.070  1.00  0.00    -0.475 OA
ATOM     17  C   UNL A   1      32.909  25.053  26.683  1.00  0.00     0.025 C 
ATOM     18  C   UNL A   1      31.635  23.353  25.423  1.00  0.00     0.314 C 
BRANCH   9  19
ATOM     19  C   UNL A   1      30.026  28.939  23.367  1.00  0.00    -0.012 C 
ATOM     20  C   UNL A   1      30.728  29.303  22.028  1.00  0.00     0.016 C 
ATOM     21  C   UNL A   1      29.756  30.300  24.052  1.00  0.00     0.016 C 
ATOM     22  C   UNL A   1      28.690  28.261  23.001  1.00  0.00     0.016 C 
ENDBRANCH   9  19
BRANCH  18  23
ATOM     23  C   UNL A   1      32.305  22.802  24.153  1.00  0.00     0.429 C 
ATOM     24  F   UNL A   1      32.729  21.527  24.290  1.00  0.00    -0.167 F 
ATOM     25  F   UNL A   1      31.485  22.834  23.079  1.00  0.00    -0.167 F 
ATOM     26  F   UNL A   1      33.390  23.556  23.838  1.00  0.00    -0.167 F 
ENDBRANCH  18  23
ENDBRANCH   5   8
ENDBRANCH   3   4
ENDBRANCH   2   3
ENDBRANCH   1   2
BRANCH   1  27
ATOM     27  C   UNL A   1      38.501  21.359  25.708  1.00  0.00     0.116 C 
BRANCH  27  28
ATOM     28  N   UNL A   1      39.294  20.140  25.623  1.00  0.00    -0.352 N 
ATOM     29  C   UNL A   1      40.605  19.965  26.003  1.00  0.00     0.251 C 
ATOM     30  H   UNL A   1      38.840  19.350  25.250  1.00  0.00     0.163 HD
ATOM     31  O   UNL A   1      41.185  18.900  25.822  1.00  0.00    -0.269 OA
BRANCH  29  32
ATOM     32  C   UNL A   1      41.314  21.120  26.583  1.00  0.00     0.039 A 
ATOM     33  C   UNL A   1      41.244  21.356  27.957  1.00  0.00     0.014 A 
ATOM     34  C   UNL A   1      41.925  22.037  25.727  1.00  0.00     0.014 A 
ATOM     35  C   UNL A   1      41.628  22.593  28.451  1.00  0.00     0.010 A 
ATOM     36  C   UNL A   1      42.386  23.249  26.241  1.00  0.00     0.010 A 
ATOM     37  C   UNL A   1      42.191  23.557  27.597  1.00  0.00    -0.014 A 
BRANCH  37  38
ATOM     38  C   UNL A   1      42.556  24.886  28.142  1.00  0.00     0.031 A 
ATOM     39  C   UNL A   1      41.510  25.947  28.351  1.00  0.00     0.074 A 
ATOM     40  C   UNL A   1      43.831  25.110  28.510  1.00  0.00     0.049 A 
ATOM     41  N   UNL A   1      41.658  27.165  28.809  1.00  0.00    -0.248 NA
ATOM     42  C   UNL A   1      40.121  25.602  28.005  1.00  0.00     0.031 C 
ATOM     43  C   UNL A   1      44.923  24.141  28.393  1.00  0.00     0.029 A 
ATOM     44  N   UNL A   1      44.417  26.206  29.087  1.00  0.00    -0.354 N 
ATOM     45  C   UNL A   1      40.392  27.737  28.781  1.00  0.00     0.074 A 
ATOM     46  C   UNL A   1      39.487  26.741  28.251  1.00  0.00     0.031 C 
ATOM     47  C   UNL A   1      46.030  24.661  28.942  1.00  0.00     0.029 A 
ATOM     48  C   UNL A   1      45.746  26.024  29.377  1.00  0.00     0.049 A 
ATOM     49  H   UNL A   1      43.934  27.042  29.274  1.00  0.00     0.167 HD
ATOM     50  C   UNL A   1      40.022  28.981  29.168  1.00  0.00     0.031 A 
ATOM     51  C   UNL A   1      46.648  26.865  29.916  1.00  0.00     0.031 A 
ATOM     52  C   UNL A   1      40.922  29.962  29.712  1.00  0.00     0.049 A 
ATOM     53  C   UNL A   1      46.224  28.255  30.281  1.00  0.00     0.074 A 
ATOM     54  C   UNL A   1      40.635  31.246  30.141  1.00  0.00     0.029 A 
ATOM     55  N   UNL A   1      42.279  29.766  29.907  1.00  0.00    -0.354 N 
ATOM     56  N   UNL A   1      45.030  28.792  30.216  1.00  0.00    -0.248 NA
ATOM     57  C   UNL A   1      47.272  29.161  30.770  1.00  0.00     0.031 C 
ATOM     58  C   UNL A   1      41.829  31.844  30.554  1.00  0.00     0.029 A 
ATOM     59  C   UNL A   1      42.849  30.914  30.428  1.00  0.00     0.049 A 
ATOM     60  H   UNL A   1      42.766  28.935  29.705  1.00  0.00     0.167 HD
ATOM     61  C   UNL A   1      45.181  30.099  30.654  1.00  0.00     0.074 A 
ATOM     62  C   UNL A   1      46.577  30.269  31.002  1.00  0.00     0.031 C 
ATOM     63  C   UNL A   1      44.243  31.072  30.752  1.00  0.00     0.031 A 
BRANCH  50  64
ATOM     64  C   UNL A   1      38.581  29.372  28.998  1.00  0.00    -0.014 A 
ATOM     65  C   UNL A   1      37.696  29.244  30.081  1.00  0.00     0.009 A 
ATOM     66  C   UNL A   1      38.078  29.780  27.754  1.00  0.00     0.009 A 
ATOM     67  C   UNL A   1      36.334  29.509  29.920  1.00  0.00     0.001 A 
ATOM     68  C   UNL A   1      36.719  30.065  27.601  1.00  0.00     0.001 A 
ATOM     69  C   UNL A   1      35.847  29.922  28.681  1.00  0.00     0.000 A 
ENDBRANCH  50  64
BRANCH  51  70
ATOM     70  C   UNL A   1      48.042  26.395  30.119  1.00  0.00    -0.014 A 
ATOM     71  C   UNL A   1      48.974  26.460  29.072  1.00  0.00     0.009 A 
ATOM     72  C   UNL A   1      48.423  25.811  31.335  1.00  0.00     0.009 A 
ATOM     73  C   UNL A   1      50.251  25.919  29.225  1.00  0.00     0.001 A 
ATOM     74  C   UNL A   1      49.710  25.294  31.494  1.00  0.00     0.001 A 
ATOM     75  C   UNL A   1      50.618  25.338  30.436  1.00  0.00     0.000 A 
ENDBRANCH  51  70
BRANCH  63  76
ATOM     76  C   UNL A   1      44.689  32.414  31.248  1.00  0.00    -0.014 A 
ATOM     77  C   UNL A   1      44.699  32.683  32.626  1.00  0.00     0.009 A 
ATOM     78  C   UNL A   1      45.014  33.439  30.348  1.00  0.00     0.009 A 
ATOM     79  C   UNL A   1      45.016  33.959  33.093  1.00  0.00     0.001 A 
ATOM     80  C   UNL A   1      45.351  34.709  30.820  1.00  0.00     0.001 A 
ATOM     81  C   UNL A   1      45.343  34.970  32.190  1.00  0.00     0.000 A 
ENDBRANCH  63  76
ENDBRANCH  37  38
ENDBRANCH  29  32
ENDBRANCH  27  28
ENDBRANCH   1  27
TORSDOF 13
ENDMDL
