MODEL 1
REMARK VINA RESULT:     -11.2      0.000      0.000
REMARK SMILES Nc1cc(F)c(OCc2ccc(C(=O)NCCCCNC(=O)c3ccc(-c4c5nc(c(-c6ccccc6)c6ccc([nH]6)c(-c6ccccc6)c6nc(c(-c7ccccc7)c7ccc4[nH]7)C=C6)C=C5)cc3)cc2)cc1F
REMARK SMILES IDX 16 1 15 2 13 3 14 4 12 6 9 7 10 8 72 9 11 10 71 11 8 12 7 13
REMARK SMILES IDX 6 14 2 15 3 16 74 17 4 18 73 19 75 20 5 21 1 22 17 25 18 26
REMARK SMILES IDX 19 27 20 28 21 29 22 31 23 32 24 33 70 34 25 35 69 36 26 37
REMARK SMILES IDX 27 38 28 39 63 40 29 41 68 42 62 43 64 44 30 45 67 46 61 47
REMARK SMILES IDX 60 48 31 50 53 51 38 52 52 53 39 54 42 55 51 56 65 57 40 58
REMARK SMILES IDX 41 59 50 61 66 62 43 63 32 64 33 65 37 66 34 67 36 68 35 69
REMARK SMILES IDX 54 70 55 71 59 72 56 73 58 74 57 75 44 76 45 77 49 78 46 79
REMARK SMILES IDX 48 80 47 81
REMARK H PARENT 15 5 1 23 1 24 20 30 64 49 42 60
REMARK Flexibility Score: inf
ROOT
ATOM      1  C   UNL A   1      34.857  21.621  26.471  1.00  0.00     0.116 C 
ENDROOT
BRANCH   1   2
ATOM      2  N   UNL A   1      34.047  20.447  26.203  1.00  0.00    -0.352 N 
ATOM      3  C   UNL A   1      32.910  20.305  25.442  1.00  0.00     0.251 C 
ATOM      4  O   UNL A   1      32.423  19.183  25.316  1.00  0.00    -0.269 OA
ATOM      5  H   UNL A   1      34.362  19.620  26.635  1.00  0.00     0.163 HD
BRANCH   3   6
ATOM      6  C   UNL A   1      32.211  21.478  24.856  1.00  0.00     0.039 A 
ATOM      7  C   UNL A   1      31.143  23.941  24.026  1.00  0.00    -0.011 A 
ATOM      8  C   UNL A   1      30.805  23.404  25.274  1.00  0.00     0.008 A 
ATOM      9  C   UNL A   1      31.904  23.162  23.144  1.00  0.00     0.008 A 
ATOM     10  C   UNL A   1      31.354  22.193  25.697  1.00  0.00     0.014 A 
ATOM     11  C   UNL A   1      32.395  21.916  23.543  1.00  0.00     0.014 A 
BRANCH   7  12
ATOM     12  C   UNL A   1      30.769  25.360  23.661  1.00  0.00     0.265 C 
BRANCH  12  13
ATOM     13  O   UNL A   1      31.925  26.203  23.554  1.00  0.00    -0.486 OA
BRANCH  13  14
ATOM     14  C   UNL A   1      32.108  27.219  24.453  1.00  0.00     0.158 A 
ATOM     15  C   UNL A   1      32.608  29.142  26.480  1.00  0.00     0.071 A 
ATOM     16  C   UNL A   1      33.217  27.890  26.530  1.00  0.00     0.071 A 
ATOM     17  C   UNL A   1      31.748  29.406  25.408  1.00  0.00     0.149 A 
ATOM     18  C   UNL A   1      32.969  26.948  25.526  1.00  0.00     0.167 A 
ATOM     19  C   UNL A   1      31.522  28.479  24.390  1.00  0.00     0.091 A 
ATOM     20  F   UNL A   1      31.121  30.592  25.341  1.00  0.00    -0.205 F 
ATOM     21  F   UNL A   1      33.573  25.753  25.616  1.00  0.00    -0.203 F 
BRANCH  15  22
ATOM     22  N   UNL A   1      32.767  30.057  27.512  1.00  0.00    -0.396 N 
ATOM     23  H   UNL A   1      32.830  29.743  28.443  1.00  0.00     0.156 HD
ATOM     24  H   UNL A   1      32.819  31.019  27.312  1.00  0.00     0.156 HD
ENDBRANCH  15  22
ENDBRANCH  13  14
ENDBRANCH  12  13
ENDBRANCH   7  12
ENDBRANCH   3   6
ENDBRANCH   1   2
BRANCH   1  25
ATOM     25  C   UNL A   1      35.838  21.995  25.365  1.00  0.00     0.023 C 
BRANCH  25  26
ATOM     26  C   UNL A   1      36.896  20.959  25.006  1.00  0.00     0.023 C 
BRANCH  26  27
ATOM     27  C   UNL A   1      38.290  21.198  25.569  1.00  0.00     0.116 C 
BRANCH  27  28
ATOM     28  N   UNL A   1      39.159  20.031  25.520  1.00  0.00    -0.352 N 
ATOM     29  C   UNL A   1      40.464  19.875  25.937  1.00  0.00     0.251 C 
ATOM     30  H   UNL A   1      38.750  19.226  25.128  1.00  0.00     0.163 HD
ATOM     31  O   UNL A   1      41.049  18.816  25.749  1.00  0.00    -0.269 OA
BRANCH  29  32
ATOM     32  C   UNL A   1      41.179  21.014  26.552  1.00  0.00     0.039 A 
ATOM     33  C   UNL A   1      41.175  21.204  27.934  1.00  0.00     0.014 A 
ATOM     34  C   UNL A   1      41.805  21.945  25.718  1.00  0.00     0.014 A 
ATOM     35  C   UNL A   1      41.588  22.423  28.458  1.00  0.00     0.010 A 
ATOM     36  C   UNL A   1      42.312  23.129  26.260  1.00  0.00     0.010 A 
ATOM     37  C   UNL A   1      42.139  23.410  27.623  1.00  0.00    -0.014 A 
BRANCH  37  38
ATOM     38  C   UNL A   1      42.483  24.743  28.184  1.00  0.00     0.031 A 
ATOM     39  C   UNL A   1      43.914  25.092  28.504  1.00  0.00     0.074 A 
ATOM     40  C   UNL A   1      41.516  25.665  28.348  1.00  0.00     0.049 A 
ATOM     41  N   UNL A   1      44.397  26.198  29.015  1.00  0.00    -0.248 NA
ATOM     42  C   UNL A   1      44.938  24.074  28.214  1.00  0.00     0.031 C 
ATOM     43  C   UNL A   1      40.100  25.467  28.035  1.00  0.00     0.029 A 
ATOM     44  N   UNL A   1      41.582  26.963  28.790  1.00  0.00    -0.354 N 
ATOM     45  C   UNL A   1      45.768  25.997  29.131  1.00  0.00     0.074 A 
ATOM     46  C   UNL A   1      46.042  24.659  28.658  1.00  0.00     0.031 C 
ATOM     47  C   UNL A   1      39.442  26.617  28.240  1.00  0.00     0.029 A 
ATOM     48  C   UNL A   1      40.371  27.610  28.768  1.00  0.00     0.049 A 
ATOM     49  H   UNL A   1      42.416  27.388  29.094  1.00  0.00     0.167 HD
ATOM     50  C   UNL A   1      46.712  26.854  29.584  1.00  0.00     0.031 A 
ATOM     51  C   UNL A   1      40.035  28.857  29.149  1.00  0.00     0.031 A 
ATOM     52  C   UNL A   1      46.445  28.195  30.032  1.00  0.00     0.049 A 
ATOM     53  C   UNL A   1      41.090  29.767  29.704  1.00  0.00     0.074 A 
ATOM     54  C   UNL A   1      47.344  29.141  30.493  1.00  0.00     0.029 A 
ATOM     55  N   UNL A   1      45.190  28.782  30.065  1.00  0.00    -0.354 N 
ATOM     56  N   UNL A   1      42.376  29.551  29.831  1.00  0.00    -0.248 NA
ATOM     57  C   UNL A   1      40.649  31.085  30.184  1.00  0.00     0.031 C 
ATOM     58  C   UNL A   1      46.627  30.284  30.853  1.00  0.00     0.029 A 
ATOM     59  C   UNL A   1      45.289  30.068  30.564  1.00  0.00     0.049 A 
ATOM     60  H   UNL A   1      44.354  28.348  29.778  1.00  0.00     0.167 HD
ATOM     61  C   UNL A   1      42.901  30.706  30.397  1.00  0.00     0.074 A 
ATOM     62  C   UNL A   1      41.797  31.627  30.572  1.00  0.00     0.031 C 
ATOM     63  C   UNL A   1      44.183  30.973  30.741  1.00  0.00     0.031 A 
BRANCH  50  64
ATOM     64  C   UNL A   1      48.136  26.373  29.641  1.00  0.00    -0.014 A 
ATOM     65  C   UNL A   1      48.618  25.770  30.815  1.00  0.00     0.009 A 
ATOM     66  C   UNL A   1      49.024  26.600  28.580  1.00  0.00     0.009 A 
ATOM     67  C   UNL A   1      49.962  25.412  30.927  1.00  0.00     0.001 A 
ATOM     68  C   UNL A   1      50.363  26.219  28.686  1.00  0.00     0.001 A 
ATOM     69  C   UNL A   1      50.834  25.634  29.863  1.00  0.00     0.000 A 
ENDBRANCH  50  64
BRANCH  51  70
ATOM     70  C   UNL A   1      38.622  29.298  29.022  1.00  0.00    -0.014 A 
ATOM     71  C   UNL A   1      37.739  29.179  30.108  1.00  0.00     0.009 A 
ATOM     72  C   UNL A   1      38.133  29.780  27.800  1.00  0.00     0.009 A 
ATOM     73  C   UNL A   1      36.389  29.503  29.963  1.00  0.00     0.001 A 
ATOM     74  C   UNL A   1      36.788  30.130  27.666  1.00  0.00     0.001 A 
ATOM     75  C   UNL A   1      35.916  29.981  28.743  1.00  0.00     0.000 A 
ENDBRANCH  51  70
BRANCH  63  76
ATOM     76  C   UNL A   1      44.481  32.316  31.341  1.00  0.00    -0.014 A 
ATOM     77  C   UNL A   1      44.849  33.385  30.507  1.00  0.00     0.009 A 
ATOM     78  C   UNL A   1      44.504  32.492  32.731  1.00  0.00     0.009 A 
ATOM     79  C   UNL A   1      45.250  34.603  31.058  1.00  0.00     0.001 A 
ATOM     80  C   UNL A   1      44.885  33.720  33.278  1.00  0.00     0.001 A 
ATOM     81  C   UNL A   1      45.265  34.769  32.442  1.00  0.00     0.000 A 
ENDBRANCH  63  76
ENDBRANCH  37  38
ENDBRANCH  29  32
ENDBRANCH  27  28
ENDBRANCH  26  27
ENDBRANCH  25  26
ENDBRANCH   1  25
TORSDOF 15
ENDMDL
MODEL 2
REMARK VINA RESULT:     -11.1      0.692      6.015
REMARK SMILES Nc1cc(F)c(OCc2ccc(C(=O)NCCCCNC(=O)c3ccc(-c4c5nc(c(-c6ccccc6)c6ccc([nH]6)c(-c6ccccc6)c6nc(c(-c7ccccc7)c7ccc4[nH]7)C=C6)C=C5)cc3)cc2)cc1F
REMARK SMILES IDX 16 1 15 2 13 3 14 4 12 6 9 7 10 8 72 9 11 10 71 11 8 12 7 13
REMARK SMILES IDX 6 14 2 15 3 16 74 17 4 18 73 19 75 20 5 21 1 22 17 25 18 26
REMARK SMILES IDX 19 27 20 28 21 29 22 31 23 32 24 33 70 34 25 35 69 36 26 37
REMARK SMILES IDX 27 38 28 39 63 40 29 41 68 42 62 43 64 44 30 45 67 46 61 47
REMARK SMILES IDX 60 48 31 50 53 51 38 52 52 53 39 54 42 55 51 56 65 57 40 58
REMARK SMILES IDX 41 59 50 61 66 62 43 63 32 64 33 65 37 66 34 67 36 68 35 69
REMARK SMILES IDX 54 70 55 71 59 72 56 73 58 74 57 75 44 76 45 77 49 78 46 79
REMARK SMILES IDX 48 80 47 81
REMARK H PARENT 15 5 1 23 1 24 20 30 64 49 42 60
REMARK Flexibility Score: inf
ROOT
ATOM      1  C   UNL A   1      35.293  21.507  25.876  1.00  0.00     0.116 C 
ENDROOT
BRANCH   1   2
ATOM      2  N   UNL A   1      34.443  20.332  25.913  1.00  0.00    -0.352 N 
ATOM      3  C   UNL A   1      33.178  20.133  25.410  1.00  0.00     0.251 C 
ATOM      4  O   UNL A   1      32.672  19.016  25.516  1.00  0.00    -0.269 OA
ATOM      5  H   UNL A   1      34.833  19.553  26.373  1.00  0.00     0.163 HD
BRANCH   3   6
ATOM      6  C   UNL A   1      32.382  21.247  24.835  1.00  0.00     0.039 A 
ATOM      7  C   UNL A   1      31.158  23.624  23.969  1.00  0.00    -0.011 A 
ATOM      8  C   UNL A   1      30.998  23.181  25.288  1.00  0.00     0.008 A 
ATOM      9  C   UNL A   1      31.817  22.789  23.056  1.00  0.00     0.008 A 
ATOM     10  C   UNL A   1      31.624  22.014  25.724  1.00  0.00     0.014 A 
ATOM     11  C   UNL A   1      32.384  21.584  23.479  1.00  0.00     0.014 A 
BRANCH   7  12
ATOM     12  C   UNL A   1      30.707  25.006  23.551  1.00  0.00     0.265 C 
BRANCH  12  13
ATOM     13  O   UNL A   1      30.304  25.796  24.680  1.00  0.00    -0.486 OA
BRANCH  13  14
ATOM     14  C   UNL A   1      31.075  26.855  25.075  1.00  0.00     0.158 A 
ATOM     15  C   UNL A   1      32.572  29.189  25.680  1.00  0.00     0.071 A 
ATOM     16  C   UNL A   1      31.542  29.235  24.744  1.00  0.00     0.071 A 
ATOM     17  C   UNL A   1      32.839  27.960  26.295  1.00  0.00     0.149 A 
ATOM     18  C   UNL A   1      30.805  28.082  24.453  1.00  0.00     0.167 A 
ATOM     19  C   UNL A   1      32.087  26.816  26.029  1.00  0.00     0.091 A 
ATOM     20  F   UNL A   1      33.844  27.871  27.182  1.00  0.00    -0.205 F 
ATOM     21  F   UNL A   1      29.823  28.172  23.542  1.00  0.00    -0.203 F 
BRANCH  15  22
ATOM     22  N   UNL A   1      33.374  30.297  25.917  1.00  0.00    -0.396 N 
ATOM     23  H   UNL A   1      33.087  31.187  25.609  1.00  0.00     0.156 HD
ATOM     24  H   UNL A   1      34.230  30.192  26.392  1.00  0.00     0.156 HD
ENDBRANCH  15  22
ENDBRANCH  13  14
ENDBRANCH  12  13
ENDBRANCH   7  12
ENDBRANCH   3   6
ENDBRANCH   1   2
BRANCH   1  25
ATOM     25  C   UNL A   1      35.921  21.808  24.520  1.00  0.00     0.023 C 
BRANCH  25  26
ATOM     26  C   UNL A   1      37.420  21.568  24.388  1.00  0.00     0.023 C 
BRANCH  26  27
ATOM     27  C   UNL A   1      38.164  21.240  25.675  1.00  0.00     0.116 C 
BRANCH  27  28
ATOM     28  N   UNL A   1      39.033  20.075  25.578  1.00  0.00    -0.352 N 
ATOM     29  C   UNL A   1      40.354  19.918  25.937  1.00  0.00     0.251 C 
ATOM     30  H   UNL A   1      38.608  19.272  25.196  1.00  0.00     0.163 HD
ATOM     31  O   UNL A   1      40.932  18.862  25.715  1.00  0.00    -0.269 OA
BRANCH  29  32
ATOM     32  C   UNL A   1      41.093  21.053  26.531  1.00  0.00     0.039 A 
ATOM     33  C   UNL A   1      41.079  21.279  27.908  1.00  0.00     0.014 A 
ATOM     34  C   UNL A   1      41.754  21.944  25.681  1.00  0.00     0.014 A 
ATOM     35  C   UNL A   1      41.519  22.500  28.405  1.00  0.00     0.010 A 
ATOM     36  C   UNL A   1      42.286  23.128  26.198  1.00  0.00     0.010 A 
ATOM     37  C   UNL A   1      42.106  23.449  27.552  1.00  0.00    -0.014 A 
BRANCH  37  38
ATOM     38  C   UNL A   1      42.479  24.787  28.081  1.00  0.00     0.031 A 
ATOM     39  C   UNL A   1      41.427  25.844  28.300  1.00  0.00     0.074 A 
ATOM     40  C   UNL A   1      43.758  25.033  28.425  1.00  0.00     0.049 A 
ATOM     41  N   UNL A   1      41.570  27.071  28.736  1.00  0.00    -0.248 NA
ATOM     42  C   UNL A   1      40.032  25.481  27.992  1.00  0.00     0.031 C 
ATOM     43  C   UNL A   1      44.862  24.081  28.304  1.00  0.00     0.029 A 
ATOM     44  N   UNL A   1      44.337  26.150  28.976  1.00  0.00    -0.354 N 
ATOM     45  C   UNL A   1      40.298  27.629  28.729  1.00  0.00     0.074 A 
ATOM     46  C   UNL A   1      39.394  26.619  28.227  1.00  0.00     0.031 C 
ATOM     47  C   UNL A   1      45.972  24.631  28.818  1.00  0.00     0.029 A 
ATOM     48  C   UNL A   1      45.677  25.997  29.236  1.00  0.00     0.049 A 
ATOM     49  H   UNL A   1      43.841  26.978  29.164  1.00  0.00     0.167 HD
ATOM     50  C   UNL A   1      39.917  28.871  29.113  1.00  0.00     0.031 A 
ATOM     51  C   UNL A   1      46.579  26.864  29.735  1.00  0.00     0.031 A 
ATOM     52  C   UNL A   1      40.810  29.869  29.637  1.00  0.00     0.049 A 
ATOM     53  C   UNL A   1      46.143  28.253  30.096  1.00  0.00     0.074 A 
ATOM     54  C   UNL A   1      40.509  31.150  30.067  1.00  0.00     0.029 A 
ATOM     55  N   UNL A   1      42.175  29.697  29.809  1.00  0.00    -0.354 N 
ATOM     56  N   UNL A   1      44.940  28.772  30.058  1.00  0.00    -0.248 NA
ATOM     57  C   UNL A   1      47.187  29.181  30.554  1.00  0.00     0.031 C 
ATOM     58  C   UNL A   1      41.699  31.770  30.453  1.00  0.00     0.029 A 
ATOM     59  C   UNL A   1      42.732  30.857  30.315  1.00  0.00     0.049 A 
ATOM     60  H   UNL A   1      42.672  28.873  29.602  1.00  0.00     0.167 HD
ATOM     61  C   UNL A   1      45.079  30.083  30.493  1.00  0.00     0.074 A 
ATOM     62  C   UNL A   1      46.480  30.276  30.807  1.00  0.00     0.031 C 
ATOM     63  C   UNL A   1      44.128  31.039  30.616  1.00  0.00     0.031 A 
BRANCH  50  64
ATOM     64  C   UNL A   1      38.467  29.242  28.971  1.00  0.00    -0.014 A 
ATOM     65  C   UNL A   1      37.987  29.702  27.734  1.00  0.00     0.009 A 
ATOM     66  C   UNL A   1      37.600  29.229  30.074  1.00  0.00     0.009 A 
ATOM     67  C   UNL A   1      36.672  30.152  27.607  1.00  0.00     0.001 A 
ATOM     68  C   UNL A   1      36.278  29.657  29.938  1.00  0.00     0.001 A 
ATOM     69  C   UNL A   1      35.817  30.126  28.707  1.00  0.00     0.000 A 
ENDBRANCH  50  64
BRANCH  51  70
ATOM     70  C   UNL A   1      47.989  26.427  29.903  1.00  0.00    -0.014 A 
ATOM     71  C   UNL A   1      48.918  26.608  28.865  1.00  0.00     0.009 A 
ATOM     72  C   UNL A   1      48.396  25.772  31.073  1.00  0.00     0.009 A 
ATOM     73  C   UNL A   1      50.218  26.113  28.983  1.00  0.00     0.001 A 
ATOM     74  C   UNL A   1      49.706  25.304  31.200  1.00  0.00     0.001 A 
ATOM     75  C   UNL A   1      50.611  25.464  30.152  1.00  0.00     0.000 A 
ENDBRANCH  51  70
BRANCH  63  76
ATOM     76  C   UNL A   1      44.554  32.389  31.117  1.00  0.00    -0.014 A 
ATOM     77  C   UNL A   1      44.990  33.364  30.206  1.00  0.00     0.009 A 
ATOM     78  C   UNL A   1      44.627  32.654  32.492  1.00  0.00     0.009 A 
ATOM     79  C   UNL A   1      45.506  34.577  30.664  1.00  0.00     0.001 A 
ATOM     80  C   UNL A   1      45.123  33.878  32.946  1.00  0.00     0.001 A 
ATOM     81  C   UNL A   1      45.570  34.833  32.032  1.00  0.00     0.000 A 
ENDBRANCH  63  76
ENDBRANCH  37  38
ENDBRANCH  29  32
ENDBRANCH  27  28
ENDBRANCH  26  27
ENDBRANCH  25  26
ENDBRANCH   1  25
TORSDOF 15
ENDMDL
MODEL 3
REMARK VINA RESULT:     -11.1      2.031      7.455
REMARK SMILES Nc1cc(F)c(OCc2ccc(C(=O)NCCCCNC(=O)c3ccc(-c4c5nc(c(-c6ccccc6)c6ccc([nH]6)c(-c6ccccc6)c6nc(c(-c7ccccc7)c7ccc4[nH]7)C=C6)C=C5)cc3)cc2)cc1F
REMARK SMILES IDX 16 1 15 2 13 3 14 4 12 6 9 7 10 8 72 9 11 10 71 11 8 12 7 13
REMARK SMILES IDX 6 14 2 15 3 16 74 17 4 18 73 19 75 20 5 21 1 22 17 25 18 26
REMARK SMILES IDX 19 27 20 28 21 29 22 31 23 32 24 33 70 34 25 35 69 36 26 37
REMARK SMILES IDX 27 38 28 39 63 40 29 41 68 42 62 43 64 44 30 45 67 46 61 47
REMARK SMILES IDX 60 48 31 50 53 51 38 52 52 53 39 54 42 55 51 56 65 57 40 58
REMARK SMILES IDX 41 59 50 61 66 62 43 63 32 64 33 65 37 66 34 67 36 68 35 69
REMARK SMILES IDX 54 70 55 71 59 72 56 73 58 74 57 75 44 76 45 77 49 78 46 79
REMARK SMILES IDX 48 80 47 81
REMARK H PARENT 15 5 1 23 1 24 20 30 64 49 42 60
REMARK Flexibility Score: inf
ROOT
ATOM      1  C   UNL A   1      31.345  29.820  24.980  1.00  0.00     0.116 C 
ENDROOT
BRANCH   1   2
ATOM      2  N   UNL A   1      30.687  29.768  23.687  1.00  0.00    -0.352 N 
ATOM      3  C   UNL A   1      30.247  28.689  22.956  1.00  0.00     0.251 C 
ATOM      4  O   UNL A   1      29.660  28.898  21.895  1.00  0.00    -0.269 OA
ATOM      5  H   UNL A   1      30.532  30.645  23.266  1.00  0.00     0.163 HD
BRANCH   3   6
ATOM      6  C   UNL A   1      30.547  27.293  23.365  1.00  0.00     0.039 A 
ATOM      7  C   UNL A   1      31.515  24.813  24.262  1.00  0.00    -0.011 A 
ATOM      8  C   UNL A   1      31.981  25.366  23.063  1.00  0.00     0.008 A 
ATOM      9  C   UNL A   1      30.457  25.446  24.928  1.00  0.00     0.008 A 
ATOM     10  C   UNL A   1      31.518  26.609  22.630  1.00  0.00     0.014 A 
ATOM     11  C   UNL A   1      29.945  26.657  24.453  1.00  0.00     0.014 A 
BRANCH   7  12
ATOM     12  C   UNL A   1      32.188  23.604  24.875  1.00  0.00     0.265 C 
BRANCH  12  13
ATOM     13  O   UNL A   1      33.239  23.101  24.038  1.00  0.00    -0.486 OA
BRANCH  13  14
ATOM     14  C   UNL A   1      34.493  22.927  24.557  1.00  0.00     0.158 A 
ATOM     15  C   UNL A   1      37.037  22.301  25.650  1.00  0.00     0.071 A 
ATOM     16  C   UNL A   1      36.195  21.288  25.196  1.00  0.00     0.071 A 
ATOM     17  C   UNL A   1      36.579  23.621  25.551  1.00  0.00     0.149 A 
ATOM     18  C   UNL A   1      34.944  21.604  24.655  1.00  0.00     0.167 A 
ATOM     19  C   UNL A   1      35.345  23.940  24.985  1.00  0.00     0.091 A 
ATOM     20  F   UNL A   1      37.352  24.622  26.004  1.00  0.00    -0.205 F 
ATOM     21  F   UNL A   1      34.164  20.596  24.234  1.00  0.00    -0.203 F 
BRANCH  15  22
ATOM     22  N   UNL A   1      38.241  22.006  26.273  1.00  0.00    -0.396 N 
ATOM     23  H   UNL A   1      38.336  22.131  27.245  1.00  0.00     0.156 HD
ATOM     24  H   UNL A   1      39.000  21.672  25.743  1.00  0.00     0.156 HD
ENDBRANCH  15  22
ENDBRANCH  13  14
ENDBRANCH  12  13
ENDBRANCH   7  12
ENDBRANCH   3   6
ENDBRANCH   1   2
BRANCH   1  25
ATOM     25  C   UNL A   1      32.838  29.514  24.958  1.00  0.00     0.023 C 
BRANCH  25  26
ATOM     26  C   UNL A   1      33.354  28.531  26.002  1.00  0.00     0.023 C 
BRANCH  26  27
ATOM     27  C   UNL A   1      33.144  28.925  27.457  1.00  0.00     0.116 C 
BRANCH  27  28
ATOM     28  N   UNL A   1      33.378  30.336  27.731  1.00  0.00    -0.352 N 
ATOM     29  C   UNL A   1      34.522  30.984  28.144  1.00  0.00     0.251 C 
ATOM     30  H   UNL A   1      32.595  30.918  27.601  1.00  0.00     0.163 HD
ATOM     31  O   UNL A   1      34.498  32.184  28.383  1.00  0.00    -0.269 OA
BRANCH  29  32
ATOM     32  C   UNL A   1      35.765  30.212  28.363  1.00  0.00     0.039 A 
ATOM     33  C   UNL A   1      36.041  29.628  29.599  1.00  0.00     0.014 A 
ATOM     34  C   UNL A   1      36.699  30.135  27.326  1.00  0.00     0.014 A 
ATOM     35  C   UNL A   1      37.327  29.176  29.869  1.00  0.00     0.010 A 
ATOM     36  C   UNL A   1      37.961  29.588  27.571  1.00  0.00     0.010 A 
ATOM     37  C   UNL A   1      38.310  29.173  28.865  1.00  0.00    -0.014 A 
BRANCH  37  38
ATOM     38  C   UNL A   1      39.704  28.780  29.198  1.00  0.00     0.031 A 
ATOM     39  C   UNL A   1      40.252  27.450  28.746  1.00  0.00     0.074 A 
ATOM     40  C   UNL A   1      40.500  29.644  29.855  1.00  0.00     0.049 A 
ATOM     41  N   UNL A   1      41.437  26.932  28.960  1.00  0.00    -0.248 NA
ATOM     42  C   UNL A   1      39.361  26.588  27.951  1.00  0.00     0.031 C 
ATOM     43  C   UNL A   1      40.104  30.978  30.308  1.00  0.00     0.029 A 
ATOM     44  N   UNL A   1      41.818  29.542  30.227  1.00  0.00    -0.354 N 
ATOM     45  C   UNL A   1      41.421  25.682  28.353  1.00  0.00     0.074 A 
ATOM     46  C   UNL A   1      40.107  25.506  27.778  1.00  0.00     0.031 C 
ATOM     47  C   UNL A   1      41.168  31.592  30.845  1.00  0.00     0.029 A 
ATOM     48  C   UNL A   1      42.300  30.671  30.843  1.00  0.00     0.049 A 
ATOM     49  H   UNL A   1      42.363  28.738  30.069  1.00  0.00     0.167 HD
ATOM     50  C   UNL A   1      42.417  24.768  28.275  1.00  0.00     0.031 A 
ATOM     51  C   UNL A   1      43.512  30.935  31.368  1.00  0.00     0.031 A 
ATOM     52  C   UNL A   1      43.734  24.952  28.824  1.00  0.00     0.049 A 
ATOM     53  C   UNL A   1      44.579  29.881  31.323  1.00  0.00     0.074 A 
ATOM     54  C   UNL A   1      44.811  24.084  28.779  1.00  0.00     0.029 A 
ATOM     55  N   UNL A   1      44.154  26.081  29.509  1.00  0.00    -0.354 N 
ATOM     56  N   UNL A   1      44.538  28.695  30.768  1.00  0.00    -0.248 NA
ATOM     57  C   UNL A   1      45.852  30.194  31.989  1.00  0.00     0.031 C 
ATOM     58  C   UNL A   1      45.869  24.668  29.481  1.00  0.00     0.029 A 
ATOM     59  C   UNL A   1      45.467  25.921  29.913  1.00  0.00     0.049 A 
ATOM     60  H   UNL A   1      43.601  26.877  29.682  1.00  0.00     0.167 HD
ATOM     61  C   UNL A   1      45.780  28.121  31.008  1.00  0.00     0.074 A 
ATOM     62  C   UNL A   1      46.558  29.096  31.745  1.00  0.00     0.031 C 
ATOM     63  C   UNL A   1      46.228  26.894  30.652  1.00  0.00     0.031 A 
BRANCH  50  64
ATOM     64  C   UNL A   1      42.128  23.464  27.584  1.00  0.00    -0.014 A 
ATOM     65  C   UNL A   1      41.581  22.398  28.316  1.00  0.00     0.009 A 
ATOM     66  C   UNL A   1      42.483  23.257  26.243  1.00  0.00     0.009 A 
ATOM     67  C   UNL A   1      41.403  21.147  27.721  1.00  0.00     0.001 A 
ATOM     68  C   UNL A   1      42.282  22.012  25.644  1.00  0.00     0.001 A 
ATOM     69  C   UNL A   1      41.750  20.955  26.385  1.00  0.00     0.000 A 
ENDBRANCH  50  64
BRANCH  51  70
ATOM     70  C   UNL A   1      43.759  32.259  31.994  1.00  0.00    -0.014 A 
ATOM     71  C   UNL A   1      43.461  32.472  33.350  1.00  0.00     0.009 A 
ATOM     72  C   UNL A   1      44.230  33.332  31.225  1.00  0.00     0.009 A 
ATOM     73  C   UNL A   1      43.602  33.741  33.916  1.00  0.00     0.001 A 
ATOM     74  C   UNL A   1      44.398  34.594  31.801  1.00  0.00     0.001 A 
ATOM     75  C   UNL A   1      44.073  34.799  33.141  1.00  0.00     0.000 A 
ENDBRANCH  51  70
BRANCH  63  76
ATOM     76  C   UNL A   1      47.629  26.521  31.042  1.00  0.00    -0.014 A 
ATOM     77  C   UNL A   1      48.677  26.689  30.122  1.00  0.00     0.009 A 
ATOM     78  C   UNL A   1      47.891  25.904  32.274  1.00  0.00     0.009 A 
ATOM     79  C   UNL A   1      49.960  26.232  30.423  1.00  0.00     0.001 A 
ATOM     80  C   UNL A   1      49.182  25.468  32.581  1.00  0.00     0.001 A 
ATOM     81  C   UNL A   1      50.211  25.624  31.652  1.00  0.00     0.000 A 
ENDBRANCH  63  76
ENDBRANCH  37  38
ENDBRANCH  29  32
ENDBRANCH  27  28
ENDBRANCH  26  27
ENDBRANCH  25  26
ENDBRANCH   1  25
TORSDOF 15
ENDMDL
