MODEL 1
REMARK VINA RESULT:     -12.4      0.000      0.000
REMARK SMILES O=C(NCCCCNC(=O)c1ccccc1Sc1ccc(S(=O)(=O)N2CCCC2)cc1[N+](=O)[O-])c1ccc(-c2c3nc(c(-c4ccccc4)c4ccc([nH]4)c(-c4ccccc4)c4nc(c(-c5ccccc5)c5ccc2[nH]5)C=C4)C=C3)cc1
REMARK SMILES IDX 6 1 5 2 4 3 3 4 1 5 2 6 35 8 36 9 82 10 37 11 81 12 38 13
REMARK SMILES IDX 39 14 40 15 75 16 41 17 80 18 74 19 76 20 42 21 79 22 73 23
REMARK SMILES IDX 72 24 43 26 65 27 50 28 64 29 51 30 54 31 63 32 77 33 52 34
REMARK SMILES IDX 53 35 62 37 78 38 55 39 44 40 45 41 49 42 46 43 48 44 47 45
REMARK SMILES IDX 66 46 67 47 71 48 68 49 70 50 69 51 56 52 57 53 61 54 58 55
REMARK SMILES IDX 60 56 59 57 7 58 8 59 9 60 10 62 11 63 12 64 16 65 13 66
REMARK SMILES IDX 15 67 14 68 17 69 18 70 19 71 31 72 20 73 30 74 21 75 32 76
REMARK SMILES IDX 33 77 34 78 22 79 23 80 24 81 25 82 26 83 29 84 27 85 28 86
REMARK H PARENT 3 7 76 25 54 36 8 61
REMARK Flexibility Score: inf
ROOT
ATOM      1  C   UNL A   1      31.396  30.902  25.788  1.00  0.00     0.023 C 
ENDROOT
BRANCH   1   2
ATOM      2  C   UNL A   1      31.200  32.162  26.644  1.00  0.00     0.023 C 
BRANCH   2   3
ATOM      3  C   UNL A   1      32.466  32.932  26.996  1.00  0.00     0.116 C 
BRANCH   3   4
ATOM      4  N   UNL A   1      32.223  34.202  27.653  1.00  0.00    -0.352 N 
ATOM      5  O   UNL A   1      32.579  35.904  29.088  1.00  0.00    -0.269 OA
ATOM      6  C   UNL A   1      32.959  34.831  28.631  1.00  0.00     0.251 C 
ATOM      7  H   UNL A   1      31.417  34.683  27.356  1.00  0.00     0.163 HD
BRANCH   6   8
ATOM      8  C   UNL A   1      34.194  34.210  29.164  1.00  0.00     0.039 A 
ATOM      9  C   UNL A   1      35.444  34.481  28.608  1.00  0.00     0.014 A 
ATOM     10  C   UNL A   1      34.100  33.379  30.281  1.00  0.00     0.014 A 
ATOM     11  C   UNL A   1      36.587  33.844  29.101  1.00  0.00     0.010 A 
ATOM     12  C   UNL A   1      35.253  32.793  30.818  1.00  0.00     0.010 A 
ATOM     13  C   UNL A   1      36.509  33.009  30.226  1.00  0.00    -0.014 A 
BRANCH  13  14
ATOM     14  C   UNL A   1      37.737  32.439  30.848  1.00  0.00     0.031 A 
ATOM     15  C   UNL A   1      38.430  31.242  30.252  1.00  0.00     0.074 A 
ATOM     16  C   UNL A   1      38.190  32.958  32.006  1.00  0.00     0.049 A 
ATOM     17  N   UNL A   1      39.409  30.525  30.749  1.00  0.00    -0.248 NA
ATOM     18  C   UNL A   1      37.959  30.781  28.937  1.00  0.00     0.031 C 
ATOM     19  C   UNL A   1      37.616  34.115  32.698  1.00  0.00     0.029 A 
ATOM     20  N   UNL A   1      39.225  32.566  32.821  1.00  0.00    -0.354 N 
ATOM     21  C   UNL A   1      39.648  29.512  29.827  1.00  0.00     0.074 A 
ATOM     22  C   UNL A   1      38.708  29.702  28.743  1.00  0.00     0.031 C 
ATOM     23  C   UNL A   1      38.303  34.337  33.829  1.00  0.00     0.029 A 
ATOM     24  C   UNL A   1      39.320  33.302  33.978  1.00  0.00     0.049 A 
ATOM     25  H   UNL A   1      39.838  31.829  32.599  1.00  0.00     0.167 HD
ATOM     26  C   UNL A   1      40.566  28.516  29.884  1.00  0.00     0.031 A 
ATOM     27  C   UNL A   1      40.096  33.141  35.066  1.00  0.00     0.031 A 
ATOM     28  C   UNL A   1      41.521  28.341  30.949  1.00  0.00     0.049 A 
ATOM     29  C   UNL A   1      41.064  31.995  35.123  1.00  0.00     0.074 A 
ATOM     30  C   UNL A   1      42.539  27.407  31.042  1.00  0.00     0.029 A 
ATOM     31  N   UNL A   1      41.568  29.100  32.105  1.00  0.00    -0.354 N 
ATOM     32  N   UNL A   1      41.316  31.082  34.217  1.00  0.00    -0.248 NA
ATOM     33  C   UNL A   1      41.848  31.850  36.360  1.00  0.00     0.031 C 
ATOM     34  C   UNL A   1      43.162  27.560  32.286  1.00  0.00     0.029 A 
ATOM     35  C   UNL A   1      42.567  28.625  32.940  1.00  0.00     0.049 A 
ATOM     36  H   UNL A   1      40.981  29.866  32.304  1.00  0.00     0.167 HD
ATOM     37  C   UNL A   1      42.293  30.264  34.769  1.00  0.00     0.074 A 
ATOM     38  C   UNL A   1      42.608  30.802  36.076  1.00  0.00     0.031 C 
ATOM     39  C   UNL A   1      42.869  29.158  34.241  1.00  0.00     0.031 A 
BRANCH  26  40
ATOM     40  C   UNL A   1      40.583  27.500  28.777  1.00  0.00    -0.014 A 
ATOM     41  C   UNL A   1      39.746  26.375  28.802  1.00  0.00     0.009 A 
ATOM     42  C   UNL A   1      41.366  27.739  27.635  1.00  0.00     0.009 A 
ATOM     43  C   UNL A   1      39.702  25.504  27.709  1.00  0.00     0.001 A 
ATOM     44  C   UNL A   1      41.304  26.879  26.537  1.00  0.00     0.001 A 
ATOM     45  C   UNL A   1      40.474  25.761  26.576  1.00  0.00     0.000 A 
ENDBRANCH  26  40
BRANCH  27  46
ATOM     46  C   UNL A   1      39.944  34.054  36.230  1.00  0.00    -0.014 A 
ATOM     47  C   UNL A   1      39.076  33.735  37.284  1.00  0.00     0.009 A 
ATOM     48  C   UNL A   1      40.657  35.263  36.277  1.00  0.00     0.009 A 
ATOM     49  C   UNL A   1      38.902  34.623  38.347  1.00  0.00     0.001 A 
ATOM     50  C   UNL A   1      40.506  36.134  37.358  1.00  0.00     0.001 A 
ATOM     51  C   UNL A   1      39.621  35.818  38.386  1.00  0.00     0.000 A 
ENDBRANCH  27  46
BRANCH  39  52
ATOM     52  C   UNL A   1      43.910  28.463  35.071  1.00  0.00    -0.014 A 
ATOM     53  C   UNL A   1      45.258  28.851  35.010  1.00  0.00     0.009 A 
ATOM     54  C   UNL A   1      43.535  27.435  35.949  1.00  0.00     0.009 A 
ATOM     55  C   UNL A   1      46.214  28.202  35.793  1.00  0.00     0.001 A 
ATOM     56  C   UNL A   1      44.490  26.806  36.750  1.00  0.00     0.001 A 
ATOM     57  C   UNL A   1      45.829  27.185  36.665  1.00  0.00     0.000 A 
ENDBRANCH  39  52
ENDBRANCH  13  14
ENDBRANCH   6   8
ENDBRANCH   3   4
ENDBRANCH   2   3
ENDBRANCH   1   2
BRANCH   1  58
ATOM     58  C   UNL A   1      32.637  30.052  26.083  1.00  0.00     0.116 C 
BRANCH  58  59
ATOM     59  N   UNL A   1      33.387  29.703  24.892  1.00  0.00    -0.352 N 
ATOM     60  C   UNL A   1      33.003  28.931  23.829  1.00  0.00     0.252 C 
ATOM     61  H   UNL A   1      34.298  30.071  24.841  1.00  0.00     0.163 HD
ATOM     62  O   UNL A   1      33.800  28.719  22.918  1.00  0.00    -0.269 OA
BRANCH  60  63
ATOM     63  C   UNL A   1      31.672  28.295  23.766  1.00  0.00     0.053 A 
ATOM     64  C   UNL A   1      30.793  28.946  22.874  1.00  0.00     0.015 A 
ATOM     65  C   UNL A   1      31.212  27.223  24.554  1.00  0.00     0.025 A 
ATOM     66  C   UNL A   1      29.488  28.497  22.691  1.00  0.00     0.001 A 
ATOM     67  C   UNL A   1      29.899  26.761  24.312  1.00  0.00     0.016 A 
ATOM     68  C   UNL A   1      29.049  27.385  23.393  1.00  0.00     0.001 A 
BRANCH  65  69
ATOM     69  S   UNL A   1      32.005  26.327  25.897  1.00  0.00    -0.082 SA
BRANCH  69  70
ATOM     70  C   UNL A   1      31.939  24.592  25.516  1.00  0.00     0.090 A 
ATOM     71  C   UNL A   1      32.876  24.194  24.546  1.00  0.00     0.024 A 
ATOM     72  C   UNL A   1      31.193  23.588  26.142  1.00  0.00     0.284 A 
ATOM     73  C   UNL A   1      33.219  22.852  24.383  1.00  0.00     0.023 A 
ATOM     74  C   UNL A   1      31.637  22.255  26.081  1.00  0.00     0.108 A 
ATOM     75  C   UNL A   1      32.691  21.901  25.248  1.00  0.00     0.089 A 
BRANCH  72  76
ATOM     76  N   UNL A   1      29.949  23.858  26.884  1.00  0.00     0.063 N 
ATOM     77  O   UNL A   1      29.522  22.961  27.626  1.00  0.00    -0.258 OA
ATOM     78  O   UNL A   1      29.340  24.909  26.655  1.00  0.00    -0.258 OA
ENDBRANCH  72  76
BRANCH  75  79
ATOM     79  S   UNL A   1      33.511  20.320  25.332  1.00  0.00     0.243 S 
ATOM     80  O   UNL A   1      34.754  20.478  24.619  1.00  0.00    -0.207 OA
ATOM     81  O   UNL A   1      33.500  19.961  26.742  1.00  0.00    -0.207 OA
BRANCH  79  82
ATOM     82  N   UNL A   1      32.573  19.230  24.480  1.00  0.00    -0.198 NA
ATOM     83  C   UNL A   1      32.686  17.793  24.759  1.00  0.00     0.102 C 
ATOM     84  C   UNL A   1      32.267  19.437  23.054  1.00  0.00     0.102 C 
ATOM     85  C   UNL A   1      33.162  17.203  23.446  1.00  0.00     0.018 C 
ATOM     86  C   UNL A   1      32.529  18.088  22.382  1.00  0.00     0.018 C 
ENDBRANCH  79  82
ENDBRANCH  75  79
ENDBRANCH  69  70
ENDBRANCH  65  69
ENDBRANCH  60  63
ENDBRANCH  58  59
ENDBRANCH   1  58
TORSDOF 16
ENDMDL
MODEL 2
REMARK VINA RESULT:     -12.4      4.241      9.914
REMARK SMILES O=C(NCCCCNC(=O)c1ccccc1Sc1ccc(S(=O)(=O)N2CCCC2)cc1[N+](=O)[O-])c1ccc(-c2c3nc(c(-c4ccccc4)c4ccc([nH]4)c(-c4ccccc4)c4nc(c(-c5ccccc5)c5ccc2[nH]5)C=C4)C=C3)cc1
REMARK SMILES IDX 6 1 5 2 4 3 3 4 1 5 2 6 35 8 36 9 82 10 37 11 81 12 38 13
REMARK SMILES IDX 39 14 40 15 75 16 41 17 80 18 74 19 76 20 42 21 79 22 73 23
REMARK SMILES IDX 72 24 43 26 65 27 50 28 64 29 51 30 54 31 63 32 77 33 52 34
REMARK SMILES IDX 53 35 62 37 78 38 55 39 44 40 45 41 49 42 46 43 48 44 47 45
REMARK SMILES IDX 66 46 67 47 71 48 68 49 70 50 69 51 56 52 57 53 61 54 58 55
REMARK SMILES IDX 60 56 59 57 7 58 8 59 9 60 10 62 11 63 12 64 16 65 13 66
REMARK SMILES IDX 15 67 14 68 17 69 18 70 19 71 31 72 20 73 30 74 21 75 32 76
REMARK SMILES IDX 33 77 34 78 22 79 23 80 24 81 25 82 26 83 29 84 27 85 28 86
REMARK H PARENT 3 7 76 25 54 36 8 61
REMARK Flexibility Score: inf
ROOT
ATOM      1  C   UNL A   1      36.435  19.481  25.041  1.00  0.00     0.023 C 
ENDROOT
BRANCH   1   2
ATOM      2  C   UNL A   1      37.911  19.501  24.613  1.00  0.00     0.023 C 
BRANCH   2   3
ATOM      3  C   UNL A   1      38.919  19.812  25.712  1.00  0.00     0.116 C 
BRANCH   3   4
ATOM      4  N   UNL A   1      40.145  19.042  25.626  1.00  0.00    -0.352 N 
ATOM      5  O   UNL A   1      42.349  18.609  25.824  1.00  0.00    -0.269 OA
ATOM      6  C   UNL A   1      41.422  19.395  25.998  1.00  0.00     0.251 C 
ATOM      7  H   UNL A   1      40.049  18.138  25.247  1.00  0.00     0.163 HD
BRANCH   6   8
ATOM      8  C   UNL A   1      41.699  20.728  26.579  1.00  0.00     0.039 A 
ATOM      9  C   UNL A   1      41.620  20.955  27.954  1.00  0.00     0.014 A 
ATOM     10  C   UNL A   1      42.100  21.761  25.731  1.00  0.00     0.014 A 
ATOM     11  C   UNL A   1      41.840  22.235  28.470  1.00  0.00     0.010 A 
ATOM     12  C   UNL A   1      42.386  23.028  26.255  1.00  0.00     0.010 A 
ATOM     13  C   UNL A   1      42.247  23.283  27.630  1.00  0.00    -0.014 A 
BRANCH  13  14
ATOM     14  C   UNL A   1      42.623  24.613  28.186  1.00  0.00     0.031 A 
ATOM     15  C   UNL A   1      41.586  25.675  28.438  1.00  0.00     0.074 A 
ATOM     16  C   UNL A   1      43.925  24.894  28.395  1.00  0.00     0.049 A 
ATOM     17  N   UNL A   1      41.758  26.933  28.765  1.00  0.00    -0.248 NA
ATOM     18  C   UNL A   1      40.176  25.283  28.293  1.00  0.00     0.031 C 
ATOM     19  C   UNL A   1      45.037  23.963  28.192  1.00  0.00     0.029 A 
ATOM     20  N   UNL A   1      44.537  26.056  28.803  1.00  0.00    -0.354 N 
ATOM     21  C   UNL A   1      40.486  27.489  28.832  1.00  0.00     0.074 A 
ATOM     22  C   UNL A   1      39.550  26.434  28.505  1.00  0.00     0.031 C 
ATOM     23  C   UNL A   1      46.191  24.587  28.474  1.00  0.00     0.029 A 
ATOM     24  C   UNL A   1      45.909  25.977  28.811  1.00  0.00     0.049 A 
ATOM     25  H   UNL A   1      44.041  26.865  29.063  1.00  0.00     0.167 HD
ATOM     26  C   UNL A   1      40.134  28.762  29.136  1.00  0.00     0.031 A 
ATOM     27  C   UNL A   1      46.847  26.923  29.013  1.00  0.00     0.031 A 
ATOM     28  C   UNL A   1      41.062  29.808  29.487  1.00  0.00     0.049 A 
ATOM     29  C   UNL A   1      46.426  28.336  29.292  1.00  0.00     0.074 A 
ATOM     30  C   UNL A   1      40.781  31.103  29.890  1.00  0.00     0.029 A 
ATOM     31  N   UNL A   1      42.440  29.686  29.466  1.00  0.00    -0.354 N 
ATOM     32  N   UNL A   1      45.217  28.830  29.409  1.00  0.00    -0.248 NA
ATOM     33  C   UNL A   1      47.500  29.327  29.456  1.00  0.00     0.031 C 
ATOM     34  C   UNL A   1      41.993  31.785  30.049  1.00  0.00     0.029 A 
ATOM     35  C   UNL A   1      43.025  30.896  29.801  1.00  0.00     0.049 A 
ATOM     36  H   UNL A   1      42.932  28.861  29.248  1.00  0.00     0.167 HD
ATOM     37  C   UNL A   1      45.387  30.183  29.670  1.00  0.00     0.074 A 
ATOM     38  C   UNL A   1      46.813  30.428  29.723  1.00  0.00     0.031 C 
ATOM     39  C   UNL A   1      44.442  31.137  29.842  1.00  0.00     0.031 A 
BRANCH  26  40
ATOM     40  C   UNL A   1      38.678  29.131  29.081  1.00  0.00    -0.014 A 
ATOM     41  C   UNL A   1      37.859  29.049  30.217  1.00  0.00     0.009 A 
ATOM     42  C   UNL A   1      38.150  29.681  27.900  1.00  0.00     0.009 A 
ATOM     43  C   UNL A   1      36.536  29.501  30.167  1.00  0.00     0.001 A 
ATOM     44  C   UNL A   1      36.836  30.150  27.860  1.00  0.00     0.001 A 
ATOM     45  C   UNL A   1      36.030  30.058  28.993  1.00  0.00     0.000 A 
ENDBRANCH  26  40
BRANCH  27  46
ATOM     46  C   UNL A   1      48.288  26.578  28.891  1.00  0.00    -0.014 A 
ATOM     47  C   UNL A   1      48.941  26.650  27.653  1.00  0.00     0.009 A 
ATOM     48  C   UNL A   1      49.011  26.154  30.018  1.00  0.00     0.009 A 
ATOM     49  C   UNL A   1      50.281  26.275  27.540  1.00  0.00     0.001 A 
ATOM     50  C   UNL A   1      50.360  25.812  29.908  1.00  0.00     0.001 A 
ATOM     51  C   UNL A   1      50.990  25.862  28.668  1.00  0.00     0.000 A 
ENDBRANCH  27  46
BRANCH  39  52
ATOM     52  C   UNL A   1      44.919  32.534  30.117  1.00  0.00    -0.014 A 
ATOM     53  C   UNL A   1      45.193  32.958  31.427  1.00  0.00     0.009 A 
ATOM     54  C   UNL A   1      45.132  33.424  29.053  1.00  0.00     0.009 A 
ATOM     55  C   UNL A   1      45.644  34.258  31.667  1.00  0.00     0.001 A 
ATOM     56  C   UNL A   1      45.608  34.714  29.295  1.00  0.00     0.001 A 
ATOM     57  C   UNL A   1      45.856  35.132  30.602  1.00  0.00     0.000 A 
ENDBRANCH  39  52
ENDBRANCH  13  14
ENDBRANCH   6   8
ENDBRANCH   3   4
ENDBRANCH   2   3
ENDBRANCH   1   2
BRANCH   1  58
ATOM     58  C   UNL A   1      35.537  18.433  24.375  1.00  0.00     0.116 C 
BRANCH  58  59
ATOM     59  N   UNL A   1      34.343  18.133  25.141  1.00  0.00    -0.352 N 
ATOM     60  C   UNL A   1      33.111  18.727  25.082  1.00  0.00     0.252 C 
ATOM     61  H   UNL A   1      34.431  17.403  25.795  1.00  0.00     0.163 HD
ATOM     62  O   UNL A   1      32.224  18.352  25.846  1.00  0.00    -0.269 OA
BRANCH  60  63
ATOM     63  C   UNL A   1      32.827  19.846  24.163  1.00  0.00     0.053 A 
ATOM     64  C   UNL A   1      32.230  19.429  22.954  1.00  0.00     0.015 A 
ATOM     65  C   UNL A   1      33.179  21.197  24.347  1.00  0.00     0.025 A 
ATOM     66  C   UNL A   1      31.900  20.344  21.959  1.00  0.00     0.001 A 
ATOM     67  C   UNL A   1      32.790  22.107  23.339  1.00  0.00     0.016 A 
ATOM     68  C   UNL A   1      32.158  21.690  22.164  1.00  0.00     0.001 A 
BRANCH  65  69
ATOM     69  S   UNL A   1      34.110  22.001  25.659  1.00  0.00    -0.082 SA
BRANCH  69  70
ATOM     70  C   UNL A   1      33.584  23.696  25.748  1.00  0.00     0.090 A 
ATOM     71  C   UNL A   1      34.469  24.594  25.126  1.00  0.00     0.024 A 
ATOM     72  C   UNL A   1      32.372  24.210  26.223  1.00  0.00     0.284 A 
ATOM     73  C   UNL A   1      34.064  25.882  24.781  1.00  0.00     0.023 A 
ATOM     74  C   UNL A   1      31.916  25.454  25.751  1.00  0.00     0.108 A 
ATOM     75  C   UNL A   1      32.741  26.261  24.978  1.00  0.00     0.089 A 
BRANCH  72  76
ATOM     76  N   UNL A   1      31.527  23.501  27.200  1.00  0.00     0.063 N 
ATOM     77  O   UNL A   1      30.309  23.728  27.171  1.00  0.00    -0.258 OA
ATOM     78  O   UNL A   1      32.077  22.804  28.061  1.00  0.00    -0.258 OA
ENDBRANCH  72  76
BRANCH  75  79
ATOM     79  S   UNL A   1      32.154  27.692  24.093  1.00  0.00     0.243 S 
ATOM     80  O   UNL A   1      32.862  27.702  22.838  1.00  0.00    -0.207 OA
ATOM     81  O   UNL A   1      30.703  27.593  24.130  1.00  0.00    -0.207 OA
BRANCH  79  82
ATOM     82  N   UNL A   1      32.636  29.040  24.957  1.00  0.00    -0.198 NA
ATOM     83  C   UNL A   1      33.647  28.908  26.013  1.00  0.00     0.102 C 
ATOM     84  C   UNL A   1      31.678  30.100  25.316  1.00  0.00     0.102 C 
ATOM     85  C   UNL A   1      32.919  29.338  27.271  1.00  0.00     0.018 C 
ATOM     86  C   UNL A   1      31.932  30.394  26.794  1.00  0.00     0.018 C 
ENDBRANCH  79  82
ENDBRANCH  75  79
ENDBRANCH  69  70
ENDBRANCH  65  69
ENDBRANCH  60  63
ENDBRANCH  58  59
ENDBRANCH   1  58
TORSDOF 16
ENDMDL
MODEL 3
REMARK VINA RESULT:     -12.4      1.580      2.279
REMARK SMILES O=C(NCCCCNC(=O)c1ccccc1Sc1ccc(S(=O)(=O)N2CCCC2)cc1[N+](=O)[O-])c1ccc(-c2c3nc(c(-c4ccccc4)c4ccc([nH]4)c(-c4ccccc4)c4nc(c(-c5ccccc5)c5ccc2[nH]5)C=C4)C=C3)cc1
REMARK SMILES IDX 6 1 5 2 4 3 3 4 1 5 2 6 35 8 36 9 82 10 37 11 81 12 38 13
REMARK SMILES IDX 39 14 40 15 75 16 41 17 80 18 74 19 76 20 42 21 79 22 73 23
REMARK SMILES IDX 72 24 43 26 65 27 50 28 64 29 51 30 54 31 63 32 77 33 52 34
REMARK SMILES IDX 53 35 62 37 78 38 55 39 44 40 45 41 49 42 46 43 48 44 47 45
REMARK SMILES IDX 66 46 67 47 71 48 68 49 70 50 69 51 56 52 57 53 61 54 58 55
REMARK SMILES IDX 60 56 59 57 7 58 8 59 9 60 10 62 11 63 12 64 16 65 13 66
REMARK SMILES IDX 15 67 14 68 17 69 18 70 19 71 31 72 20 73 30 74 21 75 32 76
REMARK SMILES IDX 33 77 34 78 22 79 23 80 24 81 25 82 26 83 29 84 27 85 28 86
REMARK H PARENT 3 7 76 25 54 36 8 61
REMARK Flexibility Score: inf
ROOT
ATOM      1  C   UNL A   1      30.936  31.126  25.287  1.00  0.00     0.023 C 
ENDROOT
BRANCH   1   2
ATOM      2  C   UNL A   1      31.102  31.783  26.666  1.00  0.00     0.023 C 
BRANCH   2   3
ATOM      3  C   UNL A   1      32.383  32.580  26.875  1.00  0.00     0.116 C 
BRANCH   3   4
ATOM      4  N   UNL A   1      32.178  33.884  27.476  1.00  0.00    -0.352 N 
ATOM      5  O   UNL A   1      32.628  35.670  28.776  1.00  0.00    -0.269 OA
ATOM      6  C   UNL A   1      32.983  34.574  28.352  1.00  0.00     0.251 C 
ATOM      7  H   UNL A   1      31.344  34.340  27.219  1.00  0.00     0.163 HD
BRANCH   6   8
ATOM      8  C   UNL A   1      34.265  33.997  28.817  1.00  0.00     0.039 A 
ATOM      9  C   UNL A   1      35.488  34.424  28.299  1.00  0.00     0.014 A 
ATOM     10  C   UNL A   1      34.242  33.042  29.835  1.00  0.00     0.014 A 
ATOM     11  C   UNL A   1      36.679  33.827  28.722  1.00  0.00     0.010 A 
ATOM     12  C   UNL A   1      35.440  32.491  30.306  1.00  0.00     0.010 A 
ATOM     13  C   UNL A   1      36.672  32.869  29.747  1.00  0.00    -0.014 A 
BRANCH  13  14
ATOM     14  C   UNL A   1      37.944  32.331  30.305  1.00  0.00     0.031 A 
ATOM     15  C   UNL A   1      38.578  31.085  29.744  1.00  0.00     0.074 A 
ATOM     16  C   UNL A   1      38.495  32.928  31.381  1.00  0.00     0.049 A 
ATOM     17  N   UNL A   1      39.590  30.395  30.211  1.00  0.00    -0.248 NA
ATOM     18  C   UNL A   1      37.997  30.535  28.510  1.00  0.00     0.031 C 
ATOM     19  C   UNL A   1      37.988  34.139  32.031  1.00  0.00     0.029 A 
ATOM     20  N   UNL A   1      39.592  32.583  32.135  1.00  0.00    -0.354 N 
ATOM     21  C   UNL A   1      39.746  29.314  29.349  1.00  0.00     0.074 A 
ATOM     22  C   UNL A   1      38.720  29.436  28.335  1.00  0.00     0.031 C 
ATOM     23  C   UNL A   1      38.768  34.435  33.081  1.00  0.00     0.029 A 
ATOM     24  C   UNL A   1      39.787  33.401  33.222  1.00  0.00     0.049 A 
ATOM     25  H   UNL A   1      40.180  31.825  31.917  1.00  0.00     0.167 HD
ATOM     26  C   UNL A   1      40.659  28.314  29.404  1.00  0.00     0.031 A 
ATOM     27  C   UNL A   1      40.651  33.310  34.251  1.00  0.00     0.031 A 
ATOM     28  C   UNL A   1      41.698  28.205  30.397  1.00  0.00     0.049 A 
ATOM     29  C   UNL A   1      41.613  32.160  34.312  1.00  0.00     0.074 A 
ATOM     30  C   UNL A   1      42.715  27.268  30.474  1.00  0.00     0.029 A 
ATOM     31  N   UNL A   1      41.846  29.046  31.485  1.00  0.00    -0.354 N 
ATOM     32  N   UNL A   1      41.783  31.180  33.459  1.00  0.00    -0.248 NA
ATOM     33  C   UNL A   1      42.496  32.096  35.487  1.00  0.00     0.031 C 
ATOM     34  C   UNL A   1      43.440  27.504  31.647  1.00  0.00     0.029 A 
ATOM     35  C   UNL A   1      42.908  28.621  32.268  1.00  0.00     0.049 A 
ATOM     36  H   UNL A   1      41.282  29.831  31.675  1.00  0.00     0.167 HD
ATOM     37  C   UNL A   1      42.797  30.393  33.987  1.00  0.00     0.074 A 
ATOM     38  C   UNL A   1      43.223  31.021  35.220  1.00  0.00     0.031 C 
ATOM     39  C   UNL A   1      43.321  29.244  33.497  1.00  0.00     0.031 A 
BRANCH  26  40
ATOM     40  C   UNL A   1      40.578  27.220  28.377  1.00  0.00    -0.014 A 
ATOM     41  C   UNL A   1      39.785  26.081  28.581  1.00  0.00     0.009 A 
ATOM     42  C   UNL A   1      41.214  27.392  27.135  1.00  0.00     0.009 A 
ATOM     43  C   UNL A   1      39.640  25.130  27.566  1.00  0.00     0.001 A 
ATOM     44  C   UNL A   1      41.050  26.452  26.117  1.00  0.00     0.001 A 
ATOM     45  C   UNL A   1      40.266  25.321  26.333  1.00  0.00     0.000 A 
ENDBRANCH  26  40
BRANCH  27  46
ATOM     46  C   UNL A   1      40.602  34.307  35.353  1.00  0.00    -0.014 A 
ATOM     47  C   UNL A   1      39.791  34.095  36.478  1.00  0.00     0.009 A 
ATOM     48  C   UNL A   1      41.354  35.491  35.269  1.00  0.00     0.009 A 
ATOM     49  C   UNL A   1      39.714  35.062  37.482  1.00  0.00     0.001 A 
ATOM     50  C   UNL A   1      41.299  36.440  36.292  1.00  0.00     0.001 A 
ATOM     51  C   UNL A   1      40.471  36.229  37.391  1.00  0.00     0.000 A 
ENDBRANCH  27  46
BRANCH  39  52
ATOM     52  C   UNL A   1      44.422  28.599  34.286  1.00  0.00    -0.014 A 
ATOM     53  C   UNL A   1      44.140  27.614  35.245  1.00  0.00     0.009 A 
ATOM     54  C   UNL A   1      45.759  28.954  34.046  1.00  0.00     0.009 A 
ATOM     55  C   UNL A   1      45.176  27.016  35.968  1.00  0.00     0.001 A 
ATOM     56  C   UNL A   1      46.792  28.336  34.751  1.00  0.00     0.001 A 
ATOM     57  C   UNL A   1      46.500  27.374  35.716  1.00  0.00     0.000 A 
ENDBRANCH  39  52
ENDBRANCH  13  14
ENDBRANCH   6   8
ENDBRANCH   3   4
ENDBRANCH   2   3
ENDBRANCH   1   2
BRANCH   1  58
ATOM     58  C   UNL A   1      29.592  31.335  24.580  1.00  0.00     0.116 C 
BRANCH  58  59
ATOM     59  N   UNL A   1      29.674  31.181  23.141  1.00  0.00    -0.352 N 
ATOM     60  C   UNL A   1      29.607  30.037  22.392  1.00  0.00     0.252 C 
ATOM     61  H   UNL A   1      29.795  32.015  22.631  1.00  0.00     0.163 HD
ATOM     62  O   UNL A   1      29.732  30.107  21.171  1.00  0.00    -0.269 OA
BRANCH  60  63
ATOM     63  C   UNL A   1      29.442  28.707  23.011  1.00  0.00     0.053 A 
ATOM     64  C   UNL A   1      28.090  28.333  23.160  1.00  0.00     0.015 A 
ATOM     65  C   UNL A   1      30.463  27.885  23.524  1.00  0.00     0.025 A 
ATOM     66  C   UNL A   1      27.738  27.116  23.736  1.00  0.00     0.001 A 
ATOM     67  C   UNL A   1      30.077  26.637  24.061  1.00  0.00     0.016 A 
ATOM     68  C   UNL A   1      28.736  26.255  24.164  1.00  0.00     0.001 A 
BRANCH  65  69
ATOM     69  S   UNL A   1      32.234  28.163  23.670  1.00  0.00    -0.082 SA
BRANCH  69  70
ATOM     70  C   UNL A   1      33.005  26.608  24.057  1.00  0.00     0.090 A 
ATOM     71  C   UNL A   1      33.280  26.442  25.426  1.00  0.00     0.024 A 
ATOM     72  C   UNL A   1      33.234  25.514  23.215  1.00  0.00     0.284 A 
ATOM     73  C   UNL A   1      33.540  25.181  25.960  1.00  0.00     0.023 A 
ATOM     74  C   UNL A   1      33.355  24.227  23.770  1.00  0.00     0.108 A 
ATOM     75  C   UNL A   1      33.444  24.059  25.146  1.00  0.00     0.089 A 
BRANCH  72  76
ATOM     76  N   UNL A   1      33.350  25.638  21.752  1.00  0.00     0.063 N 
ATOM     77  O   UNL A   1      33.163  24.615  21.077  1.00  0.00    -0.258 OA
ATOM     78  O   UNL A   1      33.726  26.716  21.277  1.00  0.00    -0.258 OA
ENDBRANCH  72  76
BRANCH  75  79
ATOM     79  S   UNL A   1      33.291  22.473  25.946  1.00  0.00     0.243 S 
ATOM     80  O   UNL A   1      34.369  22.402  26.900  1.00  0.00    -0.207 OA
ATOM     81  O   UNL A   1      31.904  22.398  26.379  1.00  0.00    -0.207 OA
BRANCH  79  82
ATOM     82  N   UNL A   1      33.566  21.304  24.782  1.00  0.00    -0.198 NA
ATOM     83  C   UNL A   1      32.431  20.680  24.091  1.00  0.00     0.102 C 
ATOM     84  C   UNL A   1      34.660  20.328  24.924  1.00  0.00     0.102 C 
ATOM     85  C   UNL A   1      32.542  19.213  24.459  1.00  0.00     0.018 C 
ATOM     86  C   UNL A   1      34.038  18.970  24.597  1.00  0.00     0.018 C 
ENDBRANCH  79  82
ENDBRANCH  75  79
ENDBRANCH  69  70
ENDBRANCH  65  69
ENDBRANCH  60  63
ENDBRANCH  58  59
ENDBRANCH   1  58
TORSDOF 16
ENDMDL
