MODEL 1
REMARK VINA RESULT:     -10.3      0.000      0.000
REMARK SMILES O=C(CNc1nc(-c2ccccc2)c(-c2ccccc2)s1)NCCCCNC(=O)c1ccc(-c2c3nc(c(-c4ccccc4)c4ccc([nH]4)c(-c4ccccc4)c4nc(c(-c5ccccc5)c5ccc2[nH]5)C=C4)C=C3)cc1
REMARK SMILES IDX 24 1 23 2 22 3 1 4 2 5 3 7 4 8 5 10 6 11 21 12 7 13 14 14
REMARK SMILES IDX 8 15 9 16 13 17 10 18 12 19 11 20 15 21 16 22 20 23 17 24
REMARK SMILES IDX 19 25 18 26 25 27 26 28 27 29 28 30 29 32 30 33 31 34 77 35
REMARK SMILES IDX 32 36 76 37 33 38 34 39 35 40 70 41 36 42 75 43 69 44 71 45
REMARK SMILES IDX 37 46 74 47 68 48 67 49 38 51 60 52 45 53 59 54 46 55 49 56
REMARK SMILES IDX 58 57 72 58 47 59 48 60 57 62 73 63 50 64 39 65 40 66 44 67
REMARK SMILES IDX 41 68 43 69 42 70 61 71 62 72 66 73 63 74 65 75 64 76 51 77
REMARK SMILES IDX 52 78 56 79 53 80 55 81 54 82
REMARK H PARENT 22 6 4 9 27 31 71 50 49 61
REMARK Flexibility Score: inf
ROOT
ATOM      1  C   UNL A   1      34.056  35.337  28.796  1.00  0.00     0.023 C 
ENDROOT
BRANCH   1   2
ATOM      2  C   UNL A   1      33.030  36.046  29.680  1.00  0.00     0.116 C 
BRANCH   2   3
ATOM      3  N   UNL A   1      33.595  36.501  30.933  1.00  0.00    -0.355 N 
ATOM      4  O   UNL A   1      31.666  36.368  32.184  1.00  0.00    -0.273 OA
ATOM      5  C   UNL A   1      32.866  36.602  32.107  1.00  0.00     0.239 C 
ATOM      6  H   UNL A   1      34.547  36.752  30.951  1.00  0.00     0.163 HD
BRANCH   5   7
ATOM      7  C   UNL A   1      33.713  37.060  33.308  1.00  0.00     0.215 C 
BRANCH   7   8
ATOM      8  N   UNL A   1      34.152  35.887  34.053  1.00  0.00    -0.352 N 
ATOM      9  H   UNL A   1      33.684  35.650  34.887  1.00  0.00     0.163 HD
BRANCH   8  10
ATOM     10  C   UNL A   1      35.174  35.118  33.642  1.00  0.00     0.184 A 
ATOM     11  N   UNL A   1      35.765  35.177  32.472  1.00  0.00    -0.220 NA
ATOM     12  S   UNL A   1      35.767  33.900  34.703  1.00  0.00    -0.096 S 
ATOM     13  C   UNL A   1      36.737  34.191  32.382  1.00  0.00     0.091 A 
ATOM     14  C   UNL A   1      36.839  33.354  33.484  1.00  0.00     0.064 A 
BRANCH  13  15
ATOM     15  C   UNL A   1      37.607  34.077  31.220  1.00  0.00     0.002 A 
ATOM     16  C   UNL A   1      38.847  34.728  31.181  1.00  0.00     0.010 A 
ATOM     17  C   UNL A   1      37.150  33.401  30.082  1.00  0.00     0.010 A 
ATOM     18  C   UNL A   1      39.598  34.743  30.003  1.00  0.00     0.001 A 
ATOM     19  C   UNL A   1      37.903  33.419  28.905  1.00  0.00     0.001 A 
ATOM     20  C   UNL A   1      39.119  34.099  28.863  1.00  0.00     0.000 A 
ENDBRANCH  13  15
BRANCH  14  21
ATOM     21  C   UNL A   1      37.692  32.192  33.729  1.00  0.00    -0.006 A 
ATOM     22  C   UNL A   1      37.323  30.930  33.242  1.00  0.00     0.009 A 
ATOM     23  C   UNL A   1      38.923  32.336  34.385  1.00  0.00     0.009 A 
ATOM     24  C   UNL A   1      38.172  29.834  33.404  1.00  0.00     0.001 A 
ATOM     25  C   UNL A   1      39.771  31.239  34.545  1.00  0.00     0.001 A 
ATOM     26  C   UNL A   1      39.395  29.990  34.052  1.00  0.00     0.000 A 
ENDBRANCH  14  21
ENDBRANCH   8  10
ENDBRANCH   7   8
ENDBRANCH   5   7
ENDBRANCH   2   3
ENDBRANCH   1   2
BRANCH   1  27
ATOM     27  C   UNL A   1      33.563  34.054  28.121  1.00  0.00     0.023 C 
BRANCH  27  28
ATOM     28  C   UNL A   1      34.343  32.786  28.458  1.00  0.00     0.116 C 
BRANCH  28  29
ATOM     29  N   UNL A   1      33.743  31.581  27.909  1.00  0.00    -0.352 N 
ATOM     30  C   UNL A   1      34.306  30.347  27.678  1.00  0.00     0.251 C 
ATOM     31  H   UNL A   1      32.793  31.660  27.665  1.00  0.00     0.163 HD
ATOM     32  O   UNL A   1      33.664  29.484  27.083  1.00  0.00    -0.269 OA
BRANCH  30  33
ATOM     33  C   UNL A   1      35.693  30.057  28.110  1.00  0.00     0.039 A 
ATOM     34  C   UNL A   1      35.912  29.617  29.419  1.00  0.00     0.014 A 
ATOM     35  C   UNL A   1      36.775  30.221  27.242  1.00  0.00     0.014 A 
ATOM     36  C   UNL A   1      37.201  29.268  29.832  1.00  0.00     0.010 A 
ATOM     37  C   UNL A   1      38.047  29.802  27.630  1.00  0.00     0.010 A 
ATOM     38  C   UNL A   1      38.274  29.316  28.928  1.00  0.00    -0.014 A 
BRANCH  38  39
ATOM     39  C   UNL A   1      39.631  28.846  29.314  1.00  0.00     0.031 A 
ATOM     40  C   UNL A   1      40.545  29.729  30.121  1.00  0.00     0.074 A 
ATOM     41  C   UNL A   1      40.069  27.645  28.887  1.00  0.00     0.049 A 
ATOM     42  N   UNL A   1      41.781  29.513  30.499  1.00  0.00    -0.248 NA
ATOM     43  C   UNL A   1      40.010  31.035  30.539  1.00  0.00     0.031 C 
ATOM     44  C   UNL A   1      39.300  26.702  28.071  1.00  0.00     0.029 A 
ATOM     45  N   UNL A   1      41.273  27.012  29.076  1.00  0.00    -0.354 N 
ATOM     46  C   UNL A   1      42.173  30.656  31.184  1.00  0.00     0.074 A 
ATOM     47  C   UNL A   1      41.064  31.584  31.124  1.00  0.00     0.031 C 
ATOM     48  C   UNL A   1      40.039  25.603  27.855  1.00  0.00     0.029 A 
ATOM     49  C   UNL A   1      41.349  25.778  28.474  1.00  0.00     0.049 A 
ATOM     50  H   UNL A   1      42.013  27.404  29.593  1.00  0.00     0.167 HD
ATOM     51  C   UNL A   1      43.342  30.907  31.820  1.00  0.00     0.031 A 
ATOM     52  C   UNL A   1      42.360  24.890  28.416  1.00  0.00     0.031 A 
ATOM     53  C   UNL A   1      44.445  29.985  31.885  1.00  0.00     0.049 A 
ATOM     54  C   UNL A   1      43.659  25.207  29.105  1.00  0.00     0.074 A 
ATOM     55  C   UNL A   1      45.650  30.131  32.552  1.00  0.00     0.029 A 
ATOM     56  N   UNL A   1      44.481  28.748  31.260  1.00  0.00    -0.354 N 
ATOM     57  N   UNL A   1      43.988  26.266  29.803  1.00  0.00    -0.248 NA
ATOM     58  C   UNL A   1      44.723  24.197  29.004  1.00  0.00     0.031 C 
ATOM     59  C   UNL A   1      46.440  29.009  32.277  1.00  0.00     0.029 A 
ATOM     60  C   UNL A   1      45.699  28.136  31.498  1.00  0.00     0.049 A 
ATOM     61  H   UNL A   1      43.749  28.364  30.726  1.00  0.00     0.167 HD
ATOM     62  C   UNL A   1      45.283  26.036  30.251  1.00  0.00     0.074 A 
ATOM     63  C   UNL A   1      45.672  24.731  29.760  1.00  0.00     0.031 C 
ATOM     64  C   UNL A   1      46.077  26.836  31.004  1.00  0.00     0.031 A 
BRANCH  51  65
ATOM     65  C   UNL A   1      43.494  32.245  32.493  1.00  0.00    -0.014 A 
ATOM     66  C   UNL A   1      43.036  32.460  33.802  1.00  0.00     0.009 A 
ATOM     67  C   UNL A   1      44.145  33.293  31.822  1.00  0.00     0.009 A 
ATOM     68  C   UNL A   1      43.194  33.707  34.412  1.00  0.00     0.001 A 
ATOM     69  C   UNL A   1      44.330  34.529  32.445  1.00  0.00     0.001 A 
ATOM     70  C   UNL A   1      43.845  34.738  33.735  1.00  0.00     0.000 A 
ENDBRANCH  51  65
BRANCH  52  71
ATOM     71  C   UNL A   1      42.188  23.606  27.684  1.00  0.00    -0.014 A 
ATOM     72  C   UNL A   1      42.617  23.481  26.354  1.00  0.00     0.009 A 
ATOM     73  C   UNL A   1      41.575  22.506  28.305  1.00  0.00     0.009 A 
ATOM     74  C   UNL A   1      42.409  22.292  25.651  1.00  0.00     0.001 A 
ATOM     75  C   UNL A   1      41.398  21.308  27.610  1.00  0.00     0.001 A 
ATOM     76  C   UNL A   1      41.804  21.205  26.281  1.00  0.00     0.000 A 
ENDBRANCH  52  71
BRANCH  64  77
ATOM     77  C   UNL A   1      47.434  26.305  31.380  1.00  0.00    -0.014 A 
ATOM     78  C   UNL A   1      48.539  26.448  30.528  1.00  0.00     0.009 A 
ATOM     79  C   UNL A   1      47.614  25.686  32.628  1.00  0.00     0.009 A 
ATOM     80  C   UNL A   1      49.789  25.950  30.902  1.00  0.00     0.001 A 
ATOM     81  C   UNL A   1      48.871  25.219  33.014  1.00  0.00     0.001 A 
ATOM     82  C   UNL A   1      49.955  25.341  32.146  1.00  0.00     0.000 A 
ENDBRANCH  64  77
ENDBRANCH  38  39
ENDBRANCH  30  33
ENDBRANCH  28  29
ENDBRANCH  27  28
ENDBRANCH   1  27
TORSDOF 15
ENDMDL
MODEL 2
REMARK VINA RESULT:     -10.1      0.267      5.823
REMARK SMILES O=C(CNc1nc(-c2ccccc2)c(-c2ccccc2)s1)NCCCCNC(=O)c1ccc(-c2c3nc(c(-c4ccccc4)c4ccc([nH]4)c(-c4ccccc4)c4nc(c(-c5ccccc5)c5ccc2[nH]5)C=C4)C=C3)cc1
REMARK SMILES IDX 24 1 23 2 22 3 1 4 2 5 3 7 4 8 5 10 6 11 21 12 7 13 14 14
REMARK SMILES IDX 8 15 9 16 13 17 10 18 12 19 11 20 15 21 16 22 20 23 17 24
REMARK SMILES IDX 19 25 18 26 25 27 26 28 27 29 28 30 29 32 30 33 31 34 77 35
REMARK SMILES IDX 32 36 76 37 33 38 34 39 35 40 70 41 36 42 75 43 69 44 71 45
REMARK SMILES IDX 37 46 74 47 68 48 67 49 38 51 60 52 45 53 59 54 46 55 49 56
REMARK SMILES IDX 58 57 72 58 47 59 48 60 57 62 73 63 50 64 39 65 40 66 44 67
REMARK SMILES IDX 41 68 43 69 42 70 61 71 62 72 66 73 63 74 65 75 64 76 51 77
REMARK SMILES IDX 52 78 56 79 53 80 55 81 54 82
REMARK H PARENT 22 6 4 9 27 31 71 50 49 61
REMARK Flexibility Score: inf
ROOT
ATOM      1  C   UNL A   1      34.106  35.268  28.860  1.00  0.00     0.023 C 
ENDROOT
BRANCH   1   2
ATOM      2  C   UNL A   1      33.039  35.797  29.817  1.00  0.00     0.116 C 
BRANCH   2   3
ATOM      3  N   UNL A   1      33.599  36.294  31.055  1.00  0.00    -0.355 N 
ATOM      4  O   UNL A   1      31.639  36.334  32.264  1.00  0.00    -0.273 OA
ATOM      5  C   UNL A   1      32.852  36.500  32.203  1.00  0.00     0.239 C 
ATOM      6  H   UNL A   1      34.562  36.497  31.083  1.00  0.00     0.163 HD
BRANCH   5   7
ATOM      7  C   UNL A   1      33.695  36.983  33.398  1.00  0.00     0.215 C 
BRANCH   7   8
ATOM      8  N   UNL A   1      34.161  35.824  34.148  1.00  0.00    -0.352 N 
ATOM      9  H   UNL A   1      33.698  35.581  34.983  1.00  0.00     0.163 HD
BRANCH   8  10
ATOM     10  C   UNL A   1      35.201  35.077  33.741  1.00  0.00     0.184 A 
ATOM     11  N   UNL A   1      35.790  35.144  32.572  1.00  0.00    -0.220 NA
ATOM     12  S   UNL A   1      35.821  33.878  34.808  1.00  0.00    -0.096 S 
ATOM     13  C   UNL A   1      36.786  34.181  32.487  1.00  0.00     0.091 A 
ATOM     14  C   UNL A   1      36.906  33.351  33.592  1.00  0.00     0.064 A 
BRANCH  13  15
ATOM     15  C   UNL A   1      37.658  34.082  31.326  1.00  0.00     0.002 A 
ATOM     16  C   UNL A   1      38.912  34.708  31.309  1.00  0.00     0.010 A 
ATOM     17  C   UNL A   1      37.194  33.447  30.167  1.00  0.00     0.010 A 
ATOM     18  C   UNL A   1      39.668  34.742  30.136  1.00  0.00     0.001 A 
ATOM     19  C   UNL A   1      37.952  33.483  28.994  1.00  0.00     0.001 A 
ATOM     20  C   UNL A   1      39.183  34.139  28.977  1.00  0.00     0.000 A 
ENDBRANCH  13  15
BRANCH  14  21
ATOM     21  C   UNL A   1      37.786  32.211  33.843  1.00  0.00    -0.006 A 
ATOM     22  C   UNL A   1      37.485  30.954  33.300  1.00  0.00     0.009 A 
ATOM     23  C   UNL A   1      38.978  32.375  34.563  1.00  0.00     0.009 A 
ATOM     24  C   UNL A   1      38.362  29.881  33.470  1.00  0.00     0.001 A 
ATOM     25  C   UNL A   1      39.855  31.301  34.730  1.00  0.00     0.001 A 
ATOM     26  C   UNL A   1      39.547  30.057  34.181  1.00  0.00     0.000 A 
ENDBRANCH  14  21
ENDBRANCH   8  10
ENDBRANCH   7   8
ENDBRANCH   5   7
ENDBRANCH   2   3
ENDBRANCH   1   2
BRANCH   1  27
ATOM     27  C   UNL A   1      33.750  33.967  28.136  1.00  0.00     0.023 C 
BRANCH  27  28
ATOM     28  C   UNL A   1      34.321  32.691  28.749  1.00  0.00     0.116 C 
BRANCH  28  29
ATOM     29  N   UNL A   1      33.748  31.478  28.188  1.00  0.00    -0.352 N 
ATOM     30  C   UNL A   1      34.347  30.273  27.903  1.00  0.00     0.251 C 
ATOM     31  H   UNL A   1      32.787  31.526  27.980  1.00  0.00     0.163 HD
ATOM     32  O   UNL A   1      33.718  29.403  27.307  1.00  0.00    -0.269 OA
BRANCH  30  33
ATOM     33  C   UNL A   1      35.759  30.026  28.277  1.00  0.00     0.039 A 
ATOM     34  C   UNL A   1      36.047  29.609  29.580  1.00  0.00     0.014 A 
ATOM     35  C   UNL A   1      36.798  30.207  27.361  1.00  0.00     0.014 A 
ATOM     36  C   UNL A   1      37.362  29.300  29.941  1.00  0.00     0.010 A 
ATOM     37  C   UNL A   1      38.097  29.826  27.697  1.00  0.00     0.010 A 
ATOM     38  C   UNL A   1      38.393  29.365  28.990  1.00  0.00    -0.014 A 
BRANCH  38  39
ATOM     39  C   UNL A   1      39.777  28.935  29.322  1.00  0.00     0.031 A 
ATOM     40  C   UNL A   1      40.291  27.594  28.870  1.00  0.00     0.074 A 
ATOM     41  C   UNL A   1      40.556  29.726  30.087  1.00  0.00     0.049 A 
ATOM     42  N   UNL A   1      41.446  27.026  29.117  1.00  0.00    -0.248 NA
ATOM     43  C   UNL A   1      39.381  26.774  28.055  1.00  0.00     0.031 C 
ATOM     44  C   UNL A   1      40.173  31.035  30.621  1.00  0.00     0.029 A 
ATOM     45  N   UNL A   1      41.835  29.541  30.553  1.00  0.00    -0.354 N 
ATOM     46  C   UNL A   1      41.395  25.783  28.500  1.00  0.00     0.074 A 
ATOM     47  C   UNL A   1      40.078  25.656  27.914  1.00  0.00     0.031 C 
ATOM     48  C   UNL A   1      41.202  31.546  31.315  1.00  0.00     0.029 A 
ATOM     49  C   UNL A   1      42.301  30.584  31.317  1.00  0.00     0.049 A 
ATOM     50  H   UNL A   1      42.369  28.736  30.360  1.00  0.00     0.167 HD
ATOM     51  C   UNL A   1      42.361  24.837  28.414  1.00  0.00     0.031 A 
ATOM     52  C   UNL A   1      43.474  30.749  31.957  1.00  0.00     0.031 A 
ATOM     53  C   UNL A   1      43.673  24.961  28.991  1.00  0.00     0.049 A 
ATOM     54  C   UNL A   1      44.518  29.669  31.871  1.00  0.00     0.074 A 
ATOM     55  C   UNL A   1      44.735  24.077  28.910  1.00  0.00     0.029 A 
ATOM     56  N   UNL A   1      44.102  26.032  29.759  1.00  0.00    -0.354 N 
ATOM     57  N   UNL A   1      44.476  28.528  31.228  1.00  0.00    -0.248 NA
ATOM     58  C   UNL A   1      45.778  29.908  32.592  1.00  0.00     0.031 C 
ATOM     59  C   UNL A   1      45.786  24.585  29.682  1.00  0.00     0.029 A 
ATOM     60  C   UNL A   1      45.401  25.816  30.184  1.00  0.00     0.049 A 
ATOM     61  H   UNL A   1      43.562  26.828  29.969  1.00  0.00     0.167 HD
ATOM     62  C   UNL A   1      45.712  27.928  31.441  1.00  0.00     0.074 A 
ATOM     63  C   UNL A   1      46.486  28.840  32.256  1.00  0.00     0.031 C 
ATOM     64  C   UNL A   1      46.163  26.730  30.997  1.00  0.00     0.031 A 
BRANCH  51  65
ATOM     65  C   UNL A   1      42.028  23.570  27.670  1.00  0.00    -0.014 A 
ATOM     66  C   UNL A   1      42.368  23.407  26.318  1.00  0.00     0.009 A 
ATOM     67  C   UNL A   1      41.405  22.508  28.346  1.00  0.00     0.009 A 
ATOM     68  C   UNL A   1      42.058  22.221  25.648  1.00  0.00     0.001 A 
ATOM     69  C   UNL A   1      41.125  21.312  27.682  1.00  0.00     0.001 A 
ATOM     70  C   UNL A   1      41.443  21.173  26.332  1.00  0.00     0.000 A 
ENDBRANCH  51  65
BRANCH  52  71
ATOM     71  C   UNL A   1      43.735  31.990  32.735  1.00  0.00    -0.014 A 
ATOM     72  C   UNL A   1      44.260  33.130  32.106  1.00  0.00     0.009 A 
ATOM     73  C   UNL A   1      43.480  32.035  34.115  1.00  0.00     0.009 A 
ATOM     74  C   UNL A   1      44.552  34.277  32.847  1.00  0.00     0.001 A 
ATOM     75  C   UNL A   1      43.743  33.195  34.848  1.00  0.00     0.001 A 
ATOM     76  C   UNL A   1      44.289  34.310  34.216  1.00  0.00     0.000 A 
ENDBRANCH  52  71
BRANCH  64  77
ATOM     77  C   UNL A   1      47.576  26.351  31.349  1.00  0.00    -0.014 A 
ATOM     78  C   UNL A   1      48.629  26.520  30.437  1.00  0.00     0.009 A 
ATOM     79  C   UNL A   1      47.861  25.854  32.631  1.00  0.00     0.009 A 
ATOM     80  C   UNL A   1      49.932  26.164  30.789  1.00  0.00     0.001 A 
ATOM     81  C   UNL A   1      49.170  25.531  32.992  1.00  0.00     0.001 A 
ATOM     82  C   UNL A   1      50.203  25.675  32.067  1.00  0.00     0.000 A 
ENDBRANCH  64  77
ENDBRANCH  38  39
ENDBRANCH  30  33
ENDBRANCH  28  29
ENDBRANCH  27  28
ENDBRANCH   1  27
TORSDOF 15
ENDMDL
MODEL 3
REMARK VINA RESULT:      -9.5      4.849     10.597
REMARK SMILES O=C(CNc1nc(-c2ccccc2)c(-c2ccccc2)s1)NCCCCNC(=O)c1ccc(-c2c3nc(c(-c4ccccc4)c4ccc([nH]4)c(-c4ccccc4)c4nc(c(-c5ccccc5)c5ccc2[nH]5)C=C4)C=C3)cc1
REMARK SMILES IDX 24 1 23 2 22 3 1 4 2 5 3 7 4 8 5 10 6 11 21 12 7 13 14 14
REMARK SMILES IDX 8 15 9 16 13 17 10 18 12 19 11 20 15 21 16 22 20 23 17 24
REMARK SMILES IDX 19 25 18 26 25 27 26 28 27 29 28 30 29 32 30 33 31 34 77 35
REMARK SMILES IDX 32 36 76 37 33 38 34 39 35 40 70 41 36 42 75 43 69 44 71 45
REMARK SMILES IDX 37 46 74 47 68 48 67 49 38 51 60 52 45 53 59 54 46 55 49 56
REMARK SMILES IDX 58 57 72 58 47 59 48 60 57 62 73 63 50 64 39 65 40 66 44 67
REMARK SMILES IDX 41 68 43 69 42 70 61 71 62 72 66 73 63 74 65 75 64 76 51 77
REMARK SMILES IDX 52 78 56 79 53 80 55 81 54 82
REMARK H PARENT 22 6 4 9 27 31 71 50 49 61
REMARK Flexibility Score: inf
ROOT
ATOM      1  C   UNL A   1      36.493  20.678  25.000  1.00  0.00     0.023 C 
ENDROOT
BRANCH   1   2
ATOM      2  C   UNL A   1      35.169  19.917  24.941  1.00  0.00     0.116 C 
BRANCH   2   3
ATOM      3  N   UNL A   1      34.020  20.792  25.037  1.00  0.00    -0.355 N 
ATOM      4  O   UNL A   1      32.431  19.151  25.335  1.00  0.00    -0.273 OA
ATOM      5  C   UNL A   1      32.730  20.338  25.255  1.00  0.00     0.239 C 
ATOM      6  H   UNL A   1      34.163  21.761  24.940  1.00  0.00     0.163 HD
BRANCH   5   7
ATOM      7  C   UNL A   1      31.697  21.474  25.369  1.00  0.00     0.215 C 
BRANCH   7   8
ATOM      8  N   UNL A   1      31.830  22.352  24.213  1.00  0.00    -0.352 N 
ATOM      9  H   UNL A   1      32.038  21.955  23.336  1.00  0.00     0.163 HD
BRANCH   8  10
ATOM     10  C   UNL A   1      31.679  23.684  24.304  1.00  0.00     0.184 A 
ATOM     11  N   UNL A   1      32.190  24.458  25.231  1.00  0.00    -0.220 NA
ATOM     12  S   UNL A   1      30.696  24.482  23.140  1.00  0.00    -0.096 S 
ATOM     13  C   UNL A   1      31.774  25.767  25.037  1.00  0.00     0.091 A 
ATOM     14  C   UNL A   1      30.899  25.962  23.977  1.00  0.00     0.064 A 
BRANCH  13  15
ATOM     15  C   UNL A   1      32.255  26.857  25.874  1.00  0.00     0.002 A 
ATOM     16  C   UNL A   1      31.426  27.446  26.838  1.00  0.00     0.010 A 
ATOM     17  C   UNL A   1      33.524  27.399  25.637  1.00  0.00     0.010 A 
ATOM     18  C   UNL A   1      31.842  28.591  27.521  1.00  0.00     0.001 A 
ATOM     19  C   UNL A   1      33.936  28.546  26.320  1.00  0.00     0.001 A 
ATOM     20  C   UNL A   1      33.092  29.147  27.252  1.00  0.00     0.000 A 
ENDBRANCH  13  15
BRANCH  14  21
ATOM     21  C   UNL A   1      30.218  27.167  23.506  1.00  0.00    -0.006 A 
ATOM     22  C   UNL A   1      30.937  28.168  22.835  1.00  0.00     0.009 A 
ATOM     23  C   UNL A   1      28.831  27.306  23.649  1.00  0.00     0.009 A 
ATOM     24  C   UNL A   1      30.279  29.282  22.313  1.00  0.00     0.001 A 
ATOM     25  C   UNL A   1      28.174  28.421  23.126  1.00  0.00     0.001 A 
ATOM     26  C   UNL A   1      28.899  29.406  22.456  1.00  0.00     0.000 A 
ENDBRANCH  14  21
ENDBRANCH   8  10
ENDBRANCH   7   8
ENDBRANCH   5   7
ENDBRANCH   2   3
ENDBRANCH   1   2
BRANCH   1  27
ATOM     27  C   UNL A   1      37.751  19.808  24.927  1.00  0.00     0.023 C 
BRANCH  27  28
ATOM     28  C   UNL A   1      38.941  20.295  25.751  1.00  0.00     0.116 C 
BRANCH  28  29
ATOM     29  N   UNL A   1      40.029  19.332  25.811  1.00  0.00    -0.352 N 
ATOM     30  C   UNL A   1      41.354  19.523  26.126  1.00  0.00     0.251 C 
ATOM     31  H   UNL A   1      39.780  18.404  25.595  1.00  0.00     0.163 HD
ATOM     32  O   UNL A   1      42.153  18.598  25.997  1.00  0.00    -0.269 OA
BRANCH  30  33
ATOM     33  C   UNL A   1      41.837  20.845  26.588  1.00  0.00     0.039 A 
ATOM     34  C   UNL A   1      42.270  21.773  25.636  1.00  0.00     0.014 A 
ATOM     35  C   UNL A   1      41.873  21.173  27.945  1.00  0.00     0.014 A 
ATOM     36  C   UNL A   1      42.664  23.052  26.038  1.00  0.00     0.010 A 
ATOM     37  C   UNL A   1      42.193  22.473  28.338  1.00  0.00     0.010 A 
ATOM     38  C   UNL A   1      42.588  23.429  27.389  1.00  0.00    -0.014 A 
BRANCH  38  39
ATOM     39  C   UNL A   1      42.897  24.817  27.821  1.00  0.00     0.031 A 
ATOM     40  C   UNL A   1      44.320  25.242  28.069  1.00  0.00     0.074 A 
ATOM     41  C   UNL A   1      41.892  25.684  28.054  1.00  0.00     0.049 A 
ATOM     42  N   UNL A   1      44.775  26.390  28.507  1.00  0.00    -0.248 NA
ATOM     43  C   UNL A   1      45.367  24.240  27.812  1.00  0.00     0.031 C 
ATOM     44  C   UNL A   1      40.465  25.394  27.887  1.00  0.00     0.029 A 
ATOM     45  N   UNL A   1      41.915  26.987  28.487  1.00  0.00    -0.354 N 
ATOM     46  C   UNL A   1      46.154  26.243  28.591  1.00  0.00     0.074 A 
ATOM     47  C   UNL A   1      46.457  24.880  28.210  1.00  0.00     0.031 C 
ATOM     48  C   UNL A   1      39.755  26.493  28.185  1.00  0.00     0.029 A 
ATOM     49  C   UNL A   1      40.667  27.551  28.610  1.00  0.00     0.049 A 
ATOM     50  H   UNL A   1      42.747  27.473  28.692  1.00  0.00     0.167 HD
ATOM     51  C   UNL A   1      47.087  27.162  28.937  1.00  0.00     0.031 A 
ATOM     52  C   UNL A   1      40.294  28.777  29.025  1.00  0.00     0.031 A 
ATOM     53  C   UNL A   1      46.790  28.519  29.311  1.00  0.00     0.049 A 
ATOM     54  C   UNL A   1      41.349  29.769  29.434  1.00  0.00     0.074 A 
ATOM     55  C   UNL A   1      47.674  29.538  29.627  1.00  0.00     0.029 A 
ATOM     56  N   UNL A   1      45.514  29.048  29.425  1.00  0.00    -0.354 N 
ATOM     57  N   UNL A   1      42.652  29.632  29.445  1.00  0.00    -0.248 NA
ATOM     58  C   UNL A   1      40.878  31.089  29.879  1.00  0.00     0.031 C 
ATOM     59  C   UNL A   1      46.929  30.665  29.993  1.00  0.00     0.029 A 
ATOM     60  C   UNL A   1      45.585  30.368  29.837  1.00  0.00     0.049 A 
ATOM     61  H   UNL A   1      44.681  28.558  29.240  1.00  0.00     0.167 HD
ATOM     62  C   UNL A   1      43.157  30.857  29.865  1.00  0.00     0.074 A 
ATOM     63  C   UNL A   1      42.021  31.727  30.082  1.00  0.00     0.031 C 
ATOM     64  C   UNL A   1      44.448  31.226  30.051  1.00  0.00     0.031 A 
BRANCH  51  65
ATOM     65  C   UNL A   1      48.527  26.724  28.936  1.00  0.00    -0.014 A 
ATOM     66  C   UNL A   1      49.105  26.112  30.060  1.00  0.00     0.009 A 
ATOM     67  C   UNL A   1      49.305  26.886  27.778  1.00  0.00     0.009 A 
ATOM     68  C   UNL A   1      50.441  25.706  30.036  1.00  0.00     0.001 A 
ATOM     69  C   UNL A   1      50.631  26.449  27.746  1.00  0.00     0.001 A 
ATOM     70  C   UNL A   1      51.200  25.870  28.878  1.00  0.00     0.000 A 
ENDBRANCH  51  65
BRANCH  52  71
ATOM     71  C   UNL A   1      38.854  29.145  29.073  1.00  0.00    -0.014 A 
ATOM     72  C   UNL A   1      38.223  29.704  27.950  1.00  0.00     0.009 A 
ATOM     73  C   UNL A   1      38.106  28.958  30.246  1.00  0.00     0.009 A 
ATOM     74  C   UNL A   1      36.884  30.097  28.012  1.00  0.00     0.001 A 
ATOM     75  C   UNL A   1      36.759  29.322  30.295  1.00  0.00     0.001 A 
ATOM     76  C   UNL A   1      36.152  29.902  29.182  1.00  0.00     0.000 A 
ENDBRANCH  52  71
BRANCH  64  77
ATOM     77  C   UNL A   1      44.706  32.647  30.475  1.00  0.00    -0.014 A 
ATOM     78  C   UNL A   1      44.983  33.652  29.536  1.00  0.00     0.009 A 
ATOM     79  C   UNL A   1      44.630  32.989  31.834  1.00  0.00     0.009 A 
ATOM     80  C   UNL A   1      45.215  34.964  29.955  1.00  0.00     0.001 A 
ATOM     81  C   UNL A   1      44.828  34.307  32.246  1.00  0.00     0.001 A 
ATOM     82  C   UNL A   1      45.132  35.292  31.308  1.00  0.00     0.000 A 
ENDBRANCH  64  77
ENDBRANCH  38  39
ENDBRANCH  30  33
ENDBRANCH  28  29
ENDBRANCH  27  28
ENDBRANCH   1  27
TORSDOF 15
ENDMDL
