MODEL 1
REMARK VINA RESULT:     -11.5      0.000      0.000
REMARK SMILES Cc1cc2c(c(C)c1Cl)C=C(C(=O)NCCCCNC(=O)c1ccc(-c3c4nc(c(-c5ccccc5)c5ccc([nH]5)c(-c5ccccc5)c5nc(c(-c6ccccc6)c6ccc3[nH]6)C=C5)C=C4)cc1)[C@@H](C(F)(F)F)O2
REMARK SMILES IDX 17 1 16 2 15 3 14 4 12 5 13 6 11 8 1 9 2 10 3 11 8 12 4 13
REMARK SMILES IDX 6 14 9 15 5 16 75 17 7 18 10 19 70 20 71 21 72 22 73 23
REMARK SMILES IDX 74 24 18 25 19 26 20 27 21 29 22 30 23 31 69 32 24 33 68 34
REMARK SMILES IDX 25 35 26 36 27 37 62 38 28 39 67 40 61 41 63 42 29 43 66 44
REMARK SMILES IDX 60 45 59 46 30 48 52 49 37 50 51 51 38 52 41 53 50 54 64 55
REMARK SMILES IDX 39 56 40 57 49 59 65 60 42 61 31 62 32 63 36 64 33 65 35 66
REMARK SMILES IDX 34 67 53 68 54 69 58 70 55 71 57 72 56 73 43 74 44 75 48 76
REMARK SMILES IDX 45 77 47 78 46 79
REMARK H PARENT 14 7 19 28 63 47 41 58
REMARK Flexibility Score: inf
ROOT
ATOM      1  C   UNL A   1      33.645  28.558  25.503  1.00  0.00     0.023 C 
ENDROOT
BRANCH   1   2
ATOM      2  C   UNL A   1      33.669  27.159  24.887  1.00  0.00     0.023 C 
BRANCH   2   3
ATOM      3  C   UNL A   1      32.309  26.681  24.384  1.00  0.00     0.116 C 
BRANCH   3   4
ATOM      4  N   UNL A   1      31.551  26.018  25.428  1.00  0.00    -0.352 N 
ATOM      5  C   UNL A   1      31.528  24.795  26.010  1.00  0.00     0.251 C 
ATOM      6  O   UNL A   1      30.678  24.655  26.895  1.00  0.00    -0.270 OA
ATOM      7  H   UNL A   1      30.873  26.616  25.818  1.00  0.00     0.163 HD
BRANCH   5   8
ATOM      8  C   UNL A   1      32.431  23.657  25.664  1.00  0.00     0.067 C 
ATOM      9  C   UNL A   1      37.255  19.392  24.737  1.00  0.00     0.046 C 
ATOM     10  C   UNL A   1      36.414  20.579  25.123  1.00  0.00    -0.028 A 
ATOM     11  C   UNL A   1      35.031  20.462  24.951  1.00  0.00     0.052 A 
ATOM     12  C   UNL A   1      36.939  21.805  25.582  1.00  0.00     0.047 A 
ATOM     13  C   UNL A   1      34.187  21.528  25.241  1.00  0.00     0.128 A 
ATOM     14  C   UNL A   1      36.084  22.891  25.907  1.00  0.00    -0.021 A 
ATOM     15  Cl  UNL A   1      38.662  21.968  25.739  1.00  0.00    -0.084 Cl
ATOM     16  C   UNL A   1      34.688  22.737  25.728  1.00  0.00     0.022 A 
ATOM     17  O   UNL A   1      32.857  21.285  25.055  1.00  0.00    -0.475 OA
ATOM     18  C   UNL A   1      36.625  24.201  26.432  1.00  0.00     0.047 C 
ATOM     19  C   UNL A   1      33.713  23.785  26.057  1.00  0.00     0.026 C 
ATOM     20  C   UNL A   1      32.004  22.444  24.895  1.00  0.00     0.314 C 
BRANCH  20  21
ATOM     21  C   UNL A   1      31.802  22.729  23.394  1.00  0.00     0.429 C 
ATOM     22  F   UNL A   1      32.763  23.574  22.941  1.00  0.00    -0.167 F 
ATOM     23  F   UNL A   1      31.892  21.611  22.636  1.00  0.00    -0.167 F 
ATOM     24  F   UNL A   1      30.604  23.294  23.125  1.00  0.00    -0.167 F 
ENDBRANCH  20  21
ENDBRANCH   5   8
ENDBRANCH   3   4
ENDBRANCH   2   3
ENDBRANCH   1   2
BRANCH   1  25
ATOM     25  C   UNL A   1      33.832  28.607  27.018  1.00  0.00     0.116 C 
BRANCH  25  26
ATOM     26  N   UNL A   1      33.725  29.947  27.576  1.00  0.00    -0.352 N 
ATOM     27  C   UNL A   1      34.671  30.659  28.271  1.00  0.00     0.251 C 
ATOM     28  H   UNL A   1      32.863  30.402  27.437  1.00  0.00     0.163 HD
ATOM     29  O   UNL A   1      34.400  31.749  28.763  1.00  0.00    -0.269 OA
BRANCH  27  30
ATOM     30  C   UNL A   1      36.013  30.075  28.451  1.00  0.00     0.039 A 
ATOM     31  C   UNL A   1      36.935  30.171  27.407  1.00  0.00     0.014 A 
ATOM     32  C   UNL A   1      36.364  29.476  29.664  1.00  0.00     0.014 A 
ATOM     33  C   UNL A   1      38.239  29.716  27.602  1.00  0.00     0.010 A 
ATOM     34  C   UNL A   1      37.678  29.080  29.877  1.00  0.00     0.010 A 
ATOM     35  C   UNL A   1      38.625  29.194  28.847  1.00  0.00    -0.014 A 
BRANCH  35  36
ATOM     36  C   UNL A   1      40.010  28.731  29.091  1.00  0.00     0.031 A 
ATOM     37  C   UNL A   1      40.999  29.663  29.729  1.00  0.00     0.074 A 
ATOM     38  C   UNL A   1      40.390  27.505  28.687  1.00  0.00     0.049 A 
ATOM     39  N   UNL A   1      42.279  29.493  29.936  1.00  0.00    -0.248 NA
ATOM     40  C   UNL A   1      40.484  30.970  30.174  1.00  0.00     0.031 C 
ATOM     41  C   UNL A   1      39.524  26.515  28.046  1.00  0.00     0.029 A 
ATOM     42  N   UNL A   1      41.612  26.886  28.755  1.00  0.00    -0.354 N 
ATOM     43  C   UNL A   1      42.724  30.671  30.519  1.00  0.00     0.074 A 
ATOM     44  C   UNL A   1      41.590  31.566  30.592  1.00  0.00     0.031 C 
ATOM     45  C   UNL A   1      40.236  25.401  27.804  1.00  0.00     0.029 A 
ATOM     46  C   UNL A   1      41.614  25.616  28.234  1.00  0.00     0.049 A 
ATOM     47  H   UNL A   1      42.412  27.312  29.141  1.00  0.00     0.167 HD
ATOM     48  C   UNL A   1      43.962  30.975  30.973  1.00  0.00     0.031 A 
ATOM     49  C   UNL A   1      42.618  24.727  28.111  1.00  0.00     0.031 A 
ATOM     50  C   UNL A   1      45.086  30.082  30.910  1.00  0.00     0.049 A 
ATOM     51  C   UNL A   1      43.992  25.101  28.592  1.00  0.00     0.074 A 
ATOM     52  C   UNL A   1      46.376  30.287  31.365  1.00  0.00     0.029 A 
ATOM     53  N   UNL A   1      45.051  28.809  30.361  1.00  0.00    -0.354 N 
ATOM     54  N   UNL A   1      44.395  26.213  29.157  1.00  0.00    -0.248 NA
ATOM     55  C   UNL A   1      45.049  24.094  28.421  1.00  0.00     0.031 C 
ATOM     56  C   UNL A   1      47.132  29.151  31.057  1.00  0.00     0.029 A 
ATOM     57  C   UNL A   1      46.300  28.222  30.455  1.00  0.00     0.049 A 
ATOM     58  H   UNL A   1      44.254  28.386  29.965  1.00  0.00     0.167 HD
ATOM     59  C   UNL A   1      45.745  26.033  29.428  1.00  0.00     0.074 A 
ATOM     60  C   UNL A   1      46.088  24.699  28.979  1.00  0.00     0.031 C 
ATOM     61  C   UNL A   1      46.622  26.895  29.996  1.00  0.00     0.031 A 
BRANCH  48  62
ATOM     62  C   UNL A   1      44.159  32.334  31.580  1.00  0.00    -0.014 A 
ATOM     63  C   UNL A   1      44.502  33.438  30.783  1.00  0.00     0.009 A 
ATOM     64  C   UNL A   1      43.972  32.521  32.958  1.00  0.00     0.009 A 
ATOM     65  C   UNL A   1      44.682  34.697  31.359  1.00  0.00     0.001 A 
ATOM     66  C   UNL A   1      44.127  33.786  33.527  1.00  0.00     0.001 A 
ATOM     67  C   UNL A   1      44.489  34.871  32.729  1.00  0.00     0.000 A 
ENDBRANCH  48  62
BRANCH  49  68
ATOM     68  C   UNL A   1      42.356  23.389  27.524  1.00  0.00    -0.014 A 
ATOM     69  C   UNL A   1      42.603  23.155  26.163  1.00  0.00     0.009 A 
ATOM     70  C   UNL A   1      41.869  22.338  28.316  1.00  0.00     0.009 A 
ATOM     71  C   UNL A   1      42.351  21.900  25.603  1.00  0.00     0.001 A 
ATOM     72  C   UNL A   1      41.641  21.078  27.759  1.00  0.00     0.001 A 
ATOM     73  C   UNL A   1      41.876  20.861  26.402  1.00  0.00     0.000 A 
ENDBRANCH  49  68
BRANCH  61  74
ATOM     74  C   UNL A   1      48.033  26.416  30.183  1.00  0.00    -0.014 A 
ATOM     75  C   UNL A   1      48.429  25.769  31.363  1.00  0.00     0.009 A 
ATOM     76  C   UNL A   1      48.963  26.569  29.141  1.00  0.00     0.009 A 
ATOM     77  C   UNL A   1      49.739  25.309  31.507  1.00  0.00     0.001 A 
ATOM     78  C   UNL A   1      50.263  26.084  29.279  1.00  0.00     0.001 A 
ATOM     79  C   UNL A   1      50.652  25.462  30.465  1.00  0.00     0.000 A 
ENDBRANCH  61  74
ENDBRANCH  35  36
ENDBRANCH  27  30
ENDBRANCH  25  26
ENDBRANCH   1  25
TORSDOF 12
ENDMDL
MODEL 2
REMARK VINA RESULT:     -11.3      2.258      7.211
REMARK SMILES Cc1cc2c(c(C)c1Cl)C=C(C(=O)NCCCCNC(=O)c1ccc(-c3c4nc(c(-c5ccccc5)c5ccc([nH]5)c(-c5ccccc5)c5nc(c(-c6ccccc6)c6ccc3[nH]6)C=C5)C=C4)cc1)[C@@H](C(F)(F)F)O2
REMARK SMILES IDX 17 1 16 2 15 3 14 4 12 5 13 6 11 8 1 9 2 10 3 11 8 12 4 13
REMARK SMILES IDX 6 14 9 15 5 16 75 17 7 18 10 19 70 20 71 21 72 22 73 23
REMARK SMILES IDX 74 24 18 25 19 26 20 27 21 29 22 30 23 31 69 32 24 33 68 34
REMARK SMILES IDX 25 35 26 36 27 37 62 38 28 39 67 40 61 41 63 42 29 43 66 44
REMARK SMILES IDX 60 45 59 46 30 48 52 49 37 50 51 51 38 52 41 53 50 54 64 55
REMARK SMILES IDX 39 56 40 57 49 59 65 60 42 61 31 62 32 63 36 64 33 65 35 66
REMARK SMILES IDX 34 67 53 68 54 69 58 70 55 71 57 72 56 73 43 74 44 75 48 76
REMARK SMILES IDX 45 77 47 78 46 79
REMARK H PARENT 14 7 19 28 63 47 41 58
REMARK Flexibility Score: inf
ROOT
ATOM      1  C   UNL A   1      37.421  20.837  24.601  1.00  0.00     0.023 C 
ENDROOT
BRANCH   1   2
ATOM      2  C   UNL A   1      36.741  22.173  24.298  1.00  0.00     0.023 C 
BRANCH   2   3
ATOM      3  C   UNL A   1      36.734  23.145  25.475  1.00  0.00     0.116 C 
BRANCH   3   4
ATOM      4  N   UNL A   1      35.649  22.866  26.397  1.00  0.00    -0.352 N 
ATOM      5  C   UNL A   1      34.356  23.240  26.548  1.00  0.00     0.251 C 
ATOM      6  O   UNL A   1      33.778  22.743  27.519  1.00  0.00    -0.270 OA
ATOM      7  H   UNL A   1      35.926  22.237  27.102  1.00  0.00     0.163 HD
BRANCH   5   8
ATOM      8  C   UNL A   1      33.618  24.175  25.646  1.00  0.00     0.067 C 
ATOM      9  C   UNL A   1      30.710  29.124  22.584  1.00  0.00     0.046 C 
ATOM     10  C   UNL A   1      31.470  28.250  23.546  1.00  0.00    -0.028 A 
ATOM     11  C   UNL A   1      31.764  26.949  23.127  1.00  0.00     0.052 A 
ATOM     12  C   UNL A   1      31.842  28.644  24.848  1.00  0.00     0.047 A 
ATOM     13  C   UNL A   1      32.423  26.063  23.972  1.00  0.00     0.128 A 
ATOM     14  C   UNL A   1      32.539  27.756  25.709  1.00  0.00    -0.021 A 
ATOM     15  Cl  UNL A   1      31.424  30.242  25.388  1.00  0.00    -0.084 Cl
ATOM     16  C   UNL A   1      32.828  26.448  25.252  1.00  0.00     0.022 A 
ATOM     17  O   UNL A   1      32.674  24.830  23.442  1.00  0.00    -0.475 OA
ATOM     18  C   UNL A   1      32.976  28.170  27.096  1.00  0.00     0.047 C 
ATOM     19  C   UNL A   1      33.565  25.460  26.049  1.00  0.00     0.026 C 
ATOM     20  C   UNL A   1      32.924  23.760  24.385  1.00  0.00     0.314 C 
BRANCH  20  21
ATOM     21  C   UNL A   1      31.614  22.992  24.649  1.00  0.00     0.429 C 
ATOM     22  F   UNL A   1      31.854  21.658  24.713  1.00  0.00    -0.167 F 
ATOM     23  F   UNL A   1      31.042  23.332  25.829  1.00  0.00    -0.167 F 
ATOM     24  F   UNL A   1      30.686  23.193  23.687  1.00  0.00    -0.167 F 
ENDBRANCH  20  21
ENDBRANCH   5   8
ENDBRANCH   3   4
ENDBRANCH   2   3
ENDBRANCH   1   2
BRANCH   1  25
ATOM     25  C   UNL A   1      38.457  20.873  25.722  1.00  0.00     0.116 C 
BRANCH  25  26
ATOM     26  N   UNL A   1      39.448  19.810  25.635  1.00  0.00    -0.352 N 
ATOM     27  C   UNL A   1      40.777  19.854  25.976  1.00  0.00     0.251 C 
ATOM     28  H   UNL A   1      39.124  18.949  25.286  1.00  0.00     0.163 HD
ATOM     29  O   UNL A   1      41.514  18.898  25.756  1.00  0.00    -0.269 OA
BRANCH  27  30
ATOM     30  C   UNL A   1      41.319  21.085  26.579  1.00  0.00     0.039 A 
ATOM     31  C   UNL A   1      41.886  22.051  25.745  1.00  0.00     0.014 A 
ATOM     32  C   UNL A   1      41.223  21.297  27.957  1.00  0.00     0.014 A 
ATOM     33  C   UNL A   1      42.306  23.264  26.289  1.00  0.00     0.010 A 
ATOM     34  C   UNL A   1      41.585  22.528  28.487  1.00  0.00     0.010 A 
ATOM     35  C   UNL A   1      42.132  23.520  27.659  1.00  0.00    -0.014 A 
BRANCH  35  36
ATOM     36  C   UNL A   1      42.542  24.810  28.259  1.00  0.00     0.031 A 
ATOM     37  C   UNL A   1      41.523  25.896  28.442  1.00  0.00     0.074 A 
ATOM     38  C   UNL A   1      43.832  25.023  28.579  1.00  0.00     0.049 A 
ATOM     39  N   UNL A   1      41.693  27.128  28.850  1.00  0.00    -0.248 NA
ATOM     40  C   UNL A   1      40.129  25.561  28.100  1.00  0.00     0.031 C 
ATOM     41  C   UNL A   1      44.915  24.049  28.437  1.00  0.00     0.029 A 
ATOM     42  N   UNL A   1      44.448  26.137  29.089  1.00  0.00    -0.354 N 
ATOM     43  C   UNL A   1      40.436  27.715  28.800  1.00  0.00     0.074 A 
ATOM     44  C   UNL A   1      39.521  26.723  28.279  1.00  0.00     0.031 C 
ATOM     45  C   UNL A   1      46.060  24.600  28.876  1.00  0.00     0.029 A 
ATOM     46  C   UNL A   1      45.797  25.975  29.289  1.00  0.00     0.049 A 
ATOM     47  H   UNL A   1      43.970  26.973  29.293  1.00  0.00     0.167 HD
ATOM     48  C   UNL A   1      40.071  28.964  29.173  1.00  0.00     0.031 A 
ATOM     49  C   UNL A   1      46.719  26.842  29.749  1.00  0.00     0.031 A 
ATOM     50  C   UNL A   1      40.978  29.946  29.700  1.00  0.00     0.049 A 
ATOM     51  C   UNL A   1      46.295  28.233  30.124  1.00  0.00     0.074 A 
ATOM     52  C   UNL A   1      40.702  31.231  30.130  1.00  0.00     0.029 A 
ATOM     53  N   UNL A   1      42.339  29.748  29.873  1.00  0.00    -0.354 N 
ATOM     54  N   UNL A   1      45.099  28.771  30.088  1.00  0.00    -0.248 NA
ATOM     55  C   UNL A   1      47.348  29.137  30.610  1.00  0.00     0.031 C 
ATOM     56  C   UNL A   1      41.904  31.825  30.528  1.00  0.00     0.029 A 
ATOM     57  C   UNL A   1      42.919  30.892  30.392  1.00  0.00     0.049 A 
ATOM     58  H   UNL A   1      42.821  28.916  29.659  1.00  0.00     0.167 HD
ATOM     59  C   UNL A   1      45.252  30.067  30.563  1.00  0.00     0.074 A 
ATOM     60  C   UNL A   1      46.653  30.229  30.896  1.00  0.00     0.031 C 
ATOM     61  C   UNL A   1      44.316  31.035  30.710  1.00  0.00     0.031 A 
BRANCH  48  62
ATOM     62  C   UNL A   1      38.623  29.332  29.023  1.00  0.00    -0.014 A 
ATOM     63  C   UNL A   1      38.110  29.758  27.788  1.00  0.00     0.009 A 
ATOM     64  C   UNL A   1      37.755  29.225  30.121  1.00  0.00     0.009 A 
ATOM     65  C   UNL A   1      36.761  30.097  27.662  1.00  0.00     0.001 A 
ATOM     66  C   UNL A   1      36.402  29.539  29.984  1.00  0.00     0.001 A 
ATOM     67  C   UNL A   1      35.908  29.983  28.758  1.00  0.00     0.000 A 
ENDBRANCH  48  62
BRANCH  49  68
ATOM     68  C   UNL A   1      48.133  26.412  29.897  1.00  0.00    -0.014 A 
ATOM     69  C   UNL A   1      49.032  26.565  28.832  1.00  0.00     0.009 A 
ATOM     70  C   UNL A   1      48.594  25.856  31.101  1.00  0.00     0.009 A 
ATOM     71  C   UNL A   1      50.361  26.155  28.963  1.00  0.00     0.001 A 
ATOM     72  C   UNL A   1      49.928  25.469  31.237  1.00  0.00     0.001 A 
ATOM     73  C   UNL A   1      50.809  25.613  30.166  1.00  0.00     0.000 A 
ENDBRANCH  49  68
BRANCH  61  74
ATOM     74  C   UNL A   1      44.772  32.352  31.272  1.00  0.00    -0.014 A 
ATOM     75  C   UNL A   1      45.189  33.394  30.430  1.00  0.00     0.009 A 
ATOM     76  C   UNL A   1      44.733  32.566  32.658  1.00  0.00     0.009 A 
ATOM     77  C   UNL A   1      45.586  34.619  30.971  1.00  0.00     0.001 A 
ATOM     78  C   UNL A   1      45.105  33.799  33.193  1.00  0.00     0.001 A 
ATOM     79  C   UNL A   1      45.538  34.822  32.350  1.00  0.00     0.000 A 
ENDBRANCH  61  74
ENDBRANCH  35  36
ENDBRANCH  27  30
ENDBRANCH  25  26
ENDBRANCH   1  25
TORSDOF 12
ENDMDL
MODEL 3
REMARK VINA RESULT:     -11.3      2.851      7.972
REMARK SMILES Cc1cc2c(c(C)c1Cl)C=C(C(=O)NCCCCNC(=O)c1ccc(-c3c4nc(c(-c5ccccc5)c5ccc([nH]5)c(-c5ccccc5)c5nc(c(-c6ccccc6)c6ccc3[nH]6)C=C5)C=C4)cc1)[C@@H](C(F)(F)F)O2
REMARK SMILES IDX 17 1 16 2 15 3 14 4 12 5 13 6 11 8 1 9 2 10 3 11 8 12 4 13
REMARK SMILES IDX 6 14 9 15 5 16 75 17 7 18 10 19 70 20 71 21 72 22 73 23
REMARK SMILES IDX 74 24 18 25 19 26 20 27 21 29 22 30 23 31 69 32 24 33 68 34
REMARK SMILES IDX 25 35 26 36 27 37 62 38 28 39 67 40 61 41 63 42 29 43 66 44
REMARK SMILES IDX 60 45 59 46 30 48 52 49 37 50 51 51 38 52 41 53 50 54 64 55
REMARK SMILES IDX 39 56 40 57 49 59 65 60 42 61 31 62 32 63 36 64 33 65 35 66
REMARK SMILES IDX 34 67 53 68 54 69 58 70 55 71 57 72 56 73 43 74 44 75 48 76
REMARK SMILES IDX 45 77 47 78 46 79
REMARK H PARENT 14 7 19 28 63 47 41 58
REMARK Flexibility Score: inf
ROOT
ATOM      1  C   UNL A   1      35.803  23.433  26.087  1.00  0.00     0.023 C 
ENDROOT
BRANCH   1   2
ATOM      2  C   UNL A   1      34.753  22.504  25.476  1.00  0.00     0.023 C 
BRANCH   2   3
ATOM      3  C   UNL A   1      33.505  23.226  24.973  1.00  0.00     0.116 C 
BRANCH   3   4
ATOM      4  N   UNL A   1      33.641  23.635  23.587  1.00  0.00    -0.352 N 
ATOM      5  C   UNL A   1      33.344  24.727  22.844  1.00  0.00     0.251 C 
ATOM      6  O   UNL A   1      33.640  24.641  21.648  1.00  0.00    -0.270 OA
ATOM      7  H   UNL A   1      34.062  22.931  23.042  1.00  0.00     0.163 HD
BRANCH   5   8
ATOM      8  C   UNL A   1      32.710  25.977  23.361  1.00  0.00     0.067 C 
ATOM      9  C   UNL A   1      31.052  31.578  26.223  1.00  0.00     0.046 C 
ATOM     10  C   UNL A   1      31.761  30.338  25.749  1.00  0.00    -0.028 A 
ATOM     11  C   UNL A   1      31.151  29.608  24.725  1.00  0.00     0.052 A 
ATOM     12  C   UNL A   1      32.957  29.848  26.313  1.00  0.00     0.047 A 
ATOM     13  C   UNL A   1      31.719  28.427  24.260  1.00  0.00     0.128 A 
ATOM     14  C   UNL A   1      33.559  28.657  25.829  1.00  0.00    -0.021 A 
ATOM     15  Cl  UNL A   1      33.683  30.726  27.625  1.00  0.00    -0.084 Cl
ATOM     16  C   UNL A   1      32.920  27.944  24.786  1.00  0.00     0.022 A 
ATOM     17  O   UNL A   1      31.042  27.817  23.244  1.00  0.00    -0.475 OA
ATOM     18  C   UNL A   1      34.858  28.132  26.397  1.00  0.00     0.047 C 
ATOM     19  C   UNL A   1      33.467  26.718  24.192  1.00  0.00     0.026 C 
ATOM     20  C   UNL A   1      31.311  26.408  23.043  1.00  0.00     0.314 C 
BRANCH  20  21
ATOM     21  C   UNL A   1      30.247  25.572  23.782  1.00  0.00     0.429 C 
ATOM     22  F   UNL A   1      30.025  24.405  23.126  1.00  0.00    -0.167 F 
ATOM     23  F   UNL A   1      30.629  25.237  25.036  1.00  0.00    -0.167 F 
ATOM     24  F   UNL A   1      29.060  26.211  23.887  1.00  0.00    -0.167 F 
ENDBRANCH  20  21
ENDBRANCH   5   8
ENDBRANCH   3   4
ENDBRANCH   2   3
ENDBRANCH   1   2
BRANCH   1  25
ATOM     25  C   UNL A   1      37.024  23.703  25.210  1.00  0.00     0.116 C 
BRANCH  25  26
ATOM     26  N   UNL A   1      38.128  22.786  25.450  1.00  0.00    -0.352 N 
ATOM     27  C   UNL A   1      39.295  23.017  26.136  1.00  0.00     0.251 C 
ATOM     28  H   UNL A   1      38.026  21.883  25.072  1.00  0.00     0.163 HD
ATOM     29  O   UNL A   1      40.179  22.169  26.174  1.00  0.00    -0.269 OA
BRANCH  27  30
ATOM     30  C   UNL A   1      39.486  24.321  26.797  1.00  0.00     0.039 A 
ATOM     31  C   UNL A   1      38.991  24.498  28.090  1.00  0.00     0.014 A 
ATOM     32  C   UNL A   1      40.190  25.342  26.153  1.00  0.00     0.014 A 
ATOM     33  C   UNL A   1      39.255  25.689  28.767  1.00  0.00     0.010 A 
ATOM     34  C   UNL A   1      40.504  26.501  26.850  1.00  0.00     0.010 A 
ATOM     35  C   UNL A   1      40.037  26.685  28.161  1.00  0.00    -0.014 A 
BRANCH  35  36
ATOM     36  C   UNL A   1      40.359  27.947  28.867  1.00  0.00     0.031 A 
ATOM     37  C   UNL A   1      41.688  28.094  29.548  1.00  0.00     0.074 A 
ATOM     38  C   UNL A   1      39.439  28.927  28.944  1.00  0.00     0.049 A 
ATOM     39  N   UNL A   1      42.125  29.069  30.303  1.00  0.00    -0.248 NA
ATOM     40  C   UNL A   1      42.645  26.987  29.377  1.00  0.00     0.031 C 
ATOM     41  C   UNL A   1      38.110  28.896  28.332  1.00  0.00     0.029 A 
ATOM     42  N   UNL A   1      39.488  30.142  29.577  1.00  0.00    -0.354 N 
ATOM     43  C   UNL A   1      43.397  28.688  30.707  1.00  0.00     0.074 A 
ATOM     44  C   UNL A   1      43.645  27.375  30.154  1.00  0.00     0.031 C 
ATOM     45  C   UNL A   1      37.478  30.052  28.598  1.00  0.00     0.029 A 
ATOM     46  C   UNL A   1      38.341  30.883  29.432  1.00  0.00     0.049 A 
ATOM     47  H   UNL A   1      40.270  30.454  30.088  1.00  0.00     0.167 HD
ATOM     48  C   UNL A   1      44.289  29.378  31.455  1.00  0.00     0.031 A 
ATOM     49  C   UNL A   1      38.020  32.096  29.921  1.00  0.00     0.031 A 
ATOM     50  C   UNL A   1      44.046  30.687  31.996  1.00  0.00     0.049 A 
ATOM     51  C   UNL A   1      39.015  32.828  30.778  1.00  0.00     0.074 A 
ATOM     52  C   UNL A   1      44.895  31.480  32.746  1.00  0.00     0.029 A 
ATOM     53  N   UNL A   1      42.866  31.398  31.838  1.00  0.00    -0.354 N 
ATOM     54  N   UNL A   1      40.222  32.463  31.138  1.00  0.00    -0.248 NA
ATOM     55  C   UNL A   1      38.604  34.142  31.292  1.00  0.00     0.031 C 
ATOM     56  C   UNL A   1      44.214  32.657  33.075  1.00  0.00     0.029 A 
ATOM     57  C   UNL A   1      42.960  32.616  32.488  1.00  0.00     0.049 A 
ATOM     58  H   UNL A   1      42.079  31.083  31.337  1.00  0.00     0.167 HD
ATOM     59  C   UNL A   1      40.721  33.508  31.904  1.00  0.00     0.074 A 
ATOM     60  C   UNL A   1      39.693  34.528  31.942  1.00  0.00     0.031 C 
ATOM     61  C   UNL A   1      41.923  33.614  32.520  1.00  0.00     0.031 A 
BRANCH  48  62
ATOM     62  C   UNL A   1      45.612  28.723  31.728  1.00  0.00    -0.014 A 
ATOM     63  C   UNL A   1      45.791  27.896  32.849  1.00  0.00     0.009 A 
ATOM     64  C   UNL A   1      46.683  28.910  30.842  1.00  0.00     0.009 A 
ATOM     65  C   UNL A   1      47.027  27.293  33.092  1.00  0.00     0.001 A 
ATOM     66  C   UNL A   1      47.909  28.284  31.073  1.00  0.00     0.001 A 
ATOM     67  C   UNL A   1      48.083  27.482  32.202  1.00  0.00     0.000 A 
ENDBRANCH  48  62
BRANCH  49  68
ATOM     68  C   UNL A   1      36.705  32.703  29.597  1.00  0.00    -0.014 A 
ATOM     69  C   UNL A   1      35.651  32.640  30.521  1.00  0.00     0.009 A 
ATOM     70  C   UNL A   1      36.495  33.354  28.372  1.00  0.00     0.009 A 
ATOM     71  C   UNL A   1      34.409  33.202  30.218  1.00  0.00     0.001 A 
ATOM     72  C   UNL A   1      35.259  33.936  28.081  1.00  0.00     0.001 A 
ATOM     73  C   UNL A   1      34.215  33.854  29.001  1.00  0.00     0.000 A 
ENDBRANCH  49  68
BRANCH  61  74
ATOM     74  C   UNL A   1      42.200  34.884  33.272  1.00  0.00    -0.014 A 
ATOM     75  C   UNL A   1      41.736  35.066  34.583  1.00  0.00     0.009 A 
ATOM     76  C   UNL A   1      42.980  35.888  32.677  1.00  0.00     0.009 A 
ATOM     77  C   UNL A   1      42.025  36.244  35.275  1.00  0.00     0.001 A 
ATOM     78  C   UNL A   1      43.289  37.052  33.381  1.00  0.00     0.001 A 
ATOM     79  C   UNL A   1      42.805  37.232  34.676  1.00  0.00     0.000 A 
ENDBRANCH  61  74
ENDBRANCH  35  36
ENDBRANCH  27  30
ENDBRANCH  25  26
ENDBRANCH   1  25
TORSDOF 12
ENDMDL
