MODEL 1
REMARK VINA RESULT:     -11.4      0.000      0.000
REMARK SMILES COc1ccc(-n2ccnc2C[N@@H+]2Cc3[nH]cnc3C[C@@H]2C(=O)NCCCCNC(=O)c2ccc(-c3c4nc(c(-c5ccccc5)c5ccc([nH]5)c(-c5ccccc5)c5nc(c(-c6ccccc6)c6ccc3[nH]6)C=C5)C=C4)cc2)cc1
REMARK SMILES IDX 25 1 24 2 22 3 23 4 21 6 13 7 14 8 15 10 20 11 16 12 19 13
REMARK SMILES IDX 17 14 18 16 12 17 11 18 7 19 8 20 9 21 10 22 6 23 3 24 4 25
REMARK SMILES IDX 81 26 5 27 80 28 2 29 1 30 26 31 27 32 28 33 29 34 30 35
REMARK SMILES IDX 31 37 32 38 33 39 79 40 34 41 78 42 35 43 36 44 37 45 72 46
REMARK SMILES IDX 38 47 77 48 71 49 73 50 39 51 76 52 70 53 69 54 40 56 62 57
REMARK SMILES IDX 47 58 61 59 48 60 51 61 60 62 74 63 49 64 50 65 59 67 75 68
REMARK SMILES IDX 52 69 41 70 42 71 46 72 43 73 45 74 44 75 63 76 64 77 68 78
REMARK SMILES IDX 65 79 67 80 66 81 53 82 54 83 58 84 55 85 57 86 56 87
REMARK H PARENT 24 5 13 9 16 15 29 36 73 55 51 66
REMARK Flexibility Score: inf
ROOT
ATOM      1  C   UNL A   1      35.745  20.604  25.320  1.00  0.00     0.116 C 
ENDROOT
BRANCH   1   2
ATOM      2  N   UNL A   1      36.267  21.970  25.388  1.00  0.00    -0.351 N 
ATOM      3  C   UNL A   1      35.594  23.145  25.669  1.00  0.00     0.278 C 
ATOM      4  O   UNL A   1      36.242  24.137  26.008  1.00  0.00    -0.268 OA
ATOM      5  H   UNL A   1      37.231  22.065  25.209  1.00  0.00     0.163 HD
BRANCH   3   6
ATOM      6  C   UNL A   1      34.077  23.187  25.492  1.00  0.00     0.280 C 
ATOM      7  N   UNL A   1      33.664  22.936  24.060  1.00  0.00    -0.313 N 
ATOM      8  C   UNL A   1      32.239  22.550  23.991  1.00  0.00     0.320 C 
ATOM      9  H   UNL A   1      34.117  22.112  23.665  1.00  0.00     0.349 HD
ATOM     10  C   UNL A   1      31.489  23.005  25.214  1.00  0.00     0.093 A 
ATOM     11  C   UNL A   1      33.340  24.424  26.069  1.00  0.00     0.134 C 
ATOM     12  N   UNL A   1      30.596  22.260  25.948  1.00  0.00    -0.344 N 
ATOM     13  C   UNL A   1      31.919  23.971  26.114  1.00  0.00     0.074 A 
ATOM     14  C   UNL A   1      30.425  22.894  27.153  1.00  0.00     0.197 A 
ATOM     15  H   UNL A   1      30.160  21.425  25.661  1.00  0.00     0.167 HD
ATOM     16  N   UNL A   1      31.181  23.962  27.261  1.00  0.00    -0.241 NA
BRANCH   7  17
ATOM     17  C   UNL A   1      34.182  24.003  23.164  1.00  0.00     0.340 C 
BRANCH  17  18
ATOM     18  C   UNL A   1      33.330  24.719  22.148  1.00  0.00     0.168 A 
ATOM     19  N   UNL A   1      32.770  25.992  22.280  1.00  0.00    -0.299 N 
ATOM     20  C   UNL A   1      32.301  26.351  21.034  1.00  0.00     0.113 A 
ATOM     21  C   UNL A   1      32.568  25.294  20.208  1.00  0.00     0.132 A 
ATOM     22  N   UNL A   1      33.161  24.280  20.905  1.00  0.00    -0.236 NA
BRANCH  19  23
ATOM     23  C   UNL A   1      32.565  26.791  23.424  1.00  0.00     0.047 A 
ATOM     24  C   UNL A   1      32.068  28.242  25.752  1.00  0.00     0.119 A 
ATOM     25  C   UNL A   1      33.309  28.340  25.115  1.00  0.00     0.048 A 
ATOM     26  C   UNL A   1      31.041  27.512  25.158  1.00  0.00     0.048 A 
ATOM     27  C   UNL A   1      33.565  27.611  23.944  1.00  0.00     0.030 A 
ATOM     28  C   UNL A   1      31.284  26.792  23.991  1.00  0.00     0.030 A 
BRANCH  24  29
ATOM     29  O   UNL A   1      31.903  28.932  26.924  1.00  0.00    -0.497 OA
ATOM     30  C   UNL A   1      33.065  29.679  27.295  1.00  0.00     0.278 C 
ENDBRANCH  24  29
ENDBRANCH  19  23
ENDBRANCH  17  18
ENDBRANCH   7  17
ENDBRANCH   3   6
ENDBRANCH   1   2
BRANCH   1  31
ATOM     31  C   UNL A   1      36.700  19.544  24.752  1.00  0.00     0.023 C 
BRANCH  31  32
ATOM     32  C   UNL A   1      38.199  19.867  24.707  1.00  0.00     0.023 C 
BRANCH  32  33
ATOM     33  C   UNL A   1      39.000  19.431  25.925  1.00  0.00     0.116 C 
BRANCH  33  34
ATOM     34  N   UNL A   1      40.358  18.932  25.650  1.00  0.00    -0.352 N 
ATOM     35  C   UNL A   1      41.584  19.609  25.742  1.00  0.00     0.251 C 
ATOM     36  H   UNL A   1      40.413  17.993  25.360  1.00  0.00     0.163 HD
ATOM     37  O   UNL A   1      42.568  19.208  25.152  1.00  0.00    -0.269 OA
BRANCH  35  38
ATOM     38  C   UNL A   1      41.668  20.826  26.586  1.00  0.00     0.039 A 
ATOM     39  C   UNL A   1      41.534  20.852  27.981  1.00  0.00     0.014 A 
ATOM     40  C   UNL A   1      41.952  21.995  25.916  1.00  0.00     0.014 A 
ATOM     41  C   UNL A   1      41.710  22.074  28.647  1.00  0.00     0.010 A 
ATOM     42  C   UNL A   1      42.570  22.989  26.597  1.00  0.00     0.010 A 
ATOM     43  C   UNL A   1      42.215  23.155  27.919  1.00  0.00    -0.014 A 
BRANCH  43  44
ATOM     44  C   UNL A   1      42.466  24.495  28.427  1.00  0.00     0.031 A 
ATOM     45  C   UNL A   1      41.402  25.470  28.102  1.00  0.00     0.074 A 
ATOM     46  C   UNL A   1      43.345  24.716  29.438  1.00  0.00     0.049 A 
ATOM     47  N   UNL A   1      41.464  26.463  27.280  1.00  0.00    -0.248 NA
ATOM     48  C   UNL A   1      40.051  25.209  28.630  1.00  0.00     0.031 C 
ATOM     49  C   UNL A   1      44.167  23.737  30.171  1.00  0.00     0.029 A 
ATOM     50  N   UNL A   1      43.579  25.861  30.133  1.00  0.00    -0.354 N 
ATOM     51  C   UNL A   1      40.220  27.082  27.360  1.00  0.00     0.074 A 
ATOM     52  C   UNL A   1      39.340  26.124  27.974  1.00  0.00     0.031 C 
ATOM     53  C   UNL A   1      44.614  24.289  31.324  1.00  0.00     0.029 A 
ATOM     54  C   UNL A   1      44.239  25.691  31.348  1.00  0.00     0.049 A 
ATOM     55  H   UNL A   1      43.303  26.747  29.802  1.00  0.00     0.167 HD
ATOM     56  C   UNL A   1      40.086  28.431  27.217  1.00  0.00     0.031 A 
ATOM     57  C   UNL A   1      44.414  26.630  32.315  1.00  0.00     0.031 A 
ATOM     58  C   UNL A   1      41.308  29.027  26.727  1.00  0.00     0.049 A 
ATOM     59  C   UNL A   1      44.149  27.951  31.692  1.00  0.00     0.074 A 
ATOM     60  C   UNL A   1      42.109  28.841  25.617  1.00  0.00     0.029 A 
ATOM     61  N   UNL A   1      42.094  29.675  27.653  1.00  0.00    -0.354 N 
ATOM     62  N   UNL A   1      44.911  28.483  30.781  1.00  0.00    -0.248 NA
ATOM     63  C   UNL A   1      42.787  28.460  31.743  1.00  0.00     0.031 C 
ATOM     64  C   UNL A   1      43.445  28.932  26.112  1.00  0.00     0.029 A 
ATOM     65  C   UNL A   1      43.385  29.254  27.470  1.00  0.00     0.049 A 
ATOM     66  H   UNL A   1      41.785  30.324  28.326  1.00  0.00     0.167 HD
ATOM     67  C   UNL A   1      44.027  29.037  29.866  1.00  0.00     0.074 A 
ATOM     68  C   UNL A   1      42.740  29.083  30.562  1.00  0.00     0.031 C 
ATOM     69  C   UNL A   1      44.347  29.122  28.540  1.00  0.00     0.031 A 
BRANCH  56  70
ATOM     70  C   UNL A   1      39.043  29.260  27.939  1.00  0.00    -0.014 A 
ATOM     71  C   UNL A   1      39.181  29.430  29.329  1.00  0.00     0.009 A 
ATOM     72  C   UNL A   1      37.809  29.649  27.385  1.00  0.00     0.009 A 
ATOM     73  C   UNL A   1      38.111  29.852  30.126  1.00  0.00     0.001 A 
ATOM     74  C   UNL A   1      36.751  30.114  28.171  1.00  0.00     0.001 A 
ATOM     75  C   UNL A   1      36.890  30.182  29.548  1.00  0.00     0.000 A 
ENDBRANCH  56  70
BRANCH  57  76
ATOM     76  C   UNL A   1      44.537  26.488  33.786  1.00  0.00    -0.014 A 
ATOM     77  C   UNL A   1      43.537  25.837  34.530  1.00  0.00     0.009 A 
ATOM     78  C   UNL A   1      45.764  26.734  34.427  1.00  0.00     0.009 A 
ATOM     79  C   UNL A   1      43.773  25.402  35.843  1.00  0.00     0.001 A 
ATOM     80  C   UNL A   1      46.000  26.304  35.740  1.00  0.00     0.001 A 
ATOM     81  C   UNL A   1      45.012  25.621  36.441  1.00  0.00     0.000 A 
ENDBRANCH  57  76
BRANCH  69  82
ATOM     82  C   UNL A   1      45.767  28.805  28.131  1.00  0.00    -0.014 A 
ATOM     83  C   UNL A   1      46.205  27.513  27.790  1.00  0.00     0.009 A 
ATOM     84  C   UNL A   1      46.649  29.877  27.933  1.00  0.00     0.009 A 
ATOM     85  C   UNL A   1      47.495  27.299  27.294  1.00  0.00     0.001 A 
ATOM     86  C   UNL A   1      47.931  29.666  27.418  1.00  0.00     0.001 A 
ATOM     87  C   UNL A   1      48.355  28.378  27.104  1.00  0.00     0.000 A 
ENDBRANCH  69  82
ENDBRANCH  43  44
ENDBRANCH  35  38
ENDBRANCH  33  34
ENDBRANCH  32  33
ENDBRANCH  31  32
ENDBRANCH   1  31
TORSDOF 15
ENDMDL
MODEL 2
REMARK VINA RESULT:     -11.2      2.295      7.399
REMARK SMILES COc1ccc(-n2ccnc2C[N@@H+]2Cc3[nH]cnc3C[C@@H]2C(=O)NCCCCNC(=O)c2ccc(-c3c4nc(c(-c5ccccc5)c5ccc([nH]5)c(-c5ccccc5)c5nc(c(-c6ccccc6)c6ccc3[nH]6)C=C5)C=C4)cc2)cc1
REMARK SMILES IDX 25 1 24 2 22 3 23 4 21 6 13 7 14 8 15 10 20 11 16 12 19 13
REMARK SMILES IDX 17 14 18 16 12 17 11 18 7 19 8 20 9 21 10 22 6 23 3 24 4 25
REMARK SMILES IDX 81 26 5 27 80 28 2 29 1 30 26 31 27 32 28 33 29 34 30 35
REMARK SMILES IDX 31 37 32 38 33 39 79 40 34 41 78 42 35 43 36 44 37 45 72 46
REMARK SMILES IDX 38 47 77 48 71 49 73 50 39 51 76 52 70 53 69 54 40 56 62 57
REMARK SMILES IDX 47 58 61 59 48 60 51 61 60 62 74 63 49 64 50 65 59 67 75 68
REMARK SMILES IDX 52 69 41 70 42 71 46 72 43 73 45 74 44 75 63 76 64 77 68 78
REMARK SMILES IDX 65 79 67 80 66 81 53 82 54 83 58 84 55 85 57 86 56 87
REMARK H PARENT 24 5 13 9 16 15 29 36 73 55 51 66
REMARK Flexibility Score: inf
ROOT
ATOM      1  C   UNL A   1      31.549  27.220  26.330  1.00  0.00     0.116 C 
ENDROOT
BRANCH   1   2
ATOM      2  N   UNL A   1      31.058  25.953  26.872  1.00  0.00    -0.351 N 
ATOM      3  C   UNL A   1      31.342  24.663  26.459  1.00  0.00     0.278 C 
ATOM      4  O   UNL A   1      31.110  23.727  27.227  1.00  0.00    -0.268 OA
ATOM      5  H   UNL A   1      30.441  26.028  27.635  1.00  0.00     0.163 HD
BRANCH   3   6
ATOM      6  C   UNL A   1      31.876  24.441  25.045  1.00  0.00     0.280 C 
ATOM      7  N   UNL A   1      31.663  23.021  24.573  1.00  0.00    -0.313 N 
ATOM      8  C   UNL A   1      31.772  22.942  23.102  1.00  0.00     0.320 C 
ATOM      9  H   UNL A   1      30.706  22.702  24.723  1.00  0.00     0.349 HD
ATOM     10  C   UNL A   1      32.549  24.105  22.546  1.00  0.00     0.093 A 
ATOM     11  C   UNL A   1      33.330  24.902  24.765  1.00  0.00     0.134 C 
ATOM     12  N   UNL A   1      32.208  24.867  21.454  1.00  0.00    -0.344 N 
ATOM     13  C   UNL A   1      33.384  24.941  23.275  1.00  0.00     0.074 A 
ATOM     14  C   UNL A   1      32.957  26.016  21.505  1.00  0.00     0.197 A 
ATOM     15  H   UNL A   1      31.547  24.632  20.763  1.00  0.00     0.167 HD
ATOM     16  N   UNL A   1      33.715  26.064  22.576  1.00  0.00    -0.241 NA
BRANCH   7  17
ATOM     17  C   UNL A   1      32.419  22.062  25.421  1.00  0.00     0.340 C 
BRANCH  17  18
ATOM     18  C   UNL A   1      32.933  20.737  24.918  1.00  0.00     0.168 A 
ATOM     19  N   UNL A   1      34.253  20.283  24.968  1.00  0.00    -0.299 N 
ATOM     20  C   UNL A   1      34.225  18.943  24.647  1.00  0.00     0.113 A 
ATOM     21  C   UNL A   1      32.915  18.639  24.397  1.00  0.00     0.132 A 
ATOM     22  N   UNL A   1      32.133  19.752  24.524  1.00  0.00    -0.236 NA
BRANCH  19  23
ATOM     23  C   UNL A   1      35.458  20.986  25.177  1.00  0.00     0.047 A 
ATOM     24  C   UNL A   1      37.769  22.445  25.727  1.00  0.00     0.119 A 
ATOM     25  C   UNL A   1      37.864  21.145  25.222  1.00  0.00     0.048 A 
ATOM     26  C   UNL A   1      36.522  23.054  25.843  1.00  0.00     0.048 A 
ATOM     27  C   UNL A   1      36.704  20.405  24.944  1.00  0.00     0.030 A 
ATOM     28  C   UNL A   1      35.365  22.330  25.561  1.00  0.00     0.030 A 
BRANCH  24  29
ATOM     29  O   UNL A   1      38.938  23.090  26.033  1.00  0.00    -0.497 OA
ATOM     30  C   UNL A   1      38.736  24.242  26.857  1.00  0.00     0.278 C 
ENDBRANCH  24  29
ENDBRANCH  19  23
ENDBRANCH  17  18
ENDBRANCH   7  17
ENDBRANCH   3   6
ENDBRANCH   1   2
BRANCH   1  31
ATOM     31  C   UNL A   1      31.669  28.380  27.329  1.00  0.00     0.023 C 
BRANCH  31  32
ATOM     32  C   UNL A   1      32.046  29.766  26.792  1.00  0.00     0.023 C 
BRANCH  32  33
ATOM     33  C   UNL A   1      33.497  30.176  26.995  1.00  0.00     0.116 C 
BRANCH  33  34
ATOM     34  N   UNL A   1      33.707  31.520  27.558  1.00  0.00    -0.352 N 
ATOM     35  C   UNL A   1      34.656  31.946  28.500  1.00  0.00     0.251 C 
ATOM     36  H   UNL A   1      33.095  32.217  27.229  1.00  0.00     0.163 HD
ATOM     37  O   UNL A   1      34.494  32.967  29.138  1.00  0.00    -0.269 OA
BRANCH  35  38
ATOM     38  C   UNL A   1      35.880  31.131  28.702  1.00  0.00     0.039 A 
ATOM     39  C   UNL A   1      36.093  29.850  28.175  1.00  0.00     0.014 A 
ATOM     40  C   UNL A   1      36.882  31.734  29.428  1.00  0.00     0.014 A 
ATOM     41  C   UNL A   1      37.333  29.234  28.395  1.00  0.00     0.010 A 
ATOM     42  C   UNL A   1      38.159  31.341  29.206  1.00  0.00     0.010 A 
ATOM     43  C   UNL A   1      38.363  30.003  28.944  1.00  0.00    -0.014 A 
BRANCH  43  44
ATOM     44  C   UNL A   1      39.713  29.549  29.245  1.00  0.00     0.031 A 
ATOM     45  C   UNL A   1      39.986  29.401  30.692  1.00  0.00     0.074 A 
ATOM     46  C   UNL A   1      40.475  28.925  28.312  1.00  0.00     0.049 A 
ATOM     47  N   UNL A   1      40.754  30.129  31.430  1.00  0.00    -0.248 NA
ATOM     48  C   UNL A   1      39.178  28.425  31.444  1.00  0.00     0.031 C 
ATOM     49  C   UNL A   1      40.138  28.606  26.914  1.00  0.00     0.029 A 
ATOM     50  N   UNL A   1      41.675  28.303  28.464  1.00  0.00    -0.354 N 
ATOM     51  C   UNL A   1      40.692  29.559  32.698  1.00  0.00     0.074 A 
ATOM     52  C   UNL A   1      39.525  28.718  32.697  1.00  0.00     0.031 C 
ATOM     53  C   UNL A   1      40.996  27.672  26.439  1.00  0.00     0.029 A 
ATOM     54  C   UNL A   1      42.023  27.430  27.435  1.00  0.00     0.049 A 
ATOM     55  H   UNL A   1      42.256  28.457  29.245  1.00  0.00     0.167 HD
ATOM     56  C   UNL A   1      41.768  29.565  33.535  1.00  0.00     0.031 A 
ATOM     57  C   UNL A   1      43.055  26.546  27.436  1.00  0.00     0.031 A 
ATOM     58  C   UNL A   1      42.808  30.438  33.040  1.00  0.00     0.049 A 
ATOM     59  C   UNL A   1      43.975  26.950  28.529  1.00  0.00     0.074 A 
ATOM     60  C   UNL A   1      42.881  31.774  32.698  1.00  0.00     0.029 A 
ATOM     61  N   UNL A   1      43.881  29.834  32.425  1.00  0.00    -0.354 N 
ATOM     62  N   UNL A   1      44.674  28.047  28.512  1.00  0.00    -0.248 NA
ATOM     63  C   UNL A   1      43.756  26.369  29.845  1.00  0.00     0.031 C 
ATOM     64  C   UNL A   1      43.682  31.805  31.517  1.00  0.00     0.029 A 
ATOM     65  C   UNL A   1      44.123  30.507  31.256  1.00  0.00     0.049 A 
ATOM     66  H   UNL A   1      44.385  29.059  32.764  1.00  0.00     0.167 HD
ATOM     67  C   UNL A   1      44.591  28.536  29.807  1.00  0.00     0.074 A 
ATOM     68  C   UNL A   1      44.101  27.411  30.606  1.00  0.00     0.031 C 
ATOM     69  C   UNL A   1      44.632  29.878  30.057  1.00  0.00     0.031 A 
BRANCH  56  70
ATOM     70  C   UNL A   1      42.076  28.462  34.527  1.00  0.00    -0.014 A 
ATOM     71  C   UNL A   1      42.312  27.169  34.025  1.00  0.00     0.009 A 
ATOM     72  C   UNL A   1      41.882  28.563  35.918  1.00  0.00     0.009 A 
ATOM     73  C   UNL A   1      42.243  26.038  34.847  1.00  0.00     0.001 A 
ATOM     74  C   UNL A   1      41.857  27.440  36.751  1.00  0.00     0.001 A 
ATOM     75  C   UNL A   1      42.001  26.174  36.210  1.00  0.00     0.000 A 
ENDBRANCH  56  70
BRANCH  57  76
ATOM     76  C   UNL A   1      43.202  25.236  26.757  1.00  0.00    -0.014 A 
ATOM     77  C   UNL A   1      42.557  24.091  27.258  1.00  0.00     0.009 A 
ATOM     78  C   UNL A   1      43.738  25.160  25.459  1.00  0.00     0.009 A 
ATOM     79  C   UNL A   1      42.407  22.938  26.473  1.00  0.00     0.001 A 
ATOM     80  C   UNL A   1      43.592  24.007  24.676  1.00  0.00     0.001 A 
ATOM     81  C   UNL A   1      42.910  22.904  25.175  1.00  0.00     0.000 A 
ENDBRANCH  57  76
BRANCH  69  82
ATOM     82  C   UNL A   1      44.993  30.802  28.918  1.00  0.00    -0.014 A 
ATOM     83  C   UNL A   1      46.308  31.221  28.647  1.00  0.00     0.009 A 
ATOM     84  C   UNL A   1      43.990  31.132  27.995  1.00  0.00     0.009 A 
ATOM     85  C   UNL A   1      46.602  31.971  27.503  1.00  0.00     0.001 A 
ATOM     86  C   UNL A   1      44.287  31.863  26.842  1.00  0.00     0.001 A 
ATOM     87  C   UNL A   1      45.591  32.287  26.599  1.00  0.00     0.000 A 
ENDBRANCH  69  82
ENDBRANCH  43  44
ENDBRANCH  35  38
ENDBRANCH  33  34
ENDBRANCH  32  33
ENDBRANCH  31  32
ENDBRANCH   1  31
TORSDOF 15
ENDMDL
MODEL 3
REMARK VINA RESULT:     -11.0      2.353      4.230
REMARK SMILES COc1ccc(-n2ccnc2C[N@@H+]2Cc3[nH]cnc3C[C@@H]2C(=O)NCCCCNC(=O)c2ccc(-c3c4nc(c(-c5ccccc5)c5ccc([nH]5)c(-c5ccccc5)c5nc(c(-c6ccccc6)c6ccc3[nH]6)C=C5)C=C4)cc2)cc1
REMARK SMILES IDX 25 1 24 2 22 3 23 4 21 6 13 7 14 8 15 10 20 11 16 12 19 13
REMARK SMILES IDX 17 14 18 16 12 17 11 18 7 19 8 20 9 21 10 22 6 23 3 24 4 25
REMARK SMILES IDX 81 26 5 27 80 28 2 29 1 30 26 31 27 32 28 33 29 34 30 35
REMARK SMILES IDX 31 37 32 38 33 39 79 40 34 41 78 42 35 43 36 44 37 45 72 46
REMARK SMILES IDX 38 47 77 48 71 49 73 50 39 51 76 52 70 53 69 54 40 56 62 57
REMARK SMILES IDX 47 58 61 59 48 60 51 61 60 62 74 63 49 64 50 65 59 67 75 68
REMARK SMILES IDX 52 69 41 70 42 71 46 72 43 73 45 74 44 75 63 76 64 77 68 78
REMARK SMILES IDX 65 79 67 80 66 81 53 82 54 83 58 84 55 85 57 86 56 87
REMARK H PARENT 24 5 13 9 16 15 29 36 73 55 51 66
REMARK Flexibility Score: inf
ROOT
ATOM      1  C   UNL A   1      33.878  26.160  25.190  1.00  0.00     0.116 C 
ENDROOT
BRANCH   1   2
ATOM      2  N   UNL A   1      32.731  26.069  26.095  1.00  0.00    -0.351 N 
ATOM      3  C   UNL A   1      32.028  27.088  26.711  1.00  0.00     0.278 C 
ATOM      4  O   UNL A   1      30.906  26.850  27.162  1.00  0.00    -0.268 OA
ATOM      5  H   UNL A   1      32.418  25.157  26.292  1.00  0.00     0.163 HD
BRANCH   3   6
ATOM      6  C   UNL A   1      32.691  28.456  26.864  1.00  0.00     0.280 C 
ATOM      7  N   UNL A   1      31.916  29.546  26.161  1.00  0.00    -0.313 N 
ATOM      8  C   UNL A   1      32.308  30.875  26.674  1.00  0.00     0.320 C 
ATOM      9  H   UNL A   1      30.922  29.525  26.392  1.00  0.00     0.349 HD
ATOM     10  C   UNL A   1      33.665  30.833  27.324  1.00  0.00     0.093 A 
ATOM     11  C   UNL A   1      34.201  28.545  26.520  1.00  0.00     0.134 C 
ATOM     12  N   UNL A   1      34.012  31.402  28.526  1.00  0.00    -0.344 N 
ATOM     13  C   UNL A   1      34.610  29.830  27.156  1.00  0.00     0.074 A 
ATOM     14  C   UNL A   1      35.199  30.836  28.920  1.00  0.00     0.197 A 
ATOM     15  H   UNL A   1      33.503  32.089  29.014  1.00  0.00     0.167 HD
ATOM     16  N   UNL A   1      35.609  29.912  28.083  1.00  0.00    -0.241 NA
BRANCH   7  17
ATOM     17  C   UNL A   1      31.873  29.305  24.695  1.00  0.00     0.340 C 
BRANCH  17  18
ATOM     18  C   UNL A   1      30.596  29.278  23.896  1.00  0.00     0.168 A 
ATOM     19  N   UNL A   1      29.942  28.143  23.411  1.00  0.00    -0.299 N 
ATOM     20  C   UNL A   1      28.700  28.555  22.976  1.00  0.00     0.113 A 
ATOM     21  C   UNL A   1      28.652  29.905  23.189  1.00  0.00     0.132 A 
ATOM     22  N   UNL A   1      29.832  30.349  23.714  1.00  0.00    -0.236 NA
BRANCH  19  23
ATOM     23  C   UNL A   1      30.402  26.820  23.241  1.00  0.00     0.047 A 
ATOM     24  C   UNL A   1      31.468  24.269  22.891  1.00  0.00     0.119 A 
ATOM     25  C   UNL A   1      30.411  24.471  23.783  1.00  0.00     0.048 A 
ATOM     26  C   UNL A   1      31.909  25.320  22.090  1.00  0.00     0.048 A 
ATOM     27  C   UNL A   1      29.871  25.753  23.965  1.00  0.00     0.030 A 
ATOM     28  C   UNL A   1      31.372  26.594  22.257  1.00  0.00     0.030 A 
BRANCH  24  29
ATOM     29  O   UNL A   1      31.989  23.005  22.805  1.00  0.00    -0.497 OA
ATOM     30  C   UNL A   1      33.111  22.926  21.921  1.00  0.00     0.278 C 
ENDBRANCH  24  29
ENDBRANCH  19  23
ENDBRANCH  17  18
ENDBRANCH   7  17
ENDBRANCH   3   6
ENDBRANCH   1   2
BRANCH   1  31
ATOM     31  C   UNL A   1      34.429  24.828  24.663  1.00  0.00     0.023 C 
BRANCH  31  32
ATOM     32  C   UNL A   1      35.565  24.152  25.442  1.00  0.00     0.023 C 
BRANCH  32  33
ATOM     33  C   UNL A   1      36.635  23.482  24.592  1.00  0.00     0.116 C 
BRANCH  33  34
ATOM     34  N   UNL A   1      36.755  22.023  24.753  1.00  0.00    -0.352 N 
ATOM     35  C   UNL A   1      37.858  21.269  25.183  1.00  0.00     0.251 C 
ATOM     36  H   UNL A   1      35.951  21.504  24.525  1.00  0.00     0.163 HD
ATOM     37  O   UNL A   1      37.947  20.085  24.929  1.00  0.00    -0.269 OA
BRANCH  35  38
ATOM     38  C   UNL A   1      38.920  21.941  25.972  1.00  0.00     0.039 A 
ATOM     39  C   UNL A   1      40.233  21.474  26.120  1.00  0.00     0.014 A 
ATOM     40  C   UNL A   1      38.564  23.140  26.547  1.00  0.00     0.014 A 
ATOM     41  C   UNL A   1      41.145  22.258  26.841  1.00  0.00     0.010 A 
ATOM     42  C   UNL A   1      39.540  24.047  26.791  1.00  0.00     0.010 A 
ATOM     43  C   UNL A   1      40.763  23.556  27.194  1.00  0.00    -0.014 A 
BRANCH  43  44
ATOM     44  C   UNL A   1      41.563  24.519  27.937  1.00  0.00     0.031 A 
ATOM     45  C   UNL A   1      40.901  25.828  28.127  1.00  0.00     0.074 A 
ATOM     46  C   UNL A   1      42.593  24.124  28.727  1.00  0.00     0.049 A 
ATOM     47  N   UNL A   1      41.211  26.956  27.582  1.00  0.00    -0.248 NA
ATOM     48  C   UNL A   1      39.639  25.853  28.887  1.00  0.00     0.031 C 
ATOM     49  C   UNL A   1      43.088  22.759  28.978  1.00  0.00     0.029 A 
ATOM     50  N   UNL A   1      43.331  24.859  29.602  1.00  0.00    -0.354 N 
ATOM     51  C   UNL A   1      40.310  27.877  28.109  1.00  0.00     0.074 A 
ATOM     52  C   UNL A   1      39.233  27.102  28.666  1.00  0.00     0.031 C 
ATOM     53  C   UNL A   1      43.865  22.751  30.087  1.00  0.00     0.029 A 
ATOM     54  C   UNL A   1      44.044  24.118  30.542  1.00  0.00     0.049 A 
ATOM     55  H   UNL A   1      43.359  25.843  29.574  1.00  0.00     0.167 HD
ATOM     56  C   UNL A   1      40.667  29.173  28.336  1.00  0.00     0.031 A 
ATOM     57  C   UNL A   1      44.689  24.602  31.636  1.00  0.00     0.031 A 
ATOM     58  C   UNL A   1      41.941  29.477  27.726  1.00  0.00     0.049 A 
ATOM     59  C   UNL A   1      44.848  26.064  31.438  1.00  0.00     0.074 A 
ATOM     60  C   UNL A   1      42.452  29.407  26.444  1.00  0.00     0.029 A 
ATOM     61  N   UNL A   1      43.033  29.520  28.562  1.00  0.00    -0.354 N 
ATOM     62  N   UNL A   1      45.616  26.587  30.527  1.00  0.00    -0.248 NA
ATOM     63  C   UNL A   1      43.794  26.932  31.940  1.00  0.00     0.031 C 
ATOM     64  C   UNL A   1      43.781  28.914  26.607  1.00  0.00     0.029 A 
ATOM     65  C   UNL A   1      44.037  28.795  27.975  1.00  0.00     0.049 A 
ATOM     66  H   UNL A   1      43.085  29.988  29.427  1.00  0.00     0.167 HD
ATOM     67  C   UNL A   1      44.882  27.648  30.017  1.00  0.00     0.074 A 
ATOM     68  C   UNL A   1      43.815  27.875  30.993  1.00  0.00     0.031 C 
ATOM     69  C   UNL A   1      45.021  28.039  28.715  1.00  0.00     0.031 A 
BRANCH  56  70
ATOM     70  C   UNL A   1      40.119  30.017  29.469  1.00  0.00    -0.014 A 
ATOM     71  C   UNL A   1      40.587  29.760  30.771  1.00  0.00     0.009 A 
ATOM     72  C   UNL A   1      38.988  30.850  29.368  1.00  0.00     0.009 A 
ATOM     73  C   UNL A   1      39.899  30.214  31.901  1.00  0.00     0.001 A 
ATOM     74  C   UNL A   1      38.322  31.343  30.494  1.00  0.00     0.001 A 
ATOM     75  C   UNL A   1      38.757  30.995  31.763  1.00  0.00     0.000 A 
ENDBRANCH  56  70
BRANCH  57  76
ATOM     76  C   UNL A   1      44.956  23.975  32.953  1.00  0.00    -0.014 A 
ATOM     77  C   UNL A   1      45.963  24.476  33.797  1.00  0.00     0.009 A 
ATOM     78  C   UNL A   1      44.037  23.067  33.511  1.00  0.00     0.009 A 
ATOM     79  C   UNL A   1      46.017  24.126  35.154  1.00  0.00     0.001 A 
ATOM     80  C   UNL A   1      44.092  22.714  34.866  1.00  0.00     0.001 A 
ATOM     81  C   UNL A   1      45.070  23.258  35.692  1.00  0.00     0.000 A 
ENDBRANCH  57  76
BRANCH  69  82
ATOM     82  C   UNL A   1      46.149  27.438  27.910  1.00  0.00    -0.014 A 
ATOM     83  C   UNL A   1      46.096  26.153  27.340  1.00  0.00     0.009 A 
ATOM     84  C   UNL A   1      47.237  28.260  27.585  1.00  0.00     0.009 A 
ATOM     85  C   UNL A   1      47.114  25.698  26.497  1.00  0.00     0.001 A 
ATOM     86  C   UNL A   1      48.244  27.814  26.726  1.00  0.00     0.001 A 
ATOM     87  C   UNL A   1      48.186  26.531  26.187  1.00  0.00     0.000 A 
ENDBRANCH  69  82
ENDBRANCH  43  44
ENDBRANCH  35  38
ENDBRANCH  33  34
ENDBRANCH  32  33
ENDBRANCH  31  32
ENDBRANCH   1  31
TORSDOF 15
ENDMDL
