MODEL 1
REMARK VINA RESULT:      -9.3      0.000      0.000
REMARK SMILES C[C@@H](CO)CCCC[C@@H](C)C(=O)NCCCCNC(=O)c1ccc(-c2c3nc(c(-c4ccccc4)c4ccc([nH]4)c(-c4ccccc4)c4nc(c(-c5ccccc5)c5ccc2[nH]5)C=C4)C=C3)cc1
REMARK SMILES IDX 11 1 12 2 13 3 9 5 10 6 8 7 7 8 6 9 5 10 2 11 1 12 3 13 4 14
REMARK SMILES IDX 14 16 15 17 16 18 17 19 18 20 19 21 20 23 21 24 22 25 68 26
REMARK SMILES IDX 23 27 67 28 24 29 25 30 26 31 61 32 27 33 66 34 60 35 62 36
REMARK SMILES IDX 28 37 65 38 59 39 58 40 29 42 51 43 36 44 50 45 37 46 40 47
REMARK SMILES IDX 49 48 63 49 38 50 39 51 48 53 64 54 41 55 30 56 31 57 35 58
REMARK SMILES IDX 32 59 34 60 33 61 52 62 53 63 57 64 54 65 56 66 55 67 42 68
REMARK SMILES IDX 43 69 47 70 44 71 46 72 45 73
REMARK H PARENT 13 4 4 15 18 22 62 41 40 52
REMARK Flexibility Score: inf
ROOT
ATOM      1  C   UNL A   1      34.435  22.127  26.580  1.00  0.00     0.222 C 
ATOM      2  O   UNL A   1      34.204  22.364  27.769  1.00  0.00    -0.275 OA
ATOM      3  N   UNL A   1      35.653  21.608  26.275  1.00  0.00    -0.356 N 
ATOM      4  H   UNL A   1      36.216  21.402  27.056  1.00  0.00     0.163 HD
ENDROOT
BRANCH   1   5
ATOM      5  C   UNL A   1      33.363  22.367  25.519  1.00  0.00     0.075 C 
ATOM      6  C   UNL A   1      32.744  23.754  25.688  1.00  0.00     0.018 C 
BRANCH   5   7
ATOM      7  C   UNL A   1      32.357  21.209  25.404  1.00  0.00     0.013 C 
BRANCH   7   8
ATOM      8  C   UNL A   1      32.598  20.252  24.232  1.00  0.00     0.001 C 
BRANCH   8   9
ATOM      9  C   UNL A   1      33.476  19.044  24.559  1.00  0.00     0.000 C 
BRANCH   9  10
ATOM     10  C   UNL A   1      32.716  17.813  25.070  1.00  0.00     0.005 C 
BRANCH  10  11
ATOM     11  C   UNL A   1      33.029  16.493  24.333  1.00  0.00     0.011 C 
ATOM     12  C   UNL A   1      34.083  16.699  23.240  1.00  0.00     0.010 C 
BRANCH  11  13
ATOM     13  C   UNL A   1      33.467  15.404  25.323  1.00  0.00     0.159 C 
BRANCH  13  14
ATOM     14  O   UNL A   1      34.864  15.151  25.258  1.00  0.00    -0.396 OA
ATOM     15  H   UNL A   1      35.328  15.737  25.876  1.00  0.00     0.210 HD
ENDBRANCH  13  14
ENDBRANCH  11  13
ENDBRANCH  10  11
ENDBRANCH   9  10
ENDBRANCH   8   9
ENDBRANCH   7   8
ENDBRANCH   5   7
ENDBRANCH   1   5
BRANCH   3  16
ATOM     16  C   UNL A   1      36.266  21.309  24.998  1.00  0.00     0.116 C 
BRANCH  16  17
ATOM     17  C   UNL A   1      37.790  21.381  25.089  1.00  0.00     0.023 C 
BRANCH  17  18
ATOM     18  C   UNL A   1      38.493  20.029  24.942  1.00  0.00     0.023 C 
BRANCH  18  19
ATOM     19  C   UNL A   1      39.286  19.581  26.163  1.00  0.00     0.116 C 
BRANCH  19  20
ATOM     20  N   UNL A   1      40.577  19.006  25.823  1.00  0.00    -0.352 N 
ATOM     21  C   UNL A   1      41.820  19.581  25.871  1.00  0.00     0.251 C 
ATOM     22  H   UNL A   1      40.556  18.071  25.515  1.00  0.00     0.163 HD
ATOM     23  O   UNL A   1      42.793  18.980  25.421  1.00  0.00    -0.269 OA
BRANCH  21  24
ATOM     24  C   UNL A   1      41.983  20.937  26.431  1.00  0.00     0.039 A 
ATOM     25  C   UNL A   1      41.891  21.102  27.814  1.00  0.00     0.014 A 
ATOM     26  C   UNL A   1      42.229  22.038  25.606  1.00  0.00     0.014 A 
ATOM     27  C   UNL A   1      42.097  22.363  28.373  1.00  0.00     0.010 A 
ATOM     28  C   UNL A   1      42.516  23.278  26.170  1.00  0.00     0.010 A 
ATOM     29  C   UNL A   1      42.442  23.455  27.558  1.00  0.00    -0.014 A 
BRANCH  29  30
ATOM     30  C   UNL A   1      42.728  24.780  28.160  1.00  0.00     0.031 A 
ATOM     31  C   UNL A   1      44.129  25.153  28.557  1.00  0.00     0.074 A 
ATOM     32  C   UNL A   1      41.714  25.644  28.365  1.00  0.00     0.049 A 
ATOM     33  N   UNL A   1      44.573  26.287  29.042  1.00  0.00    -0.248 NA
ATOM     34  C   UNL A   1      45.164  24.117  28.415  1.00  0.00     0.031 C 
ATOM     35  C   UNL A   1      40.303  25.377  28.078  1.00  0.00     0.029 A 
ATOM     36  N   UNL A   1      41.718  26.925  28.853  1.00  0.00    -0.354 N 
ATOM     37  C   UNL A   1      45.931  26.095  29.266  1.00  0.00     0.074 A 
ATOM     38  C   UNL A   1      46.227  24.722  28.923  1.00  0.00     0.031 C 
ATOM     39  C   UNL A   1      39.585  26.479  28.346  1.00  0.00     0.029 A 
ATOM     40  C   UNL A   1      40.477  27.515  28.857  1.00  0.00     0.049 A 
ATOM     41  H   UNL A   1      42.531  27.380  29.172  1.00  0.00     0.167 HD
ATOM     42  C   UNL A   1      46.854  26.988  29.695  1.00  0.00     0.031 A 
ATOM     43  C   UNL A   1      40.101  28.756  29.217  1.00  0.00     0.031 A 
ATOM     44  C   UNL A   1      46.559  28.355  30.036  1.00  0.00     0.049 A 
ATOM     45  C   UNL A   1      41.147  29.729  29.684  1.00  0.00     0.074 A 
ATOM     46  C   UNL A   1      47.432  29.354  30.431  1.00  0.00     0.029 A 
ATOM     47  N   UNL A   1      45.291  28.914  30.028  1.00  0.00    -0.354 N 
ATOM     48  N   UNL A   1      42.439  29.558  29.809  1.00  0.00    -0.248 NA
ATOM     49  C   UNL A   1      40.678  31.076  30.040  1.00  0.00     0.031 C 
ATOM     50  C   UNL A   1      46.684  30.502  30.713  1.00  0.00     0.029 A 
ATOM     51  C   UNL A   1      45.354  30.237  30.432  1.00  0.00     0.049 A 
ATOM     52  H   UNL A   1      44.466  28.439  29.771  1.00  0.00     0.167 HD
ATOM     53  C   UNL A   1      42.944  30.783  30.231  1.00  0.00     0.074 A 
ATOM     54  C   UNL A   1      41.819  31.690  30.315  1.00  0.00     0.031 C 
ATOM     55  C   UNL A   1      44.223  31.125  30.521  1.00  0.00     0.031 A 
BRANCH  42  56
ATOM     56  C   UNL A   1      48.274  26.507  29.823  1.00  0.00    -0.014 A 
ATOM     57  C   UNL A   1      49.190  26.650  28.767  1.00  0.00     0.009 A 
ATOM     58  C   UNL A   1      48.713  25.930  31.025  1.00  0.00     0.009 A 
ATOM     59  C   UNL A   1      50.502  26.191  28.899  1.00  0.00     0.001 A 
ATOM     60  C   UNL A   1      50.034  25.501  31.164  1.00  0.00     0.001 A 
ATOM     61  C   UNL A   1      50.924  25.621  30.099  1.00  0.00     0.000 A 
ENDBRANCH  42  56
BRANCH  43  62
ATOM     62  C   UNL A   1      38.675  29.163  29.115  1.00  0.00    -0.014 A 
ATOM     63  C   UNL A   1      38.152  29.639  27.903  1.00  0.00     0.009 A 
ATOM     64  C   UNL A   1      37.830  29.083  30.233  1.00  0.00     0.009 A 
ATOM     65  C   UNL A   1      36.823  30.059  27.820  1.00  0.00     0.001 A 
ATOM     66  C   UNL A   1      36.492  29.474  30.139  1.00  0.00     0.001 A 
ATOM     67  C   UNL A   1      35.994  29.971  28.937  1.00  0.00     0.000 A 
ENDBRANCH  43  62
BRANCH  55  68
ATOM     68  C   UNL A   1      44.471  32.553  30.925  1.00  0.00    -0.014 A 
ATOM     69  C   UNL A   1      44.812  33.533  29.981  1.00  0.00     0.009 A 
ATOM     70  C   UNL A   1      44.352  32.921  32.274  1.00  0.00     0.009 A 
ATOM     71  C   UNL A   1      45.079  34.843  30.388  1.00  0.00     0.001 A 
ATOM     72  C   UNL A   1      44.585  34.238  32.673  1.00  0.00     0.001 A 
ATOM     73  C   UNL A   1      44.963  35.193  31.732  1.00  0.00     0.000 A 
ENDBRANCH  55  68
ENDBRANCH  29  30
ENDBRANCH  21  24
ENDBRANCH  19  20
ENDBRANCH  18  19
ENDBRANCH  17  18
ENDBRANCH  16  17
ENDBRANCH   3  16
TORSDOF 18
ENDMDL
MODEL 2
REMARK VINA RESULT:      -9.1      5.317     10.216
REMARK SMILES C[C@@H](CO)CCCC[C@@H](C)C(=O)NCCCCNC(=O)c1ccc(-c2c3nc(c(-c4ccccc4)c4ccc([nH]4)c(-c4ccccc4)c4nc(c(-c5ccccc5)c5ccc2[nH]5)C=C4)C=C3)cc1
REMARK SMILES IDX 11 1 12 2 13 3 9 5 10 6 8 7 7 8 6 9 5 10 2 11 1 12 3 13 4 14
REMARK SMILES IDX 14 16 15 17 16 18 17 19 18 20 19 21 20 23 21 24 22 25 68 26
REMARK SMILES IDX 23 27 67 28 24 29 25 30 26 31 61 32 27 33 66 34 60 35 62 36
REMARK SMILES IDX 28 37 65 38 59 39 58 40 29 42 51 43 36 44 50 45 37 46 40 47
REMARK SMILES IDX 49 48 63 49 38 50 39 51 48 53 64 54 41 55 30 56 31 57 35 58
REMARK SMILES IDX 32 59 34 60 33 61 52 62 53 63 57 64 54 65 56 66 55 67 42 68
REMARK SMILES IDX 43 69 47 70 44 71 46 72 45 73
REMARK H PARENT 13 4 4 15 18 22 62 41 40 52
REMARK Flexibility Score: inf
ROOT
ATOM      1  C   UNL A   1      32.972  28.719  23.746  1.00  0.00     0.222 C 
ATOM      2  O   UNL A   1      33.684  29.214  22.867  1.00  0.00    -0.275 OA
ATOM      3  N   UNL A   1      32.477  29.559  24.691  1.00  0.00    -0.356 N 
ATOM      4  H   UNL A   1      32.680  30.510  24.538  1.00  0.00     0.163 HD
ENDROOT
BRANCH   1   5
ATOM      5  C   UNL A   1      32.635  27.230  23.722  1.00  0.00     0.075 C 
ATOM      6  C   UNL A   1      33.594  26.478  22.799  1.00  0.00     0.018 C 
BRANCH   5   7
ATOM      7  C   UNL A   1      31.141  26.953  23.481  1.00  0.00     0.013 C 
BRANCH   7   8
ATOM      8  C   UNL A   1      30.523  27.704  22.297  1.00  0.00     0.001 C 
BRANCH   8   9
ATOM      9  C   UNL A   1      29.475  28.750  22.677  1.00  0.00     0.000 C 
BRANCH   9  10
ATOM     10  C   UNL A   1      29.572  30.072  21.905  1.00  0.00     0.005 C 
BRANCH  10  11
ATOM     11  C   UNL A   1      28.365  31.020  22.070  1.00  0.00     0.011 C 
ATOM     12  C   UNL A   1      27.482  30.602  23.249  1.00  0.00     0.010 C 
BRANCH  11  13
ATOM     13  C   UNL A   1      28.831  32.477  22.218  1.00  0.00     0.159 C 
BRANCH  13  14
ATOM     14  O   UNL A   1      27.848  33.402  21.775  1.00  0.00    -0.396 OA
ATOM     15  H   UNL A   1      27.221  33.577  22.495  1.00  0.00     0.210 HD
ENDBRANCH  13  14
ENDBRANCH  11  13
ENDBRANCH  10  11
ENDBRANCH   9  10
ENDBRANCH   8   9
ENDBRANCH   7   8
ENDBRANCH   5   7
ENDBRANCH   1   5
BRANCH   3  16
ATOM     16  C   UNL A   1      31.704  29.295  25.886  1.00  0.00     0.116 C 
BRANCH  16  17
ATOM     17  C   UNL A   1      32.167  30.174  27.047  1.00  0.00     0.023 C 
BRANCH  17  18
ATOM     18  C   UNL A   1      31.749  31.642  26.928  1.00  0.00     0.023 C 
BRANCH  18  19
ATOM     19  C   UNL A   1      32.897  32.643  26.996  1.00  0.00     0.116 C 
BRANCH  19  20
ATOM     20  N   UNL A   1      32.544  33.864  27.704  1.00  0.00    -0.352 N 
ATOM     21  C   UNL A   1      33.194  34.480  28.742  1.00  0.00     0.251 C 
ATOM     22  H   UNL A   1      31.724  34.311  27.394  1.00  0.00     0.163 HD
ATOM     23  O   UNL A   1      32.678  35.443  29.305  1.00  0.00    -0.269 OA
BRANCH  21  24
ATOM     24  C   UNL A   1      34.496  33.963  29.207  1.00  0.00     0.039 A 
ATOM     25  C   UNL A   1      34.513  33.062  30.273  1.00  0.00     0.014 A 
ATOM     26  C   UNL A   1      35.691  34.356  28.598  1.00  0.00     0.014 A 
ATOM     27  C   UNL A   1      35.725  32.516  30.694  1.00  0.00     0.010 A 
ATOM     28  C   UNL A   1      36.889  33.749  28.965  1.00  0.00     0.010 A 
ATOM     29  C   UNL A   1      36.919  32.831  30.024  1.00  0.00    -0.014 A 
BRANCH  29  30
ATOM     30  C   UNL A   1      38.197  32.196  30.428  1.00  0.00     0.031 A 
ATOM     31  C   UNL A   1      39.052  32.812  31.500  1.00  0.00     0.074 A 
ATOM     32  C   UNL A   1      38.595  31.065  29.813  1.00  0.00     0.049 A 
ATOM     33  N   UNL A   1      40.169  32.365  32.021  1.00  0.00    -0.248 NA
ATOM     34  C   UNL A   1      38.614  34.108  32.043  1.00  0.00     0.031 C 
ATOM     35  C   UNL A   1      37.884  30.401  28.718  1.00  0.00     0.029 A 
ATOM     36  N   UNL A   1      39.690  30.269  30.029  1.00  0.00    -0.354 N 
ATOM     37  C   UNL A   1      40.565  33.326  32.943  1.00  0.00     0.074 A 
ATOM     38  C   UNL A   1      39.606  34.406  32.869  1.00  0.00     0.031 C 
ATOM     39  C   UNL A   1      38.533  29.272  28.393  1.00  0.00     0.029 A 
ATOM     40  C   UNL A   1      39.722  29.151  29.231  1.00  0.00     0.049 A 
ATOM     41  H   UNL A   1      40.388  30.477  30.691  1.00  0.00     0.167 HD
ATOM     42  C   UNL A   1      41.617  33.301  33.795  1.00  0.00     0.031 A 
ATOM     43  C   UNL A   1      40.603  28.134  29.187  1.00  0.00     0.031 A 
ATOM     44  C   UNL A   1      42.571  32.225  33.870  1.00  0.00     0.049 A 
ATOM     45  C   UNL A   1      41.760  28.128  30.147  1.00  0.00     0.074 A 
ATOM     46  C   UNL A   1      43.643  32.080  34.733  1.00  0.00     0.029 A 
ATOM     47  N   UNL A   1      42.570  31.112  33.045  1.00  0.00    -0.354 N 
ATOM     48  N   UNL A   1      42.073  29.002  31.071  1.00  0.00    -0.248 NA
ATOM     49  C   UNL A   1      42.673  26.979  30.067  1.00  0.00     0.031 C 
ATOM     50  C   UNL A   1      44.322  30.905  34.395  1.00  0.00     0.029 A 
ATOM     51  C   UNL A   1      43.635  30.285  33.363  1.00  0.00     0.049 A 
ATOM     52  H   UNL A   1      41.909  30.934  32.336  1.00  0.00     0.167 HD
ATOM     53  C   UNL A   1      43.202  28.496  31.703  1.00  0.00     0.074 A 
ATOM     54  C   UNL A   1      43.501  27.228  31.070  1.00  0.00     0.031 C 
ATOM     55  C   UNL A   1      43.926  29.032  32.717  1.00  0.00     0.031 A 
BRANCH  42  56
ATOM     56  C   UNL A   1      41.792  34.480  34.713  1.00  0.00    -0.014 A 
ATOM     57  C   UNL A   1      41.202  34.505  35.987  1.00  0.00     0.009 A 
ATOM     58  C   UNL A   1      42.584  35.568  34.313  1.00  0.00     0.009 A 
ATOM     59  C   UNL A   1      41.367  35.611  36.824  1.00  0.00     0.001 A 
ATOM     60  C   UNL A   1      42.773  36.658  35.164  1.00  0.00     0.001 A 
ATOM     61  C   UNL A   1      42.157  36.684  36.414  1.00  0.00     0.000 A 
ENDBRANCH  42  56
BRANCH  43  62
ATOM     62  C   UNL A   1      40.406  27.017  28.226  1.00  0.00    -0.014 A 
ATOM     63  C   UNL A   1      40.982  27.065  26.947  1.00  0.00     0.009 A 
ATOM     64  C   UNL A   1      39.635  25.900  28.581  1.00  0.00     0.009 A 
ATOM     65  C   UNL A   1      40.763  26.034  26.032  1.00  0.00     0.001 A 
ATOM     66  C   UNL A   1      39.444  24.854  27.674  1.00  0.00     0.001 A 
ATOM     67  C   UNL A   1      39.998  24.927  26.398  1.00  0.00     0.000 A 
ENDBRANCH  43  62
BRANCH  55  68
ATOM     68  C   UNL A   1      45.092  28.226  33.220  1.00  0.00    -0.014 A 
ATOM     69  C   UNL A   1      44.920  27.190  34.152  1.00  0.00     0.009 A 
ATOM     70  C   UNL A   1      46.383  28.505  32.746  1.00  0.00     0.009 A 
ATOM     71  C   UNL A   1      46.024  26.486  34.637  1.00  0.00     0.001 A 
ATOM     72  C   UNL A   1      47.481  27.776  33.206  1.00  0.00     0.001 A 
ATOM     73  C   UNL A   1      47.301  26.778  34.161  1.00  0.00     0.000 A 
ENDBRANCH  55  68
ENDBRANCH  29  30
ENDBRANCH  21  24
ENDBRANCH  19  20
ENDBRANCH  18  19
ENDBRANCH  17  18
ENDBRANCH  16  17
ENDBRANCH   3  16
TORSDOF 18
ENDMDL
MODEL 3
REMARK VINA RESULT:      -9.0      2.640      7.290
REMARK SMILES C[C@@H](CO)CCCC[C@@H](C)C(=O)NCCCCNC(=O)c1ccc(-c2c3nc(c(-c4ccccc4)c4ccc([nH]4)c(-c4ccccc4)c4nc(c(-c5ccccc5)c5ccc2[nH]5)C=C4)C=C3)cc1
REMARK SMILES IDX 11 1 12 2 13 3 9 5 10 6 8 7 7 8 6 9 5 10 2 11 1 12 3 13 4 14
REMARK SMILES IDX 14 16 15 17 16 18 17 19 18 20 19 21 20 23 21 24 22 25 68 26
REMARK SMILES IDX 23 27 67 28 24 29 25 30 26 31 61 32 27 33 66 34 60 35 62 36
REMARK SMILES IDX 28 37 65 38 59 39 58 40 29 42 51 43 36 44 50 45 37 46 40 47
REMARK SMILES IDX 49 48 63 49 38 50 39 51 48 53 64 54 41 55 30 56 31 57 35 58
REMARK SMILES IDX 32 59 34 60 33 61 52 62 53 63 57 64 54 65 56 66 55 67 42 68
REMARK SMILES IDX 43 69 47 70 44 71 46 72 45 73
REMARK H PARENT 13 4 4 15 18 22 62 41 40 52
REMARK Flexibility Score: inf
ROOT
ATOM      1  C   UNL A   1      31.897  23.427  24.012  1.00  0.00     0.222 C 
ATOM      2  O   UNL A   1      30.680  23.625  23.949  1.00  0.00    -0.275 OA
ATOM      3  N   UNL A   1      32.682  24.483  24.347  1.00  0.00    -0.356 N 
ATOM      4  H   UNL A   1      32.187  25.302  24.581  1.00  0.00     0.163 HD
ENDROOT
BRANCH   1   5
ATOM      5  C   UNL A   1      32.467  22.031  23.768  1.00  0.00     0.075 C 
ATOM      6  C   UNL A   1      32.162  21.569  22.344  1.00  0.00     0.018 C 
BRANCH   5   7
ATOM      7  C   UNL A   1      32.102  21.028  24.876  1.00  0.00     0.013 C 
BRANCH   7   8
ATOM      8  C   UNL A   1      33.288  20.279  25.491  1.00  0.00     0.001 C 
BRANCH   8   9
ATOM      9  C   UNL A   1      33.790  19.088  24.674  1.00  0.00     0.000 C 
BRANCH   9  10
ATOM     10  C   UNL A   1      32.687  18.194  24.092  1.00  0.00     0.005 C 
BRANCH  10  11
ATOM     11  C   UNL A   1      33.099  16.732  23.821  1.00  0.00     0.011 C 
ATOM     12  C   UNL A   1      34.429  16.656  23.066  1.00  0.00     0.010 C 
BRANCH  11  13
ATOM     13  C   UNL A   1      33.162  15.931  25.131  1.00  0.00     0.159 C 
BRANCH  13  14
ATOM     14  O   UNL A   1      31.923  15.308  25.438  1.00  0.00    -0.396 OA
ATOM     15  H   UNL A   1      31.284  15.495  24.732  1.00  0.00     0.210 HD
ENDBRANCH  13  14
ENDBRANCH  11  13
ENDBRANCH  10  11
ENDBRANCH   9  10
ENDBRANCH   8   9
ENDBRANCH   7   8
ENDBRANCH   5   7
ENDBRANCH   1   5
BRANCH   3  16
ATOM     16  C   UNL A   1      34.122  24.612  24.416  1.00  0.00     0.116 C 
BRANCH  16  17
ATOM     17  C   UNL A   1      34.661  24.061  25.736  1.00  0.00     0.023 C 
BRANCH  17  18
ATOM     18  C   UNL A   1      35.803  23.054  25.577  1.00  0.00     0.023 C 
BRANCH  18  19
ATOM     19  C   UNL A   1      37.160  23.669  25.258  1.00  0.00     0.116 C 
BRANCH  19  20
ATOM     20  N   UNL A   1      38.269  22.766  25.522  1.00  0.00    -0.352 N 
ATOM     21  C   UNL A   1      39.447  23.011  26.179  1.00  0.00     0.251 C 
ATOM     22  H   UNL A   1      38.158  21.848  25.182  1.00  0.00     0.163 HD
ATOM     23  O   UNL A   1      40.330  22.157  26.197  1.00  0.00    -0.269 OA
BRANCH  21  24
ATOM     24  C   UNL A   1      39.667  24.315  26.834  1.00  0.00     0.039 A 
ATOM     25  C   UNL A   1      39.169  24.506  28.124  1.00  0.00     0.014 A 
ATOM     26  C   UNL A   1      40.362  25.343  26.189  1.00  0.00     0.014 A 
ATOM     27  C   UNL A   1      39.412  25.709  28.786  1.00  0.00     0.010 A 
ATOM     28  C   UNL A   1      40.674  26.510  26.880  1.00  0.00     0.010 A 
ATOM     29  C   UNL A   1      40.193  26.709  28.182  1.00  0.00    -0.014 A 
BRANCH  29  30
ATOM     30  C   UNL A   1      40.509  27.959  28.914  1.00  0.00     0.031 A 
ATOM     31  C   UNL A   1      39.500  29.070  29.003  1.00  0.00     0.074 A 
ATOM     32  C   UNL A   1      41.720  28.098  29.488  1.00  0.00     0.049 A 
ATOM     33  N   UNL A   1      39.582  30.207  29.649  1.00  0.00    -0.248 NA
ATOM     34  C   UNL A   1      38.246  28.897  28.252  1.00  0.00     0.031 C 
ATOM     35  C   UNL A   1      42.806  27.118  29.424  1.00  0.00     0.029 A 
ATOM     36  N   UNL A   1      42.236  29.116  30.249  1.00  0.00    -0.354 N 
ATOM     37  C   UNL A   1      38.399  30.882  29.377  1.00  0.00     0.074 A 
ATOM     38  C   UNL A   1      37.642  30.057  28.461  1.00  0.00     0.031 C 
ATOM     39  C   UNL A   1      43.840  27.558  30.158  1.00  0.00     0.029 A 
ATOM     40  C   UNL A   1      43.504  28.864  30.715  1.00  0.00     0.049 A 
ATOM     41  H   UNL A   1      41.746  29.947  30.443  1.00  0.00     0.167 HD
ATOM     42  C   UNL A   1      37.967  32.069  29.865  1.00  0.00     0.031 A 
ATOM     43  C   UNL A   1      44.302  29.597  31.512  1.00  0.00     0.031 A 
ATOM     44  C   UNL A   1      38.720  32.889  30.778  1.00  0.00     0.049 A 
ATOM     45  C   UNL A   1      43.798  30.909  32.045  1.00  0.00     0.074 A 
ATOM     46  C   UNL A   1      38.350  34.083  31.371  1.00  0.00     0.029 A 
ATOM     47  N   UNL A   1      40.000  32.601  31.225  1.00  0.00    -0.354 N 
ATOM     48  N   UNL A   1      42.642  31.493  31.847  1.00  0.00    -0.248 NA
ATOM     49  C   UNL A   1      44.706  31.652  32.931  1.00  0.00     0.031 C 
ATOM     50  C   UNL A   1      39.428  34.545  32.135  1.00  0.00     0.029 A 
ATOM     51  C   UNL A   1      40.444  33.605  32.069  1.00  0.00     0.049 A 
ATOM     52  H   UNL A   1      40.517  31.799  30.978  1.00  0.00     0.167 HD
ATOM     53  C   UNL A   1      42.671  32.658  32.604  1.00  0.00     0.074 A 
ATOM     54  C   UNL A   1      43.950  32.681  33.283  1.00  0.00     0.031 C 
ATOM     55  C   UNL A   1      41.724  33.620  32.728  1.00  0.00     0.031 A 
BRANCH  42  56
ATOM     56  C   UNL A   1      36.615  32.552  29.414  1.00  0.00    -0.014 A 
ATOM     57  C   UNL A   1      35.446  32.199  30.108  1.00  0.00     0.009 A 
ATOM     58  C   UNL A   1      36.510  33.397  28.298  1.00  0.00     0.009 A 
ATOM     59  C   UNL A   1      34.199  32.649  29.672  1.00  0.00     0.001 A 
ATOM     60  C   UNL A   1      35.264  33.871  27.883  1.00  0.00     0.001 A 
ATOM     61  C   UNL A   1      34.109  33.489  28.562  1.00  0.00     0.000 A 
ENDBRANCH  42  56
BRANCH  43  62
ATOM     62  C   UNL A   1      45.649  29.092  31.888  1.00  0.00    -0.014 A 
ATOM     63  C   UNL A   1      46.772  29.398  31.104  1.00  0.00     0.009 A 
ATOM     64  C   UNL A   1      45.817  28.294  33.031  1.00  0.00     0.009 A 
ATOM     65  C   UNL A   1      48.029  28.889  31.436  1.00  0.00     0.001 A 
ATOM     66  C   UNL A   1      47.081  27.813  33.379  1.00  0.00     0.001 A 
ATOM     67  C   UNL A   1      48.183  28.102  32.576  1.00  0.00     0.000 A 
ENDBRANCH  43  62
BRANCH  55  68
ATOM     68  C   UNL A   1      42.031  34.761  33.659  1.00  0.00    -0.014 A 
ATOM     69  C   UNL A   1      42.718  35.902  33.218  1.00  0.00     0.009 A 
ATOM     70  C   UNL A   1      41.618  34.692  34.999  1.00  0.00     0.009 A 
ATOM     71  C   UNL A   1      43.030  36.929  34.113  1.00  0.00     0.001 A 
ATOM     72  C   UNL A   1      41.901  35.734  35.882  1.00  0.00     0.001 A 
ATOM     73  C   UNL A   1      42.619  36.844  35.442  1.00  0.00     0.000 A 
ENDBRANCH  55  68
ENDBRANCH  29  30
ENDBRANCH  21  24
ENDBRANCH  19  20
ENDBRANCH  18  19
ENDBRANCH  17  18
ENDBRANCH  16  17
ENDBRANCH   3  16
TORSDOF 18
ENDMDL
