MODEL 1
REMARK VINA RESULT:     -12.0      0.000      0.000
REMARK SMILES Cc1cccc(S(=O)(=O)Nc2cc(C(=O)NCCCCNC(=O)c3ccc(-c4c5nc(c(-c6ccccc6)c6ccc([nH]6)c(-c6ccccc6)c6nc(c(-c7ccccc7)c7ccc4[nH]7)C=C6)C=C5)cc3)ccc2N2CCC[C@H](C[NH+]3CCCC3)C2)c1
REMARK SMILES IDX 18 1 17 2 16 3 14 4 15 5 13 7 11 8 12 9 74 10 73 11 72 12
REMARK SMILES IDX 10 13 7 15 8 16 9 17 6 18 1 19 2 20 3 21 87 22 4 23 5 24
REMARK SMILES IDX 75 25 76 26 86 27 77 28 79 29 78 30 80 31 81 32 82 33 85 34
REMARK SMILES IDX 83 36 84 37 19 38 20 39 21 40 22 41 23 43 24 44 25 45 71 46
REMARK SMILES IDX 26 47 70 48 27 49 28 50 29 51 64 52 30 53 69 54 63 55 65 56
REMARK SMILES IDX 31 57 68 58 62 59 61 60 32 62 54 63 39 64 53 65 40 66 43 67
REMARK SMILES IDX 52 68 66 69 41 70 42 71 51 73 67 74 44 75 33 76 34 77 38 78
REMARK SMILES IDX 35 79 37 80 36 81 55 82 56 83 60 84 57 85 59 86 58 87 45 88
REMARK SMILES IDX 46 89 50 90 47 91 49 92 48 93
REMARK H PARENT 16 6 10 14 81 35 21 42 65 61 43 72
REMARK Flexibility Score: inf
ROOT
ATOM      1  C   UNL A   1      34.089  32.539  28.010  1.00  0.00     0.023 C 
ENDROOT
BRANCH   1   2
ATOM      2  C   UNL A   1      33.362  31.220  27.714  1.00  0.00     0.116 C 
BRANCH   2   3
ATOM      3  N   UNL A   1      32.250  31.406  26.795  1.00  0.00    -0.352 N 
ATOM      4  C   UNL A   1      31.738  30.647  25.772  1.00  0.00     0.251 C 
ATOM      5  O   UNL A   1      30.735  31.081  25.200  1.00  0.00    -0.269 OA
ATOM      6  H   UNL A   1      31.763  32.250  26.937  1.00  0.00     0.163 HD
BRANCH   4   7
ATOM      7  C   UNL A   1      32.278  29.319  25.363  1.00  0.00     0.042 A 
ATOM      8  C   UNL A   1      32.243  26.899  25.291  1.00  0.00     0.073 A 
ATOM      9  C   UNL A   1      31.847  28.102  25.877  1.00  0.00     0.042 A 
ATOM     10  C   UNL A   1      33.223  26.860  24.281  1.00  0.00     0.061 A 
ATOM     11  C   UNL A   1      33.738  28.086  23.845  1.00  0.00     0.029 A 
ATOM     12  C   UNL A   1      33.252  29.298  24.352  1.00  0.00     0.016 A 
BRANCH   8  13
ATOM     13  N   UNL A   1      31.567  25.708  25.704  1.00  0.00    -0.277 N 
ATOM     14  H   UNL A   1      31.960  25.134  26.401  1.00  0.00     0.180 HD
BRANCH  13  15
ATOM     15  S   UNL A   1      30.076  25.284  24.987  1.00  0.00     0.261 S 
ATOM     16  O   UNL A   1      29.180  25.063  26.108  1.00  0.00    -0.201 OA
ATOM     17  O   UNL A   1      30.347  24.201  24.066  1.00  0.00    -0.201 OA
BRANCH  15  18
ATOM     18  C   UNL A   1      29.377  26.616  24.022  1.00  0.00     0.088 A 
ATOM     19  C   UNL A   1      30.356  29.669  21.949  1.00  0.00     0.044 C 
ATOM     20  C   UNL A   1      29.542  28.611  22.633  1.00  0.00    -0.050 A 
ATOM     21  C   UNL A   1      28.169  28.808  22.767  1.00  0.00     0.003 A 
ATOM     22  C   UNL A   1      30.130  27.466  23.201  1.00  0.00     0.025 A 
ATOM     23  C   UNL A   1      27.409  27.909  23.502  1.00  0.00     0.002 A 
ATOM     24  C   UNL A   1      28.001  26.823  24.138  1.00  0.00     0.022 A 
ENDBRANCH  15  18
ENDBRANCH  13  15
ENDBRANCH   8  13
BRANCH  10  25
ATOM     25  N   UNL A   1      33.699  25.691  23.717  1.00  0.00    -0.369 N 
ATOM     26  C   UNL A   1      33.385  25.432  22.316  1.00  0.00     0.116 C 
ATOM     27  C   UNL A   1      34.725  24.870  24.355  1.00  0.00     0.126 C 
ATOM     28  C   UNL A   1      33.030  23.958  22.143  1.00  0.00     0.022 C 
ATOM     29  C   UNL A   1      34.379  23.376  24.231  1.00  0.00     0.064 C 
ATOM     30  C   UNL A   1      34.106  23.058  22.750  1.00  0.00     0.013 C 
BRANCH  29  31
ATOM     31  C   UNL A   1      33.239  23.038  25.227  1.00  0.00     0.267 C 
BRANCH  31  32
ATOM     32  N   UNL A   1      33.093  21.676  25.745  1.00  0.00    -0.335 N 
ATOM     33  C   UNL A   1      34.340  20.955  25.988  1.00  0.00     0.262 C 
ATOM     34  C   UNL A   1      32.199  20.796  24.998  1.00  0.00     0.262 C 
ATOM     35  H   UNL A   1      32.656  21.888  26.641  1.00  0.00     0.348 HD
ATOM     36  C   UNL A   1      34.480  20.001  24.819  1.00  0.00     0.067 C 
ATOM     37  C   UNL A   1      33.047  19.645  24.469  1.00  0.00     0.067 C 
ENDBRANCH  31  32
ENDBRANCH  29  31
ENDBRANCH  10  25
ENDBRANCH   4   7
ENDBRANCH   2   3
ENDBRANCH   1   2
BRANCH   1  38
ATOM     38  C   UNL A   1      35.610  32.410  28.002  1.00  0.00     0.023 C 
BRANCH  38  39
ATOM     39  C   UNL A   1      36.084  30.975  28.167  1.00  0.00     0.116 C 
BRANCH  39  40
ATOM     40  N   UNL A   1      35.856  30.416  29.492  1.00  0.00    -0.352 N 
ATOM     41  C   UNL A   1      36.702  30.365  30.591  1.00  0.00     0.251 C 
ATOM     42  H   UNL A   1      34.967  30.015  29.630  1.00  0.00     0.163 HD
ATOM     43  O   UNL A   1      36.351  29.795  31.605  1.00  0.00    -0.269 OA
BRANCH  41  44
ATOM     44  C   UNL A   1      37.972  31.142  30.579  1.00  0.00     0.039 A 
ATOM     45  C   UNL A   1      39.126  30.491  31.034  1.00  0.00     0.014 A 
ATOM     46  C   UNL A   1      37.987  32.516  30.362  1.00  0.00     0.014 A 
ATOM     47  C   UNL A   1      40.183  31.244  31.534  1.00  0.00     0.010 A 
ATOM     48  C   UNL A   1      38.973  33.266  30.965  1.00  0.00     0.010 A 
ATOM     49  C   UNL A   1      40.028  32.626  31.619  1.00  0.00    -0.014 A 
BRANCH  49  50
ATOM     50  C   UNL A   1      40.825  33.464  32.500  1.00  0.00     0.031 A 
ATOM     51  C   UNL A   1      40.211  34.141  33.652  1.00  0.00     0.074 A 
ATOM     52  C   UNL A   1      42.161  33.531  32.311  1.00  0.00     0.049 A 
ATOM     53  N   UNL A   1      40.715  35.173  34.239  1.00  0.00    -0.248 NA
ATOM     54  C   UNL A   1      38.922  33.738  34.198  1.00  0.00     0.031 C 
ATOM     55  C   UNL A   1      43.162  34.054  33.237  1.00  0.00     0.029 A 
ATOM     56  N   UNL A   1      42.865  33.337  31.124  1.00  0.00    -0.354 N 
ATOM     57  C   UNL A   1      40.023  35.349  35.413  1.00  0.00     0.074 A 
ATOM     58  C   UNL A   1      38.847  34.520  35.277  1.00  0.00     0.031 C 
ATOM     59  C   UNL A   1      44.236  34.440  32.529  1.00  0.00     0.029 A 
ATOM     60  C   UNL A   1      43.903  34.278  31.121  1.00  0.00     0.049 A 
ATOM     61  H   UNL A   1      42.671  32.672  30.424  1.00  0.00     0.167 HD
ATOM     62  C   UNL A   1      40.611  36.039  36.432  1.00  0.00     0.031 A 
ATOM     63  C   UNL A   1      44.086  35.212  30.148  1.00  0.00     0.031 A 
ATOM     64  C   UNL A   1      41.879  36.648  36.012  1.00  0.00     0.049 A 
ATOM     65  C   UNL A   1      44.082  36.600  30.737  1.00  0.00     0.074 A 
ATOM     66  C   UNL A   1      43.208  36.332  36.251  1.00  0.00     0.029 A 
ATOM     67  N   UNL A   1      41.882  37.576  34.971  1.00  0.00    -0.354 N 
ATOM     68  N   UNL A   1      43.536  36.879  31.891  1.00  0.00    -0.248 NA
ATOM     69  C   UNL A   1      44.688  37.768  30.107  1.00  0.00     0.031 C 
ATOM     70  C   UNL A   1      44.003  37.012  35.289  1.00  0.00     0.029 A 
ATOM     71  C   UNL A   1      43.163  37.771  34.491  1.00  0.00     0.049 A 
ATOM     72  H   UNL A   1      41.080  38.030  34.625  1.00  0.00     0.167 HD
ATOM     73  C   UNL A   1      43.782  38.184  32.206  1.00  0.00     0.074 A 
ATOM     74  C   UNL A   1      44.472  38.713  31.041  1.00  0.00     0.031 C 
ATOM     75  C   UNL A   1      43.425  38.718  33.411  1.00  0.00     0.031 A 
BRANCH  62  76
ATOM     76  C   UNL A   1      40.186  35.884  37.880  1.00  0.00    -0.014 A 
ATOM     77  C   UNL A   1      40.054  34.600  38.439  1.00  0.00     0.009 A 
ATOM     78  C   UNL A   1      39.824  36.948  38.726  1.00  0.00     0.009 A 
ATOM     79  C   UNL A   1      39.507  34.391  39.715  1.00  0.00     0.001 A 
ATOM     80  C   UNL A   1      39.244  36.750  39.987  1.00  0.00     0.001 A 
ATOM     81  C   UNL A   1      39.074  35.467  40.479  1.00  0.00     0.000 A 
ENDBRANCH  62  76
BRANCH  63  82
ATOM     82  C   UNL A   1      43.576  34.804  28.813  1.00  0.00    -0.014 A 
ATOM     83  C   UNL A   1      42.490  35.537  28.287  1.00  0.00     0.009 A 
ATOM     84  C   UNL A   1      44.375  34.068  27.928  1.00  0.00     0.009 A 
ATOM     85  C   UNL A   1      42.294  35.642  26.907  1.00  0.00     0.001 A 
ATOM     86  C   UNL A   1      44.166  34.166  26.543  1.00  0.00     0.001 A 
ATOM     87  C   UNL A   1      43.154  34.981  26.034  1.00  0.00     0.000 A 
ENDBRANCH  63  82
BRANCH  75  88
ATOM     88  C   UNL A   1      43.383  40.189  33.726  1.00  0.00    -0.014 A 
ATOM     89  C   UNL A   1      44.032  40.769  34.824  1.00  0.00     0.009 A 
ATOM     90  C   UNL A   1      42.804  41.073  32.790  1.00  0.00     0.009 A 
ATOM     91  C   UNL A   1      44.063  42.158  35.000  1.00  0.00     0.001 A 
ATOM     92  C   UNL A   1      42.873  42.459  32.937  1.00  0.00     0.001 A 
ATOM     93  C   UNL A   1      43.495  43.002  34.052  1.00  0.00     0.000 A 
ENDBRANCH  75  88
ENDBRANCH  49  50
ENDBRANCH  41  44
ENDBRANCH  39  40
ENDBRANCH  38  39
ENDBRANCH   1  38
TORSDOF 17
ENDMDL
MODEL 2
REMARK VINA RESULT:     -11.9      6.101      9.943
REMARK SMILES Cc1cccc(S(=O)(=O)Nc2cc(C(=O)NCCCCNC(=O)c3ccc(-c4c5nc(c(-c6ccccc6)c6ccc([nH]6)c(-c6ccccc6)c6nc(c(-c7ccccc7)c7ccc4[nH]7)C=C6)C=C5)cc3)ccc2N2CCC[C@H](C[NH+]3CCCC3)C2)c1
REMARK SMILES IDX 18 1 17 2 16 3 14 4 15 5 13 7 11 8 12 9 74 10 73 11 72 12
REMARK SMILES IDX 10 13 7 15 8 16 9 17 6 18 1 19 2 20 3 21 87 22 4 23 5 24
REMARK SMILES IDX 75 25 76 26 86 27 77 28 79 29 78 30 80 31 81 32 82 33 85 34
REMARK SMILES IDX 83 36 84 37 19 38 20 39 21 40 22 41 23 43 24 44 25 45 71 46
REMARK SMILES IDX 26 47 70 48 27 49 28 50 29 51 64 52 30 53 69 54 63 55 65 56
REMARK SMILES IDX 31 57 68 58 62 59 61 60 32 62 54 63 39 64 53 65 40 66 43 67
REMARK SMILES IDX 52 68 66 69 41 70 42 71 51 73 67 74 44 75 33 76 34 77 38 78
REMARK SMILES IDX 35 79 37 80 36 81 55 82 56 83 60 84 57 85 59 86 58 87 45 88
REMARK SMILES IDX 46 89 50 90 47 91 49 92 48 93
REMARK H PARENT 16 6 10 14 81 35 21 42 65 61 43 72
REMARK Flexibility Score: inf
ROOT
ATOM      1  C   UNL A   1      35.908  31.203  29.924  1.00  0.00     0.023 C 
ENDROOT
BRANCH   1   2
ATOM      2  C   UNL A   1      35.458  30.743  28.531  1.00  0.00     0.116 C 
BRANCH   2   3
ATOM      3  N   UNL A   1      34.296  31.483  28.063  1.00  0.00    -0.352 N 
ATOM      4  C   UNL A   1      33.210  31.141  27.296  1.00  0.00     0.251 C 
ATOM      5  O   UNL A   1      32.358  32.013  27.110  1.00  0.00    -0.269 OA
ATOM      6  H   UNL A   1      34.286  32.422  28.358  1.00  0.00     0.163 HD
BRANCH   4   7
ATOM      7  C   UNL A   1      32.973  29.778  26.739  1.00  0.00     0.042 A 
ATOM      8  C   UNL A   1      31.781  28.179  25.366  1.00  0.00     0.073 A 
ATOM      9  C   UNL A   1      31.833  29.400  26.041  1.00  0.00     0.042 A 
ATOM     10  C   UNL A   1      32.796  27.215  25.509  1.00  0.00     0.061 A 
ATOM     11  C   UNL A   1      33.893  27.559  26.309  1.00  0.00     0.029 A 
ATOM     12  C   UNL A   1      33.998  28.830  26.888  1.00  0.00     0.016 A 
BRANCH   8  13
ATOM     13  N   UNL A   1      30.689  27.968  24.466  1.00  0.00    -0.277 N 
ATOM     14  H   UNL A   1      29.914  27.432  24.749  1.00  0.00     0.180 HD
BRANCH  13  15
ATOM     15  S   UNL A   1      30.736  28.647  22.900  1.00  0.00     0.261 S 
ATOM     16  O   UNL A   1      30.230  27.598  22.031  1.00  0.00    -0.201 OA
ATOM     17  O   UNL A   1      32.077  29.152  22.701  1.00  0.00    -0.201 OA
BRANCH  15  18
ATOM     18  C   UNL A   1      29.631  30.040  22.724  1.00  0.00     0.088 A 
ATOM     19  C   UNL A   1      28.017  32.293  20.097  1.00  0.00     0.044 C 
ATOM     20  C   UNL A   1      28.399  31.685  21.414  1.00  0.00    -0.050 A 
ATOM     21  C   UNL A   1      28.112  32.388  22.583  1.00  0.00     0.003 A 
ATOM     22  C   UNL A   1      29.096  30.466  21.501  1.00  0.00     0.025 A 
ATOM     23  C   UNL A   1      28.561  31.912  23.806  1.00  0.00     0.002 A 
ATOM     24  C   UNL A   1      29.325  30.753  23.886  1.00  0.00     0.022 A 
ENDBRANCH  15  18
ENDBRANCH  13  15
ENDBRANCH   8  13
BRANCH  10  25
ATOM     25  N   UNL A   1      32.759  25.966  24.919  1.00  0.00    -0.369 N 
ATOM     26  C   UNL A   1      31.649  25.083  25.261  1.00  0.00     0.116 C 
ATOM     27  C   UNL A   1      33.591  25.612  23.772  1.00  0.00     0.126 C 
ATOM     28  C   UNL A   1      32.173  23.661  25.439  1.00  0.00     0.022 C 
ATOM     29  C   UNL A   1      34.167  24.195  23.937  1.00  0.00     0.064 C 
ATOM     30  C   UNL A   1      33.009  23.226  24.235  1.00  0.00     0.013 C 
BRANCH  29  31
ATOM     31  C   UNL A   1      35.313  24.235  24.981  1.00  0.00     0.267 C 
BRANCH  31  32
ATOM     32  N   UNL A   1      36.639  23.714  24.640  1.00  0.00    -0.335 N 
ATOM     33  C   UNL A   1      36.654  22.569  23.733  1.00  0.00     0.262 C 
ATOM     34  C   UNL A   1      37.520  23.413  25.764  1.00  0.00     0.262 C 
ATOM     35  H   UNL A   1      37.012  24.526  24.150  1.00  0.00     0.348 HD
ATOM     36  C   UNL A   1      36.917  21.367  24.617  1.00  0.00     0.067 C 
ATOM     37  C   UNL A   1      37.803  21.916  25.720  1.00  0.00     0.067 C 
ENDBRANCH  31  32
ENDBRANCH  29  31
ENDBRANCH  10  25
ENDBRANCH   4   7
ENDBRANCH   2   3
ENDBRANCH   1   2
BRANCH   1  38
ATOM     38  C   UNL A   1      36.324  30.053  30.839  1.00  0.00     0.023 C 
BRANCH  38  39
ATOM     39  C   UNL A   1      37.789  29.674  30.686  1.00  0.00     0.116 C 
BRANCH  39  40
ATOM     40  N   UNL A   1      38.020  28.256  30.451  1.00  0.00    -0.352 N 
ATOM     41  C   UNL A   1      39.084  27.622  29.825  1.00  0.00     0.251 C 
ATOM     42  H   UNL A   1      37.316  27.656  30.788  1.00  0.00     0.163 HD
ATOM     43  O   UNL A   1      39.069  26.418  29.668  1.00  0.00    -0.269 OA
BRANCH  41  44
ATOM     44  C   UNL A   1      40.309  28.399  29.490  1.00  0.00     0.039 A 
ATOM     45  C   UNL A   1      40.620  28.551  28.132  1.00  0.00     0.014 A 
ATOM     46  C   UNL A   1      41.239  28.753  30.461  1.00  0.00     0.014 A 
ATOM     47  C   UNL A   1      41.938  28.782  27.755  1.00  0.00     0.010 A 
ATOM     48  C   UNL A   1      42.564  28.860  30.096  1.00  0.00     0.010 A 
ATOM     49  C   UNL A   1      42.917  28.793  28.746  1.00  0.00    -0.014 A 
BRANCH  49  50
ATOM     50  C   UNL A   1      44.329  28.578  28.474  1.00  0.00     0.031 A 
ATOM     51  C   UNL A   1      45.189  29.689  28.039  1.00  0.00     0.074 A 
ATOM     52  C   UNL A   1      44.869  27.365  28.724  1.00  0.00     0.049 A 
ATOM     53  N   UNL A   1      46.309  29.538  27.420  1.00  0.00    -0.248 NA
ATOM     54  C   UNL A   1      44.810  31.084  28.218  1.00  0.00     0.031 C 
ATOM     55  C   UNL A   1      46.286  27.025  28.809  1.00  0.00     0.029 A 
ATOM     56  N   UNL A   1      44.223  26.129  28.732  1.00  0.00    -0.354 N 
ATOM     57  C   UNL A   1      46.944  30.757  27.428  1.00  0.00     0.074 A 
ATOM     58  C   UNL A   1      45.922  31.703  27.815  1.00  0.00     0.031 C 
ATOM     59  C   UNL A   1      46.428  25.718  28.538  1.00  0.00     0.029 A 
ATOM     60  C   UNL A   1      45.115  25.213  28.161  1.00  0.00     0.049 A 
ATOM     61  H   UNL A   1      43.318  25.939  29.070  1.00  0.00     0.167 HD
ATOM     62  C   UNL A   1      48.298  30.800  27.273  1.00  0.00     0.031 A 
ATOM     63  C   UNL A   1      44.839  24.458  27.063  1.00  0.00     0.031 A 
ATOM     64  C   UNL A   1      48.848  29.481  26.942  1.00  0.00     0.049 A 
ATOM     65  C   UNL A   1      45.856  24.705  25.978  1.00  0.00     0.074 A 
ATOM     66  C   UNL A   1      49.556  28.538  27.670  1.00  0.00     0.029 A 
ATOM     67  N   UNL A   1      48.427  28.836  25.778  1.00  0.00    -0.354 N 
ATOM     68  N   UNL A   1      46.589  25.786  25.927  1.00  0.00    -0.248 NA
ATOM     69  C   UNL A   1      46.146  23.780  24.889  1.00  0.00     0.031 C 
ATOM     70  C   UNL A   1      49.486  27.300  26.976  1.00  0.00     0.029 A 
ATOM     71  C   UNL A   1      48.768  27.498  25.808  1.00  0.00     0.049 A 
ATOM     72  H   UNL A   1      47.952  29.276  25.036  1.00  0.00     0.167 HD
ATOM     73  C   UNL A   1      47.485  25.679  24.903  1.00  0.00     0.074 A 
ATOM     74  C   UNL A   1      47.144  24.423  24.255  1.00  0.00     0.031 C 
ATOM     75  C   UNL A   1      48.454  26.617  24.687  1.00  0.00     0.031 A 
BRANCH  62  76
ATOM     76  C   UNL A   1      49.139  31.974  27.741  1.00  0.00    -0.014 A 
ATOM     77  C   UNL A   1      49.678  31.979  29.040  1.00  0.00     0.009 A 
ATOM     78  C   UNL A   1      49.374  33.139  26.988  1.00  0.00     0.009 A 
ATOM     79  C   UNL A   1      50.320  33.103  29.581  1.00  0.00     0.001 A 
ATOM     80  C   UNL A   1      49.982  34.281  27.530  1.00  0.00     0.001 A 
ATOM     81  C   UNL A   1      50.447  34.267  28.834  1.00  0.00     0.000 A 
ENDBRANCH  62  76
BRANCH  63  82
ATOM     82  C   UNL A   1      43.395  24.155  26.884  1.00  0.00    -0.014 A 
ATOM     83  C   UNL A   1      42.848  23.131  27.688  1.00  0.00     0.009 A 
ATOM     84  C   UNL A   1      42.524  25.093  26.314  1.00  0.00     0.009 A 
ATOM     85  C   UNL A   1      41.491  23.129  28.025  1.00  0.00     0.001 A 
ATOM     86  C   UNL A   1      41.160  25.078  26.645  1.00  0.00     0.001 A 
ATOM     87  C   UNL A   1      40.653  24.123  27.528  1.00  0.00     0.000 A 
ENDBRANCH  63  82
BRANCH  75  88
ATOM     88  C   UNL A   1      49.275  26.737  23.432  1.00  0.00    -0.014 A 
ATOM     89  C   UNL A   1      48.737  27.044  22.176  1.00  0.00     0.009 A 
ATOM     90  C   UNL A   1      50.683  26.704  23.531  1.00  0.00     0.009 A 
ATOM     91  C   UNL A   1      49.563  27.265  21.065  1.00  0.00     0.001 A 
ATOM     92  C   UNL A   1      51.510  26.970  22.438  1.00  0.00     0.001 A 
ATOM     93  C   UNL A   1      50.947  27.240  21.200  1.00  0.00     0.000 A 
ENDBRANCH  75  88
ENDBRANCH  49  50
ENDBRANCH  41  44
ENDBRANCH  39  40
ENDBRANCH  38  39
ENDBRANCH   1  38
TORSDOF 17
ENDMDL
MODEL 3
REMARK VINA RESULT:     -11.8      6.599     13.195
REMARK SMILES Cc1cccc(S(=O)(=O)Nc2cc(C(=O)NCCCCNC(=O)c3ccc(-c4c5nc(c(-c6ccccc6)c6ccc([nH]6)c(-c6ccccc6)c6nc(c(-c7ccccc7)c7ccc4[nH]7)C=C6)C=C5)cc3)ccc2N2CCC[C@H](C[NH+]3CCCC3)C2)c1
REMARK SMILES IDX 18 1 17 2 16 3 14 4 15 5 13 7 11 8 12 9 74 10 73 11 72 12
REMARK SMILES IDX 10 13 7 15 8 16 9 17 6 18 1 19 2 20 3 21 87 22 4 23 5 24
REMARK SMILES IDX 75 25 76 26 86 27 77 28 79 29 78 30 80 31 81 32 82 33 85 34
REMARK SMILES IDX 83 36 84 37 19 38 20 39 21 40 22 41 23 43 24 44 25 45 71 46
REMARK SMILES IDX 26 47 70 48 27 49 28 50 29 51 64 52 30 53 69 54 63 55 65 56
REMARK SMILES IDX 31 57 68 58 62 59 61 60 32 62 54 63 39 64 53 65 40 66 43 67
REMARK SMILES IDX 52 68 66 69 41 70 42 71 51 73 67 74 44 75 33 76 34 77 38 78
REMARK SMILES IDX 35 79 37 80 36 81 55 82 56 83 60 84 57 85 59 86 58 87 45 88
REMARK SMILES IDX 46 89 50 90 47 91 49 92 48 93
REMARK H PARENT 16 6 10 14 81 35 21 42 65 61 43 72
REMARK Flexibility Score: inf
ROOT
ATOM      1  C   UNL A   1      44.341  27.267  34.314  1.00  0.00     0.023 C 
ENDROOT
BRANCH   1   2
ATOM      2  C   UNL A   1      42.828  27.515  34.389  1.00  0.00     0.116 C 
BRANCH   2   3
ATOM      3  N   UNL A   1      42.473  28.388  35.497  1.00  0.00    -0.352 N 
ATOM      4  C   UNL A   1      41.808  29.586  35.575  1.00  0.00     0.251 C 
ATOM      5  O   UNL A   1      41.632  30.058  36.701  1.00  0.00    -0.269 OA
ATOM      6  H   UNL A   1      42.772  28.049  36.372  1.00  0.00     0.163 HD
BRANCH   4   7
ATOM      7  C   UNL A   1      41.238  30.306  34.400  1.00  0.00     0.042 A 
ATOM      8  C   UNL A   1      39.436  31.367  33.179  1.00  0.00     0.073 A 
ATOM      9  C   UNL A   1      39.880  30.501  34.179  1.00  0.00     0.042 A 
ATOM     10  C   UNL A   1      40.326  31.932  32.247  1.00  0.00     0.061 A 
ATOM     11  C   UNL A   1      41.686  31.640  32.406  1.00  0.00     0.029 A 
ATOM     12  C   UNL A   1      42.140  30.866  33.483  1.00  0.00     0.016 A 
BRANCH   8  13
ATOM     13  N   UNL A   1      38.049  31.715  33.174  1.00  0.00    -0.277 N 
ATOM     14  H   UNL A   1      37.419  31.227  32.595  1.00  0.00     0.180 HD
BRANCH  13  15
ATOM     15  S   UNL A   1      37.487  32.981  34.174  1.00  0.00     0.261 S 
ATOM     16  O   UNL A   1      38.512  34.005  34.079  1.00  0.00    -0.201 OA
ATOM     17  O   UNL A   1      37.183  32.394  35.462  1.00  0.00    -0.201 OA
BRANCH  15  18
ATOM     18  C   UNL A   1      35.971  33.709  33.571  1.00  0.00     0.088 A 
ATOM     19  C   UNL A   1      34.328  37.080  32.850  1.00  0.00     0.044 C 
ATOM     20  C   UNL A   1      34.559  35.602  32.970  1.00  0.00    -0.050 A 
ATOM     21  C   UNL A   1      33.465  34.745  32.873  1.00  0.00     0.003 A 
ATOM     22  C   UNL A   1      35.830  35.065  33.245  1.00  0.00     0.025 A 
ATOM     23  C   UNL A   1      33.627  33.386  33.103  1.00  0.00     0.002 A 
ATOM     24  C   UNL A   1      34.865  32.863  33.460  1.00  0.00     0.022 A 
ENDBRANCH  15  18
ENDBRANCH  13  15
ENDBRANCH   8  13
BRANCH  10  25
ATOM     25  N   UNL A   1      39.930  32.739  31.198  1.00  0.00    -0.369 N 
ATOM     26  C   UNL A   1      40.339  34.140  31.221  1.00  0.00     0.116 C 
ATOM     27  C   UNL A   1      39.390  32.202  29.951  1.00  0.00     0.126 C 
ATOM     28  C   UNL A   1      39.176  35.012  30.758  1.00  0.00     0.022 C 
ATOM     29  C   UNL A   1      38.190  33.038  29.475  1.00  0.00     0.064 C 
ATOM     30  C   UNL A   1      38.611  34.518  29.427  1.00  0.00     0.013 C 
BRANCH  29  31
ATOM     31  C   UNL A   1      36.959  32.703  30.358  1.00  0.00     0.267 C 
BRANCH  31  32
ATOM     32  N   UNL A   1      35.631  33.198  29.989  1.00  0.00    -0.335 N 
ATOM     33  C   UNL A   1      34.661  32.175  29.604  1.00  0.00     0.262 C 
ATOM     34  C   UNL A   1      35.595  34.257  28.985  1.00  0.00     0.262 C 
ATOM     35  H   UNL A   1      35.351  33.596  30.884  1.00  0.00     0.348 HD
ATOM     36  C   UNL A   1      34.598  32.238  28.092  1.00  0.00     0.067 C 
ATOM     37  C   UNL A   1      34.843  33.703  27.781  1.00  0.00     0.067 C 
ENDBRANCH  31  32
ENDBRANCH  29  31
ENDBRANCH  10  25
ENDBRANCH   4   7
ENDBRANCH   2   3
ENDBRANCH   1   2
BRANCH   1  38
ATOM     38  C   UNL A   1      45.162  28.550  34.212  1.00  0.00     0.023 C 
BRANCH  38  39
ATOM     39  C   UNL A   1      46.662  28.295  34.207  1.00  0.00     0.116 C 
BRANCH  39  40
ATOM     40  N   UNL A   1      47.476  29.501  34.259  1.00  0.00    -0.352 N 
ATOM     41  C   UNL A   1      48.103  30.193  33.233  1.00  0.00     0.251 C 
ATOM     42  H   UNL A   1      47.600  29.883  35.158  1.00  0.00     0.163 HD
ATOM     43  O   UNL A   1      48.800  31.155  33.483  1.00  0.00    -0.269 OA
BRANCH  41  44
ATOM     44  C   UNL A   1      47.794  29.849  31.818  1.00  0.00     0.039 A 
ATOM     45  C   UNL A   1      47.151  30.826  31.046  1.00  0.00     0.014 A 
ATOM     46  C   UNL A   1      47.910  28.548  31.339  1.00  0.00     0.014 A 
ATOM     47  C   UNL A   1      46.389  30.438  29.949  1.00  0.00     0.010 A 
ATOM     48  C   UNL A   1      47.063  28.140  30.331  1.00  0.00     0.010 A 
ATOM     49  C   UNL A   1      46.245  29.076  29.693  1.00  0.00    -0.014 A 
BRANCH  49  50
ATOM     50  C   UNL A   1      45.162  28.526  28.895  1.00  0.00     0.031 A 
ATOM     51  C   UNL A   1      43.858  28.225  29.505  1.00  0.00     0.074 A 
ATOM     52  C   UNL A   1      45.331  28.391  27.561  1.00  0.00     0.049 A 
ATOM     53  N   UNL A   1      42.995  27.408  29.004  1.00  0.00    -0.248 NA
ATOM     54  C   UNL A   1      43.447  28.786  30.785  1.00  0.00     0.031 C 
ATOM     55  C   UNL A   1      44.298  28.154  26.556  1.00  0.00     0.029 A 
ATOM     56  N   UNL A   1      46.526  28.218  26.866  1.00  0.00    -0.354 N 
ATOM     57  C   UNL A   1      41.817  27.594  29.686  1.00  0.00     0.074 A 
ATOM     58  C   UNL A   1      42.184  28.358  30.856  1.00  0.00     0.031 C 
ATOM     59  C   UNL A   1      44.867  27.564  25.493  1.00  0.00     0.029 A 
ATOM     60  C   UNL A   1      46.258  27.307  25.837  1.00  0.00     0.049 A 
ATOM     61  H   UNL A   1      47.390  28.650  27.061  1.00  0.00     0.167 HD
ATOM     62  C   UNL A   1      40.644  27.228  29.095  1.00  0.00     0.031 A 
ATOM     63  C   UNL A   1      46.913  26.125  25.671  1.00  0.00     0.031 A 
ATOM     64  C   UNL A   1      40.873  26.509  27.836  1.00  0.00     0.049 A 
ATOM     65  C   UNL A   1      45.941  24.973  25.682  1.00  0.00     0.074 A 
ATOM     66  C   UNL A   1      40.747  26.866  26.503  1.00  0.00     0.029 A 
ATOM     67  N   UNL A   1      41.595  25.315  27.852  1.00  0.00    -0.354 N 
ATOM     68  N   UNL A   1      44.752  25.053  26.220  1.00  0.00    -0.248 NA
ATOM     69  C   UNL A   1      46.202  23.665  25.093  1.00  0.00     0.031 C 
ATOM     70  C   UNL A   1      41.469  25.923  25.723  1.00  0.00     0.029 A 
ATOM     71  C   UNL A   1      42.003  24.972  26.577  1.00  0.00     0.049 A 
ATOM     72  H   UNL A   1      41.786  24.787  28.661  1.00  0.00     0.167 HD
ATOM     73  C   UNL A   1      44.068  23.897  25.983  1.00  0.00     0.074 A 
ATOM     74  C   UNL A   1      45.030  23.039  25.308  1.00  0.00     0.031 C 
ATOM     75  C   UNL A   1      42.757  23.746  26.333  1.00  0.00     0.031 A 
BRANCH  62  76
ATOM     76  C   UNL A   1      39.304  27.808  29.506  1.00  0.00    -0.014 A 
ATOM     77  C   UNL A   1      38.525  28.511  28.568  1.00  0.00     0.009 A 
ATOM     78  C   UNL A   1      38.783  27.771  30.812  1.00  0.00     0.009 A 
ATOM     79  C   UNL A   1      37.361  29.207  28.931  1.00  0.00     0.001 A 
ATOM     80  C   UNL A   1      37.642  28.492  31.194  1.00  0.00     0.001 A 
ATOM     81  C   UNL A   1      36.936  29.221  30.253  1.00  0.00     0.000 A 
ENDBRANCH  62  76
BRANCH  63  82
ATOM     82  C   UNL A   1      48.306  26.127  26.190  1.00  0.00    -0.014 A 
ATOM     83  C   UNL A   1      48.551  25.409  27.380  1.00  0.00     0.009 A 
ATOM     84  C   UNL A   1      49.390  26.415  25.350  1.00  0.00     0.009 A 
ATOM     85  C   UNL A   1      49.814  24.876  27.652  1.00  0.00     0.001 A 
ATOM     86  C   UNL A   1      50.660  25.888  25.634  1.00  0.00     0.001 A 
ATOM     87  C   UNL A   1      50.861  25.089  26.760  1.00  0.00     0.000 A 
ENDBRANCH  63  82
BRANCH  75  88
ATOM     88  C   UNL A   1      42.022  22.433  26.385  1.00  0.00    -0.014 A 
ATOM     89  C   UNL A   1      40.637  22.310  26.213  1.00  0.00     0.009 A 
ATOM     90  C   UNL A   1      42.765  21.235  26.445  1.00  0.00     0.009 A 
ATOM     91  C   UNL A   1      40.022  21.053  26.148  1.00  0.00     0.001 A 
ATOM     92  C   UNL A   1      42.162  19.981  26.334  1.00  0.00     0.001 A 
ATOM     93  C   UNL A   1      40.784  19.891  26.195  1.00  0.00     0.000 A 
ENDBRANCH  75  88
ENDBRANCH  49  50
ENDBRANCH  41  44
ENDBRANCH  39  40
ENDBRANCH  38  39
ENDBRANCH   1  38
TORSDOF 17
ENDMDL
