MODEL 1
REMARK VINA RESULT:      -9.6      0.000      0.000
REMARK SMILES CCNC(=O)C[NH2+][C@@H](C)[C@@H](C)C(=O)NCCCCNC(=O)c1ccc(-c2c3nc(c(-c4ccccc4)c4ccc([nH]4)c(-c4ccccc4)c4nc(c(-c5ccccc5)c5ccc2[nH]5)C=C4)C=C3)cc1
REMARK SMILES IDX 15 1 14 2 12 3 13 4 10 6 11 7 8 8 9 9 7 10 6 13 4 14 3 15
REMARK SMILES IDX 5 17 2 18 1 19 16 20 17 21 18 22 19 23 20 24 21 26 22 27
REMARK SMILES IDX 23 28 69 29 24 30 68 31 25 32 26 33 27 34 62 35 28 36 67 37
REMARK SMILES IDX 61 38 63 39 29 40 66 41 60 42 59 43 30 45 52 46 37 47 51 48
REMARK SMILES IDX 38 49 41 50 50 51 64 52 39 53 40 54 49 56 65 57 42 58 31 59
REMARK SMILES IDX 32 60 36 61 33 62 35 63 34 64 53 65 54 66 58 67 55 68 57 69
REMARK SMILES IDX 56 70 43 71 44 72 48 73 45 74 47 75 46 76
REMARK H PARENT 14 5 7 11 7 12 3 16 19 25 63 44 41 55
REMARK Flexibility Score: inf
ROOT
ATOM      1  C   UNL A   1      37.808  23.513  25.939  1.00  0.00     0.116 C 
ENDROOT
BRANCH   1   2
ATOM      2  N   UNL A   1      37.413  23.396  24.548  1.00  0.00    -0.356 N 
ATOM      3  C   UNL A   1      36.242  23.006  23.974  1.00  0.00     0.228 C 
ATOM      4  O   UNL A   1      36.204  22.984  22.740  1.00  0.00    -0.275 OA
ATOM      5  H   UNL A   1      38.116  23.643  23.906  1.00  0.00     0.163 HD
BRANCH   3   6
ATOM      6  C   UNL A   1      35.008  22.619  24.789  1.00  0.00     0.133 C 
ATOM      7  C   UNL A   1      34.771  21.108  24.690  1.00  0.00     0.024 C 
BRANCH   6   8
ATOM      8  C   UNL A   1      33.786  23.517  24.473  1.00  0.00     0.191 C 
ATOM      9  C   UNL A   1      34.130  24.993  24.728  1.00  0.00     0.076 C 
BRANCH   8  10
ATOM     10  N   UNL A   1      32.609  23.100  25.256  1.00  0.00    -0.336 N 
ATOM     11  H   UNL A   1      31.830  22.942  24.617  1.00  0.00     0.346 HD
ATOM     12  H   UNL A   1      32.856  22.250  25.761  1.00  0.00     0.346 HD
BRANCH  10  13
ATOM     13  C   UNL A   1      32.209  24.115  26.249  1.00  0.00     0.362 C 
BRANCH  13  14
ATOM     14  C   UNL A   1      30.688  24.136  26.404  1.00  0.00     0.275 C 
ATOM     15  N   UNL A   1      29.940  24.951  25.602  1.00  0.00    -0.351 N 
ATOM     16  H   UNL A   1      28.981  24.998  25.816  1.00  0.00     0.163 HD
ATOM     17  O   UNL A   1      30.119  23.451  27.256  1.00  0.00    -0.269 OA
BRANCH  15  18
ATOM     18  C   UNL A   1      30.374  25.754  24.476  1.00  0.00     0.112 C 
ATOM     19  C   UNL A   1      30.735  27.159  24.924  1.00  0.00     0.027 C 
ENDBRANCH  15  18
ENDBRANCH  13  14
ENDBRANCH  10  13
ENDBRANCH   8  10
ENDBRANCH   6   8
ENDBRANCH   3   6
ENDBRANCH   1   2
BRANCH   1  20
ATOM     20  C   UNL A   1      39.020  22.639  26.265  1.00  0.00     0.023 C 
BRANCH  20  21
ATOM     21  C   UNL A   1      39.009  21.256  25.615  1.00  0.00     0.023 C 
BRANCH  21  22
ATOM     22  C   UNL A   1      39.494  20.116  26.502  1.00  0.00     0.116 C 
BRANCH  22  23
ATOM     23  N   UNL A   1      40.622  19.389  25.938  1.00  0.00    -0.352 N 
ATOM     24  C   UNL A   1      41.931  19.788  25.819  1.00  0.00     0.251 C 
ATOM     25  H   UNL A   1      40.419  18.488  25.596  1.00  0.00     0.163 HD
ATOM     26  O   UNL A   1      42.740  19.089  25.216  1.00  0.00    -0.269 OA
BRANCH  24  27
ATOM     27  C   UNL A   1      42.351  21.085  26.388  1.00  0.00     0.039 A 
ATOM     28  C   UNL A   1      42.718  22.115  25.520  1.00  0.00     0.014 A 
ATOM     29  C   UNL A   1      42.343  21.294  27.770  1.00  0.00     0.014 A 
ATOM     30  C   UNL A   1      43.008  23.380  26.034  1.00  0.00     0.010 A 
ATOM     31  C   UNL A   1      42.558  22.573  28.274  1.00  0.00     0.010 A 
ATOM     32  C   UNL A   1      42.890  23.628  27.411  1.00  0.00    -0.014 A 
BRANCH  32  33
ATOM     33  C   UNL A   1      43.106  24.986  27.970  1.00  0.00     0.031 A 
ATOM     34  C   UNL A   1      44.478  25.407  28.419  1.00  0.00     0.074 A 
ATOM     35  C   UNL A   1      42.058  25.816  28.132  1.00  0.00     0.049 A 
ATOM     36  N   UNL A   1      44.852  26.521  28.996  1.00  0.00    -0.248 NA
ATOM     37  C   UNL A   1      45.569  24.440  28.213  1.00  0.00     0.031 C 
ATOM     38  C   UNL A   1      40.669  25.514  27.775  1.00  0.00     0.029 A 
ATOM     39  N   UNL A   1      41.997  27.086  28.651  1.00  0.00    -0.354 N 
ATOM     40  C   UNL A   1      46.214  26.384  29.230  1.00  0.00     0.074 A 
ATOM     41  C   UNL A   1      46.590  25.060  28.786  1.00  0.00     0.031 C 
ATOM     42  C   UNL A   1      39.900  26.576  28.066  1.00  0.00     0.029 A 
ATOM     43  C   UNL A   1      40.730  27.616  28.664  1.00  0.00     0.049 A 
ATOM     44  H   UNL A   1      42.787  27.571  28.982  1.00  0.00     0.167 HD
ATOM     45  C   UNL A   1      47.082  27.287  29.745  1.00  0.00     0.031 A 
ATOM     46  C   UNL A   1      40.283  28.804  29.116  1.00  0.00     0.031 A 
ATOM     47  C   UNL A   1      46.712  28.606  30.184  1.00  0.00     0.049 A 
ATOM     48  C   UNL A   1      41.264  29.781  29.704  1.00  0.00     0.074 A 
ATOM     49  C   UNL A   1      47.524  29.606  30.690  1.00  0.00     0.029 A 
ATOM     50  N   UNL A   1      45.420  29.108  30.167  1.00  0.00    -0.354 N 
ATOM     51  N   UNL A   1      42.559  29.656  29.865  1.00  0.00    -0.248 NA
ATOM     52  C   UNL A   1      40.721  31.067  30.163  1.00  0.00     0.031 C 
ATOM     53  C   UNL A   1      46.716  30.699  31.019  1.00  0.00     0.029 A 
ATOM     54  C   UNL A   1      45.410  30.399  30.667  1.00  0.00     0.049 A 
ATOM     55  H   UNL A   1      44.628  28.619  29.847  1.00  0.00     0.167 HD
ATOM     56  C   UNL A   1      42.988  30.857  30.414  1.00  0.00     0.074 A 
ATOM     57  C   UNL A   1      41.820  31.702  30.544  1.00  0.00     0.031 C 
ATOM     58  C   UNL A   1      44.240  31.227  30.783  1.00  0.00     0.031 A 
BRANCH  45  59
ATOM     59  C   UNL A   1      48.522  26.874  29.853  1.00  0.00    -0.014 A 
ATOM     60  C   UNL A   1      49.427  27.128  28.809  1.00  0.00     0.009 A 
ATOM     61  C   UNL A   1      48.991  26.257  31.022  1.00  0.00     0.009 A 
ATOM     62  C   UNL A   1      50.763  26.739  28.919  1.00  0.00     0.001 A 
ATOM     63  C   UNL A   1      50.335  25.895  31.142  1.00  0.00     0.001 A 
ATOM     64  C   UNL A   1      51.217  26.128  30.086  1.00  0.00     0.000 A 
ENDBRANCH  45  59
BRANCH  46  65
ATOM     65  C   UNL A   1      38.840  29.146  29.027  1.00  0.00    -0.014 A 
ATOM     66  C   UNL A   1      38.305  29.689  27.849  1.00  0.00     0.009 A 
ATOM     67  C   UNL A   1      37.993  28.953  30.131  1.00  0.00     0.009 A 
ATOM     68  C   UNL A   1      36.961  30.066  27.790  1.00  0.00     0.001 A 
ATOM     69  C   UNL A   1      36.643  29.304  30.059  1.00  0.00     0.001 A 
ATOM     70  C   UNL A   1      36.131  29.871  28.893  1.00  0.00     0.000 A 
ENDBRANCH  46  65
BRANCH  58  71
ATOM     71  C   UNL A   1      44.412  32.620  31.320  1.00  0.00    -0.014 A 
ATOM     72  C   UNL A   1      44.331  32.888  32.694  1.00  0.00     0.009 A 
ATOM     73  C   UNL A   1      44.699  33.673  30.435  1.00  0.00     0.009 A 
ATOM     74  C   UNL A   1      44.500  34.190  33.169  1.00  0.00     0.001 A 
ATOM     75  C   UNL A   1      44.896  34.968  30.916  1.00  0.00     0.001 A 
ATOM     76  C   UNL A   1      44.787  35.226  32.281  1.00  0.00     0.000 A 
ENDBRANCH  58  71
ENDBRANCH  32  33
ENDBRANCH  24  27
ENDBRANCH  22  23
ENDBRANCH  21  22
ENDBRANCH  20  21
ENDBRANCH   1  20
TORSDOF 16
ENDMDL
MODEL 2
REMARK VINA RESULT:      -9.6      1.609      2.050
REMARK SMILES CCNC(=O)C[NH2+][C@@H](C)[C@@H](C)C(=O)NCCCCNC(=O)c1ccc(-c2c3nc(c(-c4ccccc4)c4ccc([nH]4)c(-c4ccccc4)c4nc(c(-c5ccccc5)c5ccc2[nH]5)C=C4)C=C3)cc1
REMARK SMILES IDX 15 1 14 2 12 3 13 4 10 6 11 7 8 8 9 9 7 10 6 13 4 14 3 15
REMARK SMILES IDX 5 17 2 18 1 19 16 20 17 21 18 22 19 23 20 24 21 26 22 27
REMARK SMILES IDX 23 28 69 29 24 30 68 31 25 32 26 33 27 34 62 35 28 36 67 37
REMARK SMILES IDX 61 38 63 39 29 40 66 41 60 42 59 43 30 45 52 46 37 47 51 48
REMARK SMILES IDX 38 49 41 50 50 51 64 52 39 53 40 54 49 56 65 57 42 58 31 59
REMARK SMILES IDX 32 60 36 61 33 62 35 63 34 64 53 65 54 66 58 67 55 68 57 69
REMARK SMILES IDX 56 70 43 71 44 72 48 73 45 74 47 75 46 76
REMARK H PARENT 14 5 7 11 7 12 3 16 19 25 63 44 41 55
REMARK Flexibility Score: inf
ROOT
ATOM      1  C   UNL A   1      36.983  21.764  25.562  1.00  0.00     0.116 C 
ENDROOT
BRANCH   1   2
ATOM      2  N   UNL A   1      35.948  22.087  26.526  1.00  0.00    -0.356 N 
ATOM      3  C   UNL A   1      34.784  22.779  26.400  1.00  0.00     0.228 C 
ATOM      4  O   UNL A   1      34.100  22.915  27.420  1.00  0.00    -0.275 OA
ATOM      5  H   UNL A   1      36.119  21.744  27.432  1.00  0.00     0.163 HD
BRANCH   3   6
ATOM      6  C   UNL A   1      34.307  23.364  25.071  1.00  0.00     0.133 C 
ATOM      7  C   UNL A   1      34.683  24.848  24.988  1.00  0.00     0.024 C 
BRANCH   6   8
ATOM      8  C   UNL A   1      32.824  23.026  24.774  1.00  0.00     0.191 C 
ATOM      9  C   UNL A   1      32.734  21.841  23.799  1.00  0.00     0.076 C 
BRANCH   8  10
ATOM     10  N   UNL A   1      32.109  24.204  24.250  1.00  0.00    -0.336 N 
ATOM     11  H   UNL A   1      32.706  25.024  24.359  1.00  0.00     0.346 HD
ATOM     12  H   UNL A   1      31.893  24.026  23.270  1.00  0.00     0.346 HD
BRANCH  10  13
ATOM     13  C   UNL A   1      30.838  24.446  24.956  1.00  0.00     0.362 C 
BRANCH  13  14
ATOM     14  C   UNL A   1      31.068  24.492  26.468  1.00  0.00     0.275 C 
ATOM     15  N   UNL A   1      31.640  25.600  27.028  1.00  0.00    -0.351 N 
ATOM     16  H   UNL A   1      31.856  25.530  27.986  1.00  0.00     0.163 HD
ATOM     17  O   UNL A   1      30.771  23.542  27.193  1.00  0.00    -0.269 OA
BRANCH  15  18
ATOM     18  C   UNL A   1      31.970  26.863  26.398  1.00  0.00     0.112 C 
ATOM     19  C   UNL A   1      31.523  28.028  27.262  1.00  0.00     0.027 C 
ENDBRANCH  15  18
ENDBRANCH  13  14
ENDBRANCH  10  13
ENDBRANCH   8  10
ENDBRANCH   6   8
ENDBRANCH   3   6
ENDBRANCH   1   2
BRANCH   1  20
ATOM     20  C   UNL A   1      36.819  20.354  24.995  1.00  0.00     0.023 C 
BRANCH  20  21
ATOM     21  C   UNL A   1      38.125  19.590  24.784  1.00  0.00     0.023 C 
BRANCH  21  22
ATOM     22  C   UNL A   1      39.252  19.948  25.744  1.00  0.00     0.116 C 
BRANCH  22  23
ATOM     23  N   UNL A   1      40.274  18.917  25.840  1.00  0.00    -0.352 N 
ATOM     24  C   UNL A   1      41.610  19.053  26.131  1.00  0.00     0.251 C 
ATOM     25  H   UNL A   1      39.966  17.996  25.675  1.00  0.00     0.163 HD
ATOM     26  O   UNL A   1      42.361  18.084  26.066  1.00  0.00    -0.269 OA
BRANCH  24  27
ATOM     27  C   UNL A   1      42.145  20.383  26.485  1.00  0.00     0.039 A 
ATOM     28  C   UNL A   1      42.573  21.231  25.462  1.00  0.00     0.014 A 
ATOM     29  C   UNL A   1      42.187  20.804  27.817  1.00  0.00     0.014 A 
ATOM     30  C   UNL A   1      42.976  22.532  25.768  1.00  0.00     0.010 A 
ATOM     31  C   UNL A   1      42.515  22.124  28.111  1.00  0.00     0.010 A 
ATOM     32  C   UNL A   1      42.910  23.001  27.090  1.00  0.00    -0.014 A 
BRANCH  32  33
ATOM     33  C   UNL A   1      43.248  24.407  27.426  1.00  0.00     0.031 A 
ATOM     34  C   UNL A   1      44.680  24.864  27.408  1.00  0.00     0.074 A 
ATOM     35  C   UNL A   1      42.273  25.254  27.810  1.00  0.00     0.049 A 
ATOM     36  N   UNL A   1      45.179  26.028  27.739  1.00  0.00    -0.248 NA
ATOM     37  C   UNL A   1      45.686  23.876  26.984  1.00  0.00     0.031 C 
ATOM     38  C   UNL A   1      40.849  24.925  27.910  1.00  0.00     0.029 A 
ATOM     39  N   UNL A   1      42.336  26.570  28.199  1.00  0.00    -0.354 N 
ATOM     40  C   UNL A   1      46.553  25.908  27.572  1.00  0.00     0.074 A 
ATOM     41  C   UNL A   1      46.815  24.545  27.167  1.00  0.00     0.031 C 
ATOM     42  C   UNL A   1      40.173  26.014  28.311  1.00  0.00     0.029 A 
ATOM     43  C   UNL A   1      41.116  27.104  28.534  1.00  0.00     0.049 A 
ATOM     44  H   UNL A   1      43.177  27.081  28.234  1.00  0.00     0.167 HD
ATOM     45  C   UNL A   1      47.511  26.854  27.719  1.00  0.00     0.031 A 
ATOM     46  C   UNL A   1      40.793  28.333  28.981  1.00  0.00     0.031 A 
ATOM     47  C   UNL A   1      47.255  28.212  28.118  1.00  0.00     0.049 A 
ATOM     48  C   UNL A   1      41.880  29.359  29.157  1.00  0.00     0.074 A 
ATOM     49  C   UNL A   1      48.154  29.253  28.263  1.00  0.00     0.029 A 
ATOM     50  N   UNL A   1      46.003  28.715  28.435  1.00  0.00    -0.354 N 
ATOM     51  N   UNL A   1      43.167  29.245  28.940  1.00  0.00    -0.248 NA
ATOM     52  C   UNL A   1      41.463  30.687  29.630  1.00  0.00     0.031 C 
ATOM     53  C   UNL A   1      47.452  30.377  28.708  1.00  0.00     0.029 A 
ATOM     54  C   UNL A   1      46.108  30.049  28.789  1.00  0.00     0.049 A 
ATOM     55  H   UNL A   1      45.164  28.201  28.412  1.00  0.00     0.167 HD
ATOM     56  C   UNL A   1      43.709  30.492  29.219  1.00  0.00     0.074 A 
ATOM     57  C   UNL A   1      42.610  31.352  29.605  1.00  0.00     0.031 C 
ATOM     58  C   UNL A   1      45.004  30.891  29.164  1.00  0.00     0.031 A 
BRANCH  45  59
ATOM     59  C   UNL A   1      48.929  26.447  27.436  1.00  0.00    -0.014 A 
ATOM     60  C   UNL A   1      49.732  25.877  28.437  1.00  0.00     0.009 A 
ATOM     61  C   UNL A   1      49.461  26.600  26.146  1.00  0.00     0.009 A 
ATOM     62  C   UNL A   1      51.049  25.504  28.163  1.00  0.00     0.001 A 
ATOM     63  C   UNL A   1      50.769  26.198  25.867  1.00  0.00     0.001 A 
ATOM     64  C   UNL A   1      51.564  25.659  26.878  1.00  0.00     0.000 A 
ENDBRANCH  45  59
BRANCH  46  65
ATOM     65  C   UNL A   1      39.380  28.671  29.290  1.00  0.00    -0.014 A 
ATOM     66  C   UNL A   1      38.537  29.195  28.298  1.00  0.00     0.009 A 
ATOM     67  C   UNL A   1      38.872  28.495  30.587  1.00  0.00     0.009 A 
ATOM     68  C   UNL A   1      37.227  29.570  28.607  1.00  0.00     0.001 A 
ATOM     69  C   UNL A   1      37.553  28.843  30.886  1.00  0.00     0.001 A 
ATOM     70  C   UNL A   1      36.735  29.391  29.899  1.00  0.00     0.000 A 
ENDBRANCH  46  65
BRANCH  58  71
ATOM     71  C   UNL A   1      45.292  32.329  29.489  1.00  0.00    -0.014 A 
ATOM     72  C   UNL A   1      45.622  32.731  30.792  1.00  0.00     0.009 A 
ATOM     73  C   UNL A   1      45.269  33.289  28.464  1.00  0.00     0.009 A 
ATOM     74  C   UNL A   1      45.891  34.073  31.068  1.00  0.00     0.001 A 
ATOM     75  C   UNL A   1      45.566  34.625  28.738  1.00  0.00     0.001 A 
ATOM     76  C   UNL A   1      45.868  35.017  30.041  1.00  0.00     0.000 A 
ENDBRANCH  58  71
ENDBRANCH  32  33
ENDBRANCH  24  27
ENDBRANCH  22  23
ENDBRANCH  21  22
ENDBRANCH  20  21
ENDBRANCH   1  20
TORSDOF 16
ENDMDL
MODEL 3
REMARK VINA RESULT:      -9.6      2.253      3.345
REMARK SMILES CCNC(=O)C[NH2+][C@@H](C)[C@@H](C)C(=O)NCCCCNC(=O)c1ccc(-c2c3nc(c(-c4ccccc4)c4ccc([nH]4)c(-c4ccccc4)c4nc(c(-c5ccccc5)c5ccc2[nH]5)C=C4)C=C3)cc1
REMARK SMILES IDX 15 1 14 2 12 3 13 4 10 6 11 7 8 8 9 9 7 10 6 13 4 14 3 15
REMARK SMILES IDX 5 17 2 18 1 19 16 20 17 21 18 22 19 23 20 24 21 26 22 27
REMARK SMILES IDX 23 28 69 29 24 30 68 31 25 32 26 33 27 34 62 35 28 36 67 37
REMARK SMILES IDX 61 38 63 39 29 40 66 41 60 42 59 43 30 45 52 46 37 47 51 48
REMARK SMILES IDX 38 49 41 50 50 51 64 52 39 53 40 54 49 56 65 57 42 58 31 59
REMARK SMILES IDX 32 60 36 61 33 62 35 63 34 64 53 65 54 66 58 67 55 68 57 69
REMARK SMILES IDX 56 70 43 71 44 72 48 73 45 74 47 75 46 76
REMARK H PARENT 14 5 7 11 7 12 3 16 19 25 63 44 41 55
REMARK Flexibility Score: inf
ROOT
ATOM      1  C   UNL A   1      37.152  21.828  25.574  1.00  0.00     0.116 C 
ENDROOT
BRANCH   1   2
ATOM      2  N   UNL A   1      36.051  22.034  26.496  1.00  0.00    -0.356 N 
ATOM      3  C   UNL A   1      34.723  22.240  26.282  1.00  0.00     0.228 C 
ATOM      4  O   UNL A   1      34.016  22.409  27.280  1.00  0.00    -0.275 OA
ATOM      5  H   UNL A   1      36.312  22.024  27.445  1.00  0.00     0.163 HD
BRANCH   3   6
ATOM      6  C   UNL A   1      34.101  22.254  24.886  1.00  0.00     0.133 C 
ATOM      7  C   UNL A   1      33.554  23.651  24.573  1.00  0.00     0.024 C 
BRANCH   6   8
ATOM      8  C   UNL A   1      33.116  21.078  24.666  1.00  0.00     0.191 C 
ATOM      9  C   UNL A   1      31.731  21.432  25.231  1.00  0.00     0.076 C 
BRANCH   8  10
ATOM     10  N   UNL A   1      33.636  19.836  25.265  1.00  0.00    -0.336 N 
ATOM     11  H   UNL A   1      34.431  19.514  24.711  1.00  0.00     0.346 HD
ATOM     12  H   UNL A   1      33.909  20.044  26.225  1.00  0.00     0.346 HD
BRANCH  10  13
ATOM     13  C   UNL A   1      32.622  18.767  25.305  1.00  0.00     0.362 C 
BRANCH  13  14
ATOM     14  C   UNL A   1      32.613  17.992  23.986  1.00  0.00     0.275 C 
ATOM     15  N   UNL A   1      33.124  16.725  23.946  1.00  0.00    -0.351 N 
ATOM     16  H   UNL A   1      33.184  16.318  23.052  1.00  0.00     0.163 HD
ATOM     17  O   UNL A   1      32.175  18.493  22.950  1.00  0.00    -0.269 OA
BRANCH  15  18
ATOM     18  C   UNL A   1      33.590  15.904  25.045  1.00  0.00     0.112 C 
ATOM     19  C   UNL A   1      32.474  15.012  25.561  1.00  0.00     0.027 C 
ENDBRANCH  15  18
ENDBRANCH  13  14
ENDBRANCH  10  13
ENDBRANCH   8  10
ENDBRANCH   6   8
ENDBRANCH   3   6
ENDBRANCH   1   2
BRANCH   1  20
ATOM     20  C   UNL A   1      37.073  20.467  24.883  1.00  0.00     0.023 C 
BRANCH  20  21
ATOM     21  C   UNL A   1      38.413  19.748  24.723  1.00  0.00     0.023 C 
BRANCH  21  22
ATOM     22  C   UNL A   1      39.372  19.893  25.897  1.00  0.00     0.116 C 
BRANCH  22  23
ATOM     23  N   UNL A   1      40.422  18.884  25.909  1.00  0.00    -0.352 N 
ATOM     24  C   UNL A   1      41.768  19.044  26.129  1.00  0.00     0.251 C 
ATOM     25  H   UNL A   1      40.125  17.961  25.737  1.00  0.00     0.163 HD
ATOM     26  O   UNL A   1      42.536  18.095  25.995  1.00  0.00    -0.269 OA
BRANCH  24  27
ATOM     27  C   UNL A   1      42.293  20.377  26.488  1.00  0.00     0.039 A 
ATOM     28  C   UNL A   1      42.785  21.203  25.475  1.00  0.00     0.014 A 
ATOM     29  C   UNL A   1      42.263  20.823  27.811  1.00  0.00     0.014 A 
ATOM     30  C   UNL A   1      43.179  22.507  25.779  1.00  0.00     0.010 A 
ATOM     31  C   UNL A   1      42.584  22.145  28.100  1.00  0.00     0.010 A 
ATOM     32  C   UNL A   1      43.043  23.000  27.087  1.00  0.00    -0.014 A 
BRANCH  32  33
ATOM     33  C   UNL A   1      43.372  24.410  27.416  1.00  0.00     0.031 A 
ATOM     34  C   UNL A   1      44.799  24.880  27.380  1.00  0.00     0.074 A 
ATOM     35  C   UNL A   1      42.394  25.250  27.809  1.00  0.00     0.049 A 
ATOM     36  N   UNL A   1      45.292  26.049  27.701  1.00  0.00    -0.248 NA
ATOM     37  C   UNL A   1      45.809  23.900  26.946  1.00  0.00     0.031 C 
ATOM     38  C   UNL A   1      40.974  24.908  27.926  1.00  0.00     0.029 A 
ATOM     39  N   UNL A   1      42.450  26.567  28.194  1.00  0.00    -0.354 N 
ATOM     40  C   UNL A   1      46.665  25.941  27.519  1.00  0.00     0.074 A 
ATOM     41  C   UNL A   1      46.934  24.579  27.114  1.00  0.00     0.031 C 
ATOM     42  C   UNL A   1      40.293  25.992  28.332  1.00  0.00     0.029 A 
ATOM     43  C   UNL A   1      41.229  27.091  28.542  1.00  0.00     0.049 A 
ATOM     44  H   UNL A   1      43.286  27.086  28.218  1.00  0.00     0.167 HD
ATOM     45  C   UNL A   1      47.616  26.896  27.652  1.00  0.00     0.031 A 
ATOM     46  C   UNL A   1      40.901  28.319  28.989  1.00  0.00     0.031 A 
ATOM     47  C   UNL A   1      47.352  28.252  28.052  1.00  0.00     0.049 A 
ATOM     48  C   UNL A   1      41.980  29.354  29.150  1.00  0.00     0.074 A 
ATOM     49  C   UNL A   1      48.244  29.301  28.184  1.00  0.00     0.029 A 
ATOM     50  N   UNL A   1      46.100  28.746  28.382  1.00  0.00    -0.354 N 
ATOM     51  N   UNL A   1      43.265  29.251  28.918  1.00  0.00    -0.248 NA
ATOM     52  C   UNL A   1      41.557  30.680  29.625  1.00  0.00     0.031 C 
ATOM     53  C   UNL A   1      47.537  30.421  28.634  1.00  0.00     0.029 A 
ATOM     54  C   UNL A   1      46.197  30.081  28.731  1.00  0.00     0.049 A 
ATOM     55  H   UNL A   1      45.265  28.224  28.369  1.00  0.00     0.167 HD
ATOM     56  C   UNL A   1      43.799  30.504  29.188  1.00  0.00     0.074 A 
ATOM     57  C   UNL A   1      42.697  31.355  29.585  1.00  0.00     0.031 C 
ATOM     58  C   UNL A   1      45.090  30.914  29.117  1.00  0.00     0.031 A 
BRANCH  45  59
ATOM     59  C   UNL A   1      49.035  26.500  27.354  1.00  0.00    -0.014 A 
ATOM     60  C   UNL A   1      49.874  26.000  28.362  1.00  0.00     0.009 A 
ATOM     61  C   UNL A   1      49.530  26.595  26.044  1.00  0.00     0.009 A 
ATOM     62  C   UNL A   1      51.190  25.637  28.074  1.00  0.00     0.001 A 
ATOM     63  C   UNL A   1      50.838  26.203  25.752  1.00  0.00     0.001 A 
ATOM     64  C   UNL A   1      51.669  25.733  26.769  1.00  0.00     0.000 A 
ENDBRANCH  45  59
BRANCH  46  65
ATOM     65  C   UNL A   1      39.488  28.645  29.314  1.00  0.00    -0.014 A 
ATOM     66  C   UNL A   1      38.630  29.164  28.332  1.00  0.00     0.009 A 
ATOM     67  C   UNL A   1      38.995  28.462  30.617  1.00  0.00     0.009 A 
ATOM     68  C   UNL A   1      37.321  29.528  28.656  1.00  0.00     0.001 A 
ATOM     69  C   UNL A   1      37.677  28.799  30.930  1.00  0.00     0.001 A 
ATOM     70  C   UNL A   1      36.844  29.343  29.953  1.00  0.00     0.000 A 
ENDBRANCH  46  65
BRANCH  58  71
ATOM     71  C   UNL A   1      45.369  32.356  29.435  1.00  0.00    -0.014 A 
ATOM     72  C   UNL A   1      45.300  33.348  28.447  1.00  0.00     0.009 A 
ATOM     73  C   UNL A   1      45.668  32.728  30.756  1.00  0.00     0.009 A 
ATOM     74  C   UNL A   1      45.560  34.682  28.768  1.00  0.00     0.001 A 
ATOM     75  C   UNL A   1      45.898  34.066  31.080  1.00  0.00     0.001 A 
ATOM     76  C   UNL A   1      45.853  35.040  30.084  1.00  0.00     0.000 A 
ENDBRANCH  58  71
ENDBRANCH  32  33
ENDBRANCH  24  27
ENDBRANCH  22  23
ENDBRANCH  21  22
ENDBRANCH  20  21
ENDBRANCH   1  20
TORSDOF 16
ENDMDL
