MODEL 1
REMARK VINA RESULT:     -11.4      0.000      0.000
REMARK SMILES CCc1cc(/C=C/C(=O)NCCCCNC(=O)c2ccc(-c3c4nc(c(-c5ccccc5)c5ccc([nH]5)c(-c5ccccc5)c5nc(c(-c6ccccc6)c6ccc3[nH]6)C=C5)C=C4)cc2)cc(C(=O)c2ccccc2)c1
REMARK SMILES IDX 12 1 11 2 10 3 8 4 9 5 7 7 6 8 5 9 3 10 4 11 76 12 67 13
REMARK SMILES IDX 66 14 2 15 1 16 68 17 69 18 70 19 71 20 75 21 72 22 74 23
REMARK SMILES IDX 73 24 13 25 14 26 15 27 16 28 17 30 18 31 19 32 65 33 20 34
REMARK SMILES IDX 64 35 21 36 22 37 23 38 58 39 24 40 63 41 57 42 59 43 25 44
REMARK SMILES IDX 62 45 56 46 55 47 26 49 48 50 33 51 47 52 34 53 37 54 46 55
REMARK SMILES IDX 60 56 35 57 36 58 45 60 61 61 38 62 27 63 28 64 32 65 29 66
REMARK SMILES IDX 31 67 30 68 49 69 50 70 54 71 51 72 53 73 52 74 39 75 40 76
REMARK SMILES IDX 44 77 41 78 43 79 42 80
REMARK H PARENT 10 6 15 29 59 48 37 59
REMARK Flexibility Score: inf
ROOT
ATOM      1  C   UNL A   1      34.753  22.309  25.092  1.00  0.00     0.023 C 
ENDROOT
BRANCH   1   2
ATOM      2  C   UNL A   1      33.252  22.308  24.793  1.00  0.00     0.116 C 
BRANCH   2   3
ATOM      3  N   UNL A   1      32.472  22.311  26.017  1.00  0.00    -0.353 N 
ATOM      4  C   UNL A   1      31.860  23.334  26.671  1.00  0.00     0.243 C 
ATOM      5  O   UNL A   1      31.158  23.086  27.650  1.00  0.00    -0.270 OA
ATOM      6  H   UNL A   1      32.370  21.430  26.443  1.00  0.00     0.163 HD
BRANCH   4   7
ATOM      7  C   UNL A   1      31.958  24.735  26.196  1.00  0.00     0.072 C 
ATOM      8  C   UNL A   1      31.257  25.764  26.692  1.00  0.00     0.014 C 
BRANCH   8   9
ATOM      9  C   UNL A   1      31.303  27.135  26.172  1.00  0.00    -0.024 A 
ATOM     10  C   UNL A   1      32.071  29.452  26.319  1.00  0.00    -0.047 A 
ATOM     11  C   UNL A   1      31.949  28.165  26.867  1.00  0.00     0.011 A 
ATOM     12  C   UNL A   1      31.544  29.687  25.043  1.00  0.00     0.016 A 
ATOM     13  C   UNL A   1      30.921  28.659  24.319  1.00  0.00     0.023 A 
ATOM     14  C   UNL A   1      30.792  27.390  24.895  1.00  0.00     0.020 A 
BRANCH  10  15
ATOM     15  C   UNL A   1      32.862  30.493  27.077  1.00  0.00     0.032 C 
ATOM     16  C   UNL A   1      34.319  30.152  27.361  1.00  0.00     0.009 C 
ENDBRANCH  10  15
BRANCH  13  17
ATOM     17  C   UNL A   1      30.385  28.873  22.944  1.00  0.00     0.193 C 
ATOM     18  O   UNL A   1      30.634  28.069  22.050  1.00  0.00    -0.289 OA
BRANCH  17  19
ATOM     19  C   UNL A   1      29.527  30.040  22.636  1.00  0.00     0.022 A 
ATOM     20  C   UNL A   1      29.076  30.836  23.692  1.00  0.00     0.012 A 
ATOM     21  C   UNL A   1      29.180  30.353  21.315  1.00  0.00     0.012 A 
ATOM     22  C   UNL A   1      28.327  31.981  23.422  1.00  0.00     0.001 A 
ATOM     23  C   UNL A   1      28.432  31.499  21.052  1.00  0.00     0.001 A 
ATOM     24  C   UNL A   1      28.015  32.317  22.103  1.00  0.00     0.000 A 
ENDBRANCH  17  19
ENDBRANCH  13  17
ENDBRANCH   8   9
ENDBRANCH   4   7
ENDBRANCH   2   3
ENDBRANCH   1   2
BRANCH   1  25
ATOM     25  C   UNL A   1      35.398  23.695  25.127  1.00  0.00     0.023 C 
BRANCH  25  26
ATOM     26  C   UNL A   1      36.599  23.827  26.056  1.00  0.00     0.116 C 
BRANCH  26  27
ATOM     27  N   UNL A   1      37.568  22.753  25.912  1.00  0.00    -0.352 N 
ATOM     28  C   UNL A   1      38.909  22.771  26.216  1.00  0.00     0.251 C 
ATOM     29  H   UNL A   1      37.220  21.905  25.551  1.00  0.00     0.163 HD
ATOM     30  O   UNL A   1      39.624  21.816  25.953  1.00  0.00    -0.269 OA
BRANCH  28  31
ATOM     31  C   UNL A   1      39.487  23.990  26.820  1.00  0.00     0.039 A 
ATOM     32  C   UNL A   1      40.078  24.937  25.982  1.00  0.00     0.014 A 
ATOM     33  C   UNL A   1      39.400  24.212  28.196  1.00  0.00     0.014 A 
ATOM     34  C   UNL A   1      40.523  26.146  26.519  1.00  0.00     0.010 A 
ATOM     35  C   UNL A   1      39.782  25.443  28.718  1.00  0.00     0.010 A 
ATOM     36  C   UNL A   1      40.343  26.422  27.885  1.00  0.00    -0.014 A 
BRANCH  36  37
ATOM     37  C   UNL A   1      40.729  27.733  28.458  1.00  0.00     0.031 A 
ATOM     38  C   UNL A   1      42.141  27.973  28.911  1.00  0.00     0.074 A 
ATOM     39  C   UNL A   1      39.789  28.683  28.634  1.00  0.00     0.049 A 
ATOM     40  N   UNL A   1      42.654  29.029  29.489  1.00  0.00    -0.248 NA
ATOM     41  C   UNL A   1      43.096  26.870  28.714  1.00  0.00     0.031 C 
ATOM     42  C   UNL A   1      38.375  28.556  28.279  1.00  0.00     0.029 A 
ATOM     43  N   UNL A   1      39.887  29.944  29.167  1.00  0.00    -0.354 N 
ATOM     44  C   UNL A   1      43.982  28.712  29.739  1.00  0.00     0.074 A 
ATOM     45  C   UNL A   1      44.184  27.350  29.296  1.00  0.00     0.031 C 
ATOM     46  C   UNL A   1      37.742  29.703  28.577  1.00  0.00     0.029 A 
ATOM     47  C   UNL A   1      38.697  30.630  29.177  1.00  0.00     0.049 A 
ATOM     48  H   UNL A   1      40.729  30.322  29.509  1.00  0.00     0.167 HD
ATOM     49  C   UNL A   1      44.952  29.491  30.274  1.00  0.00     0.031 A 
ATOM     50  C   UNL A   1      38.406  31.867  29.622  1.00  0.00     0.031 A 
ATOM     51  C   UNL A   1      44.756  30.849  30.700  1.00  0.00     0.049 A 
ATOM     52  C   UNL A   1      39.501  32.711  30.210  1.00  0.00     0.074 A 
ATOM     53  C   UNL A   1      45.690  31.741  31.198  1.00  0.00     0.029 A 
ATOM     54  N   UNL A   1      43.539  31.513  30.678  1.00  0.00    -0.354 N 
ATOM     55  N   UNL A   1      40.769  32.422  30.376  1.00  0.00    -0.248 NA
ATOM     56  C   UNL A   1      39.126  34.060  30.659  1.00  0.00     0.031 C 
ATOM     57  C   UNL A   1      45.028  32.931  31.518  1.00  0.00     0.029 A 
ATOM     58  C   UNL A   1      43.693  32.797  31.173  1.00  0.00     0.049 A 
ATOM     59  H   UNL A   1      42.691  31.128  30.359  1.00  0.00     0.167 HD
ATOM     60  C   UNL A   1      41.348  33.559  30.923  1.00  0.00     0.074 A 
ATOM     61  C   UNL A   1      40.297  34.548  31.047  1.00  0.00     0.031 C 
ATOM     62  C   UNL A   1      42.636  33.767  31.288  1.00  0.00     0.031 A 
BRANCH  49  63
ATOM     63  C   UNL A   1      46.317  28.881  30.426  1.00  0.00    -0.014 A 
ATOM     64  C   UNL A   1      46.676  28.185  31.591  1.00  0.00     0.009 A 
ATOM     65  C   UNL A   1      47.248  28.982  29.381  1.00  0.00     0.009 A 
ATOM     66  C   UNL A   1      47.953  27.635  31.722  1.00  0.00     0.001 A 
ATOM     67  C   UNL A   1      48.515  28.407  29.503  1.00  0.00     0.001 A 
ATOM     68  C   UNL A   1      48.869  27.744  30.677  1.00  0.00     0.000 A 
ENDBRANCH  49  63
BRANCH  50  69
ATOM     69  C   UNL A   1      37.022  32.393  29.508  1.00  0.00    -0.014 A 
ATOM     70  C   UNL A   1      36.632  33.122  28.374  1.00  0.00     0.009 A 
ATOM     71  C   UNL A   1      36.086  32.175  30.531  1.00  0.00     0.009 A 
ATOM     72  C   UNL A   1      35.340  33.643  28.278  1.00  0.00     0.001 A 
ATOM     73  C   UNL A   1      34.787  32.676  30.420  1.00  0.00     0.001 A 
ATOM     74  C   UNL A   1      34.417  33.417  29.299  1.00  0.00     0.000 A 
ENDBRANCH  50  69
BRANCH  62  75
ATOM     75  C   UNL A   1      42.986  35.125  31.825  1.00  0.00    -0.014 A 
ATOM     76  C   UNL A   1      42.856  35.425  33.189  1.00  0.00     0.009 A 
ATOM     77  C   UNL A   1      43.492  36.104  30.956  1.00  0.00     0.009 A 
ATOM     78  C   UNL A   1      43.199  36.691  33.668  1.00  0.00     0.001 A 
ATOM     79  C   UNL A   1      43.859  37.360  31.442  1.00  0.00     0.001 A 
ATOM     80  C   UNL A   1      43.704  37.654  32.796  1.00  0.00     0.000 A 
ENDBRANCH  62  75
ENDBRANCH  36  37
ENDBRANCH  28  31
ENDBRANCH  26  27
ENDBRANCH  25  26
ENDBRANCH   1  25
TORSDOF 15
ENDMDL
MODEL 2
REMARK VINA RESULT:     -11.3      2.098      6.642
REMARK SMILES CCc1cc(/C=C/C(=O)NCCCCNC(=O)c2ccc(-c3c4nc(c(-c5ccccc5)c5ccc([nH]5)c(-c5ccccc5)c5nc(c(-c6ccccc6)c6ccc3[nH]6)C=C5)C=C4)cc2)cc(C(=O)c2ccccc2)c1
REMARK SMILES IDX 12 1 11 2 10 3 8 4 9 5 7 7 6 8 5 9 3 10 4 11 76 12 67 13
REMARK SMILES IDX 66 14 2 15 1 16 68 17 69 18 70 19 71 20 75 21 72 22 74 23
REMARK SMILES IDX 73 24 13 25 14 26 15 27 16 28 17 30 18 31 19 32 65 33 20 34
REMARK SMILES IDX 64 35 21 36 22 37 23 38 58 39 24 40 63 41 57 42 59 43 25 44
REMARK SMILES IDX 62 45 56 46 55 47 26 49 48 50 33 51 47 52 34 53 37 54 46 55
REMARK SMILES IDX 60 56 35 57 36 58 45 60 61 61 38 62 27 63 28 64 32 65 29 66
REMARK SMILES IDX 31 67 30 68 49 69 50 70 54 71 51 72 53 73 52 74 39 75 40 76
REMARK SMILES IDX 44 77 41 78 43 79 42 80
REMARK H PARENT 10 6 15 29 59 48 37 59
REMARK Flexibility Score: inf
ROOT
ATOM      1  C   UNL A   1      36.794  22.171  24.271  1.00  0.00     0.023 C 
ENDROOT
BRANCH   1   2
ATOM      2  C   UNL A   1      35.271  22.159  24.118  1.00  0.00     0.116 C 
BRANCH   2   3
ATOM      3  N   UNL A   1      34.621  21.798  25.364  1.00  0.00    -0.353 N 
ATOM      4  C   UNL A   1      33.647  22.434  26.069  1.00  0.00     0.243 C 
ATOM      5  O   UNL A   1      33.167  21.887  27.059  1.00  0.00    -0.270 OA
ATOM      6  H   UNL A   1      34.936  20.957  25.764  1.00  0.00     0.163 HD
BRANCH   4   7
ATOM      7  C   UNL A   1      33.098  23.742  25.635  1.00  0.00     0.072 C 
ATOM      8  C   UNL A   1      33.669  24.931  25.876  1.00  0.00     0.014 C 
BRANCH   8   9
ATOM      9  C   UNL A   1      33.087  26.227  25.509  1.00  0.00    -0.024 A 
ATOM     10  C   UNL A   1      32.925  28.651  25.784  1.00  0.00    -0.047 A 
ATOM     11  C   UNL A   1      33.412  27.402  26.200  1.00  0.00     0.011 A 
ATOM     12  C   UNL A   1      32.114  28.707  24.643  1.00  0.00     0.016 A 
ATOM     13  C   UNL A   1      31.804  27.544  23.921  1.00  0.00     0.023 A 
ATOM     14  C   UNL A   1      32.283  26.307  24.367  1.00  0.00     0.020 A 
BRANCH  10  15
ATOM     15  C   UNL A   1      33.389  29.891  26.514  1.00  0.00     0.032 C 
ATOM     16  C   UNL A   1      32.299  30.866  26.940  1.00  0.00     0.009 C 
ENDBRANCH  10  15
BRANCH  13  17
ATOM     17  C   UNL A   1      30.974  27.581  22.683  1.00  0.00     0.193 C 
ATOM     18  O   UNL A   1      31.229  26.832  21.744  1.00  0.00    -0.289 OA
BRANCH  17  19
ATOM     19  C   UNL A   1      29.817  28.498  22.571  1.00  0.00     0.022 A 
ATOM     20  C   UNL A   1      28.593  28.100  23.115  1.00  0.00     0.012 A 
ATOM     21  C   UNL A   1      29.941  29.745  21.945  1.00  0.00     0.012 A 
ATOM     22  C   UNL A   1      27.507  28.975  23.087  1.00  0.00     0.001 A 
ATOM     23  C   UNL A   1      28.853  30.616  21.921  1.00  0.00     0.001 A 
ATOM     24  C   UNL A   1      27.641  30.235  22.500  1.00  0.00     0.000 A 
ENDBRANCH  17  19
ENDBRANCH  13  17
ENDBRANCH   8   9
ENDBRANCH   4   7
ENDBRANCH   2   3
ENDBRANCH   1   2
BRANCH   1  25
ATOM     25  C   UNL A   1      37.398  20.856  24.766  1.00  0.00     0.023 C 
BRANCH  25  26
ATOM     26  C   UNL A   1      38.584  21.004  25.712  1.00  0.00     0.116 C 
BRANCH  26  27
ATOM     27  N   UNL A   1      39.517  19.890  25.656  1.00  0.00    -0.352 N 
ATOM     28  C   UNL A   1      40.842  19.872  26.022  1.00  0.00     0.251 C 
ATOM     29  H   UNL A   1      39.154  19.042  25.312  1.00  0.00     0.163 HD
ATOM     30  O   UNL A   1      41.532  18.882  25.832  1.00  0.00    -0.269 OA
BRANCH  28  31
ATOM     31  C   UNL A   1      41.437  21.092  26.606  1.00  0.00     0.039 A 
ATOM     32  C   UNL A   1      41.964  22.058  25.746  1.00  0.00     0.014 A 
ATOM     33  C   UNL A   1      41.432  21.297  27.988  1.00  0.00     0.014 A 
ATOM     34  C   UNL A   1      42.422  23.267  26.270  1.00  0.00     0.010 A 
ATOM     35  C   UNL A   1      41.826  22.527  28.501  1.00  0.00     0.010 A 
ATOM     36  C   UNL A   1      42.321  23.524  27.647  1.00  0.00    -0.014 A 
BRANCH  36  37
ATOM     37  C   UNL A   1      42.722  24.834  28.213  1.00  0.00     0.031 A 
ATOM     38  C   UNL A   1      41.692  25.905  28.440  1.00  0.00     0.074 A 
ATOM     39  C   UNL A   1      44.024  25.083  28.456  1.00  0.00     0.049 A 
ATOM     40  N   UNL A   1      41.856  27.130  28.870  1.00  0.00    -0.248 NA
ATOM     41  C   UNL A   1      40.298  25.562  28.115  1.00  0.00     0.031 C 
ATOM     42  C   UNL A   1      45.124  24.144  28.234  1.00  0.00     0.029 A 
ATOM     43  N   UNL A   1      44.640  26.211  28.938  1.00  0.00    -0.354 N 
ATOM     44  C   UNL A   1      40.594  27.706  28.850  1.00  0.00     0.074 A 
ATOM     45  C   UNL A   1      39.683  26.716  28.321  1.00  0.00     0.031 C 
ATOM     46  C   UNL A   1      46.278  24.724  28.604  1.00  0.00     0.029 A 
ATOM     47  C   UNL A   1      46.003  26.085  29.055  1.00  0.00     0.049 A 
ATOM     48  H   UNL A   1      44.152  27.032  29.177  1.00  0.00     0.167 HD
ATOM     49  C   UNL A   1      40.222  28.945  29.253  1.00  0.00     0.031 A 
ATOM     50  C   UNL A   1      46.928  26.968  29.476  1.00  0.00     0.031 A 
ATOM     51  C   UNL A   1      41.125  29.924  29.792  1.00  0.00     0.049 A 
ATOM     52  C   UNL A   1      46.489  28.335  29.919  1.00  0.00     0.074 A 
ATOM     53  C   UNL A   1      40.836  31.185  30.285  1.00  0.00     0.029 A 
ATOM     54  N   UNL A   1      42.496  29.752  29.911  1.00  0.00    -0.354 N 
ATOM     55  N   UNL A   1      45.281  28.842  29.960  1.00  0.00    -0.248 NA
ATOM     56  C   UNL A   1      47.543  29.247  30.387  1.00  0.00     0.031 C 
ATOM     57  C   UNL A   1      42.039  31.792  30.662  1.00  0.00     0.029 A 
ATOM     58  C   UNL A   1      43.070  30.890  30.449  1.00  0.00     0.049 A 
ATOM     59  H   UNL A   1      42.988  28.940  29.648  1.00  0.00     0.167 HD
ATOM     60  C   UNL A   1      45.425  30.120  30.483  1.00  0.00     0.074 A 
ATOM     61  C   UNL A   1      46.836  30.306  30.757  1.00  0.00     0.031 C 
ATOM     62  C   UNL A   1      44.475  31.057  30.716  1.00  0.00     0.031 A 
BRANCH  49  63
ATOM     63  C   UNL A   1      38.770  29.305  29.120  1.00  0.00    -0.014 A 
ATOM     64  C   UNL A   1      38.249  29.789  27.909  1.00  0.00     0.009 A 
ATOM     65  C   UNL A   1      37.904  29.132  30.211  1.00  0.00     0.009 A 
ATOM     66  C   UNL A   1      36.899  30.130  27.806  1.00  0.00     0.001 A 
ATOM     67  C   UNL A   1      36.549  29.448  30.096  1.00  0.00     0.001 A 
ATOM     68  C   UNL A   1      36.050  29.956  28.898  1.00  0.00     0.000 A 
ENDBRANCH  49  63
BRANCH  50  69
ATOM     69  C   UNL A   1      48.361  26.579  29.522  1.00  0.00    -0.014 A 
ATOM     70  C   UNL A   1      48.885  25.938  30.655  1.00  0.00     0.009 A 
ATOM     71  C   UNL A   1      49.211  26.850  28.439  1.00  0.00     0.009 A 
ATOM     72  C   UNL A   1      50.239  25.599  30.713  1.00  0.00     0.001 A 
ATOM     73  C   UNL A   1      50.559  26.487  28.490  1.00  0.00     0.001 A 
ATOM     74  C   UNL A   1      51.074  25.870  29.630  1.00  0.00     0.000 A 
ENDBRANCH  50  69
BRANCH  62  75
ATOM     75  C   UNL A   1      44.923  32.352  31.329  1.00  0.00    -0.014 A 
ATOM     76  C   UNL A   1      45.288  33.447  30.531  1.00  0.00     0.009 A 
ATOM     77  C   UNL A   1      44.941  32.489  32.725  1.00  0.00     0.009 A 
ATOM     78  C   UNL A   1      45.692  34.646  31.122  1.00  0.00     0.001 A 
ATOM     79  C   UNL A   1      45.319  33.697  33.312  1.00  0.00     0.001 A 
ATOM     80  C   UNL A   1      45.701  34.771  32.510  1.00  0.00     0.000 A 
ENDBRANCH  62  75
ENDBRANCH  36  37
ENDBRANCH  28  31
ENDBRANCH  26  27
ENDBRANCH  25  26
ENDBRANCH   1  25
TORSDOF 15
ENDMDL
MODEL 3
REMARK VINA RESULT:     -11.2      2.173      3.288
REMARK SMILES CCc1cc(/C=C/C(=O)NCCCCNC(=O)c2ccc(-c3c4nc(c(-c5ccccc5)c5ccc([nH]5)c(-c5ccccc5)c5nc(c(-c6ccccc6)c6ccc3[nH]6)C=C5)C=C4)cc2)cc(C(=O)c2ccccc2)c1
REMARK SMILES IDX 12 1 11 2 10 3 8 4 9 5 7 7 6 8 5 9 3 10 4 11 76 12 67 13
REMARK SMILES IDX 66 14 2 15 1 16 68 17 69 18 70 19 71 20 75 21 72 22 74 23
REMARK SMILES IDX 73 24 13 25 14 26 15 27 16 28 17 30 18 31 19 32 65 33 20 34
REMARK SMILES IDX 64 35 21 36 22 37 23 38 58 39 24 40 63 41 57 42 59 43 25 44
REMARK SMILES IDX 62 45 56 46 55 47 26 49 48 50 33 51 47 52 34 53 37 54 46 55
REMARK SMILES IDX 60 56 35 57 36 58 45 60 61 61 38 62 27 63 28 64 32 65 29 66
REMARK SMILES IDX 31 67 30 68 49 69 50 70 54 71 51 72 53 73 52 74 39 75 40 76
REMARK SMILES IDX 44 77 41 78 43 79 42 80
REMARK H PARENT 10 6 15 29 59 48 37 59
REMARK Flexibility Score: inf
ROOT
ATOM      1  C   UNL A   1      39.238  22.750  26.402  1.00  0.00     0.023 C 
ENDROOT
BRANCH   1   2
ATOM      2  C   UNL A   1      37.935  23.505  26.132  1.00  0.00     0.116 C 
BRANCH   2   3
ATOM      3  N   UNL A   1      36.802  22.600  26.090  1.00  0.00    -0.353 N 
ATOM      4  C   UNL A   1      35.491  22.837  25.816  1.00  0.00     0.243 C 
ATOM      5  O   UNL A   1      34.713  21.889  25.735  1.00  0.00    -0.270 OA
ATOM      6  H   UNL A   1      37.017  21.662  26.293  1.00  0.00     0.163 HD
BRANCH   4   7
ATOM      7  C   UNL A   1      34.987  24.205  25.542  1.00  0.00     0.072 C 
ATOM      8  C   UNL A   1      33.720  24.606  25.727  1.00  0.00     0.014 C 
BRANCH   8   9
ATOM      9  C   UNL A   1      33.207  25.937  25.387  1.00  0.00    -0.024 A 
ATOM     10  C   UNL A   1      33.202  28.365  25.684  1.00  0.00    -0.047 A 
ATOM     11  C   UNL A   1      33.624  27.084  26.076  1.00  0.00     0.011 A 
ATOM     12  C   UNL A   1      32.361  28.479  24.569  1.00  0.00     0.016 A 
ATOM     13  C   UNL A   1      31.960  27.344  23.849  1.00  0.00     0.023 A 
ATOM     14  C   UNL A   1      32.375  26.076  24.272  1.00  0.00     0.020 A 
BRANCH  10  15
ATOM     15  C   UNL A   1      33.762  29.568  26.407  1.00  0.00     0.032 C 
ATOM     16  C   UNL A   1      32.772  30.369  27.242  1.00  0.00     0.009 C 
ENDBRANCH  10  15
BRANCH  13  17
ATOM     17  C   UNL A   1      31.097  27.442  22.636  1.00  0.00     0.193 C 
ATOM     18  O   UNL A   1      31.319  26.732  21.659  1.00  0.00    -0.289 OA
BRANCH  17  19
ATOM     19  C   UNL A   1      29.946  28.372  22.596  1.00  0.00     0.022 A 
ATOM     20  C   UNL A   1      30.108  29.610  21.969  1.00  0.00     0.012 A 
ATOM     21  C   UNL A   1      28.713  28.021  23.162  1.00  0.00     0.012 A 
ATOM     22  C   UNL A   1      29.019  30.474  21.853  1.00  0.00     0.001 A 
ATOM     23  C   UNL A   1      27.628  28.888  23.042  1.00  0.00     0.001 A 
ATOM     24  C   UNL A   1      27.778  30.108  22.381  1.00  0.00     0.000 A 
ENDBRANCH  17  19
ENDBRANCH  13  17
ENDBRANCH   8   9
ENDBRANCH   4   7
ENDBRANCH   2   3
ENDBRANCH   1   2
BRANCH   1  25
ATOM     25  C   UNL A   1      39.282  21.327  25.842  1.00  0.00     0.023 C 
BRANCH  25  26
ATOM     26  C   UNL A   1      40.000  20.309  26.719  1.00  0.00     0.116 C 
BRANCH  26  27
ATOM     27  N   UNL A   1      41.096  19.631  26.047  1.00  0.00    -0.352 N 
ATOM     28  C   UNL A   1      42.369  20.098  25.813  1.00  0.00     0.251 C 
ATOM     29  H   UNL A   1      40.904  18.724  25.717  1.00  0.00     0.163 HD
ATOM     30  O   UNL A   1      43.162  19.449  25.149  1.00  0.00    -0.269 OA
BRANCH  28  31
ATOM     31  C   UNL A   1      42.748  21.427  26.335  1.00  0.00     0.039 A 
ATOM     32  C   UNL A   1      43.007  22.455  25.426  1.00  0.00     0.014 A 
ATOM     33  C   UNL A   1      42.800  21.664  27.710  1.00  0.00     0.014 A 
ATOM     34  C   UNL A   1      43.250  23.745  25.899  1.00  0.00     0.010 A 
ATOM     35  C   UNL A   1      42.976  22.962  28.177  1.00  0.00     0.010 A 
ATOM     36  C   UNL A   1      43.199  24.014  27.277  1.00  0.00    -0.014 A 
BRANCH  36  37
ATOM     37  C   UNL A   1      43.368  25.393  27.794  1.00  0.00     0.031 A 
ATOM     38  C   UNL A   1      44.740  25.919  28.106  1.00  0.00     0.074 A 
ATOM     39  C   UNL A   1      42.279  26.145  28.048  1.00  0.00     0.049 A 
ATOM     40  N   UNL A   1      45.085  27.072  28.619  1.00  0.00    -0.248 NA
ATOM     41  C   UNL A   1      45.872  25.019  27.832  1.00  0.00     0.031 C 
ATOM     42  C   UNL A   1      40.892  25.733  27.832  1.00  0.00     0.029 A 
ATOM     43  N   UNL A   1      42.174  27.417  28.553  1.00  0.00    -0.354 N 
ATOM     44  C   UNL A   1      46.466  27.029  28.744  1.00  0.00     0.074 A 
ATOM     45  C   UNL A   1      46.893  25.721  28.301  1.00  0.00     0.031 C 
ATOM     46  C   UNL A   1      40.074  26.742  28.176  1.00  0.00     0.029 A 
ATOM     47  C   UNL A   1      40.877  27.857  28.670  1.00  0.00     0.049 A 
ATOM     48  H   UNL A   1      42.952  27.963  28.808  1.00  0.00     0.167 HD
ATOM     49  C   UNL A   1      47.308  28.000  29.173  1.00  0.00     0.031 A 
ATOM     50  C   UNL A   1      40.390  29.025  29.125  1.00  0.00     0.031 A 
ATOM     51  C   UNL A   1      46.887  29.306  29.600  1.00  0.00     0.049 A 
ATOM     52  C   UNL A   1      41.345  30.086  29.594  1.00  0.00     0.074 A 
ATOM     53  C   UNL A   1      47.667  30.378  29.995  1.00  0.00     0.029 A 
ATOM     54  N   UNL A   1      45.566  29.718  29.687  1.00  0.00    -0.354 N 
ATOM     55  N   UNL A   1      42.655  30.056  29.642  1.00  0.00    -0.248 NA
ATOM     56  C   UNL A   1      40.754  31.348  30.061  1.00  0.00     0.031 C 
ATOM     57  C   UNL A   1      46.816  31.425  30.362  1.00  0.00     0.029 A 
ATOM     58  C   UNL A   1      45.507  31.021  30.149  1.00  0.00     0.049 A 
ATOM     59  H   UNL A   1      44.785  29.164  29.456  1.00  0.00     0.167 HD
ATOM     60  C   UNL A   1      43.045  31.301  30.116  1.00  0.00     0.074 A 
ATOM     61  C   UNL A   1      41.835  32.068  30.329  1.00  0.00     0.031 C 
ATOM     62  C   UNL A   1      44.294  31.769  30.353  1.00  0.00     0.031 A 
BRANCH  49  63
ATOM     63  C   UNL A   1      48.775  27.675  29.202  1.00  0.00    -0.014 A 
ATOM     64  C   UNL A   1      49.374  27.115  30.342  1.00  0.00     0.009 A 
ATOM     65  C   UNL A   1      49.564  27.905  28.064  1.00  0.00     0.009 A 
ATOM     66  C   UNL A   1      50.741  26.831  30.355  1.00  0.00     0.001 A 
ATOM     67  C   UNL A   1      50.925  27.594  28.071  1.00  0.00     0.001 A 
ATOM     68  C   UNL A   1      51.514  27.067  29.220  1.00  0.00     0.000 A 
ENDBRANCH  49  63
BRANCH  50  69
ATOM     69  C   UNL A   1      38.924  29.266  29.139  1.00  0.00    -0.014 A 
ATOM     70  C   UNL A   1      38.277  29.760  27.995  1.00  0.00     0.009 A 
ATOM     71  C   UNL A   1      38.166  29.009  30.291  1.00  0.00     0.009 A 
ATOM     72  C   UNL A   1      36.904  30.016  28.015  1.00  0.00     0.001 A 
ATOM     73  C   UNL A   1      36.789  29.242  30.299  1.00  0.00     0.001 A 
ATOM     74  C   UNL A   1      36.161  29.753  29.164  1.00  0.00     0.000 A 
ENDBRANCH  50  69
BRANCH  62  75
ATOM     75  C   UNL A   1      44.416  33.185  30.837  1.00  0.00    -0.014 A 
ATOM     76  C   UNL A   1      44.454  33.486  32.206  1.00  0.00     0.009 A 
ATOM     77  C   UNL A   1      44.536  34.227  29.905  1.00  0.00     0.009 A 
ATOM     78  C   UNL A   1      44.580  34.810  32.633  1.00  0.00     0.001 A 
ATOM     79  C   UNL A   1      44.689  35.546  30.335  1.00  0.00     0.001 A 
ATOM     80  C   UNL A   1      44.702  35.836  31.699  1.00  0.00     0.000 A 
ENDBRANCH  62  75
ENDBRANCH  36  37
ENDBRANCH  28  31
ENDBRANCH  26  27
ENDBRANCH  25  26
ENDBRANCH   1  25
TORSDOF 15
ENDMDL
