MODEL 1
REMARK VINA RESULT:     -11.0      0.000      0.000
REMARK SMILES Cc1cc(Cl)ccc1Oc1cc(C)c(N)c(C(=O)NCCCCNC(=O)c2ccc(-c3c4nc(c(-c5ccccc5)c5ccc([nH]5)c(-c5ccccc5)c5nc(c(-c6ccccc6)c6ccc3[nH]6)C=C5)C=C4)cc2)c1
REMARK SMILES IDX 21 1 20 2 19 3 17 4 18 5 16 7 10 8 11 9 75 10 12 11 13 12
REMARK SMILES IDX 14 13 9 14 8 15 1 16 2 17 3 18 4 19 7 20 5 21 6 22 15 23
REMARK SMILES IDX 22 26 23 27 24 28 25 29 26 31 27 32 28 33 74 34 29 35 73 36
REMARK SMILES IDX 30 37 31 38 32 39 67 40 33 41 72 42 66 43 68 44 34 45 71 46
REMARK SMILES IDX 65 47 64 48 35 50 57 51 42 52 56 53 43 54 46 55 55 56 69 57
REMARK SMILES IDX 44 58 45 59 54 61 70 62 47 63 36 64 37 65 41 66 38 67 40 68
REMARK SMILES IDX 39 69 58 70 59 71 63 72 60 73 62 74 61 75 48 76 49 77 53 78
REMARK SMILES IDX 50 79 52 80 51 81
REMARK H PARENT 19 6 15 24 15 25 24 30 68 49 46 60
REMARK Flexibility Score: inf
ROOT
ATOM      1  C   UNL A   1      33.351  28.999  24.975  1.00  0.00     0.023 C 
ENDROOT
BRANCH   1   2
ATOM      2  C   UNL A   1      33.681  28.484  23.571  1.00  0.00     0.116 C 
BRANCH   2   3
ATOM      3  N   UNL A   1      32.466  28.290  22.806  1.00  0.00    -0.352 N 
ATOM      4  C   UNL A   1      31.603  27.235  22.632  1.00  0.00     0.253 C 
ATOM      5  O   UNL A   1      30.658  27.455  21.867  1.00  0.00    -0.269 OA
ATOM      6  H   UNL A   1      32.200  29.092  22.299  1.00  0.00     0.163 HD
BRANCH   4   7
ATOM      7  C   UNL A   1      31.715  25.905  23.331  1.00  0.00     0.066 A 
ATOM      8  C   UNL A   1      32.645  23.670  23.532  1.00  0.00     0.128 A 
ATOM      9  C   UNL A   1      32.013  23.481  24.752  1.00  0.00     0.052 A 
ATOM     10  C   UNL A   1      32.499  24.863  22.826  1.00  0.00     0.063 A 
ATOM     11  C   UNL A   1      31.129  24.454  25.232  1.00  0.00    -0.024 A 
ATOM     12  C   UNL A   1      30.316  24.144  26.461  1.00  0.00     0.047 C 
ATOM     13  C   UNL A   1      30.986  25.682  24.537  1.00  0.00     0.048 A 
BRANCH   8  14
ATOM     14  O   UNL A   1      33.519  22.738  23.053  1.00  0.00    -0.457 OA
BRANCH  14  15
ATOM     15  C   UNL A   1      34.643  22.370  23.761  1.00  0.00     0.130 A 
ATOM     16  C   UNL A   1      33.873  20.172  24.900  1.00  0.00     0.048 C 
ATOM     17  C   UNL A   1      34.868  21.257  24.592  1.00  0.00    -0.007 A 
ATOM     18  C   UNL A   1      36.125  21.143  25.228  1.00  0.00     0.027 A 
ATOM     19  C   UNL A   1      37.137  22.080  25.022  1.00  0.00     0.041 A 
ATOM     20  C   UNL A   1      35.682  23.302  23.562  1.00  0.00     0.049 A 
ATOM     21  Cl  UNL A   1      38.652  21.892  25.812  1.00  0.00    -0.084 Cl
ATOM     22  C   UNL A   1      36.923  23.160  24.181  1.00  0.00     0.024 A 
ENDBRANCH  14  15
ENDBRANCH   8  14
BRANCH  13  23
ATOM     23  N   UNL A   1      30.068  26.619  25.010  1.00  0.00    -0.398 N 
ATOM     24  H   UNL A   1      30.079  26.883  25.958  1.00  0.00     0.156 HD
ATOM     25  H   UNL A   1      29.409  27.016  24.395  1.00  0.00     0.156 HD
ENDBRANCH  13  23
ENDBRANCH   4   7
ENDBRANCH   2   3
ENDBRANCH   1   2
BRANCH   1  26
ATOM     26  C   UNL A   1      33.583  27.971  26.091  1.00  0.00     0.023 C 
BRANCH  26  27
ATOM     27  C   UNL A   1      33.341  28.488  27.506  1.00  0.00     0.116 C 
BRANCH  27  28
ATOM     28  N   UNL A   1      33.369  29.939  27.602  1.00  0.00    -0.352 N 
ATOM     29  C   UNL A   1      34.410  30.752  27.983  1.00  0.00     0.251 C 
ATOM     30  H   UNL A   1      32.533  30.399  27.364  1.00  0.00     0.163 HD
ATOM     31  O   UNL A   1      34.244  31.957  28.108  1.00  0.00    -0.269 OA
BRANCH  29  32
ATOM     32  C   UNL A   1      35.724  30.148  28.284  1.00  0.00     0.039 A 
ATOM     33  C   UNL A   1      36.682  30.088  27.268  1.00  0.00     0.014 A 
ATOM     34  C   UNL A   1      36.017  29.671  29.564  1.00  0.00     0.014 A 
ATOM     35  C   UNL A   1      37.961  29.608  27.555  1.00  0.00     0.010 A 
ATOM     36  C   UNL A   1      37.311  29.250  29.863  1.00  0.00     0.010 A 
ATOM     37  C   UNL A   1      38.294  29.219  28.862  1.00  0.00    -0.014 A 
BRANCH  37  38
ATOM     38  C   UNL A   1      39.671  28.791  29.206  1.00  0.00     0.031 A 
ATOM     39  C   UNL A   1      40.601  29.732  29.919  1.00  0.00     0.074 A 
ATOM     40  C   UNL A   1      40.109  27.581  28.807  1.00  0.00     0.049 A 
ATOM     41  N   UNL A   1      41.857  29.560  30.246  1.00  0.00    -0.248 NA
ATOM     42  C   UNL A   1      40.058  31.049  30.289  1.00  0.00     0.031 C 
ATOM     43  C   UNL A   1      39.322  26.597  28.061  1.00  0.00     0.029 A 
ATOM     44  N   UNL A   1      41.332  26.978  28.961  1.00  0.00    -0.354 N 
ATOM     45  C   UNL A   1      42.260  30.752  30.833  1.00  0.00     0.074 A 
ATOM     46  C   UNL A   1      41.128  31.652  30.787  1.00  0.00     0.031 C 
ATOM     47  C   UNL A   1      40.076  25.509  27.837  1.00  0.00     0.029 A 
ATOM     48  C   UNL A   1      41.406  25.730  28.393  1.00  0.00     0.049 A 
ATOM     49  H   UNL A   1      42.086  27.400  29.435  1.00  0.00     0.167 HD
ATOM     50  C   UNL A   1      43.459  31.064  31.378  1.00  0.00     0.031 A 
ATOM     51  C   UNL A   1      42.434  24.863  28.320  1.00  0.00     0.031 A 
ATOM     52  C   UNL A   1      44.576  30.161  31.448  1.00  0.00     0.049 A 
ATOM     53  C   UNL A   1      43.749  25.227  28.952  1.00  0.00     0.074 A 
ATOM     54  C   UNL A   1      45.806  30.357  32.052  1.00  0.00     0.029 A 
ATOM     55  N   UNL A   1      44.599  28.892  30.893  1.00  0.00    -0.354 N 
ATOM     56  N   UNL A   1      44.085  26.325  29.583  1.00  0.00    -0.248 NA
ATOM     57  C   UNL A   1      44.820  24.224  28.872  1.00  0.00     0.031 C 
ATOM     58  C   UNL A   1      46.590  29.222  31.823  1.00  0.00     0.029 A 
ATOM     59  C   UNL A   1      45.831  28.302  31.118  1.00  0.00     0.049 A 
ATOM     60  H   UNL A   1      43.852  28.472  30.409  1.00  0.00     0.167 HD
ATOM     61  C   UNL A   1      45.397  26.136  29.998  1.00  0.00     0.074 A 
ATOM     62  C   UNL A   1      45.789  24.812  29.561  1.00  0.00     0.031 C 
ATOM     63  C   UNL A   1      46.204  26.983  30.679  1.00  0.00     0.031 A 
BRANCH  50  64
ATOM     64  C   UNL A   1      43.629  32.448  31.938  1.00  0.00    -0.014 A 
ATOM     65  C   UNL A   1      43.346  32.727  33.284  1.00  0.00     0.009 A 
ATOM     66  C   UNL A   1      44.123  33.475  31.120  1.00  0.00     0.009 A 
ATOM     67  C   UNL A   1      43.524  34.018  33.790  1.00  0.00     0.001 A 
ATOM     68  C   UNL A   1      44.325  34.756  31.635  1.00  0.00     0.001 A 
ATOM     69  C   UNL A   1      44.017  35.028  32.967  1.00  0.00     0.000 A 
ENDBRANCH  50  64
BRANCH  51  70
ATOM     70  C   UNL A   1      42.262  23.558  27.631  1.00  0.00    -0.014 A 
ATOM     71  C   UNL A   1      41.811  22.433  28.338  1.00  0.00     0.009 A 
ATOM     72  C   UNL A   1      42.559  23.428  26.265  1.00  0.00     0.009 A 
ATOM     73  C   UNL A   1      41.691  21.197  27.698  1.00  0.00     0.001 A 
ATOM     74  C   UNL A   1      42.412  22.198  25.623  1.00  0.00     0.001 A 
ATOM     75  C   UNL A   1      41.989  21.081  26.341  1.00  0.00     0.000 A 
ENDBRANCH  51  70
BRANCH  63  76
ATOM     76  C   UNL A   1      47.581  26.492  31.022  1.00  0.00    -0.014 A 
ATOM     77  C   UNL A   1      47.846  25.871  32.252  1.00  0.00     0.009 A 
ATOM     78  C   UNL A   1      48.617  26.617  30.082  1.00  0.00     0.009 A 
ATOM     79  C   UNL A   1      49.131  25.410  32.545  1.00  0.00     0.001 A 
ATOM     80  C   UNL A   1      49.893  26.131  30.368  1.00  0.00     0.001 A 
ATOM     81  C   UNL A   1      50.152  25.536  31.602  1.00  0.00     0.000 A 
ENDBRANCH  63  76
ENDBRANCH  37  38
ENDBRANCH  29  32
ENDBRANCH  27  28
ENDBRANCH  26  27
ENDBRANCH   1  26
TORSDOF 14
ENDMDL
MODEL 2
REMARK VINA RESULT:     -11.0      2.707      7.795
REMARK SMILES Cc1cc(Cl)ccc1Oc1cc(C)c(N)c(C(=O)NCCCCNC(=O)c2ccc(-c3c4nc(c(-c5ccccc5)c5ccc([nH]5)c(-c5ccccc5)c5nc(c(-c6ccccc6)c6ccc3[nH]6)C=C5)C=C4)cc2)c1
REMARK SMILES IDX 21 1 20 2 19 3 17 4 18 5 16 7 10 8 11 9 75 10 12 11 13 12
REMARK SMILES IDX 14 13 9 14 8 15 1 16 2 17 3 18 4 19 7 20 5 21 6 22 15 23
REMARK SMILES IDX 22 26 23 27 24 28 25 29 26 31 27 32 28 33 74 34 29 35 73 36
REMARK SMILES IDX 30 37 31 38 32 39 67 40 33 41 72 42 66 43 68 44 34 45 71 46
REMARK SMILES IDX 65 47 64 48 35 50 57 51 42 52 56 53 43 54 46 55 55 56 69 57
REMARK SMILES IDX 44 58 45 59 54 61 70 62 47 63 36 64 37 65 41 66 38 67 40 68
REMARK SMILES IDX 39 69 58 70 59 71 63 72 60 73 62 74 61 75 48 76 49 77 53 78
REMARK SMILES IDX 50 79 52 80 51 81
REMARK H PARENT 19 6 15 24 15 25 24 30 68 49 46 60
REMARK Flexibility Score: inf
ROOT
ATOM      1  C   UNL A   1      35.401  22.336  26.401  1.00  0.00     0.023 C 
ENDROOT
BRANCH   1   2
ATOM      2  C   UNL A   1      34.121  22.363  27.241  1.00  0.00     0.116 C 
BRANCH   2   3
ATOM      3  N   UNL A   1      33.083  21.575  26.605  1.00  0.00    -0.352 N 
ATOM      4  C   UNL A   1      32.135  21.838  25.647  1.00  0.00     0.253 C 
ATOM      5  O   UNL A   1      31.398  20.887  25.368  1.00  0.00    -0.269 OA
ATOM      6  H   UNL A   1      33.051  20.647  26.933  1.00  0.00     0.163 HD
BRANCH   4   7
ATOM      7  C   UNL A   1      31.987  23.148  24.916  1.00  0.00     0.066 A 
ATOM      8  C   UNL A   1      31.264  25.464  24.809  1.00  0.00     0.128 A 
ATOM      9  C   UNL A   1      31.864  25.628  23.570  1.00  0.00     0.052 A 
ATOM     10  C   UNL A   1      31.319  24.240  25.475  1.00  0.00     0.063 A 
ATOM     11  C   UNL A   1      32.440  24.526  22.928  1.00  0.00    -0.024 A 
ATOM     12  C   UNL A   1      32.917  24.690  21.508  1.00  0.00     0.047 C 
ATOM     13  C   UNL A   1      32.524  23.282  23.600  1.00  0.00     0.048 A 
BRANCH   8  14
ATOM     14  O   UNL A   1      30.707  26.528  25.457  1.00  0.00    -0.457 OA
BRANCH  14  15
ATOM     15  C   UNL A   1      31.438  27.660  25.746  1.00  0.00     0.130 A 
ATOM     16  C   UNL A   1      30.622  29.316  23.927  1.00  0.00     0.048 C 
ATOM     17  C   UNL A   1      31.451  28.919  25.117  1.00  0.00    -0.007 A 
ATOM     18  C   UNL A   1      32.336  29.903  25.613  1.00  0.00     0.027 A 
ATOM     19  C   UNL A   1      33.154  29.662  26.715  1.00  0.00     0.041 A 
ATOM     20  C   UNL A   1      32.270  27.440  26.863  1.00  0.00     0.049 A 
ATOM     21  Cl  UNL A   1      34.207  30.896  27.286  1.00  0.00    -0.084 Cl
ATOM     22  C   UNL A   1      33.119  28.432  27.351  1.00  0.00     0.024 A 
ENDBRANCH  14  15
ENDBRANCH   8  14
BRANCH  13  23
ATOM     23  N   UNL A   1      33.062  22.188  22.925  1.00  0.00    -0.398 N 
ATOM     24  H   UNL A   1      32.678  21.291  23.056  1.00  0.00     0.156 HD
ATOM     25  H   UNL A   1      33.827  22.311  22.317  1.00  0.00     0.156 HD
ENDBRANCH  13  23
ENDBRANCH   4   7
ENDBRANCH   2   3
ENDBRANCH   1   2
BRANCH   1  26
ATOM     26  C   UNL A   1      35.843  23.714  25.889  1.00  0.00     0.023 C 
BRANCH  26  27
ATOM     27  C   UNL A   1      37.063  23.701  24.972  1.00  0.00     0.116 C 
BRANCH  27  28
ATOM     28  N   UNL A   1      38.069  22.728  25.365  1.00  0.00    -0.352 N 
ATOM     29  C   UNL A   1      39.176  22.914  26.159  1.00  0.00     0.251 C 
ATOM     30  H   UNL A   1      37.941  21.817  25.017  1.00  0.00     0.163 HD
ATOM     31  O   UNL A   1      39.986  22.012  26.317  1.00  0.00    -0.269 OA
BRANCH  29  32
ATOM     32  C   UNL A   1      39.402  24.233  26.785  1.00  0.00     0.039 A 
ATOM     33  C   UNL A   1      38.916  24.452  28.077  1.00  0.00     0.014 A 
ATOM     34  C   UNL A   1      40.109  25.233  26.113  1.00  0.00     0.014 A 
ATOM     35  C   UNL A   1      39.200  25.656  28.724  1.00  0.00     0.010 A 
ATOM     36  C   UNL A   1      40.442  26.408  26.782  1.00  0.00     0.010 A 
ATOM     37  C   UNL A   1      39.994  26.628  28.094  1.00  0.00    -0.014 A 
BRANCH  37  38
ATOM     38  C   UNL A   1      40.380  27.875  28.797  1.00  0.00     0.031 A 
ATOM     39  C   UNL A   1      41.718  27.981  29.471  1.00  0.00     0.074 A 
ATOM     40  C   UNL A   1      39.492  28.883  28.894  1.00  0.00     0.049 A 
ATOM     41  N   UNL A   1      42.206  28.964  30.186  1.00  0.00    -0.248 NA
ATOM     42  C   UNL A   1      42.618  26.822  29.348  1.00  0.00     0.031 C 
ATOM     43  C   UNL A   1      38.140  28.881  28.331  1.00  0.00     0.029 A 
ATOM     44  N   UNL A   1      39.589  30.102  29.517  1.00  0.00    -0.354 N 
ATOM     45  C   UNL A   1      43.453  28.531  30.619  1.00  0.00     0.074 A 
ATOM     46  C   UNL A   1      43.633  27.186  30.118  1.00  0.00     0.031 C 
ATOM     47  C   UNL A   1      37.541  30.048  28.620  1.00  0.00     0.029 A 
ATOM     48  C   UNL A   1      38.452  30.865  29.415  1.00  0.00     0.049 A 
ATOM     49  H   UNL A   1      40.399  30.402  29.992  1.00  0.00     0.167 HD
ATOM     50  C   UNL A   1      44.372  29.200  31.355  1.00  0.00     0.031 A 
ATOM     51  C   UNL A   1      38.170  32.085  29.912  1.00  0.00     0.031 A 
ATOM     52  C   UNL A   1      44.203  30.546  31.831  1.00  0.00     0.049 A 
ATOM     53  C   UNL A   1      39.217  32.813  30.708  1.00  0.00     0.074 A 
ATOM     54  C   UNL A   1      45.110  31.339  32.514  1.00  0.00     0.029 A 
ATOM     55  N   UNL A   1      43.050  31.299  31.675  1.00  0.00    -0.354 N 
ATOM     56  N   UNL A   1      40.426  32.425  31.032  1.00  0.00    -0.248 NA
ATOM     57  C   UNL A   1      38.863  34.155  31.193  1.00  0.00     0.031 C 
ATOM     58  C   UNL A   1      44.488  32.555  32.812  1.00  0.00     0.029 A 
ATOM     59  C   UNL A   1      43.213  32.538  32.271  1.00  0.00     0.049 A 
ATOM     60  H   UNL A   1      42.237  30.998  31.210  1.00  0.00     0.167 HD
ATOM     61  C   UNL A   1      40.986  33.483  31.737  1.00  0.00     0.074 A 
ATOM     62  C   UNL A   1      39.991  34.535  31.777  1.00  0.00     0.031 C 
ATOM     63  C   UNL A   1      42.215  33.574  32.300  1.00  0.00     0.031 A 
BRANCH  50  64
ATOM     64  C   UNL A   1      45.645  28.480  31.697  1.00  0.00    -0.014 A 
ATOM     65  C   UNL A   1      45.751  27.704  32.862  1.00  0.00     0.009 A 
ATOM     66  C   UNL A   1      46.738  28.542  30.820  1.00  0.00     0.009 A 
ATOM     67  C   UNL A   1      46.939  27.032  33.157  1.00  0.00     0.001 A 
ATOM     68  C   UNL A   1      47.915  27.848  31.104  1.00  0.00     0.001 A 
ATOM     69  C   UNL A   1      48.017  27.100  32.276  1.00  0.00     0.000 A 
ENDBRANCH  50  64
BRANCH  51  70
ATOM     70  C   UNL A   1      36.841  32.702  29.667  1.00  0.00    -0.014 A 
ATOM     71  C   UNL A   1      35.784  32.498  30.566  1.00  0.00     0.009 A 
ATOM     72  C   UNL A   1      36.621  33.490  28.526  1.00  0.00     0.009 A 
ATOM     73  C   UNL A   1      34.524  33.044  30.311  1.00  0.00     0.001 A 
ATOM     74  C   UNL A   1      35.368  34.056  28.288  1.00  0.00     0.001 A 
ATOM     75  C   UNL A   1      34.317  33.825  29.175  1.00  0.00     0.000 A 
ENDBRANCH  51  70
BRANCH  63  76
ATOM     76  C   UNL A   1      42.563  34.866  32.980  1.00  0.00    -0.014 A 
ATOM     77  C   UNL A   1      43.283  35.868  32.312  1.00  0.00     0.009 A 
ATOM     78  C   UNL A   1      42.128  35.098  34.294  1.00  0.00     0.009 A 
ATOM     79  C   UNL A   1      43.585  37.068  32.959  1.00  0.00     0.001 A 
ATOM     80  C   UNL A   1      42.408  36.309  34.928  1.00  0.00     0.001 A 
ATOM     81  C   UNL A   1      43.144  37.290  34.264  1.00  0.00     0.000 A 
ENDBRANCH  63  76
ENDBRANCH  37  38
ENDBRANCH  29  32
ENDBRANCH  27  28
ENDBRANCH  26  27
ENDBRANCH   1  26
TORSDOF 14
ENDMDL
MODEL 3
REMARK VINA RESULT:     -11.0      2.581      7.612
REMARK SMILES Cc1cc(Cl)ccc1Oc1cc(C)c(N)c(C(=O)NCCCCNC(=O)c2ccc(-c3c4nc(c(-c5ccccc5)c5ccc([nH]5)c(-c5ccccc5)c5nc(c(-c6ccccc6)c6ccc3[nH]6)C=C5)C=C4)cc2)c1
REMARK SMILES IDX 21 1 20 2 19 3 17 4 18 5 16 7 10 8 11 9 75 10 12 11 13 12
REMARK SMILES IDX 14 13 9 14 8 15 1 16 2 17 3 18 4 19 7 20 5 21 6 22 15 23
REMARK SMILES IDX 22 26 23 27 24 28 25 29 26 31 27 32 28 33 74 34 29 35 73 36
REMARK SMILES IDX 30 37 31 38 32 39 67 40 33 41 72 42 66 43 68 44 34 45 71 46
REMARK SMILES IDX 65 47 64 48 35 50 57 51 42 52 56 53 43 54 46 55 55 56 69 57
REMARK SMILES IDX 44 58 45 59 54 61 70 62 47 63 36 64 37 65 41 66 38 67 40 68
REMARK SMILES IDX 39 69 58 70 59 71 63 72 60 73 62 74 61 75 48 76 49 77 53 78
REMARK SMILES IDX 50 79 52 80 51 81
REMARK H PARENT 19 6 15 24 15 25 24 30 68 49 46 60
REMARK Flexibility Score: inf
ROOT
ATOM      1  C   UNL A   1      36.750  21.102  24.645  1.00  0.00     0.023 C 
ENDROOT
BRANCH   1   2
ATOM      2  C   UNL A   1      36.699  22.141  25.769  1.00  0.00     0.116 C 
BRANCH   2   3
ATOM      3  N   UNL A   1      35.535  21.923  26.605  1.00  0.00    -0.352 N 
ATOM      4  C   UNL A   1      34.185  22.106  26.431  1.00  0.00     0.253 C 
ATOM      5  O   UNL A   1      33.488  21.811  27.408  1.00  0.00    -0.269 OA
ATOM      6  H   UNL A   1      35.763  21.565  27.494  1.00  0.00     0.163 HD
BRANCH   4   7
ATOM      7  C   UNL A   1      33.535  22.575  25.155  1.00  0.00     0.066 A 
ATOM      8  C   UNL A   1      32.881  24.335  23.614  1.00  0.00     0.128 A 
ATOM      9  C   UNL A   1      32.444  23.404  22.684  1.00  0.00     0.052 A 
ATOM     10  C   UNL A   1      33.418  23.931  24.836  1.00  0.00     0.063 A 
ATOM     11  C   UNL A   1      32.438  22.044  23.017  1.00  0.00    -0.024 A 
ATOM     12  C   UNL A   1      31.787  21.075  22.066  1.00  0.00     0.047 C 
ATOM     13  C   UNL A   1      33.000  21.615  24.245  1.00  0.00     0.048 A 
BRANCH   8  14
ATOM     14  O   UNL A   1      32.906  25.664  23.305  1.00  0.00    -0.457 OA
BRANCH  14  15
ATOM     15  C   UNL A   1      32.626  26.630  24.249  1.00  0.00     0.130 A 
ATOM     16  C   UNL A   1      30.082  26.304  24.624  1.00  0.00     0.048 C 
ATOM     17  C   UNL A   1      31.410  26.966  24.871  1.00  0.00    -0.007 A 
ATOM     18  C   UNL A   1      31.406  28.037  25.794  1.00  0.00     0.027 A 
ATOM     19  C   UNL A   1      32.572  28.729  26.115  1.00  0.00     0.041 A 
ATOM     20  C   UNL A   1      33.795  27.339  24.594  1.00  0.00     0.049 A 
ATOM     21  Cl  UNL A   1      32.517  30.019  27.250  1.00  0.00    -0.084 Cl
ATOM     22  C   UNL A   1      33.774  28.378  25.523  1.00  0.00     0.024 A 
ENDBRANCH  14  15
ENDBRANCH   8  14
BRANCH  13  23
ATOM     23  N   UNL A   1      32.944  20.262  24.574  1.00  0.00    -0.398 N 
ATOM     24  H   UNL A   1      32.086  19.781  24.533  1.00  0.00     0.156 HD
ATOM     25  H   UNL A   1      33.762  19.787  24.847  1.00  0.00     0.156 HD
ENDBRANCH  13  23
ENDBRANCH   4   7
ENDBRANCH   2   3
ENDBRANCH   1   2
BRANCH   1  26
ATOM     26  C   UNL A   1      37.797  20.000  24.857  1.00  0.00     0.023 C 
BRANCH  26  27
ATOM     27  C   UNL A   1      38.973  20.390  25.748  1.00  0.00     0.116 C 
BRANCH  27  28
ATOM     28  N   UNL A   1      40.036  19.398  25.766  1.00  0.00    -0.352 N 
ATOM     29  C   UNL A   1      41.353  19.559  26.127  1.00  0.00     0.251 C 
ATOM     30  H   UNL A   1      39.779  18.491  25.482  1.00  0.00     0.163 HD
ATOM     31  O   UNL A   1      42.151  18.642  25.992  1.00  0.00    -0.269 OA
BRANCH  29  32
ATOM     32  C   UNL A   1      41.806  20.869  26.637  1.00  0.00     0.039 A 
ATOM     33  C   UNL A   1      42.295  21.809  25.726  1.00  0.00     0.014 A 
ATOM     34  C   UNL A   1      41.724  21.176  27.997  1.00  0.00     0.014 A 
ATOM     35  C   UNL A   1      42.640  23.086  26.173  1.00  0.00     0.010 A 
ATOM     36  C   UNL A   1      42.010  22.467  28.431  1.00  0.00     0.010 A 
ATOM     37  C   UNL A   1      42.467  23.435  27.522  1.00  0.00    -0.014 A 
BRANCH  37  38
ATOM     38  C   UNL A   1      42.744  24.811  27.999  1.00  0.00     0.031 A 
ATOM     39  C   UNL A   1      44.133  25.203  28.415  1.00  0.00     0.074 A 
ATOM     40  C   UNL A   1      41.726  25.684  28.131  1.00  0.00     0.049 A 
ATOM     41  N   UNL A   1      44.555  26.336  28.917  1.00  0.00    -0.248 NA
ATOM     42  C   UNL A   1      45.182  24.180  28.274  1.00  0.00     0.031 C 
ATOM     43  C   UNL A   1      40.324  25.408  27.813  1.00  0.00     0.029 A 
ATOM     44  N   UNL A   1      41.715  26.980  28.582  1.00  0.00    -0.354 N 
ATOM     45  C   UNL A   1      45.907  26.153  29.175  1.00  0.00     0.074 A 
ATOM     46  C   UNL A   1      46.229  24.791  28.810  1.00  0.00     0.031 C 
ATOM     47  C   UNL A   1      39.592  26.505  28.064  1.00  0.00     0.029 A 
ATOM     48  C   UNL A   1      40.465  27.549  28.590  1.00  0.00     0.049 A 
ATOM     49  H   UNL A   1      42.526  27.457  28.873  1.00  0.00     0.167 HD
ATOM     50  C   UNL A   1      46.804  27.045  29.659  1.00  0.00     0.031 A 
ATOM     51  C   UNL A   1      40.064  28.773  28.985  1.00  0.00     0.031 A 
ATOM     52  C   UNL A   1      46.490  28.406  29.998  1.00  0.00     0.049 A 
ATOM     53  C   UNL A   1      41.085  29.750  29.498  1.00  0.00     0.074 A 
ATOM     54  C   UNL A   1      47.347  29.409  30.418  1.00  0.00     0.029 A 
ATOM     55  N   UNL A   1      45.218  28.956  29.957  1.00  0.00    -0.354 N 
ATOM     56  N   UNL A   1      42.377  29.589  29.652  1.00  0.00    -0.248 NA
ATOM     57  C   UNL A   1      40.593  31.081  29.878  1.00  0.00     0.031 C 
ATOM     58  C   UNL A   1      46.585  30.554  30.676  1.00  0.00     0.029 A 
ATOM     59  C   UNL A   1      45.263  30.277  30.369  1.00  0.00     0.049 A 
ATOM     60  H   UNL A   1      44.404  28.478  29.678  1.00  0.00     0.167 HD
ATOM     61  C   UNL A   1      42.855  30.806  30.122  1.00  0.00     0.074 A 
ATOM     62  C   UNL A   1      41.718  31.698  30.211  1.00  0.00     0.031 C 
ATOM     63  C   UNL A   1      44.123  31.152  30.450  1.00  0.00     0.031 A 
BRANCH  50  64
ATOM     64  C   UNL A   1      48.216  26.572  29.857  1.00  0.00    -0.014 A 
ATOM     65  C   UNL A   1      49.193  26.763  28.867  1.00  0.00     0.009 A 
ATOM     66  C   UNL A   1      48.585  25.969  31.069  1.00  0.00     0.009 A 
ATOM     67  C   UNL A   1      50.504  26.328  29.076  1.00  0.00     0.001 A 
ATOM     68  C   UNL A   1      49.901  25.559  31.285  1.00  0.00     0.001 A 
ATOM     69  C   UNL A   1      50.858  25.732  30.285  1.00  0.00     0.000 A 
ENDBRANCH  50  64
BRANCH  51  70
ATOM     70  C   UNL A   1      38.630  29.151  28.902  1.00  0.00    -0.014 A 
ATOM     71  C   UNL A   1      37.793  29.018  30.021  1.00  0.00     0.009 A 
ATOM     72  C   UNL A   1      38.089  29.638  27.702  1.00  0.00     0.009 A 
ATOM     73  C   UNL A   1      36.436  29.334  29.929  1.00  0.00     0.001 A 
ATOM     74  C   UNL A   1      36.738  29.979  27.622  1.00  0.00     0.001 A 
ATOM     75  C   UNL A   1      35.910  29.817  28.731  1.00  0.00     0.000 A 
ENDBRANCH  51  70
BRANCH  63  76
ATOM     76  C   UNL A   1      44.353  32.564  30.906  1.00  0.00    -0.014 A 
ATOM     77  C   UNL A   1      44.325  32.902  32.266  1.00  0.00     0.009 A 
ATOM     78  C   UNL A   1      44.643  33.560  29.960  1.00  0.00     0.009 A 
ATOM     79  C   UNL A   1      44.554  34.219  32.669  1.00  0.00     0.001 A 
ATOM     80  C   UNL A   1      44.899  34.869  30.368  1.00  0.00     0.001 A 
ATOM     81  C   UNL A   1      44.846  35.200  31.721  1.00  0.00     0.000 A 
ENDBRANCH  63  76
ENDBRANCH  37  38
ENDBRANCH  29  32
ENDBRANCH  27  28
ENDBRANCH  26  27
ENDBRANCH   1  26
TORSDOF 14
ENDMDL
