MODEL 1
REMARK VINA RESULT:     -12.7      0.000      0.000
REMARK SMILES O=C(NCCCCNC(=O)c1ccc2c(=O)n3cc(C(=O)c4cc(F)ccc4O)cc(Cl)c3nc2c1)c1ccc(-c2c3nc(c(-c4ccccc4)c4ccc([nH]4)c(-c4ccccc4)c4nc(c(-c5ccccc5)c5ccc2[nH]5)C=C4)C=C3)cc1
REMARK SMILES IDX 6 1 5 2 4 3 3 4 1 5 2 6 37 8 38 9 84 10 39 11 83 12 40 13
REMARK SMILES IDX 41 14 42 15 77 16 43 17 82 18 76 19 78 20 44 21 81 22 75 23
REMARK SMILES IDX 74 24 45 26 67 27 52 28 66 29 53 30 56 31 65 32 79 33 54 34
REMARK SMILES IDX 55 35 64 37 80 38 57 39 46 40 47 41 51 42 48 43 50 44 49 45
REMARK SMILES IDX 68 46 69 47 73 48 70 49 72 50 71 51 58 52 59 53 63 54 60 55
REMARK SMILES IDX 62 56 61 57 7 58 8 59 9 60 10 62 11 63 12 64 36 65 13 66
REMARK SMILES IDX 35 67 14 68 34 69 15 70 33 71 16 72 17 73 31 74 18 75 30 76
REMARK SMILES IDX 32 77 19 78 20 79 21 80 22 81 23 82 28 83 24 84 27 85 25 86
REMARK SMILES IDX 26 87 29 88
REMARK H PARENT 3 7 78 25 56 36 8 61 29 89
REMARK Flexibility Score: inf
ROOT
ATOM      1  C   UNL A   1      34.007  28.047  22.900  1.00  0.00     0.023 C 
ENDROOT
BRANCH   1   2
ATOM      2  C   UNL A   1      33.029  28.871  23.735  1.00  0.00     0.023 C 
BRANCH   2   3
ATOM      3  C   UNL A   1      33.448  29.118  25.178  1.00  0.00     0.116 C 
BRANCH   3   4
ATOM      4  N   UNL A   1      32.793  30.266  25.783  1.00  0.00    -0.352 N 
ATOM      5  O   UNL A   1      32.451  31.907  27.288  1.00  0.00    -0.269 OA
ATOM      6  C   UNL A   1      33.191  31.029  26.854  1.00  0.00     0.251 C 
ATOM      7  H   UNL A   1      31.944  30.536  25.365  1.00  0.00     0.163 HD
BRANCH   6   8
ATOM      8  C   UNL A   1      34.493  30.772  27.510  1.00  0.00     0.039 A 
ATOM      9  C   UNL A   1      35.400  31.828  27.632  1.00  0.00     0.014 A 
ATOM     10  C   UNL A   1      34.824  29.507  28.001  1.00  0.00     0.014 A 
ATOM     11  C   UNL A   1      36.615  31.626  28.289  1.00  0.00     0.010 A 
ATOM     12  C   UNL A   1      35.996  29.329  28.732  1.00  0.00     0.010 A 
ATOM     13  C   UNL A   1      36.913  30.381  28.868  1.00  0.00    -0.014 A 
BRANCH  13  14
ATOM     14  C   UNL A   1      38.191  30.162  29.589  1.00  0.00     0.031 A 
ATOM     15  C   UNL A   1      38.365  30.666  30.996  1.00  0.00     0.074 A 
ATOM     16  C   UNL A   1      39.209  29.531  28.972  1.00  0.00     0.049 A 
ATOM     17  N   UNL A   1      39.402  30.559  31.787  1.00  0.00    -0.248 NA
ATOM     18  C   UNL A   1      37.237  31.407  31.583  1.00  0.00     0.031 C 
ATOM     19  C   UNL A   1      39.189  29.038  27.594  1.00  0.00     0.029 A 
ATOM     20  N   UNL A   1      40.455  29.186  29.432  1.00  0.00    -0.354 N 
ATOM     21  C   UNL A   1      39.052  31.222  32.957  1.00  0.00     0.074 A 
ATOM     22  C   UNL A   1      37.738  31.787  32.747  1.00  0.00     0.031 C 
ATOM     23  C   UNL A   1      40.347  28.411  27.337  1.00  0.00     0.029 A 
ATOM     24  C   UNL A   1      41.203  28.485  28.517  1.00  0.00     0.049 A 
ATOM     25  H   UNL A   1      40.783  29.418  30.331  1.00  0.00     0.167 HD
ATOM     26  C   UNL A   1      39.745  31.324  34.115  1.00  0.00     0.031 A 
ATOM     27  C   UNL A   1      42.433  27.947  28.619  1.00  0.00     0.031 A 
ATOM     28  C   UNL A   1      41.047  30.753  34.331  1.00  0.00     0.049 A 
ATOM     29  C   UNL A   1      43.184  28.065  29.915  1.00  0.00     0.074 A 
ATOM     30  C   UNL A   1      41.814  30.771  35.483  1.00  0.00     0.029 A 
ATOM     31  N   UNL A   1      41.772  30.058  33.376  1.00  0.00    -0.354 N 
ATOM     32  N   UNL A   1      42.819  28.652  31.028  1.00  0.00    -0.248 NA
ATOM     33  C   UNL A   1      44.510  27.432  29.974  1.00  0.00     0.031 C 
ATOM     34  C   UNL A   1      43.023  30.125  35.211  1.00  0.00     0.029 A 
ATOM     35  C   UNL A   1      42.985  29.654  33.907  1.00  0.00     0.049 A 
ATOM     36  H   UNL A   1      41.468  29.877  32.457  1.00  0.00     0.167 HD
ATOM     37  C   UNL A   1      43.864  28.456  31.923  1.00  0.00     0.074 A 
ATOM     38  C   UNL A   1      44.865  27.670  31.229  1.00  0.00     0.031 C 
ATOM     39  C   UNL A   1      43.983  28.892  33.200  1.00  0.00     0.031 A 
BRANCH  26  40
ATOM     40  C   UNL A   1      39.094  32.071  35.247  1.00  0.00    -0.014 A 
ATOM     41  C   UNL A   1      38.372  31.376  36.228  1.00  0.00     0.009 A 
ATOM     42  C   UNL A   1      39.161  33.472  35.319  1.00  0.00     0.009 A 
ATOM     43  C   UNL A   1      37.733  32.067  37.260  1.00  0.00     0.001 A 
ATOM     44  C   UNL A   1      38.549  34.159  36.369  1.00  0.00     0.001 A 
ATOM     45  C   UNL A   1      37.829  33.456  37.335  1.00  0.00     0.000 A 
ENDBRANCH  26  40
BRANCH  27  46
ATOM     46  C   UNL A   1      42.998  27.202  27.465  1.00  0.00    -0.014 A 
ATOM     47  C   UNL A   1      42.860  25.807  27.375  1.00  0.00     0.009 A 
ATOM     48  C   UNL A   1      43.734  27.876  26.478  1.00  0.00     0.009 A 
ATOM     49  C   UNL A   1      43.465  25.101  26.334  1.00  0.00     0.001 A 
ATOM     50  C   UNL A   1      44.317  27.169  25.424  1.00  0.00     0.001 A 
ATOM     51  C   UNL A   1      44.191  25.782  25.358  1.00  0.00     0.000 A 
ENDBRANCH  27  46
BRANCH  39  52
ATOM     52  C   UNL A   1      45.244  28.545  33.940  1.00  0.00    -0.014 A 
ATOM     53  C   UNL A   1      45.306  27.373  34.709  1.00  0.00     0.009 A 
ATOM     54  C   UNL A   1      46.343  29.419  33.942  1.00  0.00     0.009 A 
ATOM     55  C   UNL A   1      46.439  27.085  35.472  1.00  0.00     0.001 A 
ATOM     56  C   UNL A   1      47.486  29.114  34.683  1.00  0.00     0.001 A 
ATOM     57  C   UNL A   1      47.530  27.953  35.454  1.00  0.00     0.000 A 
ENDBRANCH  39  52
ENDBRANCH  13  14
ENDBRANCH   6   8
ENDBRANCH   3   4
ENDBRANCH   2   3
ENDBRANCH   1   2
BRANCH   1  58
ATOM     58  C   UNL A   1      33.652  26.570  22.754  1.00  0.00     0.116 C 
BRANCH  58  59
ATOM     59  N   UNL A   1      32.740  26.107  23.789  1.00  0.00    -0.352 N 
ATOM     60  C   UNL A   1      32.838  25.001  24.596  1.00  0.00     0.251 C 
ATOM     61  H   UNL A   1      31.940  26.665  23.931  1.00  0.00     0.163 HD
ATOM     62  O   UNL A   1      31.918  24.673  25.336  1.00  0.00    -0.269 OA
BRANCH  60  63
ATOM     63  C   UNL A   1      34.069  24.192  24.547  1.00  0.00     0.041 A 
ATOM     64  C   UNL A   1      34.131  23.068  23.718  1.00  0.00     0.015 A 
ATOM     65  C   UNL A   1      35.142  24.538  25.375  1.00  0.00     0.043 A 
ATOM     66  C   UNL A   1      35.222  22.214  23.812  1.00  0.00     0.017 A 
ATOM     67  C   UNL A   1      36.254  23.702  25.451  1.00  0.00     0.079 A 
ATOM     68  C   UNL A   1      36.258  22.527  24.701  1.00  0.00     0.066 A 
ATOM     69  N   UNL A   1      37.323  24.062  26.277  1.00  0.00    -0.228 NA
ATOM     70  C   UNL A   1      37.371  21.593  24.899  1.00  0.00     0.265 A 
ATOM     71  C   UNL A   1      38.328  23.248  26.404  1.00  0.00     0.159 A 
ATOM     72  O   UNL A   1      37.359  20.517  24.301  1.00  0.00    -0.268 OA
ATOM     73  N   UNL A   1      38.379  22.001  25.774  1.00  0.00    -0.266 N 
ATOM     74  C   UNL A   1      39.520  23.599  27.250  1.00  0.00     0.085 A 
ATOM     75  C   UNL A   1      39.431  21.121  25.997  1.00  0.00     0.109 A 
ATOM     76  C   UNL A   1      40.537  22.736  27.377  1.00  0.00     0.038 A 
ATOM     77  Cl  UNL A   1      39.555  25.131  28.034  1.00  0.00    -0.080 Cl
ATOM     78  C   UNL A   1      40.505  21.435  26.737  1.00  0.00     0.041 A 
BRANCH  78  79
ATOM     79  C   UNL A   1      41.617  20.457  26.991  1.00  0.00     0.198 C 
ATOM     80  O   UNL A   1      41.514  19.586  27.854  1.00  0.00    -0.288 OA
BRANCH  79  81
ATOM     81  C   UNL A   1      42.810  20.423  26.117  1.00  0.00     0.067 A 
ATOM     82  C   UNL A   1      43.554  21.575  25.841  1.00  0.00     0.055 A 
ATOM     83  C   UNL A   1      43.171  19.204  25.526  1.00  0.00     0.126 A 
ATOM     84  C   UNL A   1      44.585  21.507  24.910  1.00  0.00     0.124 A 
ATOM     85  C   UNL A   1      44.201  19.150  24.590  1.00  0.00     0.050 A 
ATOM     86  F   UNL A   1      45.270  22.616  24.610  1.00  0.00    -0.207 F 
ATOM     87  C   UNL A   1      44.904  20.312  24.270  1.00  0.00     0.043 A 
BRANCH  83  88
ATOM     88  O   UNL A   1      42.539  18.027  25.818  1.00  0.00    -0.507 OA
ATOM     89  H   UNL A   1      42.483  17.734  26.707  1.00  0.00     0.293 HD
ENDBRANCH  83  88
ENDBRANCH  79  81
ENDBRANCH  78  79
ENDBRANCH  60  63
ENDBRANCH  58  59
ENDBRANCH   1  58
TORSDOF 14
ENDMDL
MODEL 2
REMARK VINA RESULT:     -12.4      3.939      7.690
REMARK SMILES O=C(NCCCCNC(=O)c1ccc2c(=O)n3cc(C(=O)c4cc(F)ccc4O)cc(Cl)c3nc2c1)c1ccc(-c2c3nc(c(-c4ccccc4)c4ccc([nH]4)c(-c4ccccc4)c4nc(c(-c5ccccc5)c5ccc2[nH]5)C=C4)C=C3)cc1
REMARK SMILES IDX 6 1 5 2 4 3 3 4 1 5 2 6 37 8 38 9 84 10 39 11 83 12 40 13
REMARK SMILES IDX 41 14 42 15 77 16 43 17 82 18 76 19 78 20 44 21 81 22 75 23
REMARK SMILES IDX 74 24 45 26 67 27 52 28 66 29 53 30 56 31 65 32 79 33 54 34
REMARK SMILES IDX 55 35 64 37 80 38 57 39 46 40 47 41 51 42 48 43 50 44 49 45
REMARK SMILES IDX 68 46 69 47 73 48 70 49 72 50 71 51 58 52 59 53 63 54 60 55
REMARK SMILES IDX 62 56 61 57 7 58 8 59 9 60 10 62 11 63 12 64 36 65 13 66
REMARK SMILES IDX 35 67 14 68 34 69 15 70 33 71 16 72 17 73 31 74 18 75 30 76
REMARK SMILES IDX 32 77 19 78 20 79 21 80 22 81 23 82 28 83 24 84 27 85 25 86
REMARK SMILES IDX 26 87 29 88
REMARK H PARENT 3 7 78 25 56 36 8 61 29 89
REMARK Flexibility Score: inf
ROOT
ATOM      1  C   UNL A   1      36.151  33.497  29.800  1.00  0.00     0.023 C 
ENDROOT
BRANCH   1   2
ATOM      2  C   UNL A   1      34.711  33.167  29.409  1.00  0.00     0.023 C 
BRANCH   2   3
ATOM      3  C   UNL A   1      34.478  32.913  27.926  1.00  0.00     0.116 C 
BRANCH   3   4
ATOM      4  N   UNL A   1      33.721  31.702  27.658  1.00  0.00    -0.352 N 
ATOM      5  O   UNL A   1      33.377  29.505  27.295  1.00  0.00    -0.269 OA
ATOM      6  C   UNL A   1      34.147  30.395  27.642  1.00  0.00     0.251 C 
ATOM      7  H   UNL A   1      32.765  31.836  27.462  1.00  0.00     0.163 HD
BRANCH   6   8
ATOM      8  C   UNL A   1      35.543  30.062  28.005  1.00  0.00     0.039 A 
ATOM      9  C   UNL A   1      35.812  29.648  29.313  1.00  0.00     0.014 A 
ATOM     10  C   UNL A   1      36.580  30.157  27.075  1.00  0.00     0.014 A 
ATOM     11  C   UNL A   1      37.111  29.281  29.670  1.00  0.00     0.010 A 
ATOM     12  C   UNL A   1      37.857  29.708  27.407  1.00  0.00     0.010 A 
ATOM     13  C   UNL A   1      38.140  29.283  28.713  1.00  0.00    -0.014 A 
BRANCH  13  14
ATOM     14  C   UNL A   1      39.519  28.873  29.076  1.00  0.00     0.031 A 
ATOM     15  C   UNL A   1      40.393  29.788  29.890  1.00  0.00     0.074 A 
ATOM     16  C   UNL A   1      39.998  27.687  28.656  1.00  0.00     0.049 A 
ATOM     17  N   UNL A   1      41.617  29.597  30.314  1.00  0.00    -0.248 NA
ATOM     18  C   UNL A   1      39.829  31.097  30.256  1.00  0.00     0.031 C 
ATOM     19  C   UNL A   1      39.273  26.729  27.820  1.00  0.00     0.029 A 
ATOM     20  N   UNL A   1      41.208  27.079  28.886  1.00  0.00    -0.354 N 
ATOM     21  C   UNL A   1      41.967  30.761  30.988  1.00  0.00     0.074 A 
ATOM     22  C   UNL A   1      40.856  31.677  30.857  1.00  0.00     0.031 C 
ATOM     23  C   UNL A   1      40.032  25.635  27.648  1.00  0.00     0.029 A 
ATOM     24  C   UNL A   1      41.307  25.826  28.334  1.00  0.00     0.049 A 
ATOM     25  H   UNL A   1      41.935  27.502  29.399  1.00  0.00     0.167 HD
ATOM     26  C   UNL A   1      43.096  31.032  31.683  1.00  0.00     0.031 A 
ATOM     27  C   UNL A   1      42.304  24.922  28.385  1.00  0.00     0.031 A 
ATOM     28  C   UNL A   1      44.197  30.119  31.824  1.00  0.00     0.049 A 
ATOM     29  C   UNL A   1      43.547  25.239  29.167  1.00  0.00     0.074 A 
ATOM     30  C   UNL A   1      45.369  30.289  32.540  1.00  0.00     0.029 A 
ATOM     31  N   UNL A   1      44.260  28.862  31.243  1.00  0.00    -0.354 N 
ATOM     32  N   UNL A   1      43.842  26.324  29.840  1.00  0.00    -0.248 NA
ATOM     33  C   UNL A   1      44.587  24.201  29.210  1.00  0.00     0.031 C 
ATOM     34  C   UNL A   1      46.162  29.153  32.354  1.00  0.00     0.029 A 
ATOM     35  C   UNL A   1      45.459  28.251  31.570  1.00  0.00     0.049 A 
ATOM     36  H   UNL A   1      43.557  28.464  30.681  1.00  0.00     0.167 HD
ATOM     37  C   UNL A   1      45.097  26.100  30.392  1.00  0.00     0.074 A 
ATOM     38  C   UNL A   1      45.494  24.763  29.998  1.00  0.00     0.031 C 
ATOM     39  C   UNL A   1      45.852  26.930  31.152  1.00  0.00     0.031 A 
BRANCH  26  40
ATOM     40  C   UNL A   1      43.186  32.372  32.359  1.00  0.00    -0.014 A 
ATOM     41  C   UNL A   1      42.806  32.512  33.703  1.00  0.00     0.009 A 
ATOM     42  C   UNL A   1      43.608  33.510  31.652  1.00  0.00     0.009 A 
ATOM     43  C   UNL A   1      42.851  33.761  34.325  1.00  0.00     0.001 A 
ATOM     44  C   UNL A   1      43.683  34.752  32.285  1.00  0.00     0.001 A 
ATOM     45  C   UNL A   1      43.297  34.878  33.619  1.00  0.00     0.000 A 
ENDBRANCH  26  40
BRANCH  27  46
ATOM     46  C   UNL A   1      42.129  23.609  27.712  1.00  0.00    -0.014 A 
ATOM     47  C   UNL A   1      42.538  23.426  26.381  1.00  0.00     0.009 A 
ATOM     48  C   UNL A   1      41.495  22.550  28.379  1.00  0.00     0.009 A 
ATOM     49  C   UNL A   1      42.294  22.218  25.725  1.00  0.00     0.001 A 
ATOM     50  C   UNL A   1      41.276  21.334  27.729  1.00  0.00     0.001 A 
ATOM     51  C   UNL A   1      41.666  21.172  26.400  1.00  0.00     0.000 A 
ENDBRANCH  27  46
BRANCH  39  52
ATOM     52  C   UNL A   1      47.195  26.429  31.605  1.00  0.00    -0.014 A 
ATOM     53  C   UNL A   1      48.323  26.615  30.791  1.00  0.00     0.009 A 
ATOM     54  C   UNL A   1      47.329  25.702  32.798  1.00  0.00     0.009 A 
ATOM     55  C   UNL A   1      49.558  26.076  31.157  1.00  0.00     0.001 A 
ATOM     56  C   UNL A   1      48.571  25.190  33.177  1.00  0.00     0.001 A 
ATOM     57  C   UNL A   1      49.682  25.369  32.353  1.00  0.00     0.000 A 
ENDBRANCH  39  52
ENDBRANCH  13  14
ENDBRANCH   6   8
ENDBRANCH   3   4
ENDBRANCH   2   3
ENDBRANCH   1   2
BRANCH   1  58
ATOM     58  C   UNL A   1      36.300  34.480  30.957  1.00  0.00     0.116 C 
BRANCH  58  59
ATOM     59  N   UNL A   1      35.125  34.519  31.816  1.00  0.00    -0.352 N 
ATOM     60  C   UNL A   1      34.913  33.890  33.018  1.00  0.00     0.251 C 
ATOM     61  H   UNL A   1      34.379  35.072  31.489  1.00  0.00     0.163 HD
ATOM     62  O   UNL A   1      33.815  33.918  33.561  1.00  0.00    -0.269 OA
BRANCH  60  63
ATOM     63  C   UNL A   1      36.028  33.158  33.644  1.00  0.00     0.041 A 
ATOM     64  C   UNL A   1      36.718  33.725  34.720  1.00  0.00     0.015 A 
ATOM     65  C   UNL A   1      36.410  31.921  33.114  1.00  0.00     0.043 A 
ATOM     66  C   UNL A   1      37.875  33.112  35.184  1.00  0.00     0.017 A 
ATOM     67  C   UNL A   1      37.552  31.285  33.596  1.00  0.00     0.079 A 
ATOM     68  C   UNL A   1      38.294  31.913  34.595  1.00  0.00     0.066 A 
ATOM     69  N   UNL A   1      37.920  30.046  33.062  1.00  0.00    -0.228 NA
ATOM     70  C   UNL A   1      39.565  31.298  34.992  1.00  0.00     0.265 A 
ATOM     71  C   UNL A   1      39.023  29.488  33.459  1.00  0.00     0.159 A 
ATOM     72  O   UNL A   1      40.272  31.873  35.820  1.00  0.00    -0.268 OA
ATOM     73  N   UNL A   1      39.888  30.085  34.382  1.00  0.00    -0.266 N 
ATOM     74  C   UNL A   1      39.450  28.141  32.947  1.00  0.00     0.085 A 
ATOM     75  C   UNL A   1      41.100  29.497  34.724  1.00  0.00     0.109 A 
ATOM     76  C   UNL A   1      40.600  27.592  33.361  1.00  0.00     0.038 A 
ATOM     77  Cl  UNL A   1      38.426  27.318  31.834  1.00  0.00    -0.080 Cl
ATOM     78  C   UNL A   1      41.478  28.288  34.282  1.00  0.00     0.041 A 
BRANCH  78  79
ATOM     79  C   UNL A   1      42.807  27.684  34.638  1.00  0.00     0.198 C 
ATOM     80  O   UNL A   1      43.742  28.385  35.024  1.00  0.00    -0.288 OA
BRANCH  79  81
ATOM     81  C   UNL A   1      42.987  26.216  34.671  1.00  0.00     0.067 A 
ATOM     82  C   UNL A   1      43.907  25.569  33.839  1.00  0.00     0.055 A 
ATOM     83  C   UNL A   1      42.182  25.462  35.536  1.00  0.00     0.126 A 
ATOM     84  C   UNL A   1      43.940  24.178  33.820  1.00  0.00     0.124 A 
ATOM     85  C   UNL A   1      42.219  24.071  35.503  1.00  0.00     0.050 A 
ATOM     86  F   UNL A   1      44.787  23.555  32.994  1.00  0.00    -0.207 F 
ATOM     87  C   UNL A   1      43.095  23.424  34.630  1.00  0.00     0.043 A 
BRANCH  83  88
ATOM     88  O   UNL A   1      41.324  26.037  36.433  1.00  0.00    -0.507 OA
ATOM     89  H   UNL A   1      41.645  26.338  37.261  1.00  0.00     0.293 HD
ENDBRANCH  83  88
ENDBRANCH  79  81
ENDBRANCH  78  79
ENDBRANCH  60  63
ENDBRANCH  58  59
ENDBRANCH   1  58
TORSDOF 14
ENDMDL
MODEL 3
REMARK VINA RESULT:     -12.2      4.279     10.666
REMARK SMILES O=C(NCCCCNC(=O)c1ccc2c(=O)n3cc(C(=O)c4cc(F)ccc4O)cc(Cl)c3nc2c1)c1ccc(-c2c3nc(c(-c4ccccc4)c4ccc([nH]4)c(-c4ccccc4)c4nc(c(-c5ccccc5)c5ccc2[nH]5)C=C4)C=C3)cc1
REMARK SMILES IDX 6 1 5 2 4 3 3 4 1 5 2 6 37 8 38 9 84 10 39 11 83 12 40 13
REMARK SMILES IDX 41 14 42 15 77 16 43 17 82 18 76 19 78 20 44 21 81 22 75 23
REMARK SMILES IDX 74 24 45 26 67 27 52 28 66 29 53 30 56 31 65 32 79 33 54 34
REMARK SMILES IDX 55 35 64 37 80 38 57 39 46 40 47 41 51 42 48 43 50 44 49 45
REMARK SMILES IDX 68 46 69 47 73 48 70 49 72 50 71 51 58 52 59 53 63 54 60 55
REMARK SMILES IDX 62 56 61 57 7 58 8 59 9 60 10 62 11 63 12 64 36 65 13 66
REMARK SMILES IDX 35 67 14 68 34 69 15 70 33 71 16 72 17 73 31 74 18 75 30 76
REMARK SMILES IDX 32 77 19 78 20 79 21 80 22 81 23 82 28 83 24 84 27 85 25 86
REMARK SMILES IDX 26 87 29 88
REMARK H PARENT 3 7 78 25 56 36 8 61 29 89
REMARK Flexibility Score: inf
ROOT
ATOM      1  C   UNL A   1      37.729  21.656  24.910  1.00  0.00     0.023 C 
ENDROOT
BRANCH   1   2
ATOM      2  C   UNL A   1      38.343  20.257  24.936  1.00  0.00     0.023 C 
BRANCH   2   3
ATOM      3  C   UNL A   1      39.139  19.915  26.188  1.00  0.00     0.116 C 
BRANCH   3   4
ATOM      4  N   UNL A   1      40.298  19.078  25.926  1.00  0.00    -0.352 N 
ATOM      5  O   UNL A   1      42.477  18.575  25.650  1.00  0.00    -0.269 OA
ATOM      6  C   UNL A   1      41.634  19.392  26.007  1.00  0.00     0.251 C 
ATOM      7  H   UNL A   1      40.098  18.153  25.653  1.00  0.00     0.163 HD
BRANCH   6   8
ATOM      8  C   UNL A   1      42.058  20.725  26.490  1.00  0.00     0.039 A 
ATOM      9  C   UNL A   1      42.322  21.723  25.548  1.00  0.00     0.014 A 
ATOM     10  C   UNL A   1      42.198  20.996  27.853  1.00  0.00     0.014 A 
ATOM     11  C   UNL A   1      42.676  23.004  25.977  1.00  0.00     0.010 A 
ATOM     12  C   UNL A   1      42.467  22.294  28.280  1.00  0.00     0.010 A 
ATOM     13  C   UNL A   1      42.726  23.308  27.347  1.00  0.00    -0.014 A 
BRANCH  13  14
ATOM     14  C   UNL A   1      43.080  24.672  27.813  1.00  0.00     0.031 A 
ATOM     15  C   UNL A   1      44.521  25.091  27.910  1.00  0.00     0.074 A 
ATOM     16  C   UNL A   1      42.106  25.531  28.172  1.00  0.00     0.049 A 
ATOM     17  N   UNL A   1      45.022  26.241  28.283  1.00  0.00    -0.248 NA
ATOM     18  C   UNL A   1      45.534  24.079  27.568  1.00  0.00     0.031 C 
ATOM     19  C   UNL A   1      40.673  25.234  28.172  1.00  0.00     0.029 A 
ATOM     20  N   UNL A   1      42.176  26.835  28.595  1.00  0.00    -0.354 N 
ATOM     21  C   UNL A   1      46.401  26.088  28.224  1.00  0.00     0.074 A 
ATOM     22  C   UNL A   1      46.660  24.715  27.850  1.00  0.00     0.031 C 
ATOM     23  C   UNL A   1      39.997  26.337  28.529  1.00  0.00     0.029 A 
ATOM     24  C   UNL A   1      40.948  27.409  28.812  1.00  0.00     0.049 A 
ATOM     25  H   UNL A   1      43.027  27.313  28.731  1.00  0.00     0.167 HD
ATOM     26  C   UNL A   1      47.368  27.012  28.430  1.00  0.00     0.031 A 
ATOM     27  C   UNL A   1      40.618  28.661  29.182  1.00  0.00     0.031 A 
ATOM     28  C   UNL A   1      47.114  28.381  28.791  1.00  0.00     0.049 A 
ATOM     29  C   UNL A   1      41.705  29.675  29.399  1.00  0.00     0.074 A 
ATOM     30  C   UNL A   1      48.027  29.403  28.985  1.00  0.00     0.029 A 
ATOM     31  N   UNL A   1      45.855  28.919  29.008  1.00  0.00    -0.354 N 
ATOM     32  N   UNL A   1      43.004  29.527  29.292  1.00  0.00    -0.248 NA
ATOM     33  C   UNL A   1      41.282  31.033  29.773  1.00  0.00     0.031 C 
ATOM     34  C   UNL A   1      47.322  30.549  29.364  1.00  0.00     0.029 A 
ATOM     35  C   UNL A   1      45.967  30.256  29.350  1.00  0.00     0.049 A 
ATOM     36  H   UNL A   1      45.008  28.424  28.930  1.00  0.00     0.167 HD
ATOM     37  C   UNL A   1      43.553  30.771  29.578  1.00  0.00     0.074 A 
ATOM     38  C   UNL A   1      42.445  31.668  29.835  1.00  0.00     0.031 C 
ATOM     39  C   UNL A   1      44.858  31.133  29.626  1.00  0.00     0.031 A 
BRANCH  26  40
ATOM     40  C   UNL A   1      48.795  26.572  28.250  1.00  0.00    -0.014 A 
ATOM     41  C   UNL A   1      49.384  26.589  26.977  1.00  0.00     0.009 A 
ATOM     42  C   UNL A   1      49.546  26.099  29.339  1.00  0.00     0.009 A 
ATOM     43  C   UNL A   1      50.696  26.145  26.798  1.00  0.00     0.001 A 
ATOM     44  C   UNL A   1      50.868  25.687  29.163  1.00  0.00     0.001 A 
ATOM     45  C   UNL A   1      51.439  25.703  27.891  1.00  0.00     0.000 A 
ENDBRANCH  26  40
BRANCH  27  46
ATOM     46  C   UNL A   1      39.185  29.026  29.314  1.00  0.00    -0.014 A 
ATOM     47  C   UNL A   1      38.505  28.838  30.528  1.00  0.00     0.009 A 
ATOM     48  C   UNL A   1      38.472  29.508  28.205  1.00  0.00     0.009 A 
ATOM     49  C   UNL A   1      37.138  29.102  30.623  1.00  0.00     0.001 A 
ATOM     50  C   UNL A   1      37.110  29.795  28.310  1.00  0.00     0.001 A 
ATOM     51  C   UNL A   1      36.441  29.583  29.515  1.00  0.00     0.000 A 
ENDBRANCH  27  46
BRANCH  39  52
ATOM     52  C   UNL A   1      45.172  32.559  29.982  1.00  0.00    -0.014 A 
ATOM     53  C   UNL A   1      45.240  32.946  31.329  1.00  0.00     0.009 A 
ATOM     54  C   UNL A   1      45.319  33.536  28.985  1.00  0.00     0.009 A 
ATOM     55  C   UNL A   1      45.441  34.285  31.673  1.00  0.00     0.001 A 
ATOM     56  C   UNL A   1      45.549  34.869  29.330  1.00  0.00     0.001 A 
ATOM     57  C   UNL A   1      45.601  35.244  30.673  1.00  0.00     0.000 A 
ENDBRANCH  39  52
ENDBRANCH  13  14
ENDBRANCH   6   8
ENDBRANCH   3   4
ENDBRANCH   2   3
ENDBRANCH   1   2
BRANCH   1  58
ATOM     58  C   UNL A   1      36.355  21.773  25.562  1.00  0.00     0.116 C 
BRANCH  58  59
ATOM     59  N   UNL A   1      35.538  20.584  25.369  1.00  0.00    -0.352 N 
ATOM     60  C   UNL A   1      34.170  20.463  25.384  1.00  0.00     0.251 C 
ATOM     61  H   UNL A   1      36.036  19.750  25.205  1.00  0.00     0.163 HD
ATOM     62  O   UNL A   1      33.632  19.364  25.334  1.00  0.00    -0.269 OA
BRANCH  60  63
ATOM     63  C   UNL A   1      33.350  21.683  25.482  1.00  0.00     0.041 A 
ATOM     64  C   UNL A   1      32.614  21.937  26.644  1.00  0.00     0.015 A 
ATOM     65  C   UNL A   1      33.283  22.546  24.383  1.00  0.00     0.043 A 
ATOM     66  C   UNL A   1      31.708  22.989  26.658  1.00  0.00     0.017 A 
ATOM     67  C   UNL A   1      32.399  23.623  24.403  1.00  0.00     0.079 A 
ATOM     68  C   UNL A   1      31.590  23.802  25.524  1.00  0.00     0.066 A 
ATOM     69  N   UNL A   1      32.345  24.481  23.301  1.00  0.00    -0.228 NA
ATOM     70  C   UNL A   1      30.571  24.855  25.471  1.00  0.00     0.265 A 
ATOM     71  C   UNL A   1      31.470  25.442  23.288  1.00  0.00     0.159 A 
ATOM     72  O   UNL A   1      29.798  24.985  26.421  1.00  0.00    -0.268 OA
ATOM     73  N   UNL A   1      30.548  25.642  24.319  1.00  0.00    -0.266 N 
ATOM     74  C   UNL A   1      31.392  26.417  22.147  1.00  0.00     0.085 A 
ATOM     75  C   UNL A   1      29.573  26.630  24.236  1.00  0.00     0.109 A 
ATOM     76  C   UNL A   1      30.470  27.390  22.150  1.00  0.00     0.038 A 
ATOM     77  Cl  UNL A   1      32.514  26.264  20.851  1.00  0.00    -0.080 Cl
ATOM     78  C   UNL A   1      29.508  27.512  23.228  1.00  0.00     0.041 A 
BRANCH  78  79
ATOM     79  C   UNL A   1      28.427  28.552  23.141  1.00  0.00     0.198 C 
ATOM     80  O   UNL A   1      27.241  28.250  23.270  1.00  0.00    -0.288 OA
BRANCH  79  81
ATOM     81  C   UNL A   1      28.764  29.989  23.039  1.00  0.00     0.067 A 
ATOM     82  C   UNL A   1      29.441  30.660  24.062  1.00  0.00     0.055 A 
ATOM     83  C   UNL A   1      28.356  30.692  21.897  1.00  0.00     0.126 A 
ATOM     84  C   UNL A   1      29.614  32.038  23.968  1.00  0.00     0.124 A 
ATOM     85  C   UNL A   1      28.528  32.072  21.818  1.00  0.00     0.050 A 
ATOM     86  F   UNL A   1      30.221  32.691  24.965  1.00  0.00    -0.207 F 
ATOM     87  C   UNL A   1      29.150  32.751  22.866  1.00  0.00     0.043 A 
BRANCH  83  88
ATOM     88  O   UNL A   1      27.766  30.079  20.826  1.00  0.00    -0.507 OA
ATOM     89  H   UNL A   1      27.576  29.162  20.858  1.00  0.00     0.293 HD
ENDBRANCH  83  88
ENDBRANCH  79  81
ENDBRANCH  78  79
ENDBRANCH  60  63
ENDBRANCH  58  59
ENDBRANCH   1  58
TORSDOF 14
ENDMDL
