MODEL 1
REMARK VINA RESULT:     -11.4      0.000      0.000
REMARK SMILES C[NH2+][C@@]1(C(=O)NCCCCNC(=O)c2ccc(-c3c4nc(c(-c5ccccc5)c5ccc([nH]5)c(-c5ccccc5)c5nc(c(-c6ccccc6)c6ccc3[nH]6)C=C5)C=C4)cc2)CC[C@H](Oc2cc(C)cc(C)c2C)C1
REMARK SMILES IDX 8 1 7 2 6 3 4 4 5 5 3 7 62 8 75 9 63 10 64 11 2 12 1 13
REMARK SMILES IDX 65 16 66 17 67 18 73 19 68 20 71 21 74 22 69 23 70 24 72 25
REMARK SMILES IDX 9 26 10 27 11 28 12 29 13 31 14 32 15 33 61 34 16 35 60 36
REMARK SMILES IDX 17 37 18 38 19 39 54 40 20 41 59 42 53 43 55 44 21 45 58 46
REMARK SMILES IDX 52 47 51 48 22 50 44 51 29 52 43 53 30 54 33 55 42 56 56 57
REMARK SMILES IDX 31 58 32 59 41 61 57 62 34 63 23 64 24 65 28 66 25 67 27 68
REMARK SMILES IDX 26 69 45 70 46 71 50 72 47 73 49 74 48 75 35 76 36 77 40 78
REMARK SMILES IDX 37 79 39 80 38 81
REMARK H PARENT 6 6 2 14 2 15 11 30 55 49 33 60
REMARK Flexibility Score: inf
ROOT
ATOM      1  C   UNL A   1      31.763  27.791  27.097  1.00  0.00     0.023 C 
ENDROOT
BRANCH   1   2
ATOM      2  C   UNL A   1      32.177  26.462  26.497  1.00  0.00     0.116 C 
BRANCH   2   3
ATOM      3  N   UNL A   1      31.266  25.427  26.887  1.00  0.00    -0.351 N 
ATOM      4  C   UNL A   1      31.333  24.079  26.779  1.00  0.00     0.281 C 
ATOM      5  O   UNL A   1      30.237  23.536  26.978  1.00  0.00    -0.268 OA
ATOM      6  H   UNL A   1      30.441  25.757  27.309  1.00  0.00     0.163 HD
BRANCH   4   7
ATOM      7  C   UNL A   1      32.652  23.249  26.452  1.00  0.00     0.179 C 
ATOM      8  C   UNL A   1      33.931  24.102  26.499  1.00  0.00     0.083 C 
ATOM      9  C   UNL A   1      32.673  22.578  25.062  1.00  0.00     0.124 C 
ATOM     10  C   UNL A   1      34.486  24.229  25.085  1.00  0.00     0.052 C 
ATOM     11  C   UNL A   1      33.724  23.276  24.163  1.00  0.00     0.180 C 
BRANCH   7  12
ATOM     12  N   UNL A   1      32.873  22.227  27.531  1.00  0.00    -0.336 N 
ATOM     13  C   UNL A   1      34.128  21.480  27.473  1.00  0.00     0.331 C 
ATOM     14  H   UNL A   1      32.842  22.710  28.429  1.00  0.00     0.346 HD
ATOM     15  H   UNL A   1      32.139  21.531  27.399  1.00  0.00     0.346 HD
ENDBRANCH   7  12
BRANCH  11  16
ATOM     16  O   UNL A   1      33.009  23.790  23.034  1.00  0.00    -0.490 OA
BRANCH  16  17
ATOM     17  C   UNL A   1      32.625  25.082  22.806  1.00  0.00     0.123 A 
ATOM     18  C   UNL A   1      33.488  26.140  22.537  1.00  0.00     0.050 A 
ATOM     19  C   UNL A   1      31.252  25.352  23.057  1.00  0.00    -0.006 A 
ATOM     20  C   UNL A   1      33.069  27.467  22.716  1.00  0.00    -0.047 A 
ATOM     21  C   UNL A   1      30.827  26.684  23.257  1.00  0.00    -0.044 A 
ATOM     22  C   UNL A   1      30.266  24.219  23.223  1.00  0.00     0.049 C 
ATOM     23  C   UNL A   1      34.057  28.592  22.615  1.00  0.00     0.044 C 
ATOM     24  C   UNL A   1      31.747  27.725  23.083  1.00  0.00     0.007 A 
ATOM     25  C   UNL A   1      29.431  27.050  23.689  1.00  0.00     0.045 C 
ENDBRANCH  16  17
ENDBRANCH  11  16
ENDBRANCH   4   7
ENDBRANCH   2   3
ENDBRANCH   1   2
BRANCH   1  26
ATOM     26  C   UNL A   1      32.397  29.013  26.468  1.00  0.00     0.023 C 
BRANCH  26  27
ATOM     27  C   UNL A   1      33.753  29.377  27.055  1.00  0.00     0.116 C 
BRANCH  27  28
ATOM     28  N   UNL A   1      33.764  30.546  27.936  1.00  0.00    -0.352 N 
ATOM     29  C   UNL A   1      34.803  31.031  28.704  1.00  0.00     0.251 C 
ATOM     30  H   UNL A   1      32.921  31.051  27.988  1.00  0.00     0.163 HD
ATOM     31  O   UNL A   1      34.702  32.036  29.382  1.00  0.00    -0.269 OA
BRANCH  29  32
ATOM     32  C   UNL A   1      36.048  30.248  28.726  1.00  0.00     0.039 A 
ATOM     33  C   UNL A   1      36.905  30.320  27.625  1.00  0.00     0.014 A 
ATOM     34  C   UNL A   1      36.420  29.590  29.897  1.00  0.00     0.014 A 
ATOM     35  C   UNL A   1      38.191  29.797  27.735  1.00  0.00     0.010 A 
ATOM     36  C   UNL A   1      37.734  29.183  30.042  1.00  0.00     0.010 A 
ATOM     37  C   UNL A   1      38.627  29.271  28.960  1.00  0.00    -0.014 A 
BRANCH  37  38
ATOM     38  C   UNL A   1      39.993  28.736  29.148  1.00  0.00     0.031 A 
ATOM     39  C   UNL A   1      41.055  29.662  29.674  1.00  0.00     0.074 A 
ATOM     40  C   UNL A   1      40.302  27.489  28.748  1.00  0.00     0.049 A 
ATOM     41  N   UNL A   1      42.350  29.499  29.716  1.00  0.00    -0.248 NA
ATOM     42  C   UNL A   1      40.595  30.974  30.163  1.00  0.00     0.031 C 
ATOM     43  C   UNL A   1      39.367  26.512  28.184  1.00  0.00     0.029 A 
ATOM     44  N   UNL A   1      41.507  26.835  28.741  1.00  0.00    -0.354 N 
ATOM     45  C   UNL A   1      42.859  30.708  30.173  1.00  0.00     0.074 A 
ATOM     46  C   UNL A   1      41.742  31.608  30.342  1.00  0.00     0.031 C 
ATOM     47  C   UNL A   1      40.029  25.374  27.913  1.00  0.00     0.029 A 
ATOM     48  C   UNL A   1      41.439  25.558  28.238  1.00  0.00     0.049 A 
ATOM     49  H   UNL A   1      42.343  27.242  29.066  1.00  0.00     0.167 HD
ATOM     50  C   UNL A   1      44.142  31.032  30.450  1.00  0.00     0.031 A 
ATOM     51  C   UNL A   1      42.413  24.647  28.054  1.00  0.00     0.031 A 
ATOM     52  C   UNL A   1      45.235  30.109  30.342  1.00  0.00     0.049 A 
ATOM     53  C   UNL A   1      43.824  25.011  28.423  1.00  0.00     0.074 A 
ATOM     54  C   UNL A   1      46.564  30.300  30.669  1.00  0.00     0.029 A 
ATOM     55  N   UNL A   1      45.113  28.803  29.887  1.00  0.00    -0.354 N 
ATOM     56  N   UNL A   1      44.290  26.145  28.890  1.00  0.00    -0.248 NA
ATOM     57  C   UNL A   1      44.842  23.966  28.249  1.00  0.00     0.031 C 
ATOM     58  C   UNL A   1      47.254  29.116  30.388  1.00  0.00     0.029 A 
ATOM     59  C   UNL A   1      46.345  28.177  29.925  1.00  0.00     0.049 A 
ATOM     60  H   UNL A   1      44.274  28.386  29.584  1.00  0.00     0.167 HD
ATOM     61  C   UNL A   1      45.649  25.942  29.091  1.00  0.00     0.074 A 
ATOM     62  C   UNL A   1      45.928  24.572  28.708  1.00  0.00     0.031 C 
ATOM     63  C   UNL A   1      46.586  26.809  29.548  1.00  0.00     0.031 A 
BRANCH  50  64
ATOM     64  C   UNL A   1      44.412  32.440  30.900  1.00  0.00    -0.014 A 
ATOM     65  C   UNL A   1      44.707  33.457  29.977  1.00  0.00     0.009 A 
ATOM     66  C   UNL A   1      44.380  32.752  32.267  1.00  0.00     0.009 A 
ATOM     67  C   UNL A   1      45.017  34.745  30.418  1.00  0.00     0.001 A 
ATOM     68  C   UNL A   1      44.657  34.050  32.703  1.00  0.00     0.001 A 
ATOM     69  C   UNL A   1      44.988  35.041  31.780  1.00  0.00     0.000 A 
ENDBRANCH  50  64
BRANCH  51  70
ATOM     70  C   UNL A   1      42.086  23.299  27.523  1.00  0.00    -0.014 A 
ATOM     71  C   UNL A   1      41.520  22.327  28.363  1.00  0.00     0.009 A 
ATOM     72  C   UNL A   1      42.337  22.971  26.182  1.00  0.00     0.009 A 
ATOM     73  C   UNL A   1      41.238  21.048  27.880  1.00  0.00     0.001 A 
ATOM     74  C   UNL A   1      42.030  21.698  25.694  1.00  0.00     0.001 A 
ATOM     75  C   UNL A   1      41.490  20.735  26.545  1.00  0.00     0.000 A 
ENDBRANCH  51  70
BRANCH  63  76
ATOM     76  C   UNL A   1      47.983  26.286  29.698  1.00  0.00    -0.014 A 
ATOM     77  C   UNL A   1      48.890  26.319  28.628  1.00  0.00     0.009 A 
ATOM     78  C   UNL A   1      48.410  25.803  30.945  1.00  0.00     0.009 A 
ATOM     79  C   UNL A   1      50.193  25.849  28.799  1.00  0.00     0.001 A 
ATOM     80  C   UNL A   1      49.720  25.359  31.118  1.00  0.00     0.001 A 
ATOM     81  C   UNL A   1      50.608  25.374  30.044  1.00  0.00     0.000 A 
ENDBRANCH  63  76
ENDBRANCH  37  38
ENDBRANCH  29  32
ENDBRANCH  27  28
ENDBRANCH  26  27
ENDBRANCH   1  26
TORSDOF 14
ENDMDL
MODEL 2
REMARK VINA RESULT:     -11.2      1.905      6.957
REMARK SMILES C[NH2+][C@@]1(C(=O)NCCCCNC(=O)c2ccc(-c3c4nc(c(-c5ccccc5)c5ccc([nH]5)c(-c5ccccc5)c5nc(c(-c6ccccc6)c6ccc3[nH]6)C=C5)C=C4)cc2)CC[C@H](Oc2cc(C)cc(C)c2C)C1
REMARK SMILES IDX 8 1 7 2 6 3 4 4 5 5 3 7 62 8 75 9 63 10 64 11 2 12 1 13
REMARK SMILES IDX 65 16 66 17 67 18 73 19 68 20 71 21 74 22 69 23 70 24 72 25
REMARK SMILES IDX 9 26 10 27 11 28 12 29 13 31 14 32 15 33 61 34 16 35 60 36
REMARK SMILES IDX 17 37 18 38 19 39 54 40 20 41 59 42 53 43 55 44 21 45 58 46
REMARK SMILES IDX 52 47 51 48 22 50 44 51 29 52 43 53 30 54 33 55 42 56 56 57
REMARK SMILES IDX 31 58 32 59 41 61 57 62 34 63 23 64 24 65 28 66 25 67 27 68
REMARK SMILES IDX 26 69 45 70 46 71 50 72 47 73 49 74 48 75 35 76 36 77 40 78
REMARK SMILES IDX 37 79 39 80 38 81
REMARK H PARENT 6 6 2 14 2 15 11 30 55 49 33 60
REMARK Flexibility Score: inf
ROOT
ATOM      1  C   UNL A   1      36.988  22.935  24.479  1.00  0.00     0.023 C 
ENDROOT
BRANCH   1   2
ATOM      2  C   UNL A   1      35.818  23.509  25.252  1.00  0.00     0.116 C 
BRANCH   2   3
ATOM      3  N   UNL A   1      35.393  22.599  26.274  1.00  0.00    -0.351 N 
ATOM      4  C   UNL A   1      34.206  21.990  26.505  1.00  0.00     0.281 C 
ATOM      5  O   UNL A   1      34.144  21.492  27.637  1.00  0.00    -0.268 OA
ATOM      6  H   UNL A   1      36.093  22.377  26.929  1.00  0.00     0.163 HD
BRANCH   4   7
ATOM      7  C   UNL A   1      33.009  21.891  25.460  1.00  0.00     0.179 C 
ATOM      8  C   UNL A   1      33.482  21.647  24.017  1.00  0.00     0.083 C 
ATOM      9  C   UNL A   1      32.111  23.144  25.375  1.00  0.00     0.124 C 
ATOM     10  C   UNL A   1      33.193  22.893  23.189  1.00  0.00     0.052 C 
ATOM     11  C   UNL A   1      32.324  23.847  24.011  1.00  0.00     0.180 C 
BRANCH   7  12
ATOM     12  N   UNL A   1      32.183  20.674  25.768  1.00  0.00    -0.336 N 
ATOM     13  C   UNL A   1      32.621  19.420  25.161  1.00  0.00     0.331 C 
ATOM     14  H   UNL A   1      32.184  20.546  26.780  1.00  0.00     0.346 HD
ATOM     15  H   UNL A   1      31.264  20.862  25.365  1.00  0.00     0.346 HD
ENDBRANCH   7  12
BRANCH  11  16
ATOM     16  O   UNL A   1      32.792  25.167  24.308  1.00  0.00    -0.490 OA
BRANCH  16  17
ATOM     17  C   UNL A   1      32.044  26.293  24.513  1.00  0.00     0.123 A 
ATOM     18  C   UNL A   1      30.830  26.573  23.893  1.00  0.00     0.050 A 
ATOM     19  C   UNL A   1      32.683  27.305  25.279  1.00  0.00    -0.006 A 
ATOM     20  C   UNL A   1      30.342  27.887  23.841  1.00  0.00    -0.047 A 
ATOM     21  C   UNL A   1      32.207  28.633  25.217  1.00  0.00    -0.044 A 
ATOM     22  C   UNL A   1      33.933  26.994  26.070  1.00  0.00     0.049 C 
ATOM     23  C   UNL A   1      29.138  28.214  23.006  1.00  0.00     0.044 C 
ATOM     24  C   UNL A   1      31.039  28.905  24.495  1.00  0.00     0.007 A 
ATOM     25  C   UNL A   1      32.917  29.796  25.862  1.00  0.00     0.045 C 
ENDBRANCH  16  17
ENDBRANCH  11  16
ENDBRANCH   4   7
ENDBRANCH   2   3
ENDBRANCH   1   2
BRANCH   1  26
ATOM     26  C   UNL A   1      37.367  21.513  24.836  1.00  0.00     0.023 C 
BRANCH  26  27
ATOM     27  C   UNL A   1      38.571  21.409  25.762  1.00  0.00     0.116 C 
BRANCH  27  28
ATOM     28  N   UNL A   1      39.382  20.200  25.607  1.00  0.00    -0.352 N 
ATOM     29  C   UNL A   1      40.684  19.984  26.008  1.00  0.00     0.251 C 
ATOM     30  H   UNL A   1      38.941  19.444  25.156  1.00  0.00     0.163 HD
ATOM     31  O   UNL A   1      41.250  18.920  25.847  1.00  0.00    -0.269 OA
BRANCH  29  32
ATOM     32  C   UNL A   1      41.405  21.122  26.598  1.00  0.00     0.039 A 
ATOM     33  C   UNL A   1      41.944  22.089  25.746  1.00  0.00     0.014 A 
ATOM     34  C   UNL A   1      41.393  21.296  27.981  1.00  0.00     0.014 A 
ATOM     35  C   UNL A   1      42.399  23.288  26.287  1.00  0.00     0.010 A 
ATOM     36  C   UNL A   1      41.732  22.532  28.498  1.00  0.00     0.010 A 
ATOM     37  C   UNL A   1      42.249  23.535  27.660  1.00  0.00    -0.014 A 
BRANCH  37  38
ATOM     38  C   UNL A   1      42.679  24.804  28.286  1.00  0.00     0.031 A 
ATOM     39  C   UNL A   1      41.643  25.866  28.528  1.00  0.00     0.074 A 
ATOM     40  C   UNL A   1      43.982  25.045  28.523  1.00  0.00     0.049 A 
ATOM     41  N   UNL A   1      41.802  27.121  28.852  1.00  0.00    -0.248 NA
ATOM     42  C   UNL A   1      40.239  25.471  28.316  1.00  0.00     0.031 C 
ATOM     43  C   UNL A   1      45.084  24.108  28.291  1.00  0.00     0.029 A 
ATOM     44  N   UNL A   1      44.601  26.171  29.001  1.00  0.00    -0.354 N 
ATOM     45  C   UNL A   1      40.529  27.675  28.818  1.00  0.00     0.074 A 
ATOM     46  C   UNL A   1      39.619  26.637  28.392  1.00  0.00     0.031 C 
ATOM     47  C   UNL A   1      46.240  24.690  28.653  1.00  0.00     0.029 A 
ATOM     48  C   UNL A   1      45.966  26.051  29.097  1.00  0.00     0.049 A 
ATOM     49  H   UNL A   1      44.113  26.988  29.252  1.00  0.00     0.167 HD
ATOM     50  C   UNL A   1      40.147  28.932  29.137  1.00  0.00     0.031 A 
ATOM     51  C   UNL A   1      46.888  26.950  29.491  1.00  0.00     0.031 A 
ATOM     52  C   UNL A   1      41.050  29.936  29.623  1.00  0.00     0.049 A 
ATOM     53  C   UNL A   1      46.434  28.324  29.895  1.00  0.00     0.074 A 
ATOM     54  C   UNL A   1      40.766  31.219  30.051  1.00  0.00     0.029 A 
ATOM     55  N   UNL A   1      42.418  29.755  29.765  1.00  0.00    -0.354 N 
ATOM     56  N   UNL A   1      45.222  28.827  29.896  1.00  0.00    -0.248 NA
ATOM     57  C   UNL A   1      47.473  29.252  30.364  1.00  0.00     0.031 C 
ATOM     58  C   UNL A   1      41.969  31.825  30.431  1.00  0.00     0.029 A 
ATOM     59  C   UNL A   1      42.993  30.904  30.276  1.00  0.00     0.049 A 
ATOM     60  H   UNL A   1      42.906  28.930  29.538  1.00  0.00     0.167 HD
ATOM     61  C   UNL A   1      45.348  30.120  30.388  1.00  0.00     0.074 A 
ATOM     62  C   UNL A   1      46.753  30.317  30.689  1.00  0.00     0.031 C 
ATOM     63  C   UNL A   1      44.392  31.062  30.574  1.00  0.00     0.031 A 
BRANCH  50  64
ATOM     64  C   UNL A   1      38.693  29.270  28.971  1.00  0.00    -0.014 A 
ATOM     65  C   UNL A   1      37.790  29.154  30.041  1.00  0.00     0.009 A 
ATOM     66  C   UNL A   1      38.216  29.701  27.724  1.00  0.00     0.009 A 
ATOM     67  C   UNL A   1      36.431  29.412  29.851  1.00  0.00     0.001 A 
ATOM     68  C   UNL A   1      36.862  29.992  27.546  1.00  0.00     0.001 A 
ATOM     69  C   UNL A   1      35.969  29.834  28.606  1.00  0.00     0.000 A 
ENDBRANCH  50  64
BRANCH  51  70
ATOM     70  C   UNL A   1      48.324  26.573  29.549  1.00  0.00    -0.014 A 
ATOM     71  C   UNL A   1      49.166  26.827  28.454  1.00  0.00     0.009 A 
ATOM     72  C   UNL A   1      48.864  25.960  30.690  1.00  0.00     0.009 A 
ATOM     73  C   UNL A   1      50.509  26.449  28.489  1.00  0.00     0.001 A 
ATOM     74  C   UNL A   1      50.215  25.607  30.732  1.00  0.00     0.001 A 
ATOM     75  C   UNL A   1      51.034  25.842  29.629  1.00  0.00     0.000 A 
ENDBRANCH  51  70
BRANCH  63  76
ATOM     76  C   UNL A   1      44.828  32.369  31.167  1.00  0.00    -0.014 A 
ATOM     77  C   UNL A   1      45.213  33.444  30.351  1.00  0.00     0.009 A 
ATOM     78  C   UNL A   1      44.803  32.539  32.559  1.00  0.00     0.009 A 
ATOM     79  C   UNL A   1      45.592  34.658  30.925  1.00  0.00     0.001 A 
ATOM     80  C   UNL A   1      45.158  33.762  33.127  1.00  0.00     0.001 A 
ATOM     81  C   UNL A   1      45.559  34.818  32.311  1.00  0.00     0.000 A 
ENDBRANCH  63  76
ENDBRANCH  37  38
ENDBRANCH  29  32
ENDBRANCH  27  28
ENDBRANCH  26  27
ENDBRANCH   1  26
TORSDOF 14
ENDMDL
MODEL 3
REMARK VINA RESULT:     -11.2      2.283      7.303
REMARK SMILES C[NH2+][C@@]1(C(=O)NCCCCNC(=O)c2ccc(-c3c4nc(c(-c5ccccc5)c5ccc([nH]5)c(-c5ccccc5)c5nc(c(-c6ccccc6)c6ccc3[nH]6)C=C5)C=C4)cc2)CC[C@H](Oc2cc(C)cc(C)c2C)C1
REMARK SMILES IDX 8 1 7 2 6 3 4 4 5 5 3 7 62 8 75 9 63 10 64 11 2 12 1 13
REMARK SMILES IDX 65 16 66 17 67 18 73 19 68 20 71 21 74 22 69 23 70 24 72 25
REMARK SMILES IDX 9 26 10 27 11 28 12 29 13 31 14 32 15 33 61 34 16 35 60 36
REMARK SMILES IDX 17 37 18 38 19 39 54 40 20 41 59 42 53 43 55 44 21 45 58 46
REMARK SMILES IDX 52 47 51 48 22 50 44 51 29 52 43 53 30 54 33 55 42 56 56 57
REMARK SMILES IDX 31 58 32 59 41 61 57 62 34 63 23 64 24 65 28 66 25 67 27 68
REMARK SMILES IDX 26 69 45 70 46 71 50 72 47 73 49 74 48 75 35 76 36 77 40 78
REMARK SMILES IDX 37 79 39 80 38 81
REMARK H PARENT 6 6 2 14 2 15 11 30 55 49 33 60
REMARK Flexibility Score: inf
ROOT
ATOM      1  C   UNL A   1      39.046  22.963  26.386  1.00  0.00     0.023 C 
ENDROOT
BRANCH   1   2
ATOM      2  C   UNL A   1      37.673  23.549  26.123  1.00  0.00     0.116 C 
BRANCH   2   3
ATOM      3  N   UNL A   1      37.419  23.628  24.715  1.00  0.00    -0.351 N 
ATOM      4  C   UNL A   1      36.370  23.221  23.963  1.00  0.00     0.281 C 
ATOM      5  O   UNL A   1      36.632  23.214  22.752  1.00  0.00    -0.268 OA
ATOM      6  H   UNL A   1      38.141  24.056  24.201  1.00  0.00     0.163 HD
BRANCH   4   7
ATOM      7  C   UNL A   1      34.941  22.806  24.531  1.00  0.00     0.179 C 
ATOM      8  C   UNL A   1      33.932  22.444  23.428  1.00  0.00     0.083 C 
ATOM      9  C   UNL A   1      34.235  23.889  25.374  1.00  0.00     0.124 C 
ATOM     10  C   UNL A   1      32.845  23.512  23.390  1.00  0.00     0.052 C 
ATOM     11  C   UNL A   1      33.002  24.427  24.605  1.00  0.00     0.180 C 
BRANCH   7  12
ATOM     12  N   UNL A   1      35.072  21.532  25.317  1.00  0.00    -0.336 N 
ATOM     13  C   UNL A   1      34.028  20.531  25.113  1.00  0.00     0.331 C 
ATOM     14  H   UNL A   1      35.964  21.104  25.069  1.00  0.00     0.346 HD
ATOM     15  H   UNL A   1      34.992  21.809  26.296  1.00  0.00     0.346 HD
ENDBRANCH   7  12
BRANCH  11  16
ATOM     16  O   UNL A   1      33.224  25.830  24.422  1.00  0.00    -0.490 OA
BRANCH  16  17
ATOM     17  C   UNL A   1      32.323  26.846  24.583  1.00  0.00     0.123 A 
ATOM     18  C   UNL A   1      31.203  27.059  23.785  1.00  0.00     0.050 A 
ATOM     19  C   UNL A   1      32.703  27.838  25.527  1.00  0.00    -0.006 A 
ATOM     20  C   UNL A   1      30.577  28.313  23.755  1.00  0.00    -0.047 A 
ATOM     21  C   UNL A   1      32.089  29.109  25.490  1.00  0.00    -0.044 A 
ATOM     22  C   UNL A   1      33.834  27.581  26.496  1.00  0.00     0.049 C 
ATOM     23  C   UNL A   1      29.496  28.595  22.752  1.00  0.00     0.044 C 
ATOM     24  C   UNL A   1      31.031  29.328  24.600  1.00  0.00     0.007 A 
ATOM     25  C   UNL A   1      32.539  30.269  26.339  1.00  0.00     0.045 C 
ENDBRANCH  16  17
ENDBRANCH  11  16
ENDBRANCH   4   7
ENDBRANCH   2   3
ENDBRANCH   1   2
BRANCH   1  26
ATOM     26  C   UNL A   1      39.269  21.567  25.845  1.00  0.00     0.023 C 
BRANCH  26  27
ATOM     27  C   UNL A   1      40.176  20.706  26.713  1.00  0.00     0.116 C 
BRANCH  27  28
ATOM     28  N   UNL A   1      41.235  19.990  26.000  1.00  0.00    -0.352 N 
ATOM     29  C   UNL A   1      42.529  20.399  25.751  1.00  0.00     0.251 C 
ATOM     30  H   UNL A   1      40.992  19.102  25.652  1.00  0.00     0.163 HD
ATOM     31  O   UNL A   1      43.335  19.700  25.165  1.00  0.00    -0.269 OA
BRANCH  29  32
ATOM     32  C   UNL A   1      42.899  21.759  26.171  1.00  0.00     0.039 A 
ATOM     33  C   UNL A   1      42.977  22.762  25.203  1.00  0.00     0.014 A 
ATOM     34  C   UNL A   1      43.001  22.049  27.531  1.00  0.00     0.014 A 
ATOM     35  C   UNL A   1      43.071  24.090  25.612  1.00  0.00     0.010 A 
ATOM     36  C   UNL A   1      42.972  23.372  27.931  1.00  0.00     0.010 A 
ATOM     37  C   UNL A   1      43.019  24.403  26.978  1.00  0.00    -0.014 A 
BRANCH  37  38
ATOM     38  C   UNL A   1      43.078  25.797  27.471  1.00  0.00     0.031 A 
ATOM     39  C   UNL A   1      44.422  26.374  27.818  1.00  0.00     0.074 A 
ATOM     40  C   UNL A   1      41.948  26.488  27.711  1.00  0.00     0.049 A 
ATOM     41  N   UNL A   1      44.711  27.471  28.465  1.00  0.00    -0.248 NA
ATOM     42  C   UNL A   1      45.597  25.570  27.436  1.00  0.00     0.031 C 
ATOM     43  C   UNL A   1      40.584  26.019  27.452  1.00  0.00     0.029 A 
ATOM     44  N   UNL A   1      41.771  27.737  28.248  1.00  0.00    -0.354 N 
ATOM     45  C   UNL A   1      46.091  27.454  28.621  1.00  0.00     0.074 A 
ATOM     46  C   UNL A   1      46.573  26.216  28.052  1.00  0.00     0.031 C 
ATOM     47  C   UNL A   1      39.714  26.980  27.806  1.00  0.00     0.029 A 
ATOM     48  C   UNL A   1      40.454  28.109  28.357  1.00  0.00     0.049 A 
ATOM     49  H   UNL A   1      42.519  28.313  28.528  1.00  0.00     0.167 HD
ATOM     50  C   UNL A   1      46.890  28.397  29.170  1.00  0.00     0.031 A 
ATOM     51  C   UNL A   1      39.911  29.235  28.857  1.00  0.00     0.031 A 
ATOM     52  C   UNL A   1      46.406  29.651  29.673  1.00  0.00     0.049 A 
ATOM     53  C   UNL A   1      40.823  30.295  29.411  1.00  0.00     0.074 A 
ATOM     54  C   UNL A   1      47.128  30.715  30.180  1.00  0.00     0.029 A 
ATOM     55  N   UNL A   1      45.068  30.016  29.708  1.00  0.00    -0.354 N 
ATOM     56  N   UNL A   1      42.130  30.286  29.520  1.00  0.00    -0.248 NA
ATOM     57  C   UNL A   1      40.185  31.525  29.900  1.00  0.00     0.031 C 
ATOM     58  C   UNL A   1      46.223  31.717  30.546  1.00  0.00     0.029 A 
ATOM     59  C   UNL A   1      44.943  31.290  30.229  1.00  0.00     0.049 A 
ATOM     60  H   UNL A   1      44.320  29.451  29.406  1.00  0.00     0.167 HD
ATOM     61  C   UNL A   1      42.474  31.515  30.066  1.00  0.00     0.074 A 
ATOM     62  C   UNL A   1      41.238  32.251  30.251  1.00  0.00     0.031 C 
ATOM     63  C   UNL A   1      43.699  31.997  30.388  1.00  0.00     0.031 A 
BRANCH  50  64
ATOM     64  C   UNL A   1      48.359  28.094  29.241  1.00  0.00    -0.014 A 
ATOM     65  C   UNL A   1      48.922  27.469  30.367  1.00  0.00     0.009 A 
ATOM     66  C   UNL A   1      49.196  28.448  28.173  1.00  0.00     0.009 A 
ATOM     67  C   UNL A   1      50.299  27.252  30.441  1.00  0.00     0.001 A 
ATOM     68  C   UNL A   1      50.568  28.200  28.236  1.00  0.00     0.001 A 
ATOM     69  C   UNL A   1      51.120  27.614  29.375  1.00  0.00     0.000 A 
ENDBRANCH  50  64
BRANCH  51  70
ATOM     70  C   UNL A   1      38.439  29.432  28.833  1.00  0.00    -0.014 A 
ATOM     71  C   UNL A   1      37.802  29.849  27.653  1.00  0.00     0.009 A 
ATOM     72  C   UNL A   1      37.661  29.209  29.980  1.00  0.00     0.009 A 
ATOM     73  C   UNL A   1      36.423  30.066  27.630  1.00  0.00     0.001 A 
ATOM     74  C   UNL A   1      36.278  29.401  29.946  1.00  0.00     0.001 A 
ATOM     75  C   UNL A   1      35.661  29.838  28.775  1.00  0.00     0.000 A 
ENDBRANCH  51  70
BRANCH  63  76
ATOM     76  C   UNL A   1      43.763  33.394  30.931  1.00  0.00    -0.014 A 
ATOM     77  C   UNL A   1      43.868  34.500  30.075  1.00  0.00     0.009 A 
ATOM     78  C   UNL A   1      43.663  33.603  32.314  1.00  0.00     0.009 A 
ATOM     79  C   UNL A   1      43.902  35.792  30.601  1.00  0.00     0.001 A 
ATOM     80  C   UNL A   1      43.671  34.897  32.834  1.00  0.00     0.001 A 
ATOM     81  C   UNL A   1      43.798  35.990  31.978  1.00  0.00     0.000 A 
ENDBRANCH  63  76
ENDBRANCH  37  38
ENDBRANCH  29  32
ENDBRANCH  27  28
ENDBRANCH  26  27
ENDBRANCH   1  26
TORSDOF 14
ENDMDL
