MODEL 1
REMARK VINA RESULT:     -12.2      0.000      0.000
REMARK SMILES Cc1ccc(-c2cc3cccnc3n2CCC(=O)NCCCCNC(=O)c2ccc(-c3c4nc(c(-c5ccccc5)c5ccc([nH]5)c(-c5ccccc5)c5nc(c(-c6ccccc6)c6ccc3[nH]6)C=C5)C=C4)cc2)cn1
REMARK SMILES IDX 21 1 20 2 19 3 17 4 18 5 16 7 15 8 14 9 6 10 7 11 8 12 13 13
REMARK SMILES IDX 9 14 12 15 10 16 11 17 5 18 1 19 2 20 3 21 76 22 4 23 75 24
REMARK SMILES IDX 22 25 23 26 24 27 25 28 26 30 27 31 28 32 74 33 29 34 73 35
REMARK SMILES IDX 30 36 31 37 32 38 67 39 33 40 72 41 66 42 68 43 34 44 71 45
REMARK SMILES IDX 65 46 64 47 35 49 57 50 42 51 56 52 43 53 46 54 55 55 69 56
REMARK SMILES IDX 44 57 45 58 54 60 70 61 47 62 36 63 37 64 41 65 38 66 40 67
REMARK SMILES IDX 39 68 58 69 59 70 63 71 60 72 62 73 61 74 48 75 49 76 53 77
REMARK SMILES IDX 50 78 52 79 51 80
REMARK H PARENT 19 6 24 29 68 48 46 59
REMARK Flexibility Score: inf
ROOT
ATOM      1  C   UNL A   1      40.521  21.010  26.331  1.00  0.00     0.023 C 
ENDROOT
BRANCH   1   2
ATOM      2  C   UNL A   1      39.126  21.125  25.736  1.00  0.00     0.116 C 
BRANCH   2   3
ATOM      3  N   UNL A   1      38.553  22.460  25.866  1.00  0.00    -0.356 N 
ATOM      4  C   UNL A   1      37.344  22.966  25.488  1.00  0.00     0.221 C 
ATOM      5  O   UNL A   1      37.102  24.142  25.779  1.00  0.00    -0.275 OA
ATOM      6  H   UNL A   1      39.145  23.112  26.304  1.00  0.00     0.163 HD
BRANCH   4   7
ATOM      7  C   UNL A   1      36.312  22.145  24.742  1.00  0.00     0.122 C 
BRANCH   7   8
ATOM      8  C   UNL A   1      35.496  21.168  25.613  1.00  0.00     0.134 C 
BRANCH   8   9
ATOM      9  N   UNL A   1      34.173  20.854  25.088  1.00  0.00    -0.325 N 
ATOM     10  C   UNL A   1      33.083  21.689  24.799  1.00  0.00     0.052 A 
ATOM     11  C   UNL A   1      32.124  20.831  24.228  1.00  0.00     0.039 A 
ATOM     12  C   UNL A   1      32.706  19.559  23.986  1.00  0.00     0.020 A 
ATOM     13  C   UNL A   1      33.934  19.569  24.618  1.00  0.00     0.140 A 
ATOM     14  C   UNL A   1      32.379  18.428  23.216  1.00  0.00     0.013 A 
ATOM     15  N   UNL A   1      34.836  18.563  24.643  1.00  0.00    -0.238 NA
ATOM     16  C   UNL A   1      33.308  17.386  23.164  1.00  0.00     0.021 A 
ATOM     17  C   UNL A   1      34.476  17.495  23.901  1.00  0.00     0.113 A 
BRANCH  10  18
ATOM     18  C   UNL A   1      33.040  23.187  24.736  1.00  0.00     0.017 A 
ATOM     19  C   UNL A   1      33.809  27.372  24.067  1.00  0.00     0.066 C 
ATOM     20  C   UNL A   1      33.499  25.928  24.321  1.00  0.00     0.037 A 
ATOM     21  C   UNL A   1      33.645  25.396  25.586  1.00  0.00     0.024 A 
ATOM     22  N   UNL A   1      33.063  25.180  23.286  1.00  0.00    -0.261 NA
ATOM     23  C   UNL A   1      33.399  24.034  25.781  1.00  0.00     0.014 A 
ATOM     24  C   UNL A   1      32.840  23.852  23.521  1.00  0.00     0.121 A 
ENDBRANCH  10  18
ENDBRANCH   8   9
ENDBRANCH   7   8
ENDBRANCH   4   7
ENDBRANCH   2   3
ENDBRANCH   1   2
BRANCH   1  25
ATOM     25  C   UNL A   1      41.296  19.694  26.230  1.00  0.00     0.023 C 
BRANCH  25  26
ATOM     26  C   UNL A   1      42.717  19.740  26.766  1.00  0.00     0.116 C 
BRANCH  26  27
ATOM     27  N   UNL A   1      43.706  19.190  25.831  1.00  0.00    -0.352 N 
ATOM     28  C   UNL A   1      44.484  19.860  24.901  1.00  0.00     0.251 C 
ATOM     29  H   UNL A   1      43.834  18.214  25.869  1.00  0.00     0.163 HD
ATOM     30  O   UNL A   1      45.071  19.285  24.006  1.00  0.00    -0.269 OA
BRANCH  28  31
ATOM     31  C   UNL A   1      44.565  21.322  25.042  1.00  0.00     0.039 A 
ATOM     32  C   UNL A   1      43.622  22.150  24.433  1.00  0.00     0.014 A 
ATOM     33  C   UNL A   1      45.453  21.802  25.997  1.00  0.00     0.014 A 
ATOM     34  C   UNL A   1      43.481  23.450  24.909  1.00  0.00     0.010 A 
ATOM     35  C   UNL A   1      45.189  23.019  26.576  1.00  0.00     0.010 A 
ATOM     36  C   UNL A   1      44.227  23.864  26.026  1.00  0.00    -0.014 A 
BRANCH  36  37
ATOM     37  C   UNL A   1      43.950  25.144  26.671  1.00  0.00     0.031 A 
ATOM     38  C   UNL A   1      44.918  26.246  26.425  1.00  0.00     0.074 A 
ATOM     39  C   UNL A   1      42.821  25.406  27.361  1.00  0.00     0.049 A 
ATOM     40  N   UNL A   1      45.833  26.667  27.236  1.00  0.00    -0.248 NA
ATOM     41  C   UNL A   1      44.927  26.917  25.116  1.00  0.00     0.031 C 
ATOM     42  C   UNL A   1      41.607  24.588  27.485  1.00  0.00     0.029 A 
ATOM     43  N   UNL A   1      42.502  26.527  28.067  1.00  0.00    -0.354 N 
ATOM     44  C   UNL A   1      46.408  27.778  26.629  1.00  0.00     0.074 A 
ATOM     45  C   UNL A   1      45.922  27.796  25.271  1.00  0.00     0.031 C 
ATOM     46  C   UNL A   1      40.614  25.321  28.029  1.00  0.00     0.029 A 
ATOM     47  C   UNL A   1      41.189  26.564  28.499  1.00  0.00     0.049 A 
ATOM     48  H   UNL A   1      43.150  27.246  28.253  1.00  0.00     0.167 HD
ATOM     49  C   UNL A   1      47.040  28.737  27.362  1.00  0.00     0.031 A 
ATOM     50  C   UNL A   1      40.613  27.503  29.277  1.00  0.00     0.031 A 
ATOM     51  C   UNL A   1      47.200  28.339  28.736  1.00  0.00     0.049 A 
ATOM     52  C   UNL A   1      41.684  28.113  30.091  1.00  0.00     0.074 A 
ATOM     53  C   UNL A   1      48.039  27.522  29.458  1.00  0.00     0.029 A 
ATOM     54  N   UNL A   1      46.097  28.581  29.512  1.00  0.00    -0.354 N 
ATOM     55  N   UNL A   1      42.382  27.443  30.966  1.00  0.00    -0.248 NA
ATOM     56  C   UNL A   1      42.210  29.425  29.741  1.00  0.00     0.031 C 
ATOM     57  C   UNL A   1      47.293  27.099  30.601  1.00  0.00     0.029 A 
ATOM     58  C   UNL A   1      46.033  27.691  30.553  1.00  0.00     0.049 A 
ATOM     59  H   UNL A   1      45.441  29.296  29.345  1.00  0.00     0.167 HD
ATOM     60  C   UNL A   1      43.618  28.055  30.957  1.00  0.00     0.074 A 
ATOM     61  C   UNL A   1      43.402  29.356  30.340  1.00  0.00     0.031 C 
ATOM     62  C   UNL A   1      44.763  27.346  31.158  1.00  0.00     0.031 A 
BRANCH  49  63
ATOM     63  C   UNL A   1      47.115  30.195  26.981  1.00  0.00    -0.014 A 
ATOM     64  C   UNL A   1      48.308  30.905  27.214  1.00  0.00     0.009 A 
ATOM     65  C   UNL A   1      45.975  30.956  26.665  1.00  0.00     0.009 A 
ATOM     66  C   UNL A   1      48.349  32.304  27.149  1.00  0.00     0.001 A 
ATOM     67  C   UNL A   1      46.020  32.351  26.566  1.00  0.00     0.001 A 
ATOM     68  C   UNL A   1      47.205  33.026  26.825  1.00  0.00     0.000 A 
ENDBRANCH  49  63
BRANCH  50  69
ATOM     69  C   UNL A   1      39.262  28.077  29.145  1.00  0.00    -0.014 A 
ATOM     70  C   UNL A   1      38.432  28.169  30.271  1.00  0.00     0.009 A 
ATOM     71  C   UNL A   1      38.907  28.809  27.997  1.00  0.00     0.009 A 
ATOM     72  C   UNL A   1      37.339  29.040  30.283  1.00  0.00     0.001 A 
ATOM     73  C   UNL A   1      37.808  29.672  28.006  1.00  0.00     0.001 A 
ATOM     74  C   UNL A   1      37.042  29.809  29.160  1.00  0.00     0.000 A 
ENDBRANCH  50  69
BRANCH  62  75
ATOM     75  C   UNL A   1      44.656  26.025  31.861  1.00  0.00    -0.014 A 
ATOM     76  C   UNL A   1      44.622  25.894  33.258  1.00  0.00     0.009 A 
ATOM     77  C   UNL A   1      44.489  24.875  31.075  1.00  0.00     0.009 A 
ATOM     78  C   UNL A   1      44.432  24.640  33.851  1.00  0.00     0.001 A 
ATOM     79  C   UNL A   1      44.285  23.627  31.665  1.00  0.00     0.001 A 
ATOM     80  C   UNL A   1      44.258  23.509  33.054  1.00  0.00     0.000 A 
ENDBRANCH  62  75
ENDBRANCH  36  37
ENDBRANCH  28  31
ENDBRANCH  26  27
ENDBRANCH  25  26
ENDBRANCH   1  25
TORSDOF 14
ENDMDL
MODEL 2
REMARK VINA RESULT:     -11.8      4.773     10.351
REMARK SMILES Cc1ccc(-c2cc3cccnc3n2CCC(=O)NCCCCNC(=O)c2ccc(-c3c4nc(c(-c5ccccc5)c5ccc([nH]5)c(-c5ccccc5)c5nc(c(-c6ccccc6)c6ccc3[nH]6)C=C5)C=C4)cc2)cn1
REMARK SMILES IDX 21 1 20 2 19 3 17 4 18 5 16 7 15 8 14 9 6 10 7 11 8 12 13 13
REMARK SMILES IDX 9 14 12 15 10 16 11 17 5 18 1 19 2 20 3 21 76 22 4 23 75 24
REMARK SMILES IDX 22 25 23 26 24 27 25 28 26 30 27 31 28 32 74 33 29 34 73 35
REMARK SMILES IDX 30 36 31 37 32 38 67 39 33 40 72 41 66 42 68 43 34 44 71 45
REMARK SMILES IDX 65 46 64 47 35 49 57 50 42 51 56 52 43 53 46 54 55 55 69 56
REMARK SMILES IDX 44 57 45 58 54 60 70 61 47 62 36 63 37 64 41 65 38 66 40 67
REMARK SMILES IDX 39 68 58 69 59 70 63 71 60 72 62 73 61 74 48 75 49 76 53 77
REMARK SMILES IDX 50 78 52 79 51 80
REMARK H PARENT 19 6 24 29 68 48 46 59
REMARK Flexibility Score: inf
ROOT
ATOM      1  C   UNL A   1      34.054  32.878  28.358  1.00  0.00     0.023 C 
ENDROOT
BRANCH   1   2
ATOM      2  C   UNL A   1      33.236  31.822  27.630  1.00  0.00     0.116 C 
BRANCH   2   3
ATOM      3  N   UNL A   1      33.859  30.504  27.638  1.00  0.00    -0.356 N 
ATOM      4  C   UNL A   1      33.474  29.319  27.083  1.00  0.00     0.221 C 
ATOM      5  O   UNL A   1      34.239  28.357  27.206  1.00  0.00    -0.275 OA
ATOM      6  H   UNL A   1      34.708  30.462  28.133  1.00  0.00     0.163 HD
BRANCH   4   7
ATOM      7  C   UNL A   1      32.167  29.153  26.333  1.00  0.00     0.122 C 
BRANCH   7   8
ATOM      8  C   UNL A   1      32.224  29.496  24.831  1.00  0.00     0.134 C 
BRANCH   8   9
ATOM      9  N   UNL A   1      31.256  28.777  24.012  1.00  0.00    -0.325 N 
ATOM     10  C   UNL A   1      31.184  27.420  23.662  1.00  0.00     0.052 A 
ATOM     11  C   UNL A   1      29.980  27.306  22.941  1.00  0.00     0.039 A 
ATOM     12  C   UNL A   1      29.248  28.518  23.041  1.00  0.00     0.020 A 
ATOM     13  C   UNL A   1      30.100  29.439  23.617  1.00  0.00     0.140 A 
ATOM     14  C   UNL A   1      27.921  28.920  22.801  1.00  0.00     0.013 A 
ATOM     15  N   UNL A   1      29.817  30.728  23.908  1.00  0.00    -0.238 NA
ATOM     16  C   UNL A   1      27.566  30.227  23.142  1.00  0.00     0.021 A 
ATOM     17  C   UNL A   1      28.538  31.073  23.652  1.00  0.00     0.113 A 
BRANCH  10  18
ATOM     18  C   UNL A   1      31.964  26.266  24.218  1.00  0.00     0.017 A 
ATOM     19  C   UNL A   1      33.978  23.387  26.711  1.00  0.00     0.066 C 
ATOM     20  C   UNL A   1      33.290  24.363  25.805  1.00  0.00     0.037 A 
ATOM     21  C   UNL A   1      34.026  25.274  25.074  1.00  0.00     0.024 A 
ATOM     22  N   UNL A   1      31.944  24.309  25.716  1.00  0.00    -0.261 NA
ATOM     23  C   UNL A   1      33.354  26.205  24.277  1.00  0.00     0.014 A 
ATOM     24  C   UNL A   1      31.329  25.242  24.930  1.00  0.00     0.121 A 
ENDBRANCH  10  18
ENDBRANCH   8   9
ENDBRANCH   7   8
ENDBRANCH   4   7
ENDBRANCH   2   3
ENDBRANCH   1   2
BRANCH   1  25
ATOM     25  C   UNL A   1      33.518  34.304  28.505  1.00  0.00     0.023 C 
BRANCH  25  26
ATOM     26  C   UNL A   1      34.377  35.232  29.348  1.00  0.00     0.116 C 
BRANCH  26  27
ATOM     27  N   UNL A   1      33.647  35.838  30.468  1.00  0.00    -0.352 N 
ATOM     28  C   UNL A   1      33.598  35.431  31.791  1.00  0.00     0.251 C 
ATOM     29  H   UNL A   1      33.120  36.641  30.250  1.00  0.00     0.163 HD
ATOM     30  O   UNL A   1      32.763  35.845  32.570  1.00  0.00    -0.269 OA
BRANCH  28  31
ATOM     31  C   UNL A   1      34.614  34.456  32.216  1.00  0.00     0.039 A 
ATOM     32  C   UNL A   1      34.374  33.086  32.114  1.00  0.00     0.014 A 
ATOM     33  C   UNL A   1      35.883  34.960  32.477  1.00  0.00     0.014 A 
ATOM     34  C   UNL A   1      35.465  32.222  32.128  1.00  0.00     0.010 A 
ATOM     35  C   UNL A   1      36.960  34.124  32.313  1.00  0.00     0.010 A 
ATOM     36  C   UNL A   1      36.767  32.751  32.167  1.00  0.00    -0.014 A 
BRANCH  36  37
ATOM     37  C   UNL A   1      37.927  31.885  31.975  1.00  0.00     0.031 A 
ATOM     38  C   UNL A   1      38.686  31.495  33.192  1.00  0.00     0.074 A 
ATOM     39  C   UNL A   1      38.261  31.334  30.790  1.00  0.00     0.049 A 
ATOM     40  N   UNL A   1      39.814  31.984  33.590  1.00  0.00    -0.248 NA
ATOM     41  C   UNL A   1      38.109  30.504  34.113  1.00  0.00     0.031 C 
ATOM     42  C   UNL A   1      37.506  31.332  29.529  1.00  0.00     0.029 A 
ATOM     43  N   UNL A   1      39.359  30.588  30.484  1.00  0.00    -0.354 N 
ATOM     44  C   UNL A   1      40.192  31.236  34.700  1.00  0.00     0.074 A 
ATOM     45  C   UNL A   1      39.043  30.446  35.067  1.00  0.00     0.031 C 
ATOM     46  C   UNL A   1      38.051  30.447  28.669  1.00  0.00     0.029 A 
ATOM     47  C   UNL A   1      39.312  30.007  29.230  1.00  0.00     0.049 A 
ATOM     48  H   UNL A   1      40.118  30.472  31.102  1.00  0.00     0.167 HD
ATOM     49  C   UNL A   1      41.498  31.140  35.077  1.00  0.00     0.031 A 
ATOM     50  C   UNL A   1      40.279  29.284  28.630  1.00  0.00     0.031 A 
ATOM     51  C   UNL A   1      42.336  32.044  34.334  1.00  0.00     0.049 A 
ATOM     52  C   UNL A   1      41.569  29.718  29.203  1.00  0.00     0.074 A 
ATOM     53  C   UNL A   1      42.641  33.385  34.355  1.00  0.00     0.029 A 
ATOM     54  N   UNL A   1      42.731  31.554  33.116  1.00  0.00    -0.354 N 
ATOM     55  N   UNL A   1      42.033  30.930  29.074  1.00  0.00    -0.248 NA
ATOM     56  C   UNL A   1      42.244  28.890  30.194  1.00  0.00     0.031 C 
ATOM     57  C   UNL A   1      43.021  33.726  33.020  1.00  0.00     0.029 A 
ATOM     58  C   UNL A   1      42.961  32.578  32.234  1.00  0.00     0.049 A 
ATOM     59  H   UNL A   1      42.835  30.598  32.903  1.00  0.00     0.167 HD
ATOM     60  C   UNL A   1      42.759  31.142  30.228  1.00  0.00     0.074 A 
ATOM     61  C   UNL A   1      43.005  29.817  30.780  1.00  0.00     0.031 C 
ATOM     62  C   UNL A   1      42.830  32.373  30.806  1.00  0.00     0.031 A 
BRANCH  49  63
ATOM     63  C   UNL A   1      42.101  29.945  35.773  1.00  0.00    -0.014 A 
ATOM     64  C   UNL A   1      43.286  30.109  36.515  1.00  0.00     0.009 A 
ATOM     65  C   UNL A   1      41.704  28.624  35.496  1.00  0.00     0.009 A 
ATOM     66  C   UNL A   1      44.040  29.007  36.941  1.00  0.00     0.001 A 
ATOM     67  C   UNL A   1      42.435  27.521  35.949  1.00  0.00     0.001 A 
ATOM     68  C   UNL A   1      43.613  27.713  36.657  1.00  0.00     0.000 A 
ENDBRANCH  49  63
BRANCH  50  69
ATOM     69  C   UNL A   1      40.118  28.068  27.812  1.00  0.00    -0.014 A 
ATOM     70  C   UNL A   1      40.893  27.899  26.657  1.00  0.00     0.009 A 
ATOM     71  C   UNL A   1      39.439  26.948  28.326  1.00  0.00     0.009 A 
ATOM     72  C   UNL A   1      41.064  26.632  26.090  1.00  0.00     0.001 A 
ATOM     73  C   UNL A   1      39.601  25.683  27.753  1.00  0.00     0.001 A 
ATOM     74  C   UNL A   1      40.438  25.522  26.654  1.00  0.00     0.000 A 
ENDBRANCH  50  69
BRANCH  62  75
ATOM     75  C   UNL A   1      42.539  33.569  29.948  1.00  0.00    -0.014 A 
ATOM     76  C   UNL A   1      43.478  34.142  29.077  1.00  0.00     0.009 A 
ATOM     77  C   UNL A   1      41.232  34.078  29.955  1.00  0.00     0.009 A 
ATOM     78  C   UNL A   1      43.117  35.202  28.238  1.00  0.00     0.001 A 
ATOM     79  C   UNL A   1      40.868  35.127  29.109  1.00  0.00     0.001 A 
ATOM     80  C   UNL A   1      41.810  35.690  28.251  1.00  0.00     0.000 A 
ENDBRANCH  62  75
ENDBRANCH  36  37
ENDBRANCH  28  31
ENDBRANCH  26  27
ENDBRANCH  25  26
ENDBRANCH   1  25
TORSDOF 14
ENDMDL
MODEL 3
REMARK VINA RESULT:     -11.8      0.847      2.978
REMARK SMILES Cc1ccc(-c2cc3cccnc3n2CCC(=O)NCCCCNC(=O)c2ccc(-c3c4nc(c(-c5ccccc5)c5ccc([nH]5)c(-c5ccccc5)c5nc(c(-c6ccccc6)c6ccc3[nH]6)C=C5)C=C4)cc2)cn1
REMARK SMILES IDX 21 1 20 2 19 3 17 4 18 5 16 7 15 8 14 9 6 10 7 11 8 12 13 13
REMARK SMILES IDX 9 14 12 15 10 16 11 17 5 18 1 19 2 20 3 21 76 22 4 23 75 24
REMARK SMILES IDX 22 25 23 26 24 27 25 28 26 30 27 31 28 32 74 33 29 34 73 35
REMARK SMILES IDX 30 36 31 37 32 38 67 39 33 40 72 41 66 42 68 43 34 44 71 45
REMARK SMILES IDX 65 46 64 47 35 49 57 50 42 51 56 52 43 53 46 54 55 55 69 56
REMARK SMILES IDX 44 57 45 58 54 60 70 61 47 62 36 63 37 64 41 65 38 66 40 67
REMARK SMILES IDX 39 68 58 69 59 70 63 71 60 72 62 73 61 74 48 75 49 76 53 77
REMARK SMILES IDX 50 78 52 79 51 80
REMARK H PARENT 19 6 24 29 68 48 46 59
REMARK Flexibility Score: inf
ROOT
ATOM      1  C   UNL A   1      40.736  20.828  26.431  1.00  0.00     0.023 C 
ENDROOT
BRANCH   1   2
ATOM      2  C   UNL A   1      39.394  21.042  25.748  1.00  0.00     0.116 C 
BRANCH   2   3
ATOM      3  N   UNL A   1      38.840  22.372  25.971  1.00  0.00    -0.356 N 
ATOM      4  C   UNL A   1      37.592  22.880  25.756  1.00  0.00     0.221 C 
ATOM      5  O   UNL A   1      37.387  24.050  26.095  1.00  0.00    -0.275 OA
ATOM      6  H   UNL A   1      39.482  23.020  26.340  1.00  0.00     0.163 HD
BRANCH   4   7
ATOM      7  C   UNL A   1      36.475  22.066  25.135  1.00  0.00     0.122 C 
BRANCH   7   8
ATOM      8  C   UNL A   1      35.189  21.963  25.979  1.00  0.00     0.134 C 
BRANCH   8   9
ATOM      9  N   UNL A   1      33.956  22.143  25.224  1.00  0.00    -0.325 N 
ATOM     10  C   UNL A   1      33.182  21.218  24.505  1.00  0.00     0.052 A 
ATOM     11  C   UNL A   1      32.062  21.956  24.076  1.00  0.00     0.039 A 
ATOM     12  C   UNL A   1      32.061  23.230  24.702  1.00  0.00     0.020 A 
ATOM     13  C   UNL A   1      33.289  23.358  25.321  1.00  0.00     0.140 A 
ATOM     14  C   UNL A   1      31.121  24.257  24.903  1.00  0.00     0.013 A 
ATOM     15  N   UNL A   1      33.721  24.413  26.045  1.00  0.00    -0.238 NA
ATOM     16  C   UNL A   1      31.503  25.342  25.696  1.00  0.00     0.021 A 
ATOM     17  C   UNL A   1      32.792  25.378  26.203  1.00  0.00     0.113 A 
BRANCH  10  18
ATOM     18  C   UNL A   1      33.281  19.722  24.492  1.00  0.00     0.017 A 
ATOM     19  C   UNL A   1      33.575  15.537  25.472  1.00  0.00     0.066 C 
ATOM     20  C   UNL A   1      33.471  16.981  25.084  1.00  0.00     0.037 A 
ATOM     21  C   UNL A   1      34.569  17.648  24.579  1.00  0.00     0.024 A 
ATOM     22  N   UNL A   1      32.278  17.594  25.228  1.00  0.00    -0.261 NA
ATOM     23  C   UNL A   1      34.456  19.008  24.275  1.00  0.00     0.014 A 
ATOM     24  C   UNL A   1      32.214  18.925  24.924  1.00  0.00     0.121 A 
ENDBRANCH  10  18
ENDBRANCH   8   9
ENDBRANCH   7   8
ENDBRANCH   4   7
ENDBRANCH   2   3
ENDBRANCH   1   2
BRANCH   1  25
ATOM     25  C   UNL A   1      41.537  19.549  26.175  1.00  0.00     0.023 C 
BRANCH  25  26
ATOM     26  C   UNL A   1      42.971  19.575  26.677  1.00  0.00     0.116 C 
BRANCH  26  27
ATOM     27  N   UNL A   1      43.931  19.026  25.712  1.00  0.00    -0.352 N 
ATOM     28  C   UNL A   1      44.686  19.697  24.763  1.00  0.00     0.251 C 
ATOM     29  H   UNL A   1      44.056  18.049  25.742  1.00  0.00     0.163 HD
ATOM     30  O   UNL A   1      45.245  19.124  23.850  1.00  0.00    -0.269 OA
BRANCH  28  31
ATOM     31  C   UNL A   1      44.776  21.158  24.910  1.00  0.00     0.039 A 
ATOM     32  C   UNL A   1      43.835  21.995  24.309  1.00  0.00     0.014 A 
ATOM     33  C   UNL A   1      45.673  21.629  25.862  1.00  0.00     0.014 A 
ATOM     34  C   UNL A   1      43.705  23.293  24.790  1.00  0.00     0.010 A 
ATOM     35  C   UNL A   1      45.419  22.846  26.447  1.00  0.00     0.010 A 
ATOM     36  C   UNL A   1      44.459  23.699  25.904  1.00  0.00    -0.014 A 
BRANCH  36  37
ATOM     37  C   UNL A   1      44.194  24.979  26.555  1.00  0.00     0.031 A 
ATOM     38  C   UNL A   1      45.193  26.060  26.349  1.00  0.00     0.074 A 
ATOM     39  C   UNL A   1      43.052  25.260  27.216  1.00  0.00     0.049 A 
ATOM     40  N   UNL A   1      46.095  26.451  27.189  1.00  0.00    -0.248 NA
ATOM     41  C   UNL A   1      45.255  26.744  25.048  1.00  0.00     0.031 C 
ATOM     42  C   UNL A   1      41.816  24.468  27.297  1.00  0.00     0.029 A 
ATOM     43  N   UNL A   1      42.740  26.380  27.925  1.00  0.00    -0.354 N 
ATOM     44  C   UNL A   1      46.711  27.555  26.610  1.00  0.00     0.074 A 
ATOM     45  C   UNL A   1      46.265  27.598  25.240  1.00  0.00     0.031 C 
ATOM     46  C   UNL A   1      40.825  25.219  27.822  1.00  0.00     0.029 A 
ATOM     47  C   UNL A   1      41.416  26.443  28.321  1.00  0.00     0.049 A 
ATOM     48  H   UNL A   1      43.398  27.082  28.137  1.00  0.00     0.167 HD
ATOM     49  C   UNL A   1      47.345  28.491  27.372  1.00  0.00     0.031 A 
ATOM     50  C   UNL A   1      40.840  27.387  29.093  1.00  0.00     0.031 A 
ATOM     51  C   UNL A   1      47.457  28.075  28.744  1.00  0.00     0.049 A 
ATOM     52  C   UNL A   1      41.901  27.963  29.943  1.00  0.00     0.074 A 
ATOM     53  C   UNL A   1      48.257  27.231  29.481  1.00  0.00     0.029 A 
ATOM     54  N   UNL A   1      46.338  28.335  29.493  1.00  0.00    -0.354 N 
ATOM     55  N   UNL A   1      42.559  27.269  30.829  1.00  0.00    -0.248 NA
ATOM     56  C   UNL A   1      42.467  29.267  29.622  1.00  0.00     0.031 C 
ATOM     57  C   UNL A   1      47.469  26.814  30.598  1.00  0.00     0.029 A 
ATOM     58  C   UNL A   1      46.224  27.436  30.522  1.00  0.00     0.049 A 
ATOM     59  H   UNL A   1      45.703  29.066  29.315  1.00  0.00     0.167 HD
ATOM     60  C   UNL A   1      43.809  27.852  30.862  1.00  0.00     0.074 A 
ATOM     61  C   UNL A   1      43.639  29.164  30.253  1.00  0.00     0.031 C 
ATOM     62  C   UNL A   1      44.931  27.114  31.087  1.00  0.00     0.031 A 
BRANCH  49  63
ATOM     63  C   UNL A   1      47.464  29.950  27.009  1.00  0.00    -0.014 A 
ATOM     64  C   UNL A   1      48.679  30.620  27.245  1.00  0.00     0.009 A 
ATOM     65  C   UNL A   1      46.347  30.751  26.707  1.00  0.00     0.009 A 
ATOM     66  C   UNL A   1      48.764  32.018  27.197  1.00  0.00     0.001 A 
ATOM     67  C   UNL A   1      46.436  32.145  26.625  1.00  0.00     0.001 A 
ATOM     68  C   UNL A   1      47.642  32.780  26.887  1.00  0.00     0.000 A 
ENDBRANCH  49  63
BRANCH  50  69
ATOM     69  C   UNL A   1      39.506  27.994  28.930  1.00  0.00    -0.014 A 
ATOM     70  C   UNL A   1      38.626  28.042  30.019  1.00  0.00     0.009 A 
ATOM     71  C   UNL A   1      39.219  28.792  27.808  1.00  0.00     0.009 A 
ATOM     72  C   UNL A   1      37.549  28.933  30.028  1.00  0.00     0.001 A 
ATOM     73  C   UNL A   1      38.135  29.675  27.812  1.00  0.00     0.001 A 
ATOM     74  C   UNL A   1      37.319  29.766  28.934  1.00  0.00     0.000 A 
ENDBRANCH  50  69
BRANCH  62  75
ATOM     75  C   UNL A   1      44.773  25.789  31.773  1.00  0.00    -0.014 A 
ATOM     76  C   UNL A   1      44.801  25.632  33.167  1.00  0.00     0.009 A 
ATOM     77  C   UNL A   1      44.494  24.668  30.976  1.00  0.00     0.009 A 
ATOM     78  C   UNL A   1      44.560  24.381  33.747  1.00  0.00     0.001 A 
ATOM     79  C   UNL A   1      44.240  23.424  31.555  1.00  0.00     0.001 A 
ATOM     80  C   UNL A   1      44.274  23.280  32.941  1.00  0.00     0.000 A 
ENDBRANCH  62  75
ENDBRANCH  36  37
ENDBRANCH  28  31
ENDBRANCH  26  27
ENDBRANCH  25  26
ENDBRANCH   1  25
TORSDOF 14
ENDMDL
