MODEL 1
REMARK VINA RESULT:     -11.9      0.000      0.000
REMARK SMILES O=C(NCCCCNC(=O)c1cc(NC(=O)c2ccccc2Cl)ccc1N1CCC[C@H](C[NH+]2CCCC2)C1)c1ccc(-c2c3nc(c(-c4ccccc4)c4ccc([nH]4)c(-c4ccccc4)c4nc(c(-c5ccccc5)c5ccc2[nH]5)C=C4)C=C3)cc1
REMARK SMILES IDX 6 1 5 2 4 3 3 4 1 5 2 6 39 8 40 9 86 10 41 11 85 12 42 13
REMARK SMILES IDX 43 14 44 15 79 16 45 17 84 18 78 19 80 20 46 21 83 22 77 23
REMARK SMILES IDX 76 24 47 26 69 27 54 28 68 29 55 30 58 31 67 32 81 33 56 34
REMARK SMILES IDX 57 35 66 37 82 38 59 39 48 40 49 41 53 42 50 43 52 44 51 45
REMARK SMILES IDX 70 46 71 47 75 48 72 49 74 50 73 51 60 52 61 53 65 54 62 55
REMARK SMILES IDX 64 56 63 57 7 58 8 59 9 60 10 62 11 63 12 64 26 65 13 66
REMARK SMILES IDX 25 67 24 68 27 69 28 70 38 71 29 72 31 73 30 74 32 75 33 76
REMARK SMILES IDX 34 77 37 78 35 80 36 81 14 82 15 83 16 85 17 86 18 87 22 88
REMARK SMILES IDX 19 89 21 90 23 91 20 92
REMARK H PARENT 3 7 80 25 58 36 8 61 33 79 14 84
REMARK Flexibility Score: inf
ROOT
ATOM      1  C   UNL A   1      37.771  22.675  25.347  1.00  0.00     0.023 C 
ENDROOT
BRANCH   1   2
ATOM      2  C   UNL A   1      38.194  21.266  24.918  1.00  0.00     0.023 C 
BRANCH   2   3
ATOM      3  C   UNL A   1      38.473  20.263  26.036  1.00  0.00     0.116 C 
BRANCH   3   4
ATOM      4  N   UNL A   1      39.624  19.411  25.782  1.00  0.00    -0.352 N 
ATOM      5  O   UNL A   1      41.792  18.836  25.563  1.00  0.00    -0.269 OA
ATOM      6  C   UNL A   1      40.969  19.658  25.947  1.00  0.00     0.251 C 
ATOM      7  H   UNL A   1      39.407  18.514  25.439  1.00  0.00     0.163 HD
BRANCH   6   8
ATOM      8  C   UNL A   1      41.430  20.927  26.553  1.00  0.00     0.039 A 
ATOM      9  C   UNL A   1      41.450  21.107  27.938  1.00  0.00     0.014 A 
ATOM     10  C   UNL A   1      41.874  21.950  25.710  1.00  0.00     0.014 A 
ATOM     11  C   UNL A   1      41.767  22.354  28.473  1.00  0.00     0.010 A 
ATOM     12  C   UNL A   1      42.265  23.177  26.253  1.00  0.00     0.010 A 
ATOM     13  C   UNL A   1      42.179  23.402  27.636  1.00  0.00    -0.014 A 
BRANCH  13  14
ATOM     14  C   UNL A   1      42.556  24.722  28.206  1.00  0.00     0.031 A 
ATOM     15  C   UNL A   1      41.520  25.790  28.418  1.00  0.00     0.074 A 
ATOM     16  C   UNL A   1      43.845  24.971  28.498  1.00  0.00     0.049 A 
ATOM     17  N   UNL A   1      41.679  27.028  28.814  1.00  0.00    -0.248 NA
ATOM     18  C   UNL A   1      40.123  25.422  28.140  1.00  0.00     0.031 C 
ATOM     19  C   UNL A   1      44.945  24.018  28.346  1.00  0.00     0.029 A 
ATOM     20  N   UNL A   1      44.451  26.110  28.968  1.00  0.00    -0.354 N 
ATOM     21  C   UNL A   1      40.411  27.596  28.805  1.00  0.00     0.074 A 
ATOM     22  C   UNL A   1      39.497  26.572  28.343  1.00  0.00     0.031 C 
ATOM     23  C   UNL A   1      46.090  24.607  28.720  1.00  0.00     0.029 A 
ATOM     24  C   UNL A   1      45.816  25.996  29.073  1.00  0.00     0.049 A 
ATOM     25  H   UNL A   1      43.956  26.927  29.207  1.00  0.00     0.167 HD
ATOM     26  C   UNL A   1      40.042  28.854  29.147  1.00  0.00     0.031 A 
ATOM     27  C   UNL A   1      46.752  26.914  29.377  1.00  0.00     0.031 A 
ATOM     28  C   UNL A   1      40.958  29.873  29.591  1.00  0.00     0.049 A 
ATOM     29  C   UNL A   1      46.333  28.319  29.696  1.00  0.00     0.074 A 
ATOM     30  C   UNL A   1      40.678  31.168  29.996  1.00  0.00     0.029 A 
ATOM     31  N   UNL A   1      42.334  29.718  29.671  1.00  0.00    -0.354 N 
ATOM     32  N   UNL A   1      45.126  28.830  29.720  1.00  0.00    -0.248 NA
ATOM     33  C   UNL A   1      47.399  29.270  30.033  1.00  0.00     0.031 C 
ATOM     34  C   UNL A   1      41.890  31.815  30.256  1.00  0.00     0.029 A 
ATOM     35  C   UNL A   1      42.919  30.904  30.085  1.00  0.00     0.049 A 
ATOM     36  H   UNL A   1      42.823  28.889  29.465  1.00  0.00     0.167 HD
ATOM     37  C   UNL A   1      45.284  30.156  30.104  1.00  0.00     0.074 A 
ATOM     38  C   UNL A   1      46.703  30.367  30.304  1.00  0.00     0.031 C 
ATOM     39  C   UNL A   1      44.333  31.105  30.283  1.00  0.00     0.031 A 
BRANCH  26  40
ATOM     40  C   UNL A   1      38.587  29.214  28.999  1.00  0.00    -0.014 A 
ATOM     41  C   UNL A   1      37.691  29.124  30.077  1.00  0.00     0.009 A 
ATOM     42  C   UNL A   1      38.107  29.663  27.759  1.00  0.00     0.009 A 
ATOM     43  C   UNL A   1      36.338  29.423  29.901  1.00  0.00     0.001 A 
ATOM     44  C   UNL A   1      36.760  29.995  27.594  1.00  0.00     0.001 A 
ATOM     45  C   UNL A   1      35.874  29.860  28.660  1.00  0.00     0.000 A 
ENDBRANCH  26  40
BRANCH  27  46
ATOM     46  C   UNL A   1      48.183  26.515  29.364  1.00  0.00    -0.014 A 
ATOM     47  C   UNL A   1      48.785  25.965  30.505  1.00  0.00     0.009 A 
ATOM     48  C   UNL A   1      48.939  26.631  28.185  1.00  0.00     0.009 A 
ATOM     49  C   UNL A   1      50.116  25.544  30.467  1.00  0.00     0.001 A 
ATOM     50  C   UNL A   1      50.260  26.182  28.142  1.00  0.00     0.001 A 
ATOM     51  C   UNL A   1      50.848  25.644  29.284  1.00  0.00     0.000 A 
ENDBRANCH  27  46
BRANCH  39  52
ATOM     52  C   UNL A   1      44.781  32.456  30.768  1.00  0.00    -0.014 A 
ATOM     53  C   UNL A   1      45.077  33.497  29.875  1.00  0.00     0.009 A 
ATOM     54  C   UNL A   1      44.828  32.709  32.148  1.00  0.00     0.009 A 
ATOM     55  C   UNL A   1      45.425  34.761  30.357  1.00  0.00     0.001 A 
ATOM     56  C   UNL A   1      45.148  33.980  32.627  1.00  0.00     0.001 A 
ATOM     57  C   UNL A   1      45.451  35.004  31.731  1.00  0.00     0.000 A 
ENDBRANCH  39  52
ENDBRANCH  13  14
ENDBRANCH   6   8
ENDBRANCH   3   4
ENDBRANCH   2   3
ENDBRANCH   1   2
BRANCH   1  58
ATOM     58  C   UNL A   1      36.279  22.973  25.251  1.00  0.00     0.116 C 
BRANCH  58  59
ATOM     59  N   UNL A   1      35.772  23.219  23.922  1.00  0.00    -0.352 N 
ATOM     60  C   UNL A   1      34.460  23.432  23.548  1.00  0.00     0.253 C 
ATOM     61  H   UNL A   1      36.438  23.237  23.197  1.00  0.00     0.163 HD
ATOM     62  O   UNL A   1      34.227  23.763  22.385  1.00  0.00    -0.269 OA
BRANCH  60  63
ATOM     63  C   UNL A   1      33.321  23.162  24.476  1.00  0.00     0.065 A 
ATOM     64  C   UNL A   1      33.044  24.237  25.339  1.00  0.00     0.042 A 
ATOM     65  C   UNL A   1      32.549  21.988  24.540  1.00  0.00     0.050 A 
ATOM     66  C   UNL A   1      31.913  24.261  26.151  1.00  0.00     0.042 A 
ATOM     67  C   UNL A   1      31.445  22.003  25.418  1.00  0.00     0.029 A 
ATOM     68  C   UNL A   1      31.125  23.116  26.203  1.00  0.00     0.028 A 
BRANCH  65  69
ATOM     69  N   UNL A   1      32.861  20.792  23.906  1.00  0.00    -0.370 N 
ATOM     70  C   UNL A   1      32.176  20.413  22.664  1.00  0.00     0.116 C 
ATOM     71  C   UNL A   1      34.051  20.067  24.354  1.00  0.00     0.126 C 
ATOM     72  C   UNL A   1      32.078  18.902  22.503  1.00  0.00     0.022 C 
ATOM     73  C   UNL A   1      33.809  18.556  24.317  1.00  0.00     0.064 C 
ATOM     74  C   UNL A   1      33.376  18.199  22.890  1.00  0.00     0.013 C 
BRANCH  73  75
ATOM     75  C   UNL A   1      32.823  18.167  25.452  1.00  0.00     0.267 C 
BRANCH  75  76
ATOM     76  N   UNL A   1      33.038  16.933  26.213  1.00  0.00    -0.335 N 
ATOM     77  C   UNL A   1      34.291  16.241  25.918  1.00  0.00     0.262 C 
ATOM     78  C   UNL A   1      31.966  15.945  26.165  1.00  0.00     0.262 C 
ATOM     79  H   UNL A   1      33.069  17.321  27.155  1.00  0.00     0.348 HD
ATOM     80  C   UNL A   1      33.910  15.115  24.979  1.00  0.00     0.067 C 
ATOM     81  C   UNL A   1      32.507  14.733  25.414  1.00  0.00     0.067 C 
ENDBRANCH  75  76
ENDBRANCH  73  75
ENDBRANCH  65  69
BRANCH  66  82
ATOM     82  N   UNL A   1      31.504  25.375  26.910  1.00  0.00    -0.322 N 
ATOM     83  C   UNL A   1      31.232  26.678  26.540  1.00  0.00     0.257 C 
ATOM     84  H   UNL A   1      31.391  25.193  27.872  1.00  0.00     0.170 HD
ATOM     85  O   UNL A   1      31.005  27.537  27.389  1.00  0.00    -0.269 OA
BRANCH  83  86
ATOM     86  C   UNL A   1      31.200  27.066  25.119  1.00  0.00     0.058 A 
ATOM     87  C   UNL A   1      30.005  26.827  24.425  1.00  0.00     0.015 A 
ATOM     88  C   UNL A   1      32.246  27.770  24.509  1.00  0.00     0.053 A 
ATOM     89  C   UNL A   1      29.821  27.380  23.157  1.00  0.00     0.001 A 
ATOM     90  C   UNL A   1      32.048  28.328  23.243  1.00  0.00     0.021 A 
ATOM     91  Cl  UNL A   1      33.769  28.035  25.280  1.00  0.00    -0.083 Cl
ATOM     92  C   UNL A   1      30.831  28.150  22.579  1.00  0.00     0.002 A 
ENDBRANCH  83  86
ENDBRANCH  66  82
ENDBRANCH  60  63
ENDBRANCH  58  59
ENDBRANCH   1  58
TORSDOF 16
ENDMDL
MODEL 2
REMARK VINA RESULT:     -11.8      0.433      5.541
REMARK SMILES O=C(NCCCCNC(=O)c1cc(NC(=O)c2ccccc2Cl)ccc1N1CCC[C@H](C[NH+]2CCCC2)C1)c1ccc(-c2c3nc(c(-c4ccccc4)c4ccc([nH]4)c(-c4ccccc4)c4nc(c(-c5ccccc5)c5ccc2[nH]5)C=C4)C=C3)cc1
REMARK SMILES IDX 6 1 5 2 4 3 3 4 1 5 2 6 39 8 40 9 86 10 41 11 85 12 42 13
REMARK SMILES IDX 43 14 44 15 79 16 45 17 84 18 78 19 80 20 46 21 83 22 77 23
REMARK SMILES IDX 76 24 47 26 69 27 54 28 68 29 55 30 58 31 67 32 81 33 56 34
REMARK SMILES IDX 57 35 66 37 82 38 59 39 48 40 49 41 53 42 50 43 52 44 51 45
REMARK SMILES IDX 70 46 71 47 75 48 72 49 74 50 73 51 60 52 61 53 65 54 62 55
REMARK SMILES IDX 64 56 63 57 7 58 8 59 9 60 10 62 11 63 12 64 26 65 13 66
REMARK SMILES IDX 25 67 24 68 27 69 28 70 38 71 29 72 31 73 30 74 32 75 33 76
REMARK SMILES IDX 34 77 37 78 35 80 36 81 14 82 15 83 16 85 17 86 18 87 22 88
REMARK SMILES IDX 19 89 21 90 23 91 20 92
REMARK H PARENT 3 7 80 25 58 36 8 61 33 79 14 84
REMARK Flexibility Score: inf
ROOT
ATOM      1  C   UNL A   1      37.811  22.626  25.487  1.00  0.00     0.023 C 
ENDROOT
BRANCH   1   2
ATOM      2  C   UNL A   1      38.350  21.280  24.991  1.00  0.00     0.023 C 
BRANCH   2   3
ATOM      3  C   UNL A   1      38.497  20.174  26.035  1.00  0.00     0.116 C 
BRANCH   3   4
ATOM      4  N   UNL A   1      39.669  19.336  25.835  1.00  0.00    -0.352 N 
ATOM      5  O   UNL A   1      41.852  18.800  25.668  1.00  0.00    -0.269 OA
ATOM      6  C   UNL A   1      41.007  19.620  26.002  1.00  0.00     0.251 C 
ATOM      7  H   UNL A   1      39.476  18.419  25.534  1.00  0.00     0.163 HD
BRANCH   6   8
ATOM      8  C   UNL A   1      41.433  20.928  26.550  1.00  0.00     0.039 A 
ATOM      9  C   UNL A   1      41.300  21.226  27.908  1.00  0.00     0.014 A 
ATOM     10  C   UNL A   1      42.000  21.866  25.682  1.00  0.00     0.014 A 
ATOM     11  C   UNL A   1      41.591  22.507  28.371  1.00  0.00     0.010 A 
ATOM     12  C   UNL A   1      42.362  23.127  26.163  1.00  0.00     0.010 A 
ATOM     13  C   UNL A   1      42.126  23.472  27.503  1.00  0.00    -0.014 A 
BRANCH  13  14
ATOM     14  C   UNL A   1      42.474  24.828  28.002  1.00  0.00     0.031 A 
ATOM     15  C   UNL A   1      43.870  25.142  28.460  1.00  0.00     0.074 A 
ATOM     16  C   UNL A   1      41.515  25.769  28.079  1.00  0.00     0.049 A 
ATOM     17  N   UNL A   1      44.332  26.237  29.011  1.00  0.00    -0.248 NA
ATOM     18  C   UNL A   1      44.878  24.086  28.284  1.00  0.00     0.031 C 
ATOM     19  C   UNL A   1      40.124  25.594  27.660  1.00  0.00     0.029 A 
ATOM     20  N   UNL A   1      41.563  27.056  28.552  1.00  0.00    -0.354 N 
ATOM     21  C   UNL A   1      45.674  25.992  29.275  1.00  0.00     0.074 A 
ATOM     22  C   UNL A   1      45.946  24.638  28.843  1.00  0.00     0.031 C 
ATOM     23  C   UNL A   1      39.451  26.730  27.890  1.00  0.00     0.029 A 
ATOM     24  C   UNL A   1      40.344  27.689  28.532  1.00  0.00     0.049 A 
ATOM     25  H   UNL A   1      42.389  27.484  28.875  1.00  0.00     0.167 HD
ATOM     26  C   UNL A   1      46.595  26.819  29.829  1.00  0.00     0.031 A 
ATOM     27  C   UNL A   1      39.969  28.890  29.012  1.00  0.00     0.031 A 
ATOM     28  C   UNL A   1      46.314  28.160  30.272  1.00  0.00     0.049 A 
ATOM     29  C   UNL A   1      40.988  29.769  29.676  1.00  0.00     0.074 A 
ATOM     30  C   UNL A   1      47.187  29.090  30.812  1.00  0.00     0.029 A 
ATOM     31  N   UNL A   1      45.062  28.757  30.242  1.00  0.00    -0.354 N 
ATOM     32  N   UNL A   1      42.262  29.539  29.883  1.00  0.00    -0.248 NA
ATOM     33  C   UNL A   1      40.521  31.072  30.167  1.00  0.00     0.031 C 
ATOM     34  C   UNL A   1      46.450  30.223  31.171  1.00  0.00     0.029 A 
ATOM     35  C   UNL A   1      45.133  30.029  30.787  1.00  0.00     0.049 A 
ATOM     36  H   UNL A   1      44.245  28.340  29.887  1.00  0.00     0.167 HD
ATOM     37  C   UNL A   1      42.757  30.680  30.502  1.00  0.00     0.074 A 
ATOM     38  C   UNL A   1      41.645  31.600  30.634  1.00  0.00     0.031 C 
ATOM     39  C   UNL A   1      44.022  30.939  30.912  1.00  0.00     0.031 A 
BRANCH  26  40
ATOM     40  C   UNL A   1      47.982  26.270  30.037  1.00  0.00    -0.014 A 
ATOM     41  C   UNL A   1      48.932  26.253  29.003  1.00  0.00     0.009 A 
ATOM     42  C   UNL A   1      48.347  25.772  31.298  1.00  0.00     0.009 A 
ATOM     43  C   UNL A   1      50.197  25.699  29.213  1.00  0.00     0.001 A 
ATOM     44  C   UNL A   1      49.625  25.250  31.514  1.00  0.00     0.001 A 
ATOM     45  C   UNL A   1      50.543  25.200  30.468  1.00  0.00     0.000 A 
ENDBRANCH  26  40
BRANCH  27  46
ATOM     46  C   UNL A   1      38.547  29.301  28.894  1.00  0.00    -0.014 A 
ATOM     47  C   UNL A   1      38.041  29.792  27.682  1.00  0.00     0.009 A 
ATOM     48  C   UNL A   1      37.673  29.148  29.983  1.00  0.00     0.009 A 
ATOM     49  C   UNL A   1      36.691  30.127  27.565  1.00  0.00     0.001 A 
ATOM     50  C   UNL A   1      36.318  29.455  29.855  1.00  0.00     0.001 A 
ATOM     51  C   UNL A   1      35.829  29.949  28.648  1.00  0.00     0.000 A 
ENDBRANCH  27  46
BRANCH  39  52
ATOM     52  C   UNL A   1      44.298  32.295  31.502  1.00  0.00    -0.014 A 
ATOM     53  C   UNL A   1      44.638  33.392  30.696  1.00  0.00     0.009 A 
ATOM     54  C   UNL A   1      44.133  32.490  32.883  1.00  0.00     0.009 A 
ATOM     55  C   UNL A   1      44.822  34.654  31.266  1.00  0.00     0.001 A 
ATOM     56  C   UNL A   1      44.290  33.757  33.445  1.00  0.00     0.001 A 
ATOM     57  C   UNL A   1      44.639  34.837  32.637  1.00  0.00     0.000 A 
ENDBRANCH  39  52
ENDBRANCH  13  14
ENDBRANCH   6   8
ENDBRANCH   3   4
ENDBRANCH   2   3
ENDBRANCH   1   2
BRANCH   1  58
ATOM     58  C   UNL A   1      36.306  22.826  25.344  1.00  0.00     0.116 C 
BRANCH  58  59
ATOM     59  N   UNL A   1      35.832  23.102  24.009  1.00  0.00    -0.352 N 
ATOM     60  C   UNL A   1      34.534  23.354  23.612  1.00  0.00     0.253 C 
ATOM     61  H   UNL A   1      36.514  23.112  23.298  1.00  0.00     0.163 HD
ATOM     62  O   UNL A   1      34.333  23.706  22.449  1.00  0.00    -0.269 OA
BRANCH  60  63
ATOM     63  C   UNL A   1      33.371  23.102  24.513  1.00  0.00     0.065 A 
ATOM     64  C   UNL A   1      33.102  24.173  25.384  1.00  0.00     0.042 A 
ATOM     65  C   UNL A   1      32.568  21.947  24.547  1.00  0.00     0.050 A 
ATOM     66  C   UNL A   1      31.955  24.215  26.172  1.00  0.00     0.042 A 
ATOM     67  C   UNL A   1      31.447  21.979  25.403  1.00  0.00     0.029 A 
ATOM     68  C   UNL A   1      31.139  23.091  26.194  1.00  0.00     0.028 A 
BRANCH  65  69
ATOM     69  N   UNL A   1      32.863  20.751  23.905  1.00  0.00    -0.370 N 
ATOM     70  C   UNL A   1      32.166  20.385  22.666  1.00  0.00     0.116 C 
ATOM     71  C   UNL A   1      34.049  20.012  24.341  1.00  0.00     0.126 C 
ATOM     72  C   UNL A   1      32.051  18.876  22.498  1.00  0.00     0.022 C 
ATOM     73  C   UNL A   1      33.790  18.503  24.299  1.00  0.00     0.064 C 
ATOM     74  C   UNL A   1      33.344  18.158  22.872  1.00  0.00     0.013 C 
BRANCH  73  75
ATOM     75  C   UNL A   1      32.809  18.119  25.438  1.00  0.00     0.267 C 
BRANCH  75  76
ATOM     76  N   UNL A   1      33.034  16.894  26.211  1.00  0.00    -0.335 N 
ATOM     77  C   UNL A   1      34.291  16.208  25.923  1.00  0.00     0.262 C 
ATOM     78  C   UNL A   1      31.969  15.897  26.174  1.00  0.00     0.262 C 
ATOM     79  H   UNL A   1      33.062  17.291  27.150  1.00  0.00     0.348 HD
ATOM     80  C   UNL A   1      33.919  15.070  24.996  1.00  0.00     0.067 C 
ATOM     81  C   UNL A   1      32.518  14.682  25.435  1.00  0.00     0.067 C 
ENDBRANCH  75  76
ENDBRANCH  73  75
ENDBRANCH  65  69
BRANCH  66  82
ATOM     82  N   UNL A   1      31.559  25.331  26.937  1.00  0.00    -0.322 N 
ATOM     83  C   UNL A   1      31.243  26.624  26.564  1.00  0.00     0.257 C 
ATOM     84  H   UNL A   1      31.495  25.159  27.904  1.00  0.00     0.170 HD
ATOM     85  O   UNL A   1      31.037  27.488  27.413  1.00  0.00    -0.269 OA
BRANCH  83  86
ATOM     86  C   UNL A   1      31.136  26.992  25.142  1.00  0.00     0.058 A 
ATOM     87  C   UNL A   1      29.907  26.743  24.514  1.00  0.00     0.015 A 
ATOM     88  C   UNL A   1      32.149  27.689  24.469  1.00  0.00     0.053 A 
ATOM     89  C   UNL A   1      29.657  27.279  23.250  1.00  0.00     0.001 A 
ATOM     90  C   UNL A   1      31.884  28.230  23.207  1.00  0.00     0.021 A 
ATOM     91  Cl  UNL A   1      33.709  27.965  25.156  1.00  0.00    -0.083 Cl
ATOM     92  C   UNL A   1      30.635  28.042  22.611  1.00  0.00     0.002 A 
ENDBRANCH  83  86
ENDBRANCH  66  82
ENDBRANCH  60  63
ENDBRANCH  58  59
ENDBRANCH   1  58
TORSDOF 16
ENDMDL
MODEL 3
REMARK VINA RESULT:     -11.6      3.485      9.318
REMARK SMILES O=C(NCCCCNC(=O)c1cc(NC(=O)c2ccccc2Cl)ccc1N1CCC[C@H](C[NH+]2CCCC2)C1)c1ccc(-c2c3nc(c(-c4ccccc4)c4ccc([nH]4)c(-c4ccccc4)c4nc(c(-c5ccccc5)c5ccc2[nH]5)C=C4)C=C3)cc1
REMARK SMILES IDX 6 1 5 2 4 3 3 4 1 5 2 6 39 8 40 9 86 10 41 11 85 12 42 13
REMARK SMILES IDX 43 14 44 15 79 16 45 17 84 18 78 19 80 20 46 21 83 22 77 23
REMARK SMILES IDX 76 24 47 26 69 27 54 28 68 29 55 30 58 31 67 32 81 33 56 34
REMARK SMILES IDX 57 35 66 37 82 38 59 39 48 40 49 41 53 42 50 43 52 44 51 45
REMARK SMILES IDX 70 46 71 47 75 48 72 49 74 50 73 51 60 52 61 53 65 54 62 55
REMARK SMILES IDX 64 56 63 57 7 58 8 59 9 60 10 62 11 63 12 64 26 65 13 66
REMARK SMILES IDX 25 67 24 68 27 69 28 70 38 71 29 72 31 73 30 74 32 75 33 76
REMARK SMILES IDX 34 77 37 78 35 80 36 81 14 82 15 83 16 85 17 86 18 87 22 88
REMARK SMILES IDX 19 89 21 90 23 91 20 92
REMARK H PARENT 3 7 80 25 58 36 8 61 33 79 14 84
REMARK Flexibility Score: inf
ROOT
ATOM      1  C   UNL A   1      32.369  28.404  27.585  1.00  0.00     0.023 C 
ENDROOT
BRANCH   1   2
ATOM      2  C   UNL A   1      31.780  29.699  27.015  1.00  0.00     0.023 C 
BRANCH   2   3
ATOM      3  C   UNL A   1      32.777  30.774  26.585  1.00  0.00     0.116 C 
BRANCH   3   4
ATOM      4  N   UNL A   1      32.363  32.125  26.934  1.00  0.00    -0.352 N 
ATOM      5  O   UNL A   1      32.393  34.111  27.998  1.00  0.00    -0.269 OA
ATOM      6  C   UNL A   1      32.969  33.061  27.743  1.00  0.00     0.251 C 
ATOM      7  H   UNL A   1      31.517  32.417  26.525  1.00  0.00     0.163 HD
BRANCH   6   8
ATOM      8  C   UNL A   1      34.298  32.792  28.337  1.00  0.00     0.039 A 
ATOM      9  C   UNL A   1      35.451  33.411  27.849  1.00  0.00     0.014 A 
ATOM     10  C   UNL A   1      34.382  31.916  29.422  1.00  0.00     0.014 A 
ATOM     11  C   UNL A   1      36.701  33.043  28.344  1.00  0.00     0.010 A 
ATOM     12  C   UNL A   1      35.631  31.604  29.968  1.00  0.00     0.010 A 
ATOM     13  C   UNL A   1      36.804  32.136  29.409  1.00  0.00    -0.014 A 
BRANCH  13  14
ATOM     14  C   UNL A   1      38.132  31.769  29.964  1.00  0.00     0.031 A 
ATOM     15  C   UNL A   1      38.908  30.613  29.399  1.00  0.00     0.074 A 
ATOM     16  C   UNL A   1      38.624  32.459  31.010  1.00  0.00     0.049 A 
ATOM     17  N   UNL A   1      40.035  30.092  29.816  1.00  0.00    -0.248 NA
ATOM     18  C   UNL A   1      38.340  29.950  28.215  1.00  0.00     0.031 C 
ATOM     19  C   UNL A   1      37.974  33.606  31.646  1.00  0.00     0.029 A 
ATOM     20  N   UNL A   1      39.777  32.284  31.733  1.00  0.00    -0.354 N 
ATOM     21  C   UNL A   1      40.295  29.023  28.967  1.00  0.00     0.074 A 
ATOM     22  C   UNL A   1      39.198  28.958  28.025  1.00  0.00     0.031 C 
ATOM     23  C   UNL A   1      38.739  34.036  32.660  1.00  0.00     0.029 A 
ATOM     24  C   UNL A   1      39.896  33.156  32.788  1.00  0.00     0.049 A 
ATOM     25  H   UNL A   1      40.453  31.602  31.517  1.00  0.00     0.167 HD
ATOM     26  C   UNL A   1      41.351  28.172  28.973  1.00  0.00     0.031 A 
ATOM     27  C   UNL A   1      40.808  33.221  33.775  1.00  0.00     0.031 A 
ATOM     28  C   UNL A   1      42.433  28.231  29.923  1.00  0.00     0.049 A 
ATOM     29  C   UNL A   1      41.938  32.234  33.802  1.00  0.00     0.074 A 
ATOM     30  C   UNL A   1      43.566  27.439  29.990  1.00  0.00     0.029 A 
ATOM     31  N   UNL A   1      42.506  29.125  30.982  1.00  0.00    -0.354 N 
ATOM     32  N   UNL A   1      42.192  31.254  32.970  1.00  0.00    -0.248 NA
ATOM     33  C   UNL A   1      42.908  32.365  34.897  1.00  0.00     0.031 C 
ATOM     34  C   UNL A   1      44.290  27.808  31.128  1.00  0.00     0.029 A 
ATOM     35  C   UNL A   1      43.647  28.879  31.728  1.00  0.00     0.049 A 
ATOM     36  H   UNL A   1      41.846  29.828  31.175  1.00  0.00     0.167 HD
ATOM     37  C   UNL A   1      43.367  30.668  33.422  1.00  0.00     0.074 A 
ATOM     38  C   UNL A   1      43.775  31.405  34.601  1.00  0.00     0.031 C 
ATOM     39  C   UNL A   1      44.047  29.619  32.898  1.00  0.00     0.031 A 
BRANCH  26  40
ATOM     40  C   UNL A   1      41.355  27.067  27.950  1.00  0.00    -0.014 A 
ATOM     41  C   UNL A   1      40.818  25.799  28.229  1.00  0.00     0.009 A 
ATOM     42  C   UNL A   1      41.899  27.304  26.677  1.00  0.00     0.009 A 
ATOM     43  C   UNL A   1      40.874  24.780  27.275  1.00  0.00     0.001 A 
ATOM     44  C   UNL A   1      41.922  26.293  25.714  1.00  0.00     0.001 A 
ATOM     45  C   UNL A   1      41.424  25.028  26.019  1.00  0.00     0.000 A 
ENDBRANCH  26  40
BRANCH  27  46
ATOM     46  C   UNL A   1      40.655  34.255  34.831  1.00  0.00    -0.014 A 
ATOM     47  C   UNL A   1      41.213  35.532  34.669  1.00  0.00     0.009 A 
ATOM     48  C   UNL A   1      39.898  33.985  35.983  1.00  0.00     0.009 A 
ATOM     49  C   UNL A   1      41.019  36.514  35.643  1.00  0.00     0.001 A 
ATOM     50  C   UNL A   1      39.681  34.977  36.940  1.00  0.00     0.001 A 
ATOM     51  C   UNL A   1      40.246  36.239  36.771  1.00  0.00     0.000 A 
ENDBRANCH  27  46
BRANCH  39  52
ATOM     52  C   UNL A   1      45.339  29.227  33.560  1.00  0.00    -0.014 A 
ATOM     53  C   UNL A   1      45.384  28.244  34.561  1.00  0.00     0.009 A 
ATOM     54  C   UNL A   1      46.541  29.798  33.113  1.00  0.00     0.009 A 
ATOM     55  C   UNL A   1      46.608  27.853  35.109  1.00  0.00     0.001 A 
ATOM     56  C   UNL A   1      47.764  29.384  33.642  1.00  0.00     0.001 A 
ATOM     57  C   UNL A   1      47.796  28.416  34.644  1.00  0.00     0.000 A 
ENDBRANCH  39  52
ENDBRANCH  13  14
ENDBRANCH   6   8
ENDBRANCH   3   4
ENDBRANCH   2   3
ENDBRANCH   1   2
BRANCH   1  58
ATOM     58  C   UNL A   1      32.097  27.143  26.774  1.00  0.00     0.116 C 
BRANCH  58  59
ATOM     59  N   UNL A   1      30.722  26.929  26.386  1.00  0.00    -0.352 N 
ATOM     60  C   UNL A   1      30.216  25.904  25.613  1.00  0.00     0.253 C 
ATOM     61  H   UNL A   1      30.070  27.592  26.711  1.00  0.00     0.163 HD
ATOM     62  O   UNL A   1      28.994  25.804  25.497  1.00  0.00    -0.269 OA
BRANCH  60  63
ATOM     63  C   UNL A   1      31.104  24.995  24.829  1.00  0.00     0.065 A 
ATOM     64  C   UNL A   1      31.173  23.695  25.360  1.00  0.00     0.042 A 
ATOM     65  C   UNL A   1      31.825  25.321  23.665  1.00  0.00     0.050 A 
ATOM     66  C   UNL A   1      31.796  22.651  24.681  1.00  0.00     0.042 A 
ATOM     67  C   UNL A   1      32.507  24.266  23.025  1.00  0.00     0.029 A 
ATOM     68  C   UNL A   1      32.489  22.954  23.515  1.00  0.00     0.028 A 
BRANCH  65  69
ATOM     69  N   UNL A   1      32.013  26.609  23.178  1.00  0.00    -0.370 N 
ATOM     70  C   UNL A   1      33.222  27.363  23.529  1.00  0.00     0.116 C 
ATOM     71  C   UNL A   1      31.120  27.079  22.117  1.00  0.00     0.126 C 
ATOM     72  C   UNL A   1      32.975  28.865  23.549  1.00  0.00     0.022 C 
ATOM     73  C   UNL A   1      30.790  28.562  22.308  1.00  0.00     0.064 C 
ATOM     74  C   UNL A   1      32.121  29.321  22.369  1.00  0.00     0.013 C 
BRANCH  73  75
ATOM     75  C   UNL A   1      29.849  28.724  23.531  1.00  0.00     0.267 C 
BRANCH  75  76
ATOM     76  N   UNL A   1      28.767  29.713  23.492  1.00  0.00    -0.335 N 
ATOM     77  C   UNL A   1      27.800  29.523  22.415  1.00  0.00     0.262 C 
ATOM     78  C   UNL A   1      29.170  31.116  23.482  1.00  0.00     0.262 C 
ATOM     79  H   UNL A   1      28.330  29.517  24.392  1.00  0.00     0.348 HD
ATOM     80  C   UNL A   1      28.198  30.517  21.344  1.00  0.00     0.067 C 
ATOM     81  C   UNL A   1      28.776  31.684  22.124  1.00  0.00     0.067 C 
ENDBRANCH  75  76
ENDBRANCH  73  75
ENDBRANCH  65  69
BRANCH  66  82
ATOM     82  N   UNL A   1      31.755  21.302  25.088  1.00  0.00    -0.322 N 
ATOM     83  C   UNL A   1      32.757  20.444  25.498  1.00  0.00     0.257 C 
ATOM     84  H   UNL A   1      30.854  20.902  25.081  1.00  0.00     0.170 HD
ATOM     85  O   UNL A   1      32.522  19.255  25.696  1.00  0.00    -0.269 OA
BRANCH  83  86
ATOM     86  C   UNL A   1      34.128  20.938  25.715  1.00  0.00     0.058 A 
ATOM     87  C   UNL A   1      35.092  20.566  24.766  1.00  0.00     0.015 A 
ATOM     88  C   UNL A   1      34.446  21.850  26.731  1.00  0.00     0.053 A 
ATOM     89  C   UNL A   1      36.343  21.185  24.776  1.00  0.00     0.001 A 
ATOM     90  C   UNL A   1      35.698  22.471  26.724  1.00  0.00     0.021 A 
ATOM     91  Cl  UNL A   1      33.330  22.293  27.972  1.00  0.00    -0.083 Cl
ATOM     92  C   UNL A   1      36.635  22.153  25.737  1.00  0.00     0.002 A 
ENDBRANCH  83  86
ENDBRANCH  66  82
ENDBRANCH  60  63
ENDBRANCH  58  59
ENDBRANCH   1  58
TORSDOF 16
ENDMDL
