MODEL 1
REMARK VINA RESULT:     -10.8      0.000      0.000
REMARK SMILES CC(C)(C[N@H+]1C[C@@H]2C[NH2+]C[C@H]2C1(C)C)C(=O)NCCCCNC(=O)c1ccc(-c2c3nc(c(-c4ccccc4)c4ccc([nH]4)c(-c4ccccc4)c4nc(c(-c5ccccc5)c5ccc2[nH]5)C=C4)C=C3)cc1
REMARK SMILES IDX 19 1 18 2 17 3 15 4 16 5 2 7 1 8 3 9 4 10 5 11 6 12 12 13
REMARK SMILES IDX 7 15 11 16 13 17 14 18 8 19 10 20 9 21 20 24 21 25 22 26
REMARK SMILES IDX 23 27 24 29 25 30 26 31 72 32 27 33 71 34 28 35 29 36 30 37
REMARK SMILES IDX 65 38 31 39 70 40 64 41 66 42 32 43 69 44 63 45 62 46 33 48
REMARK SMILES IDX 55 49 40 50 54 51 41 52 44 53 53 54 67 55 42 56 43 57 52 59
REMARK SMILES IDX 68 60 45 61 34 62 35 63 39 64 36 65 38 66 37 67 56 68 57 69
REMARK SMILES IDX 61 70 58 71 60 72 59 73 46 74 47 75 51 76 48 77 50 78 49 79
REMARK H PARENT 17 6 5 14 9 22 9 23 22 28 66 47 44 58
REMARK Flexibility Score: inf
ROOT
ATOM      1  C   UNL A   1      37.000  20.992  24.418  1.00  0.00     0.023 C 
ENDROOT
BRANCH   1   2
ATOM      2  C   UNL A   1      36.714  22.116  25.411  1.00  0.00     0.116 C 
BRANCH   2   3
ATOM      3  N   UNL A   1      35.787  21.737  26.462  1.00  0.00    -0.355 N 
ATOM      4  C   UNL A   1      34.448  21.923  26.642  1.00  0.00     0.231 C 
ATOM      5  O   UNL A   1      33.979  21.403  27.661  1.00  0.00    -0.274 OA
ATOM      6  H   UNL A   1      36.213  21.243  27.199  1.00  0.00     0.163 HD
BRANCH   4   7
ATOM      7  C   UNL A   1      33.555  22.708  25.661  1.00  0.00     0.092 C 
ATOM      8  C   UNL A   1      32.116  22.791  26.224  1.00  0.00     0.027 C 
ATOM      9  C   UNL A   1      33.441  21.886  24.355  1.00  0.00     0.027 C 
BRANCH   7  10
ATOM     10  C   UNL A   1      34.061  24.154  25.363  1.00  0.00     0.279 C 
BRANCH  10  11
ATOM     11  N   UNL A   1      33.095  25.263  25.258  1.00  0.00    -0.329 N 
ATOM     12  C   UNL A   1      33.359  26.473  26.082  1.00  0.00     0.272 C 
ATOM     13  C   UNL A   1      32.755  25.712  23.851  1.00  0.00     0.101 C 
ATOM     14  H   UNL A   1      32.287  24.790  25.661  1.00  0.00     0.348 HD
ATOM     15  C   UNL A   1      33.644  27.529  25.057  1.00  0.00     0.114 C 
ATOM     16  C   UNL A   1      32.603  27.228  24.017  1.00  0.00     0.119 C 
ATOM     17  C   UNL A   1      33.773  25.345  22.755  1.00  0.00     0.079 C 
ATOM     18  C   UNL A   1      31.400  25.090  23.478  1.00  0.00     0.079 C 
ATOM     19  C   UNL A   1      33.458  29.005  25.256  1.00  0.00     0.270 C 
ATOM     20  C   UNL A   1      32.944  28.302  23.009  1.00  0.00     0.271 C 
ATOM     21  N   UNL A   1      33.287  29.482  23.856  1.00  0.00    -0.345 N 
ATOM     22  H   UNL A   1      34.154  29.905  23.526  1.00  0.00     0.346 HD
ATOM     23  H   UNL A   1      32.547  30.181  23.807  1.00  0.00     0.346 HD
ENDBRANCH  10  11
ENDBRANCH   7  10
ENDBRANCH   4   7
ENDBRANCH   2   3
ENDBRANCH   1   2
BRANCH   1  24
ATOM     24  C   UNL A   1      37.855  19.846  24.945  1.00  0.00     0.023 C 
BRANCH  24  25
ATOM     25  C   UNL A   1      39.016  20.289  25.820  1.00  0.00     0.116 C 
BRANCH  25  26
ATOM     26  N   UNL A   1      40.127  19.347  25.798  1.00  0.00    -0.352 N 
ATOM     27  C   UNL A   1      41.453  19.567  26.067  1.00  0.00     0.251 C 
ATOM     28  H   UNL A   1      39.892  18.421  25.555  1.00  0.00     0.163 HD
ATOM     29  O   UNL A   1      42.284  18.688  25.858  1.00  0.00    -0.269 OA
BRANCH  27  30
ATOM     30  C   UNL A   1      41.875  20.880  26.588  1.00  0.00     0.039 A 
ATOM     31  C   UNL A   1      42.317  21.853  25.689  1.00  0.00     0.014 A 
ATOM     32  C   UNL A   1      41.809  21.154  27.956  1.00  0.00     0.014 A 
ATOM     33  C   UNL A   1      42.638  23.126  26.159  1.00  0.00     0.010 A 
ATOM     34  C   UNL A   1      42.046  22.444  28.410  1.00  0.00     0.010 A 
ATOM     35  C   UNL A   1      42.472  23.440  27.519  1.00  0.00    -0.014 A 
BRANCH  35  36
ATOM     36  C   UNL A   1      42.750  24.801  28.034  1.00  0.00     0.031 A 
ATOM     37  C   UNL A   1      44.148  25.177  28.440  1.00  0.00     0.074 A 
ATOM     38  C   UNL A   1      41.736  25.673  28.193  1.00  0.00     0.049 A 
ATOM     39  N   UNL A   1      44.581  26.294  28.967  1.00  0.00    -0.248 NA
ATOM     40  C   UNL A   1      45.191  24.155  28.256  1.00  0.00     0.031 C 
ATOM     41  C   UNL A   1      40.331  25.411  27.873  1.00  0.00     0.029 A 
ATOM     42  N   UNL A   1      41.734  26.959  28.671  1.00  0.00    -0.354 N 
ATOM     43  C   UNL A   1      45.938  26.100  29.194  1.00  0.00     0.074 A 
ATOM     44  C   UNL A   1      46.245  24.743  28.800  1.00  0.00     0.031 C 
ATOM     45  C   UNL A   1      39.609  26.513  28.134  1.00  0.00     0.029 A 
ATOM     46  C   UNL A   1      40.489  27.540  28.679  1.00  0.00     0.049 A 
ATOM     47  H   UNL A   1      42.546  27.422  28.979  1.00  0.00     0.167 HD
ATOM     48  C   UNL A   1      46.852  26.980  29.664  1.00  0.00     0.031 A 
ATOM     49  C   UNL A   1      40.101  28.763  29.089  1.00  0.00     0.031 A 
ATOM     50  C   UNL A   1      46.545  28.333  30.045  1.00  0.00     0.049 A 
ATOM     51  C   UNL A   1      41.132  29.715  29.626  1.00  0.00     0.074 A 
ATOM     52  C   UNL A   1      47.408  29.322  30.482  1.00  0.00     0.029 A 
ATOM     53  N   UNL A   1      45.273  28.884  30.034  1.00  0.00    -0.354 N 
ATOM     54  N   UNL A   1      42.424  29.541  29.766  1.00  0.00    -0.248 NA
ATOM     55  C   UNL A   1      40.652  31.036  30.052  1.00  0.00     0.031 C 
ATOM     56  C   UNL A   1      46.650  30.456  30.790  1.00  0.00     0.029 A 
ATOM     57  C   UNL A   1      45.324  30.192  30.484  1.00  0.00     0.049 A 
ATOM     58  H   UNL A   1      44.455  28.415  29.751  1.00  0.00     0.167 HD
ATOM     59  C   UNL A   1      42.915  30.741  30.267  1.00  0.00     0.074 A 
ATOM     60  C   UNL A   1      41.784  31.637  30.389  1.00  0.00     0.031 C 
ATOM     61  C   UNL A   1      44.188  31.070  30.597  1.00  0.00     0.031 A 
BRANCH  48  62
ATOM     62  C   UNL A   1      48.271  26.501  29.798  1.00  0.00    -0.014 A 
ATOM     63  C   UNL A   1      49.204  26.685  28.764  1.00  0.00     0.009 A 
ATOM     64  C   UNL A   1      48.691  25.884  30.987  1.00  0.00     0.009 A 
ATOM     65  C   UNL A   1      50.515  26.227  28.903  1.00  0.00     0.001 A 
ATOM     66  C   UNL A   1      50.011  25.456  31.136  1.00  0.00     0.001 A 
ATOM     67  C   UNL A   1      50.919  25.618  30.090  1.00  0.00     0.000 A 
ENDBRANCH  48  62
BRANCH  49  68
ATOM     68  C   UNL A   1      38.672  29.164  28.994  1.00  0.00    -0.014 A 
ATOM     69  C   UNL A   1      38.166  29.722  27.809  1.00  0.00     0.009 A 
ATOM     70  C   UNL A   1      37.809  29.005  30.089  1.00  0.00     0.009 A 
ATOM     71  C   UNL A   1      36.836  30.141  27.735  1.00  0.00     0.001 A 
ATOM     72  C   UNL A   1      36.471  29.396  30.002  1.00  0.00     0.001 A 
ATOM     73  C   UNL A   1      35.989  29.974  28.830  1.00  0.00     0.000 A 
ENDBRANCH  49  68
BRANCH  61  74
ATOM     74  C   UNL A   1      44.430  32.471  31.085  1.00  0.00    -0.014 A 
ATOM     75  C   UNL A   1      44.413  32.782  32.452  1.00  0.00     0.009 A 
ATOM     76  C   UNL A   1      44.721  33.486  30.159  1.00  0.00     0.009 A 
ATOM     77  C   UNL A   1      44.649  34.090  32.881  1.00  0.00     0.001 A 
ATOM     78  C   UNL A   1      44.989  34.784  30.591  1.00  0.00     0.001 A 
ATOM     79  C   UNL A   1      44.943  35.088  31.951  1.00  0.00     0.000 A 
ENDBRANCH  61  74
ENDBRANCH  35  36
ENDBRANCH  27  30
ENDBRANCH  25  26
ENDBRANCH  24  25
ENDBRANCH   1  24
TORSDOF 13
ENDMDL
MODEL 2
REMARK VINA RESULT:     -10.7      0.405      6.037
REMARK SMILES CC(C)(C[N@H+]1C[C@@H]2C[NH2+]C[C@H]2C1(C)C)C(=O)NCCCCNC(=O)c1ccc(-c2c3nc(c(-c4ccccc4)c4ccc([nH]4)c(-c4ccccc4)c4nc(c(-c5ccccc5)c5ccc2[nH]5)C=C4)C=C3)cc1
REMARK SMILES IDX 19 1 18 2 17 3 15 4 16 5 2 7 1 8 3 9 4 10 5 11 6 12 12 13
REMARK SMILES IDX 7 15 11 16 13 17 14 18 8 19 10 20 9 21 20 24 21 25 22 26
REMARK SMILES IDX 23 27 24 29 25 30 26 31 72 32 27 33 71 34 28 35 29 36 30 37
REMARK SMILES IDX 65 38 31 39 70 40 64 41 66 42 32 43 69 44 63 45 62 46 33 48
REMARK SMILES IDX 55 49 40 50 54 51 41 52 44 53 53 54 67 55 42 56 43 57 52 59
REMARK SMILES IDX 68 60 45 61 34 62 35 63 39 64 36 65 38 66 37 67 56 68 57 69
REMARK SMILES IDX 61 70 58 71 60 72 59 73 46 74 47 75 51 76 48 77 50 78 49 79
REMARK H PARENT 17 6 5 14 9 22 9 23 22 28 66 47 44 58
REMARK Flexibility Score: inf
ROOT
ATOM      1  C   UNL A   1      37.035  21.483  24.440  1.00  0.00     0.023 C 
ENDROOT
BRANCH   1   2
ATOM      2  C   UNL A   1      36.696  22.518  25.510  1.00  0.00     0.116 C 
BRANCH   2   3
ATOM      3  N   UNL A   1      35.749  22.038  26.500  1.00  0.00    -0.355 N 
ATOM      4  C   UNL A   1      34.388  22.042  26.573  1.00  0.00     0.231 C 
ATOM      5  O   UNL A   1      33.915  21.485  27.570  1.00  0.00    -0.274 OA
ATOM      6  H   UNL A   1      36.179  21.623  27.282  1.00  0.00     0.163 HD
BRANCH   4   7
ATOM      7  C   UNL A   1      33.476  22.677  25.504  1.00  0.00     0.092 C 
ATOM      8  C   UNL A   1      32.035  22.795  26.055  1.00  0.00     0.027 C 
ATOM      9  C   UNL A   1      33.384  21.695  24.311  1.00  0.00     0.027 C 
BRANCH   7  10
ATOM     10  C   UNL A   1      33.947  24.086  25.026  1.00  0.00     0.279 C 
BRANCH  10  11
ATOM     11  N   UNL A   1      33.017  25.229  25.080  1.00  0.00    -0.329 N 
ATOM     12  C   UNL A   1      33.350  26.330  26.023  1.00  0.00     0.272 C 
ATOM     13  C   UNL A   1      32.645  25.842  23.745  1.00  0.00     0.101 C 
ATOM     14  H   UNL A   1      32.207  24.738  25.459  1.00  0.00     0.348 HD
ATOM     15  C   UNL A   1      33.636  27.486  25.111  1.00  0.00     0.114 C 
ATOM     16  C   UNL A   1      32.550  27.334  24.084  1.00  0.00     0.119 C 
ATOM     17  C   UNL A   1      33.612  25.569  22.579  1.00  0.00     0.079 C 
ATOM     18  C   UNL A   1      31.258  25.307  23.357  1.00  0.00     0.079 C 
ATOM     19  C   UNL A   1      33.507  28.934  25.479  1.00  0.00     0.270 C 
ATOM     20  C   UNL A   1      32.894  28.503  23.189  1.00  0.00     0.271 C 
ATOM     21  N   UNL A   1      33.305  29.570  24.147  1.00  0.00    -0.345 N 
ATOM     22  H   UNL A   1      34.175  30.001  23.834  1.00  0.00     0.346 HD
ATOM     23  H   UNL A   1      32.588  30.292  24.204  1.00  0.00     0.346 HD
ENDBRANCH  10  11
ENDBRANCH   7  10
ENDBRANCH   4   7
ENDBRANCH   2   3
ENDBRANCH   1   2
BRANCH   1  24
ATOM     24  C   UNL A   1      37.774  20.243  24.930  1.00  0.00     0.023 C 
BRANCH  24  25
ATOM     25  C   UNL A   1      38.920  20.540  25.885  1.00  0.00     0.116 C 
BRANCH  25  26
ATOM     26  N   UNL A   1      39.970  19.532  25.831  1.00  0.00    -0.352 N 
ATOM     27  C   UNL A   1      41.312  19.668  26.075  1.00  0.00     0.251 C 
ATOM     28  H   UNL A   1      39.674  18.625  25.583  1.00  0.00     0.163 HD
ATOM     29  O   UNL A   1      42.083  18.742  25.841  1.00  0.00    -0.269 OA
BRANCH  27  30
ATOM     30  C   UNL A   1      41.824  20.946  26.601  1.00  0.00     0.039 A 
ATOM     31  C   UNL A   1      42.278  21.913  25.702  1.00  0.00     0.014 A 
ATOM     32  C   UNL A   1      41.829  21.196  27.976  1.00  0.00     0.014 A 
ATOM     33  C   UNL A   1      42.685  23.158  26.181  1.00  0.00     0.010 A 
ATOM     34  C   UNL A   1      42.151  22.463  28.443  1.00  0.00     0.010 A 
ATOM     35  C   UNL A   1      42.592  23.453  27.552  1.00  0.00    -0.014 A 
BRANCH  35  36
ATOM     36  C   UNL A   1      42.963  24.788  28.079  1.00  0.00     0.031 A 
ATOM     37  C   UNL A   1      41.898  25.824  28.307  1.00  0.00     0.074 A 
ATOM     38  C   UNL A   1      44.259  25.084  28.291  1.00  0.00     0.049 A 
ATOM     39  N   UNL A   1      42.026  27.064  28.704  1.00  0.00    -0.248 NA
ATOM     40  C   UNL A   1      40.509  25.424  28.025  1.00  0.00     0.031 C 
ATOM     41  C   UNL A   1      45.386  24.176  28.068  1.00  0.00     0.029 A 
ATOM     42  N   UNL A   1      44.847  26.240  28.739  1.00  0.00    -0.354 N 
ATOM     43  C   UNL A   1      40.742  27.594  28.701  1.00  0.00     0.074 A 
ATOM     44  C   UNL A   1      39.857  26.562  28.210  1.00  0.00     0.031 C 
ATOM     45  C   UNL A   1      46.526  24.799  28.410  1.00  0.00     0.029 A 
ATOM     46  C   UNL A   1      46.215  26.160  28.833  1.00  0.00     0.049 A 
ATOM     47  H   UNL A   1      44.337  27.049  28.971  1.00  0.00     0.167 HD
ATOM     48  C   UNL A   1      40.331  28.822  29.095  1.00  0.00     0.031 A 
ATOM     49  C   UNL A   1      47.118  27.085  29.210  1.00  0.00     0.031 A 
ATOM     50  C   UNL A   1      41.212  29.844  29.593  1.00  0.00     0.049 A 
ATOM     51  C   UNL A   1      46.638  28.448  29.624  1.00  0.00     0.074 A 
ATOM     52  C   UNL A   1      40.891  31.103  30.069  1.00  0.00     0.029 A 
ATOM     53  N   UNL A   1      42.591  29.722  29.676  1.00  0.00    -0.354 N 
ATOM     54  N   UNL A   1      45.413  28.910  29.684  1.00  0.00    -0.248 NA
ATOM     55  C   UNL A   1      47.667  29.414  30.032  1.00  0.00     0.031 C 
ATOM     56  C   UNL A   1      42.081  31.764  30.388  1.00  0.00     0.029 A 
ATOM     57  C   UNL A   1      43.138  30.894  30.171  1.00  0.00     0.049 A 
ATOM     58  H   UNL A   1      43.105  28.922  29.421  1.00  0.00     0.167 HD
ATOM     59  C   UNL A   1      45.522  30.209  30.165  1.00  0.00     0.074 A 
ATOM     60  C   UNL A   1      46.930  30.453  30.397  1.00  0.00     0.031 C 
ATOM     61  C   UNL A   1      44.543  31.117  30.395  1.00  0.00     0.031 A 
BRANCH  48  62
ATOM     62  C   UNL A   1      38.862  29.128  28.995  1.00  0.00    -0.014 A 
ATOM     63  C   UNL A   1      38.012  28.988  30.104  1.00  0.00     0.009 A 
ATOM     64  C   UNL A   1      38.325  29.590  27.784  1.00  0.00     0.009 A 
ATOM     65  C   UNL A   1      36.649  29.269  29.991  1.00  0.00     0.001 A 
ATOM     66  C   UNL A   1      36.968  29.901  27.682  1.00  0.00     0.001 A 
ATOM     67  C   UNL A   1      36.130  29.730  28.782  1.00  0.00     0.000 A 
ENDBRANCH  48  62
BRANCH  49  68
ATOM     68  C   UNL A   1      48.567  26.750  29.229  1.00  0.00    -0.014 A 
ATOM     69  C   UNL A   1      49.365  26.979  28.097  1.00  0.00     0.009 A 
ATOM     70  C   UNL A   1      49.157  26.188  30.371  1.00  0.00     0.009 A 
ATOM     71  C   UNL A   1      50.716  26.623  28.099  1.00  0.00     0.001 A 
ATOM     72  C   UNL A   1      50.515  25.863  30.381  1.00  0.00     0.001 A 
ATOM     73  C   UNL A   1      51.290  26.069  29.242  1.00  0.00     0.000 A 
ENDBRANCH  49  68
BRANCH  61  74
ATOM     74  C   UNL A   1      44.959  32.448  30.960  1.00  0.00    -0.014 A 
ATOM     75  C   UNL A   1      45.072  32.652  32.342  1.00  0.00     0.009 A 
ATOM     76  C   UNL A   1      45.282  33.499  30.087  1.00  0.00     0.009 A 
ATOM     77  C   UNL A   1      45.468  33.895  32.841  1.00  0.00     0.001 A 
ATOM     78  C   UNL A   1      45.709  34.729  30.586  1.00  0.00     0.001 A 
ATOM     79  C   UNL A   1      45.792  34.929  31.963  1.00  0.00     0.000 A 
ENDBRANCH  61  74
ENDBRANCH  35  36
ENDBRANCH  27  30
ENDBRANCH  25  26
ENDBRANCH  24  25
ENDBRANCH   1  24
TORSDOF 13
ENDMDL
MODEL 3
REMARK VINA RESULT:     -10.6      3.240      8.786
REMARK SMILES CC(C)(C[N@H+]1C[C@@H]2C[NH2+]C[C@H]2C1(C)C)C(=O)NCCCCNC(=O)c1ccc(-c2c3nc(c(-c4ccccc4)c4ccc([nH]4)c(-c4ccccc4)c4nc(c(-c5ccccc5)c5ccc2[nH]5)C=C4)C=C3)cc1
REMARK SMILES IDX 19 1 18 2 17 3 15 4 16 5 2 7 1 8 3 9 4 10 5 11 6 12 12 13
REMARK SMILES IDX 7 15 11 16 13 17 14 18 8 19 10 20 9 21 20 24 21 25 22 26
REMARK SMILES IDX 23 27 24 29 25 30 26 31 72 32 27 33 71 34 28 35 29 36 30 37
REMARK SMILES IDX 65 38 31 39 70 40 64 41 66 42 32 43 69 44 63 45 62 46 33 48
REMARK SMILES IDX 55 49 40 50 54 51 41 52 44 53 53 54 67 55 42 56 43 57 52 59
REMARK SMILES IDX 68 60 45 61 34 62 35 63 39 64 36 65 38 66 37 67 56 68 57 69
REMARK SMILES IDX 61 70 58 71 60 72 59 73 46 74 47 75 51 76 48 77 50 78 49 79
REMARK H PARENT 17 6 5 14 9 22 9 23 22 28 66 47 44 58
REMARK Flexibility Score: inf
ROOT
ATOM      1  C   UNL A   1      31.544  30.322  25.536  1.00  0.00     0.023 C 
ENDROOT
BRANCH   1   2
ATOM      2  C   UNL A   1      32.857  29.544  25.500  1.00  0.00     0.116 C 
BRANCH   2   3
ATOM      3  N   UNL A   1      33.437  29.449  24.173  1.00  0.00    -0.355 N 
ATOM      4  C   UNL A   1      33.462  28.465  23.230  1.00  0.00     0.231 C 
ATOM      5  O   UNL A   1      34.023  28.768  22.171  1.00  0.00    -0.274 OA
ATOM      6  H   UNL A   1      33.913  30.265  23.896  1.00  0.00     0.163 HD
BRANCH   4   7
ATOM      7  C   UNL A   1      32.837  27.070  23.433  1.00  0.00     0.092 C 
ATOM      8  C   UNL A   1      32.932  26.263  22.117  1.00  0.00     0.027 C 
ATOM      9  C   UNL A   1      31.324  27.259  23.695  1.00  0.00     0.027 C 
BRANCH   7  10
ATOM     10  C   UNL A   1      33.498  26.242  24.579  1.00  0.00     0.279 C 
BRANCH  10  11
ATOM     11  N   UNL A   1      33.619  24.777  24.450  1.00  0.00    -0.329 N 
ATOM     12  C   UNL A   1      34.972  24.190  24.635  1.00  0.00     0.272 C 
ATOM     13  C   UNL A   1      32.631  23.959  25.257  1.00  0.00     0.101 C 
ATOM     14  H   UNL A   1      33.385  24.699  23.460  1.00  0.00     0.348 HD
ATOM     15  C   UNL A   1      34.826  23.381  25.889  1.00  0.00     0.114 C 
ATOM     16  C   UNL A   1      33.476  22.754  25.686  1.00  0.00     0.119 C 
ATOM     17  C   UNL A   1      31.980  24.671  26.457  1.00  0.00     0.079 C 
ATOM     18  C   UNL A   1      31.517  23.501  24.304  1.00  0.00     0.079 C 
ATOM     19  C   UNL A   1      35.663  22.192  26.258  1.00  0.00     0.270 C 
ATOM     20  C   UNL A   1      33.372  21.971  26.975  1.00  0.00     0.271 C 
ATOM     21  N   UNL A   1      34.758  21.460  27.188  1.00  0.00    -0.345 N 
ATOM     22  H   UNL A   1      35.045  21.627  28.153  1.00  0.00     0.346 HD
ATOM     23  H   UNL A   1      34.798  20.458  27.007  1.00  0.00     0.346 HD
ENDBRANCH  10  11
ENDBRANCH   7  10
ENDBRANCH   4   7
ENDBRANCH   2   3
ENDBRANCH   1   2
BRANCH   1  24
ATOM     24  C   UNL A   1      31.406  31.335  26.667  1.00  0.00     0.023 C 
BRANCH  24  25
ATOM     25  C   UNL A   1      32.684  32.099  26.975  1.00  0.00     0.116 C 
BRANCH  25  26
ATOM     26  N   UNL A   1      32.428  33.457  27.435  1.00  0.00    -0.352 N 
ATOM     27  C   UNL A   1      33.143  34.218  28.324  1.00  0.00     0.251 C 
ATOM     28  H   UNL A   1      31.629  33.890  27.054  1.00  0.00     0.163 HD
ATOM     29  O   UNL A   1      32.703  35.296  28.713  1.00  0.00    -0.269 OA
BRANCH  27  30
ATOM     30  C   UNL A   1      34.435  33.717  28.827  1.00  0.00     0.039 A 
ATOM     31  C   UNL A   1      34.457  32.977  30.011  1.00  0.00     0.014 A 
ATOM     32  C   UNL A   1      35.613  33.956  28.116  1.00  0.00     0.014 A 
ATOM     33  C   UNL A   1      35.659  32.426  30.453  1.00  0.00     0.010 A 
ATOM     34  C   UNL A   1      36.791  33.335  28.510  1.00  0.00     0.010 A 
ATOM     35  C   UNL A   1      36.828  32.573  29.687  1.00  0.00    -0.014 A 
BRANCH  35  36
ATOM     36  C   UNL A   1      38.105  31.948  30.103  1.00  0.00     0.031 A 
ATOM     37  C   UNL A   1      39.017  32.670  31.055  1.00  0.00     0.074 A 
ATOM     38  C   UNL A   1      38.470  30.763  29.577  1.00  0.00     0.049 A 
ATOM     39  N   UNL A   1      40.200  32.318  31.491  1.00  0.00    -0.248 NA
ATOM     40  C   UNL A   1      38.552  33.972  31.563  1.00  0.00     0.031 C 
ATOM     41  C   UNL A   1      37.689  29.985  28.613  1.00  0.00     0.029 A 
ATOM     42  N   UNL A   1      39.598  30.008  29.778  1.00  0.00    -0.354 N 
ATOM     43  C   UNL A   1      40.625  33.361  32.305  1.00  0.00     0.074 A 
ATOM     44  C   UNL A   1      39.602  34.381  32.259  1.00  0.00     0.031 C 
ATOM     45  C   UNL A   1      38.347  28.848  28.331  1.00  0.00     0.029 A 
ATOM     46  C   UNL A   1      39.612  28.838  29.057  1.00  0.00     0.049 A 
ATOM     47  H   UNL A   1      40.328  30.278  30.380  1.00  0.00     0.167 HD
ATOM     48  C   UNL A   1      41.755  33.451  33.046  1.00  0.00     0.031 A 
ATOM     49  C   UNL A   1      40.545  27.870  28.986  1.00  0.00     0.031 A 
ATOM     50  C   UNL A   1      42.766  32.430  33.098  1.00  0.00     0.049 A 
ATOM     51  C   UNL A   1      41.800  28.004  29.802  1.00  0.00     0.074 A 
ATOM     52  C   UNL A   1      43.922  32.399  33.858  1.00  0.00     0.029 A 
ATOM     53  N   UNL A   1      42.740  31.258  32.357  1.00  0.00    -0.354 N 
ATOM     54  N   UNL A   1      42.154  28.962  30.623  1.00  0.00    -0.248 NA
ATOM     55  C   UNL A   1      42.780  26.915  29.689  1.00  0.00     0.031 C 
ATOM     56  C   UNL A   1      44.625  31.234  33.534  1.00  0.00     0.029 A 
ATOM     57  C   UNL A   1      43.875  30.510  32.621  1.00  0.00     0.049 A 
ATOM     58  H   UNL A   1      42.023  30.998  31.734  1.00  0.00     0.167 HD
ATOM     59  C   UNL A   1      43.382  28.577  31.147  1.00  0.00     0.074 A 
ATOM     60  C   UNL A   1      43.701  27.291  30.563  1.00  0.00     0.031 C 
ATOM     61  C   UNL A   1      44.174  29.231  32.031  1.00  0.00     0.031 A 
BRANCH  48  62
ATOM     62  C   UNL A   1      41.956  34.703  33.853  1.00  0.00    -0.014 A 
ATOM     63  C   UNL A   1      42.623  35.817  33.317  1.00  0.00     0.009 A 
ATOM     64  C   UNL A   1      41.447  34.783  35.158  1.00  0.00     0.009 A 
ATOM     65  C   UNL A   1      42.808  36.969  34.084  1.00  0.00     0.001 A 
ATOM     66  C   UNL A   1      41.604  35.947  35.912  1.00  0.00     0.001 A 
ATOM     67  C   UNL A   1      42.294  37.035  35.378  1.00  0.00     0.000 A 
ENDBRANCH  48  62
BRANCH  49  68
ATOM     68  C   UNL A   1      40.324  26.682  28.120  1.00  0.00    -0.014 A 
ATOM     69  C   UNL A   1      40.844  26.644  26.817  1.00  0.00     0.009 A 
ATOM     70  C   UNL A   1      39.581  25.586  28.584  1.00  0.00     0.009 A 
ATOM     71  C   UNL A   1      40.597  25.547  25.987  1.00  0.00     0.001 A 
ATOM     72  C   UNL A   1      39.363  24.477  27.763  1.00  0.00     0.001 A 
ATOM     73  C   UNL A   1      39.861  24.464  26.462  1.00  0.00     0.000 A 
ENDBRANCH  49  68
BRANCH  61  74
ATOM     74  C   UNL A   1      45.446  28.546  32.451  1.00  0.00    -0.014 A 
ATOM     75  C   UNL A   1      46.654  28.773  31.777  1.00  0.00     0.009 A 
ATOM     76  C   UNL A   1      45.436  27.693  33.566  1.00  0.00     0.009 A 
ATOM     77  C   UNL A   1      47.823  28.130  32.191  1.00  0.00     0.001 A 
ATOM     78  C   UNL A   1      46.611  27.079  33.998  1.00  0.00     0.001 A 
ATOM     79  C   UNL A   1      47.802  27.289  33.304  1.00  0.00     0.000 A 
ENDBRANCH  61  74
ENDBRANCH  35  36
ENDBRANCH  27  30
ENDBRANCH  25  26
ENDBRANCH  24  25
ENDBRANCH   1  24
TORSDOF 13
ENDMDL
