MODEL 1
REMARK VINA RESULT:     -10.7      0.000      0.000
REMARK SMILES O=C(NCCCCNC(=O)[C@H]1CCC(=O)N1Cc1ccco1)c1ccc(-c2c3nc(c(-c4ccccc4)c4ccc([nH]4)c(-c4ccccc4)c4nc(c(-c5ccccc5)c5ccc2[nH]5)C=C4)C=C3)cc1
REMARK SMILES IDX 5 1 4 2 3 3 1 4 2 5 23 7 24 8 70 9 25 10 69 11 26 12 27 13
REMARK SMILES IDX 28 14 63 15 29 16 68 17 62 18 64 19 30 20 67 21 61 22 60 23
REMARK SMILES IDX 31 25 53 26 38 27 52 28 39 29 42 30 51 31 65 32 40 33 41 34
REMARK SMILES IDX 50 36 66 37 43 38 32 39 33 40 37 41 34 42 36 43 35 44 54 45
REMARK SMILES IDX 55 46 59 47 56 48 58 49 57 50 44 51 45 52 49 53 46 54 48 55
REMARK SMILES IDX 47 56 6 57 7 58 8 59 9 60 10 62 11 63 12 64 16 65 13 66
REMARK SMILES IDX 14 67 15 68 17 69 18 70 19 71 22 72 20 73 21 74
REMARK H PARENT 3 6 64 24 42 35 8 61
REMARK Flexibility Score: inf
ROOT
ATOM      1  C   UNL A   1      37.729  19.596  24.934  1.00  0.00     0.023 C 
ENDROOT
BRANCH   1   2
ATOM      2  C   UNL A   1      38.961  20.173  25.618  1.00  0.00     0.116 C 
BRANCH   2   3
ATOM      3  N   UNL A   1      39.990  19.165  25.806  1.00  0.00    -0.352 N 
ATOM      4  O   UNL A   1      42.095  18.380  25.954  1.00  0.00    -0.269 OA
ATOM      5  C   UNL A   1      41.326  19.328  26.068  1.00  0.00     0.251 C 
ATOM      6  H   UNL A   1      39.685  18.231  25.735  1.00  0.00     0.163 HD
BRANCH   5   7
ATOM      7  C   UNL A   1      41.832  20.649  26.487  1.00  0.00     0.039 A 
ATOM      8  C   UNL A   1      42.193  21.606  25.533  1.00  0.00     0.014 A 
ATOM      9  C   UNL A   1      41.908  20.945  27.849  1.00  0.00     0.014 A 
ATOM     10  C   UNL A   1      42.731  22.819  25.938  1.00  0.00     0.010 A 
ATOM     11  C   UNL A   1      42.372  22.195  28.255  1.00  0.00     0.010 A 
ATOM     12  C   UNL A   1      42.799  23.135  27.303  1.00  0.00    -0.014 A 
BRANCH  12  13
ATOM     13  C   UNL A   1      43.240  24.482  27.729  1.00  0.00     0.031 A 
ATOM     14  C   UNL A   1      42.243  25.528  28.122  1.00  0.00     0.074 A 
ATOM     15  C   UNL A   1      44.557  24.763  27.710  1.00  0.00     0.049 A 
ATOM     16  N   UNL A   1      42.445  26.784  28.425  1.00  0.00    -0.248 NA
ATOM     17  C   UNL A   1      40.834  25.112  28.170  1.00  0.00     0.031 C 
ATOM     18  C   UNL A   1      45.616  23.819  27.345  1.00  0.00     0.029 A 
ATOM     19  N   UNL A   1      45.227  25.926  27.989  1.00  0.00    -0.354 N 
ATOM     20  C   UNL A   1      41.188  27.319  28.670  1.00  0.00     0.074 A 
ATOM     21  C   UNL A   1      40.228  26.256  28.458  1.00  0.00     0.031 C 
ATOM     22  C   UNL A   1      46.802  24.438  27.430  1.00  0.00     0.029 A 
ATOM     23  C   UNL A   1      46.581  25.835  27.782  1.00  0.00     0.049 A 
ATOM     24  H   UNL A   1      44.781  26.745  28.305  1.00  0.00     0.167 HD
ATOM     25  C   UNL A   1      40.867  28.585  29.033  1.00  0.00     0.031 A 
ATOM     26  C   UNL A   1      47.538  26.779  27.824  1.00  0.00     0.031 A 
ATOM     27  C   UNL A   1      41.833  29.636  29.217  1.00  0.00     0.049 A 
ATOM     28  C   UNL A   1      47.156  28.186  28.173  1.00  0.00     0.074 A 
ATOM     29  C   UNL A   1      41.619  30.943  29.621  1.00  0.00     0.029 A 
ATOM     30  N   UNL A   1      43.196  29.506  28.990  1.00  0.00    -0.354 N 
ATOM     31  N   UNL A   1      45.968  28.671  28.445  1.00  0.00    -0.248 NA
ATOM     32  C   UNL A   1      48.240  29.174  28.223  1.00  0.00     0.031 C 
ATOM     33  C   UNL A   1      42.841  31.619  29.568  1.00  0.00     0.029 A 
ATOM     34  C   UNL A   1      43.830  30.717  29.209  1.00  0.00     0.049 A 
ATOM     35  H   UNL A   1      43.646  28.674  28.715  1.00  0.00     0.167 HD
ATOM     36  C   UNL A   1      46.164  30.015  28.728  1.00  0.00     0.074 A 
ATOM     37  C   UNL A   1      47.586  30.266  28.597  1.00  0.00     0.031 C 
ATOM     38  C   UNL A   1      45.247  30.952  29.074  1.00  0.00     0.031 A 
BRANCH  25  39
ATOM     39  C   UNL A   1      39.405  28.907  29.193  1.00  0.00    -0.014 A 
ATOM     40  C   UNL A   1      38.740  28.737  30.418  1.00  0.00     0.009 A 
ATOM     41  C   UNL A   1      38.680  29.394  28.093  1.00  0.00     0.009 A 
ATOM     42  C   UNL A   1      37.371  28.995  30.522  1.00  0.00     0.001 A 
ATOM     43  C   UNL A   1      37.319  29.683  28.208  1.00  0.00     0.001 A 
ATOM     44  C   UNL A   1      36.662  29.468  29.418  1.00  0.00     0.000 A 
ENDBRANCH  25  39
BRANCH  26  45
ATOM     45  C   UNL A   1      48.936  26.405  27.494  1.00  0.00    -0.014 A 
ATOM     46  C   UNL A   1      49.818  25.969  28.494  1.00  0.00     0.009 A 
ATOM     47  C   UNL A   1      49.375  26.416  26.159  1.00  0.00     0.009 A 
ATOM     48  C   UNL A   1      51.111  25.561  28.164  1.00  0.00     0.001 A 
ATOM     49  C   UNL A   1      50.658  25.977  25.829  1.00  0.00     0.001 A 
ATOM     50  C   UNL A   1      51.527  25.556  26.832  1.00  0.00     0.000 A 
ENDBRANCH  26  45
BRANCH  38  51
ATOM     51  C   UNL A   1      45.751  32.333  29.384  1.00  0.00    -0.014 A 
ATOM     52  C   UNL A   1      46.199  32.681  30.666  1.00  0.00     0.009 A 
ATOM     53  C   UNL A   1      45.853  33.275  28.346  1.00  0.00     0.009 A 
ATOM     54  C   UNL A   1      46.729  33.951  30.906  1.00  0.00     0.001 A 
ATOM     55  C   UNL A   1      46.410  34.531  28.582  1.00  0.00     0.001 A 
ATOM     56  C   UNL A   1      46.844  34.870  29.862  1.00  0.00     0.000 A 
ENDBRANCH  38  51
ENDBRANCH  12  13
ENDBRANCH   5   7
ENDBRANCH   2   3
ENDBRANCH   1   2
BRANCH   1  57
ATOM     57  C   UNL A   1      36.495  20.506  24.986  1.00  0.00     0.023 C 
BRANCH  57  58
ATOM     58  C   UNL A   1      36.782  21.992  24.739  1.00  0.00     0.116 C 
BRANCH  58  59
ATOM     59  N   UNL A   1      36.035  22.543  23.620  1.00  0.00    -0.354 N 
ATOM     60  C   UNL A   1      34.875  23.267  23.587  1.00  0.00     0.242 C 
ATOM     61  H   UNL A   1      36.432  22.366  22.737  1.00  0.00     0.163 HD
ATOM     62  O   UNL A   1      34.455  23.623  22.485  1.00  0.00    -0.273 OA
BRANCH  60  63
ATOM     63  C   UNL A   1      34.170  23.647  24.900  1.00  0.00     0.175 C 
ATOM     64  C   UNL A   1      33.633  25.073  24.746  1.00  0.00     0.045 C 
ATOM     65  N   UNL A   1      32.976  22.877  25.218  1.00  0.00    -0.323 N 
ATOM     66  C   UNL A   1      32.176  24.891  24.334  1.00  0.00     0.103 C 
ATOM     67  C   UNL A   1      31.809  23.575  24.963  1.00  0.00     0.223 C 
ATOM     68  O   UNL A   1      30.669  23.216  25.218  1.00  0.00    -0.275 OA
BRANCH  65  69
ATOM     69  C   UNL A   1      32.993  21.592  25.904  1.00  0.00     0.195 C 
BRANCH  69  70
ATOM     70  C   UNL A   1      32.718  20.436  25.009  1.00  0.00     0.123 A 
ATOM     71  C   UNL A   1      32.641  20.268  23.644  1.00  0.00     0.047 A 
ATOM     72  O   UNL A   1      32.587  19.210  25.606  1.00  0.00    -0.467 OA
ATOM     73  C   UNL A   1      32.440  18.898  23.387  1.00  0.00     0.042 A 
ATOM     74  C   UNL A   1      32.410  18.294  24.618  1.00  0.00     0.195 A 
ENDBRANCH  69  70
ENDBRANCH  65  69
ENDBRANCH  60  63
ENDBRANCH  58  59
ENDBRANCH  57  58
ENDBRANCH   1  57
TORSDOF 13
ENDMDL
MODEL 2
REMARK VINA RESULT:     -10.6      5.421     10.323
REMARK SMILES O=C(NCCCCNC(=O)[C@H]1CCC(=O)N1Cc1ccco1)c1ccc(-c2c3nc(c(-c4ccccc4)c4ccc([nH]4)c(-c4ccccc4)c4nc(c(-c5ccccc5)c5ccc2[nH]5)C=C4)C=C3)cc1
REMARK SMILES IDX 5 1 4 2 3 3 1 4 2 5 23 7 24 8 70 9 25 10 69 11 26 12 27 13
REMARK SMILES IDX 28 14 63 15 29 16 68 17 62 18 64 19 30 20 67 21 61 22 60 23
REMARK SMILES IDX 31 25 53 26 38 27 52 28 39 29 42 30 51 31 65 32 40 33 41 34
REMARK SMILES IDX 50 36 66 37 43 38 32 39 33 40 37 41 34 42 36 43 35 44 54 45
REMARK SMILES IDX 55 46 59 47 56 48 58 49 57 50 44 51 45 52 49 53 46 54 48 55
REMARK SMILES IDX 47 56 6 57 7 58 8 59 9 60 10 62 11 63 12 64 16 65 13 66
REMARK SMILES IDX 14 67 15 68 17 69 18 70 19 71 22 72 20 73 21 74
REMARK H PARENT 3 6 64 24 42 35 8 61
REMARK Flexibility Score: inf
ROOT
ATOM      1  C   UNL A   1      31.324  32.110  26.563  1.00  0.00     0.023 C 
ENDROOT
BRANCH   1   2
ATOM      2  C   UNL A   1      32.573  32.664  27.234  1.00  0.00     0.116 C 
BRANCH   2   3
ATOM      3  N   UNL A   1      32.404  34.055  27.615  1.00  0.00    -0.352 N 
ATOM      4  O   UNL A   1      32.628  35.866  28.934  1.00  0.00    -0.269 OA
ATOM      5  C   UNL A   1      33.063  34.776  28.577  1.00  0.00     0.251 C 
ATOM      6  H   UNL A   1      31.719  34.551  27.112  1.00  0.00     0.163 HD
BRANCH   5   7
ATOM      7  C   UNL A   1      34.296  34.235  29.180  1.00  0.00     0.039 A 
ATOM      8  C   UNL A   1      34.238  33.469  30.348  1.00  0.00     0.014 A 
ATOM      9  C   UNL A   1      35.519  34.466  28.545  1.00  0.00     0.014 A 
ATOM     10  C   UNL A   1      35.410  33.023  30.942  1.00  0.00     0.010 A 
ATOM     11  C   UNL A   1      36.688  33.947  29.098  1.00  0.00     0.010 A 
ATOM     12  C   UNL A   1      36.642  33.233  30.307  1.00  0.00    -0.014 A 
BRANCH  12  13
ATOM     13  C   UNL A   1      37.875  32.636  30.868  1.00  0.00     0.031 A 
ATOM     14  C   UNL A   1      38.497  31.428  30.239  1.00  0.00     0.074 A 
ATOM     15  C   UNL A   1      38.399  33.173  31.986  1.00  0.00     0.049 A 
ATOM     16  N   UNL A   1      39.515  30.718  30.651  1.00  0.00    -0.248 NA
ATOM     17  C   UNL A   1      37.891  30.948  28.988  1.00  0.00     0.031 C 
ATOM     18  C   UNL A   1      37.875  34.350  32.683  1.00  0.00     0.029 A 
ATOM     19  N   UNL A   1      39.478  32.791  32.741  1.00  0.00    -0.354 N 
ATOM     20  C   UNL A   1      39.654  29.688  29.730  1.00  0.00     0.074 A 
ATOM     21  C   UNL A   1      38.602  29.855  28.750  1.00  0.00     0.031 C 
ATOM     22  C   UNL A   1      38.637  34.598  33.757  1.00  0.00     0.029 A 
ATOM     23  C   UNL A   1      39.653  33.559  33.865  1.00  0.00     0.049 A 
ATOM     24  H   UNL A   1      40.067  32.039  32.501  1.00  0.00     0.167 HD
ATOM     25  C   UNL A   1      40.574  28.693  29.711  1.00  0.00     0.031 A 
ATOM     26  C   UNL A   1      40.505  33.420  34.896  1.00  0.00     0.031 A 
ATOM     27  C   UNL A   1      41.599  28.529  30.708  1.00  0.00     0.049 A 
ATOM     28  C   UNL A   1      41.479  32.280  34.885  1.00  0.00     0.074 A 
ATOM     29  C   UNL A   1      42.605  27.580  30.763  1.00  0.00     0.029 A 
ATOM     30  N   UNL A   1      41.740  29.325  31.836  1.00  0.00    -0.354 N 
ATOM     31  N   UNL A   1      41.630  31.337  33.985  1.00  0.00    -0.248 NA
ATOM     32  C   UNL A   1      42.400  32.184  36.024  1.00  0.00     0.031 C 
ATOM     33  C   UNL A   1      43.306  27.757  31.959  1.00  0.00     0.029 A 
ATOM     34  C   UNL A   1      42.790  28.866  32.612  1.00  0.00     0.049 A 
ATOM     35  H   UNL A   1      41.175  30.103  32.052  1.00  0.00     0.167 HD
ATOM     36  C   UNL A   1      42.681  30.552  34.434  1.00  0.00     0.074 A 
ATOM     37  C   UNL A   1      43.132  31.131  35.684  1.00  0.00     0.031 C 
ATOM     38  C   UNL A   1      43.227  29.453  33.855  1.00  0.00     0.031 A 
BRANCH  25  39
ATOM     39  C   UNL A   1      40.466  27.676  28.608  1.00  0.00    -0.014 A 
ATOM     40  C   UNL A   1      39.730  26.489  28.764  1.00  0.00     0.009 A 
ATOM     41  C   UNL A   1      41.114  27.912  27.383  1.00  0.00     0.009 A 
ATOM     42  C   UNL A   1      39.693  25.539  27.740  1.00  0.00     0.001 A 
ATOM     43  C   UNL A   1      41.046  26.977  26.350  1.00  0.00     0.001 A 
ATOM     44  C   UNL A   1      40.349  25.784  26.534  1.00  0.00     0.000 A 
ENDBRANCH  25  39
BRANCH  26  45
ATOM     45  C   UNL A   1      40.435  34.381  36.025  1.00  0.00    -0.014 A 
ATOM     46  C   UNL A   1      41.240  35.529  36.042  1.00  0.00     0.009 A 
ATOM     47  C   UNL A   1      39.507  34.187  37.062  1.00  0.00     0.009 A 
ATOM     48  C   UNL A   1      41.121  36.457  37.079  1.00  0.00     0.001 A 
ATOM     49  C   UNL A   1      39.369  35.132  38.080  1.00  0.00     0.001 A 
ATOM     50  C   UNL A   1      40.181  36.263  38.090  1.00  0.00     0.000 A 
ENDBRANCH  26  45
BRANCH  38  51
ATOM     51  C   UNL A   1      44.409  28.825  34.538  1.00  0.00    -0.014 A 
ATOM     52  C   UNL A   1      45.718  29.263  34.293  1.00  0.00     0.009 A 
ATOM     53  C   UNL A   1      44.192  27.832  35.508  1.00  0.00     0.009 A 
ATOM     54  C   UNL A   1      46.789  28.709  34.997  1.00  0.00     0.001 A 
ATOM     55  C   UNL A   1      45.260  27.302  36.231  1.00  0.00     0.001 A 
ATOM     56  C   UNL A   1      46.559  27.737  35.971  1.00  0.00     0.000 A 
ENDBRANCH  38  51
ENDBRANCH  12  13
ENDBRANCH   5   7
ENDBRANCH   2   3
ENDBRANCH   1   2
BRANCH   1  57
ATOM     57  C   UNL A   1      31.483  30.687  26.011  1.00  0.00     0.023 C 
BRANCH  57  58
ATOM     58  C   UNL A   1      32.231  29.721  26.935  1.00  0.00     0.116 C 
BRANCH  58  59
ATOM     59  N   UNL A   1      31.571  28.433  27.076  1.00  0.00    -0.354 N 
ATOM     60  C   UNL A   1      31.829  27.225  26.488  1.00  0.00     0.242 C 
ATOM     61  H   UNL A   1      30.809  28.429  27.700  1.00  0.00     0.163 HD
ATOM     62  O   UNL A   1      31.106  26.275  26.795  1.00  0.00    -0.273 OA
BRANCH  60  63
ATOM     63  C   UNL A   1      33.014  27.080  25.519  1.00  0.00     0.175 C 
ATOM     64  C   UNL A   1      33.681  25.730  25.796  1.00  0.00     0.045 C 
ATOM     65  N   UNL A   1      32.666  26.995  24.108  1.00  0.00    -0.323 N 
ATOM     66  C   UNL A   1      33.074  24.785  24.763  1.00  0.00     0.103 C 
ATOM     67  C   UNL A   1      32.744  25.703  23.618  1.00  0.00     0.223 C 
ATOM     68  O   UNL A   1      32.598  25.349  22.458  1.00  0.00    -0.275 OA
BRANCH  65  69
ATOM     69  C   UNL A   1      32.445  28.152  23.251  1.00  0.00     0.195 C 
BRANCH  69  70
ATOM     70  C   UNL A   1      31.006  28.448  23.010  1.00  0.00     0.123 A 
ATOM     71  C   UNL A   1      29.821  27.938  23.495  1.00  0.00     0.047 A 
ATOM     72  O   UNL A   1      30.723  29.515  22.201  1.00  0.00    -0.467 OA
ATOM     73  C   UNL A   1      28.769  28.704  22.955  1.00  0.00     0.042 A 
ATOM     74  C   UNL A   1      29.371  29.652  22.168  1.00  0.00     0.195 A 
ENDBRANCH  69  70
ENDBRANCH  65  69
ENDBRANCH  60  63
ENDBRANCH  58  59
ENDBRANCH  57  58
ENDBRANCH   1  57
TORSDOF 13
ENDMDL
MODEL 3
REMARK VINA RESULT:     -10.6      1.319      2.419
REMARK SMILES O=C(NCCCCNC(=O)[C@H]1CCC(=O)N1Cc1ccco1)c1ccc(-c2c3nc(c(-c4ccccc4)c4ccc([nH]4)c(-c4ccccc4)c4nc(c(-c5ccccc5)c5ccc2[nH]5)C=C4)C=C3)cc1
REMARK SMILES IDX 5 1 4 2 3 3 1 4 2 5 23 7 24 8 70 9 25 10 69 11 26 12 27 13
REMARK SMILES IDX 28 14 63 15 29 16 68 17 62 18 64 19 30 20 67 21 61 22 60 23
REMARK SMILES IDX 31 25 53 26 38 27 52 28 39 29 42 30 51 31 65 32 40 33 41 34
REMARK SMILES IDX 50 36 66 37 43 38 32 39 33 40 37 41 34 42 36 43 35 44 54 45
REMARK SMILES IDX 55 46 59 47 56 48 58 49 57 50 44 51 45 52 49 53 46 54 48 55
REMARK SMILES IDX 47 56 6 57 7 58 8 59 9 60 10 62 11 63 12 64 16 65 13 66
REMARK SMILES IDX 14 67 15 68 17 69 18 70 19 71 22 72 20 73 21 74
REMARK H PARENT 3 6 64 24 42 35 8 61
REMARK Flexibility Score: inf
ROOT
ATOM      1  C   UNL A   1      37.799  19.930  24.675  1.00  0.00     0.023 C 
ENDROOT
BRANCH   1   2
ATOM      2  C   UNL A   1      38.777  20.270  25.791  1.00  0.00     0.116 C 
BRANCH   2   3
ATOM      3  N   UNL A   1      39.850  19.295  25.877  1.00  0.00    -0.352 N 
ATOM      4  O   UNL A   1      41.987  18.587  25.883  1.00  0.00    -0.269 OA
ATOM      5  C   UNL A   1      41.191  19.498  26.083  1.00  0.00     0.251 C 
ATOM      6  H   UNL A   1      39.577  18.355  25.773  1.00  0.00     0.163 HD
BRANCH   5   7
ATOM      7  C   UNL A   1      41.668  20.815  26.544  1.00  0.00     0.039 A 
ATOM      8  C   UNL A   1      42.006  21.810  25.622  1.00  0.00     0.014 A 
ATOM      9  C   UNL A   1      41.741  21.067  27.916  1.00  0.00     0.014 A 
ATOM     10  C   UNL A   1      42.518  23.021  26.067  1.00  0.00     0.010 A 
ATOM     11  C   UNL A   1      42.177  22.314  28.363  1.00  0.00     0.010 A 
ATOM     12  C   UNL A   1      42.581  23.294  27.441  1.00  0.00    -0.014 A 
BRANCH  12  13
ATOM     13  C   UNL A   1      42.994  24.635  27.911  1.00  0.00     0.031 A 
ATOM     14  C   UNL A   1      41.973  25.678  28.246  1.00  0.00     0.074 A 
ATOM     15  C   UNL A   1      44.309  24.915  27.985  1.00  0.00     0.049 A 
ATOM     16  N   UNL A   1      42.154  26.931  28.575  1.00  0.00    -0.248 NA
ATOM     17  C   UNL A   1      40.563  25.264  28.193  1.00  0.00     0.031 C 
ATOM     18  C   UNL A   1      45.390  23.973  27.683  1.00  0.00     0.029 A 
ATOM     19  N   UNL A   1      44.959  26.074  28.322  1.00  0.00    -0.354 N 
ATOM     20  C   UNL A   1      40.884  27.465  28.740  1.00  0.00     0.074 A 
ATOM     21  C   UNL A   1      39.940  26.405  28.451  1.00  0.00     0.031 C 
ATOM     22  C   UNL A   1      46.567  24.589  27.856  1.00  0.00     0.029 A 
ATOM     23  C   UNL A   1      46.324  25.982  28.207  1.00  0.00     0.049 A 
ATOM     24  H   UNL A   1      44.493  26.890  28.615  1.00  0.00     0.167 HD
ATOM     25  C   UNL A   1      40.540  28.727  29.094  1.00  0.00     0.031 A 
ATOM     26  C   UNL A   1      47.277  26.925  28.324  1.00  0.00     0.031 A 
ATOM     27  C   UNL A   1      41.491  29.775  29.354  1.00  0.00     0.049 A 
ATOM     28  C   UNL A   1      46.872  28.328  28.661  1.00  0.00     0.074 A 
ATOM     29  C   UNL A   1      41.251  31.078  29.757  1.00  0.00     0.029 A 
ATOM     30  N   UNL A   1      42.867  29.646  29.220  1.00  0.00    -0.354 N 
ATOM     31  N   UNL A   1      45.669  28.812  28.857  1.00  0.00    -0.248 NA
ATOM     32  C   UNL A   1      47.951  29.314  28.796  1.00  0.00     0.031 C 
ATOM     33  C   UNL A   1      42.475  31.753  29.795  1.00  0.00     0.029 A 
ATOM     34  C   UNL A   1      43.486  30.853  29.495  1.00  0.00     0.049 A 
ATOM     35  H   UNL A   1      43.334  28.815  28.967  1.00  0.00     0.167 HD
ATOM     36  C   UNL A   1      45.847  30.153  29.167  1.00  0.00     0.074 A 
ATOM     37  C   UNL A   1      47.274  30.403  29.136  1.00  0.00     0.031 C 
ATOM     38  C   UNL A   1      44.908  31.087  29.459  1.00  0.00     0.031 A 
BRANCH  25  39
ATOM     39  C   UNL A   1      39.071  29.050  29.157  1.00  0.00    -0.014 A 
ATOM     40  C   UNL A   1      38.366  29.516  28.035  1.00  0.00     0.009 A 
ATOM     41  C   UNL A   1      38.377  28.879  30.366  1.00  0.00     0.009 A 
ATOM     42  C   UNL A   1      37.016  29.858  28.139  1.00  0.00     0.001 A 
ATOM     43  C   UNL A   1      37.019  29.188  30.458  1.00  0.00     0.001 A 
ATOM     44  C   UNL A   1      36.343  29.692  29.349  1.00  0.00     0.000 A 
ENDBRANCH  25  39
BRANCH  26  45
ATOM     45  C   UNL A   1      48.694  26.552  28.087  1.00  0.00    -0.014 A 
ATOM     46  C   UNL A   1      49.509  26.120  29.143  1.00  0.00     0.009 A 
ATOM     47  C   UNL A   1      49.219  26.561  26.783  1.00  0.00     0.009 A 
ATOM     48  C   UNL A   1      50.822  25.713  28.898  1.00  0.00     0.001 A 
ATOM     49  C   UNL A   1      50.521  26.124  26.538  1.00  0.00     0.001 A 
ATOM     50  C   UNL A   1      51.324  25.706  27.596  1.00  0.00     0.000 A 
ENDBRANCH  26  45
BRANCH  38  51
ATOM     51  C   UNL A   1      45.391  32.465  29.818  1.00  0.00    -0.014 A 
ATOM     52  C   UNL A   1      45.745  32.800  31.133  1.00  0.00     0.009 A 
ATOM     53  C   UNL A   1      45.571  33.415  28.799  1.00  0.00     0.009 A 
ATOM     54  C   UNL A   1      46.258  34.066  31.422  1.00  0.00     0.001 A 
ATOM     55  C   UNL A   1      46.112  34.668  29.086  1.00  0.00     0.001 A 
ATOM     56  C   UNL A   1      46.451  34.994  30.398  1.00  0.00     0.000 A 
ENDBRANCH  38  51
ENDBRANCH  12  13
ENDBRANCH   5   7
ENDBRANCH   2   3
ENDBRANCH   1   2
BRANCH   1  57
ATOM     57  C   UNL A   1      36.326  20.167  25.034  1.00  0.00     0.023 C 
BRANCH  57  58
ATOM     58  C   UNL A   1      36.016  21.566  25.579  1.00  0.00     0.116 C 
BRANCH  58  59
ATOM     59  N   UNL A   1      35.173  21.547  26.764  1.00  0.00    -0.354 N 
ATOM     60  C   UNL A   1      33.934  22.079  26.991  1.00  0.00     0.242 C 
ATOM     61  H   UNL A   1      35.560  21.069  27.533  1.00  0.00     0.163 HD
ATOM     62  O   UNL A   1      33.434  21.908  28.104  1.00  0.00    -0.273 OA
BRANCH  60  63
ATOM     63  C   UNL A   1      33.198  22.820  25.862  1.00  0.00     0.175 C 
ATOM     64  C   UNL A   1      31.783  22.241  25.768  1.00  0.00     0.045 C 
ATOM     65  N   UNL A   1      32.962  24.238  26.090  1.00  0.00    -0.323 N 
ATOM     66  C   UNL A   1      30.924  23.200  26.587  1.00  0.00     0.103 C 
ATOM     67  C   UNL A   1      31.653  24.508  26.451  1.00  0.00     0.223 C 
ATOM     68  O   UNL A   1      31.150  25.609  26.614  1.00  0.00    -0.275 OA
BRANCH  65  69
ATOM     69  C   UNL A   1      33.929  25.285  25.791  1.00  0.00     0.195 C 
BRANCH  69  70
ATOM     70  C   UNL A   1      33.704  25.946  24.477  1.00  0.00     0.123 A 
ATOM     71  C   UNL A   1      33.745  27.250  24.032  1.00  0.00     0.047 A 
ATOM     72  O   UNL A   1      33.487  25.127  23.402  1.00  0.00    -0.467 OA
ATOM     73  C   UNL A   1      33.530  27.239  22.641  1.00  0.00     0.042 A 
ATOM     74  C   UNL A   1      33.373  25.919  22.303  1.00  0.00     0.195 A 
ENDBRANCH  69  70
ENDBRANCH  65  69
ENDBRANCH  60  63
ENDBRANCH  58  59
ENDBRANCH  57  58
ENDBRANCH   1  57
TORSDOF 13
ENDMDL
