MODEL 1
REMARK VINA RESULT:     -11.7      0.000      0.000
REMARK SMILES COc1ccc(-c2nc3ccc(C)cc3[nH]2)c(C(=O)NCCCCNC(=O)c2ccc(-c3c4nc(c(-c5ccccc5)c5ccc([nH]5)c(-c5ccccc5)c5nc(c(-c6ccccc6)c6ccc3[nH]6)C=C5)C=C4)cc2)c1OC
REMARK SMILES IDX 23 1 22 2 21 3 20 4 18 5 19 6 17 8 3 9 4 10 76 11 5 12 6 13
REMARK SMILES IDX 2 14 1 15 77 16 78 17 7 18 8 19 16 20 9 21 15 22 10 24 14 25
REMARK SMILES IDX 11 26 12 27 13 28 24 29 25 30 26 31 27 33 28 34 29 35 75 36
REMARK SMILES IDX 30 37 74 38 31 39 32 40 33 41 68 42 34 43 73 44 67 45 69 46
REMARK SMILES IDX 35 47 72 48 66 49 65 50 36 52 58 53 43 54 57 55 44 56 47 57
REMARK SMILES IDX 56 58 70 59 45 60 46 61 55 63 71 64 48 65 37 66 38 67 42 68
REMARK SMILES IDX 39 69 41 70 40 71 59 72 60 73 64 74 61 75 63 76 62 77 49 78
REMARK SMILES IDX 50 79 54 80 51 81 53 82 52 83
REMARK H PARENT 20 7 16 23 25 32 69 51 47 62
REMARK Flexibility Score: inf
ROOT
ATOM      1  C   UNL A   1      37.219  20.504  24.982  1.00  0.00     0.023 C 
ENDROOT
BRANCH   1   2
ATOM      2  C   UNL A   1      36.459  21.628  24.282  1.00  0.00     0.023 C 
BRANCH   2   3
ATOM      3  C   UNL A   1      36.080  22.835  25.123  1.00  0.00     0.116 C 
BRANCH   3   4
ATOM      4  N   UNL A   1      35.555  22.618  26.449  1.00  0.00    -0.352 N 
ATOM      5  C   UNL A   1      34.233  22.333  26.752  1.00  0.00     0.255 C 
ATOM      6  O   UNL A   1      33.954  21.704  27.770  1.00  0.00    -0.269 OA
ATOM      7  H   UNL A   1      36.188  22.679  27.200  1.00  0.00     0.163 HD
BRANCH   5   8
ATOM      8  C   UNL A   1      33.143  22.887  25.900  1.00  0.00     0.096 A 
ATOM      9  C   UNL A   1      31.747  24.713  25.085  1.00  0.00     0.161 A 
ATOM     10  C   UNL A   1      31.011  23.757  24.359  1.00  0.00     0.051 A 
ATOM     11  C   UNL A   1      32.854  24.287  25.844  1.00  0.00     0.174 A 
ATOM     12  C   UNL A   1      31.366  22.412  24.327  1.00  0.00     0.017 A 
ATOM     13  C   UNL A   1      32.440  21.956  25.090  1.00  0.00     0.034 A 
BRANCH   9  14
ATOM     14  O   UNL A   1      31.230  25.947  24.816  1.00  0.00    -0.493 OA
ATOM     15  C   UNL A   1      30.734  26.806  25.814  1.00  0.00     0.278 C 
ENDBRANCH   9  14
BRANCH  11  16
ATOM     16  O   UNL A   1      33.846  25.140  26.269  1.00  0.00    -0.492 OA
ATOM     17  C   UNL A   1      34.387  26.060  25.329  1.00  0.00     0.278 C 
ENDBRANCH  11  16
BRANCH  13  18
ATOM     18  C   UNL A   1      32.826  20.545  24.966  1.00  0.00     0.139 A 
ATOM     19  N   UNL A   1      33.498  19.987  23.978  1.00  0.00    -0.228 NA
ATOM     20  N   UNL A   1      32.469  19.589  25.897  1.00  0.00    -0.338 N 
ATOM     21  C   UNL A   1      33.461  18.633  24.218  1.00  0.00     0.089 A 
ATOM     22  C   UNL A   1      32.830  18.353  25.423  1.00  0.00     0.066 A 
ATOM     23  H   UNL A   1      32.028  19.765  26.760  1.00  0.00     0.168 HD
ATOM     24  C   UNL A   1      33.927  17.570  23.433  1.00  0.00     0.031 A 
ATOM     25  C   UNL A   1      32.634  17.054  25.909  1.00  0.00     0.031 A 
ATOM     26  C   UNL A   1      33.719  16.257  23.879  1.00  0.00     0.006 A 
ATOM     27  C   UNL A   1      33.082  15.994  25.101  1.00  0.00    -0.049 A 
ATOM     28  C   UNL A   1      32.850  14.565  25.511  1.00  0.00     0.044 C 
ENDBRANCH  13  18
ENDBRANCH   5   8
ENDBRANCH   3   4
ENDBRANCH   2   3
ENDBRANCH   1   2
BRANCH   1  29
ATOM     29  C   UNL A   1      38.547  20.854  25.650  1.00  0.00     0.116 C 
BRANCH  29  30
ATOM     30  N   UNL A   1      39.555  19.805  25.594  1.00  0.00    -0.352 N 
ATOM     31  C   UNL A   1      40.879  19.807  25.991  1.00  0.00     0.251 C 
ATOM     32  H   UNL A   1      39.242  18.954  25.210  1.00  0.00     0.163 HD
ATOM     33  O   UNL A   1      41.567  18.815  25.823  1.00  0.00    -0.269 OA
BRANCH  31  34
ATOM     34  C   UNL A   1      41.483  21.033  26.568  1.00  0.00     0.039 A 
ATOM     35  C   UNL A   1      42.048  21.973  25.698  1.00  0.00     0.014 A 
ATOM     36  C   UNL A   1      41.473  21.278  27.941  1.00  0.00     0.014 A 
ATOM     37  C   UNL A   1      42.488  23.204  26.195  1.00  0.00     0.010 A 
ATOM     38  C   UNL A   1      41.828  22.536  28.422  1.00  0.00     0.010 A 
ATOM     39  C   UNL A   1      42.324  23.521  27.553  1.00  0.00    -0.014 A 
BRANCH  39  40
ATOM     40  C   UNL A   1      42.630  24.879  28.079  1.00  0.00     0.031 A 
ATOM     41  C   UNL A   1      44.024  25.226  28.532  1.00  0.00     0.074 A 
ATOM     42  C   UNL A   1      41.635  25.778  28.233  1.00  0.00     0.049 A 
ATOM     43  N   UNL A   1      44.459  26.325  29.096  1.00  0.00    -0.248 NA
ATOM     44  C   UNL A   1      45.057  24.194  28.355  1.00  0.00     0.031 C 
ATOM     45  C   UNL A   1      40.229  25.561  27.881  1.00  0.00     0.029 A 
ATOM     46  N   UNL A   1      41.652  27.055  28.737  1.00  0.00    -0.354 N 
ATOM     47  C   UNL A   1      45.803  26.103  29.369  1.00  0.00     0.074 A 
ATOM     48  C   UNL A   1      46.104  24.754  28.943  1.00  0.00     0.031 C 
ATOM     49  C   UNL A   1      39.528  26.674  28.152  1.00  0.00     0.029 A 
ATOM     50  C   UNL A   1      40.421  27.668  28.737  1.00  0.00     0.049 A 
ATOM     51  H   UNL A   1      42.470  27.493  29.068  1.00  0.00     0.167 HD
ATOM     52  C   UNL A   1      46.710  26.951  29.909  1.00  0.00     0.031 A 
ATOM     53  C   UNL A   1      40.049  28.890  29.165  1.00  0.00     0.031 A 
ATOM     54  C   UNL A   1      46.426  28.304  30.302  1.00  0.00     0.049 A 
ATOM     55  C   UNL A   1      41.081  29.808  29.760  1.00  0.00     0.074 A 
ATOM     56  C   UNL A   1      47.302  29.264  30.779  1.00  0.00     0.029 A 
ATOM     57  N   UNL A   1      45.171  28.890  30.266  1.00  0.00    -0.354 N 
ATOM     58  N   UNL A   1      42.365  29.612  29.928  1.00  0.00    -0.248 NA
ATOM     59  C   UNL A   1      40.609  31.125  30.217  1.00  0.00     0.031 C 
ATOM     60  C   UNL A   1      46.569  30.416  31.077  1.00  0.00     0.029 A 
ATOM     61  C   UNL A   1      45.247  30.189  30.737  1.00  0.00     0.049 A 
ATOM     62  H   UNL A   1      44.350  28.447  29.952  1.00  0.00     0.167 HD
ATOM     63  C   UNL A   1      42.860  30.789  30.474  1.00  0.00     0.074 A 
ATOM     64  C   UNL A   1      41.741  31.699  30.598  1.00  0.00     0.031 C 
ATOM     65  C   UNL A   1      44.128  31.089  30.841  1.00  0.00     0.031 A 
BRANCH  52  66
ATOM     66  C   UNL A   1      48.109  26.438  30.113  1.00  0.00    -0.014 A 
ATOM     67  C   UNL A   1      48.490  25.819  31.313  1.00  0.00     0.009 A 
ATOM     68  C   UNL A   1      49.040  26.521  29.066  1.00  0.00     0.009 A 
ATOM     69  C   UNL A   1      49.785  25.320  31.471  1.00  0.00     0.001 A 
ATOM     70  C   UNL A   1      50.325  25.997  29.216  1.00  0.00     0.001 A 
ATOM     71  C   UNL A   1      50.698  25.403  30.421  1.00  0.00     0.000 A 
ENDBRANCH  52  66
BRANCH  53  72
ATOM     72  C   UNL A   1      38.636  29.336  29.044  1.00  0.00    -0.014 A 
ATOM     73  C   UNL A   1      37.759  29.219  30.135  1.00  0.00     0.009 A 
ATOM     74  C   UNL A   1      38.142  29.840  27.830  1.00  0.00     0.009 A 
ATOM     75  C   UNL A   1      36.411  29.560  30.001  1.00  0.00     0.001 A 
ATOM     76  C   UNL A   1      36.800  30.209  27.709  1.00  0.00     0.001 A 
ATOM     77  C   UNL A   1      35.934  30.057  28.790  1.00  0.00     0.000 A 
ENDBRANCH  53  72
BRANCH  65  78
ATOM     78  C   UNL A   1      44.386  32.474  31.364  1.00  0.00    -0.014 A 
ATOM     79  C   UNL A   1      44.695  33.535  30.499  1.00  0.00     0.009 A 
ATOM     80  C   UNL A   1      44.276  32.726  32.741  1.00  0.00     0.009 A 
ATOM     81  C   UNL A   1      44.921  34.815  31.008  1.00  0.00     0.001 A 
ATOM     82  C   UNL A   1      44.474  34.013  33.243  1.00  0.00     0.001 A 
ATOM     83  C   UNL A   1      44.805  35.053  32.377  1.00  0.00     0.000 A 
ENDBRANCH  65  78
ENDBRANCH  39  40
ENDBRANCH  31  34
ENDBRANCH  29  30
ENDBRANCH   1  29
TORSDOF 14
ENDMDL
MODEL 2
REMARK VINA RESULT:     -11.6      0.523      5.820
REMARK SMILES COc1ccc(-c2nc3ccc(C)cc3[nH]2)c(C(=O)NCCCCNC(=O)c2ccc(-c3c4nc(c(-c5ccccc5)c5ccc([nH]5)c(-c5ccccc5)c5nc(c(-c6ccccc6)c6ccc3[nH]6)C=C5)C=C4)cc2)c1OC
REMARK SMILES IDX 23 1 22 2 21 3 20 4 18 5 19 6 17 8 3 9 4 10 76 11 5 12 6 13
REMARK SMILES IDX 2 14 1 15 77 16 78 17 7 18 8 19 16 20 9 21 15 22 10 24 14 25
REMARK SMILES IDX 11 26 12 27 13 28 24 29 25 30 26 31 27 33 28 34 29 35 75 36
REMARK SMILES IDX 30 37 74 38 31 39 32 40 33 41 68 42 34 43 73 44 67 45 69 46
REMARK SMILES IDX 35 47 72 48 66 49 65 50 36 52 58 53 43 54 57 55 44 56 47 57
REMARK SMILES IDX 56 58 70 59 45 60 46 61 55 63 71 64 48 65 37 66 38 67 42 68
REMARK SMILES IDX 39 69 41 70 40 71 59 72 60 73 64 74 61 75 63 76 62 77 49 78
REMARK SMILES IDX 50 79 54 80 51 81 53 82 52 83
REMARK H PARENT 20 7 16 23 25 32 69 51 47 62
REMARK Flexibility Score: inf
ROOT
ATOM      1  C   UNL A   1      37.355  20.714  24.980  1.00  0.00     0.023 C 
ENDROOT
BRANCH   1   2
ATOM      2  C   UNL A   1      36.703  21.885  24.248  1.00  0.00     0.023 C 
BRANCH   2   3
ATOM      3  C   UNL A   1      36.374  23.119  25.074  1.00  0.00     0.116 C 
BRANCH   3   4
ATOM      4  N   UNL A   1      35.706  22.947  26.340  1.00  0.00    -0.352 N 
ATOM      5  C   UNL A   1      34.364  22.637  26.504  1.00  0.00     0.255 C 
ATOM      6  O   UNL A   1      33.985  22.046  27.512  1.00  0.00    -0.269 OA
ATOM      7  H   UNL A   1      36.246  23.060  27.155  1.00  0.00     0.163 HD
BRANCH   5   8
ATOM      8  C   UNL A   1      33.367  23.120  25.507  1.00  0.00     0.096 A 
ATOM      9  C   UNL A   1      32.101  24.877  24.386  1.00  0.00     0.161 A 
ATOM     10  C   UNL A   1      31.399  23.864  23.705  1.00  0.00     0.051 A 
ATOM     11  C   UNL A   1      33.126  24.511  25.279  1.00  0.00     0.174 A 
ATOM     12  C   UNL A   1      31.714  22.517  23.845  1.00  0.00     0.017 A 
ATOM     13  C   UNL A   1      32.705  22.122  24.742  1.00  0.00     0.034 A 
BRANCH   9  14
ATOM     14  O   UNL A   1      31.647  26.085  23.945  1.00  0.00    -0.493 OA
ATOM     15  C   UNL A   1      30.346  26.558  24.202  1.00  0.00     0.278 C 
ENDBRANCH   9  14
BRANCH  11  16
ATOM     16  O   UNL A   1      34.105  25.383  25.696  1.00  0.00    -0.492 OA
ATOM     17  C   UNL A   1      33.703  26.652  26.198  1.00  0.00     0.278 C 
ENDBRANCH  11  16
BRANCH  13  18
ATOM     18  C   UNL A   1      33.057  20.697  24.801  1.00  0.00     0.139 A 
ATOM     19  N   UNL A   1      33.936  20.063  24.052  1.00  0.00    -0.228 NA
ATOM     20  N   UNL A   1      32.438  19.811  25.662  1.00  0.00    -0.338 N 
ATOM     21  C   UNL A   1      33.788  18.727  24.351  1.00  0.00     0.089 A 
ATOM     22  C   UNL A   1      32.862  18.540  25.367  1.00  0.00     0.066 A 
ATOM     23  H   UNL A   1      31.799  20.052  26.371  1.00  0.00     0.168 HD
ATOM     24  C   UNL A   1      34.399  17.607  23.773  1.00  0.00     0.031 A 
ATOM     25  C   UNL A   1      32.499  17.279  25.859  1.00  0.00     0.031 A 
ATOM     26  C   UNL A   1      34.035  16.330  24.224  1.00  0.00     0.006 A 
ATOM     27  C   UNL A   1      33.098  16.160  25.255  1.00  0.00    -0.049 A 
ATOM     28  C   UNL A   1      32.716  14.766  25.671  1.00  0.00     0.044 C 
ENDBRANCH  13  18
ENDBRANCH   5   8
ENDBRANCH   3   4
ENDBRANCH   2   3
ENDBRANCH   1   2
BRANCH   1  29
ATOM     29  C   UNL A   1      38.667  20.978  25.716  1.00  0.00     0.116 C 
BRANCH  29  30
ATOM     30  N   UNL A   1      39.642  19.901  25.632  1.00  0.00    -0.352 N 
ATOM     31  C   UNL A   1      40.968  19.855  26.020  1.00  0.00     0.251 C 
ATOM     32  H   UNL A   1      39.302  19.068  25.233  1.00  0.00     0.163 HD
ATOM     33  O   UNL A   1      41.625  18.846  25.828  1.00  0.00    -0.269 OA
BRANCH  31  34
ATOM     34  C   UNL A   1      41.613  21.051  26.617  1.00  0.00     0.039 A 
ATOM     35  C   UNL A   1      42.127  22.031  25.761  1.00  0.00     0.014 A 
ATOM     36  C   UNL A   1      41.688  21.229  27.998  1.00  0.00     0.014 A 
ATOM     37  C   UNL A   1      42.603  23.235  26.288  1.00  0.00     0.010 A 
ATOM     38  C   UNL A   1      42.078  22.462  28.516  1.00  0.00     0.010 A 
ATOM     39  C   UNL A   1      42.524  23.487  27.668  1.00  0.00    -0.014 A 
BRANCH  39  40
ATOM     40  C   UNL A   1      42.869  24.817  28.238  1.00  0.00     0.031 A 
ATOM     41  C   UNL A   1      41.799  25.855  28.454  1.00  0.00     0.074 A 
ATOM     42  C   UNL A   1      44.160  25.128  28.481  1.00  0.00     0.049 A 
ATOM     43  N   UNL A   1      41.921  27.094  28.858  1.00  0.00    -0.248 NA
ATOM     44  C   UNL A   1      40.415  25.457  28.149  1.00  0.00     0.031 C 
ATOM     45  C   UNL A   1      45.304  24.237  28.273  1.00  0.00     0.029 A 
ATOM     46  N   UNL A   1      44.729  26.287  28.948  1.00  0.00    -0.354 N 
ATOM     47  C   UNL A   1      40.640  27.630  28.824  1.00  0.00     0.074 A 
ATOM     48  C   UNL A   1      39.761  26.596  28.327  1.00  0.00     0.031 C 
ATOM     49  C   UNL A   1      46.431  24.872  28.638  1.00  0.00     0.029 A 
ATOM     50  C   UNL A   1      46.097  26.226  29.064  1.00  0.00     0.049 A 
ATOM     51  H   UNL A   1      44.205  27.089  29.180  1.00  0.00     0.167 HD
ATOM     52  C   UNL A   1      40.228  28.867  29.191  1.00  0.00     0.031 A 
ATOM     53  C   UNL A   1      46.987  27.157  29.461  1.00  0.00     0.031 A 
ATOM     54  C   UNL A   1      41.091  29.889  29.719  1.00  0.00     0.049 A 
ATOM     55  C   UNL A   1      46.497  28.521  29.862  1.00  0.00     0.074 A 
ATOM     56  C   UNL A   1      40.748  31.142  30.197  1.00  0.00     0.029 A 
ATOM     57  N   UNL A   1      42.466  29.777  29.838  1.00  0.00    -0.354 N 
ATOM     58  N   UNL A   1      45.271  28.980  29.907  1.00  0.00    -0.248 NA
ATOM     59  C   UNL A   1      47.519  29.494  30.277  1.00  0.00     0.031 C 
ATOM     60  C   UNL A   1      41.922  31.808  30.560  1.00  0.00     0.029 A 
ATOM     61  C   UNL A   1      42.989  30.949  30.357  1.00  0.00     0.049 A 
ATOM     62  H   UNL A   1      42.992  28.983  29.590  1.00  0.00     0.167 HD
ATOM     63  C   UNL A   1      45.371  30.279  30.389  1.00  0.00     0.074 A 
ATOM     64  C   UNL A   1      46.775  30.531  30.633  1.00  0.00     0.031 C 
ATOM     65  C   UNL A   1      44.386  31.182  30.608  1.00  0.00     0.031 A 
BRANCH  52  66
ATOM     66  C   UNL A   1      38.769  29.192  29.032  1.00  0.00    -0.014 A 
ATOM     67  C   UNL A   1      37.867  29.034  30.095  1.00  0.00     0.009 A 
ATOM     68  C   UNL A   1      38.302  29.722  27.819  1.00  0.00     0.009 A 
ATOM     69  C   UNL A   1      36.521  29.372  29.937  1.00  0.00     0.001 A 
ATOM     70  C   UNL A   1      36.963  30.086  27.672  1.00  0.00     0.001 A 
ATOM     71  C   UNL A   1      36.072  29.903  28.729  1.00  0.00     0.000 A 
ENDBRANCH  52  66
BRANCH  53  72
ATOM     72  C   UNL A   1      48.439  26.840  29.514  1.00  0.00    -0.014 A 
ATOM     73  C   UNL A   1      49.253  27.052  28.389  1.00  0.00     0.009 A 
ATOM     74  C   UNL A   1      49.013  26.287  30.669  1.00  0.00     0.009 A 
ATOM     75  C   UNL A   1      50.599  26.681  28.407  1.00  0.00     0.001 A 
ATOM     76  C   UNL A   1      50.367  25.945  30.694  1.00  0.00     0.001 A 
ATOM     77  C   UNL A   1      51.156  26.130  29.560  1.00  0.00     0.000 A 
ENDBRANCH  53  72
BRANCH  65  78
ATOM     78  C   UNL A   1      44.785  32.510  31.188  1.00  0.00    -0.014 A 
ATOM     79  C   UNL A   1      44.869  32.707  32.574  1.00  0.00     0.009 A 
ATOM     80  C   UNL A   1      45.122  33.567  30.327  1.00  0.00     0.009 A 
ATOM     81  C   UNL A   1      45.251  33.947  33.088  1.00  0.00     0.001 A 
ATOM     82  C   UNL A   1      45.531  34.797  30.844  1.00  0.00     0.001 A 
ATOM     83  C   UNL A   1      45.587  34.988  32.223  1.00  0.00     0.000 A 
ENDBRANCH  65  78
ENDBRANCH  39  40
ENDBRANCH  31  34
ENDBRANCH  29  30
ENDBRANCH   1  29
TORSDOF 14
ENDMDL
MODEL 3
REMARK VINA RESULT:     -11.5      3.559      8.958
REMARK SMILES COc1ccc(-c2nc3ccc(C)cc3[nH]2)c(C(=O)NCCCCNC(=O)c2ccc(-c3c4nc(c(-c5ccccc5)c5ccc([nH]5)c(-c5ccccc5)c5nc(c(-c6ccccc6)c6ccc3[nH]6)C=C5)C=C4)cc2)c1OC
REMARK SMILES IDX 23 1 22 2 21 3 20 4 18 5 19 6 17 8 3 9 4 10 76 11 5 12 6 13
REMARK SMILES IDX 2 14 1 15 77 16 78 17 7 18 8 19 16 20 9 21 15 22 10 24 14 25
REMARK SMILES IDX 11 26 12 27 13 28 24 29 25 30 26 31 27 33 28 34 29 35 75 36
REMARK SMILES IDX 30 37 74 38 31 39 32 40 33 41 68 42 34 43 73 44 67 45 69 46
REMARK SMILES IDX 35 47 72 48 66 49 65 50 36 52 58 53 43 54 57 55 44 56 47 57
REMARK SMILES IDX 56 58 70 59 45 60 46 61 55 63 71 64 48 65 37 66 38 67 42 68
REMARK SMILES IDX 39 69 41 70 40 71 59 72 60 73 64 74 61 75 63 76 62 77 49 78
REMARK SMILES IDX 50 79 54 80 51 81 53 82 52 83
REMARK H PARENT 20 7 16 23 25 32 69 51 47 62
REMARK Flexibility Score: inf
ROOT
ATOM      1  C   UNL A   1      31.766  29.951  26.603  1.00  0.00     0.023 C 
ENDROOT
BRANCH   1   2
ATOM      2  C   UNL A   1      31.758  28.597  27.310  1.00  0.00     0.023 C 
BRANCH   2   3
ATOM      3  C   UNL A   1      32.300  27.408  26.533  1.00  0.00     0.116 C 
BRANCH   3   4
ATOM      4  N   UNL A   1      33.290  27.641  25.512  1.00  0.00    -0.352 N 
ATOM      5  C   UNL A   1      33.264  27.109  24.232  1.00  0.00     0.255 C 
ATOM      6  O   UNL A   1      33.818  27.697  23.306  1.00  0.00    -0.269 OA
ATOM      7  H   UNL A   1      34.047  28.227  25.742  1.00  0.00     0.163 HD
BRANCH   5   8
ATOM      8  C   UNL A   1      32.659  25.766  24.002  1.00  0.00     0.096 A 
ATOM      9  C   UNL A   1      32.721  23.329  24.029  1.00  0.00     0.161 A 
ATOM     10  C   UNL A   1      31.458  23.341  23.407  1.00  0.00     0.051 A 
ATOM     11  C   UNL A   1      33.326  24.555  24.367  1.00  0.00     0.174 A 
ATOM     12  C   UNL A   1      30.763  24.520  23.158  1.00  0.00     0.017 A 
ATOM     13  C   UNL A   1      31.348  25.750  23.456  1.00  0.00     0.034 A 
BRANCH   9  14
ATOM     14  O   UNL A   1      33.079  22.030  24.248  1.00  0.00    -0.493 OA
ATOM     15  C   UNL A   1      32.563  21.258  25.305  1.00  0.00     0.278 C 
ENDBRANCH   9  14
BRANCH  11  16
ATOM     16  O   UNL A   1      34.341  24.662  25.289  1.00  0.00    -0.492 OA
ATOM     17  C   UNL A   1      35.601  24.084  24.969  1.00  0.00     0.278 C 
ENDBRANCH  11  16
BRANCH  13  18
ATOM     18  C   UNL A   1      30.547  26.964  23.248  1.00  0.00     0.139 A 
ATOM     19  N   UNL A   1      29.347  27.219  23.729  1.00  0.00    -0.228 NA
ATOM     20  N   UNL A   1      30.969  28.007  22.446  1.00  0.00    -0.338 N 
ATOM     21  C   UNL A   1      28.941  28.386  23.123  1.00  0.00     0.089 A 
ATOM     22  C   UNL A   1      29.944  28.911  22.320  1.00  0.00     0.066 A 
ATOM     23  H   UNL A   1      31.859  28.089  22.032  1.00  0.00     0.168 HD
ATOM     24  C   UNL A   1      27.710  29.051  23.193  1.00  0.00     0.031 A 
ATOM     25  C   UNL A   1      29.798  30.084  21.569  1.00  0.00     0.031 A 
ATOM     26  C   UNL A   1      27.523  30.212  22.430  1.00  0.00     0.006 A 
ATOM     27  C   UNL A   1      28.550  30.729  21.625  1.00  0.00    -0.049 A 
ATOM     28  C   UNL A   1      28.281  31.955  20.796  1.00  0.00     0.044 C 
ENDBRANCH  13  18
ENDBRANCH   5   8
ENDBRANCH   3   4
ENDBRANCH   2   3
ENDBRANCH   1   2
BRANCH   1  29
ATOM     29  C   UNL A   1      32.860  30.945  26.986  1.00  0.00     0.116 C 
BRANCH  29  30
ATOM     30  N   UNL A   1      32.385  32.285  27.301  1.00  0.00    -0.352 N 
ATOM     31  C   UNL A   1      32.996  33.318  27.986  1.00  0.00     0.251 C 
ATOM     32  H   UNL A   1      31.480  32.488  26.973  1.00  0.00     0.163 HD
ATOM     33  O   UNL A   1      32.400  34.365  28.169  1.00  0.00    -0.269 OA
BRANCH  31  34
ATOM     34  C   UNL A   1      34.356  33.136  28.553  1.00  0.00     0.039 A 
ATOM     35  C   UNL A   1      34.483  32.511  29.799  1.00  0.00     0.014 A 
ATOM     36  C   UNL A   1      35.497  33.545  27.863  1.00  0.00     0.014 A 
ATOM     37  C   UNL A   1      35.753  32.190  30.289  1.00  0.00     0.010 A 
ATOM     38  C   UNL A   1      36.755  33.146  28.309  1.00  0.00     0.010 A 
ATOM     39  C   UNL A   1      36.898  32.449  29.519  1.00  0.00    -0.014 A 
BRANCH  39  40
ATOM     40  C   UNL A   1      38.244  31.972  29.939  1.00  0.00     0.031 A 
ATOM     41  C   UNL A   1      38.785  30.665  29.424  1.00  0.00     0.074 A 
ATOM     42  C   UNL A   1      38.946  32.671  30.856  1.00  0.00     0.049 A 
ATOM     43  N   UNL A   1      39.895  30.048  29.743  1.00  0.00    -0.248 NA
ATOM     44  C   UNL A   1      37.960  29.943  28.442  1.00  0.00     0.031 C 
ATOM     45  C   UNL A   1      38.522  33.929  31.477  1.00  0.00     0.029 A 
ATOM     46  N   UNL A   1      40.165  32.416  31.435  1.00  0.00    -0.354 N 
ATOM     47  C   UNL A   1      39.884  28.856  29.029  1.00  0.00     0.074 A 
ATOM     48  C   UNL A   1      38.642  28.818  28.288  1.00  0.00     0.031 C 
ATOM     49  C   UNL A   1      39.476  34.348  32.324  1.00  0.00     0.029 A 
ATOM     50  C   UNL A   1      40.559  33.371  32.342  1.00  0.00     0.049 A 
ATOM     51  H   UNL A   1      40.708  31.622  31.220  1.00  0.00     0.167 HD
ATOM     52  C   UNL A   1      40.829  27.887  28.981  1.00  0.00     0.031 A 
ATOM     53  C   UNL A   1      41.663  33.449  33.110  1.00  0.00     0.031 A 
ATOM     54  C   UNL A   1      42.080  27.935  29.687  1.00  0.00     0.049 A 
ATOM     55  C   UNL A   1      42.694  32.357  33.032  1.00  0.00     0.074 A 
ATOM     56  C   UNL A   1      43.134  27.040  29.631  1.00  0.00     0.029 A 
ATOM     57  N   UNL A   1      42.446  28.930  30.579  1.00  0.00    -0.354 N 
ATOM     58  N   UNL A   1      42.706  31.282  32.285  1.00  0.00    -0.248 NA
ATOM     59  C   UNL A   1      43.872  32.498  33.902  1.00  0.00     0.031 C 
ATOM     60  C   UNL A   1      44.119  27.467  30.526  1.00  0.00     0.029 A 
ATOM     61  C   UNL A   1      43.699  28.655  31.099  1.00  0.00     0.049 A 
ATOM     62  H   UNL A   1      41.896  29.713  30.808  1.00  0.00     0.167 HD
ATOM     63  C   UNL A   1      43.904  30.638  32.566  1.00  0.00     0.074 A 
ATOM     64  C   UNL A   1      44.599  31.450  33.542  1.00  0.00     0.031 C 
ATOM     65  C   UNL A   1      44.385  29.478  32.060  1.00  0.00     0.031 A 
BRANCH  52  66
ATOM     66  C   UNL A   1      40.546  26.680  28.131  1.00  0.00    -0.014 A 
ATOM     67  C   UNL A   1      39.774  25.613  28.615  1.00  0.00     0.009 A 
ATOM     68  C   UNL A   1      41.008  26.638  26.806  1.00  0.00     0.009 A 
ATOM     69  C   UNL A   1      39.495  24.514  27.799  1.00  0.00     0.001 A 
ATOM     70  C   UNL A   1      40.705  25.552  25.983  1.00  0.00     0.001 A 
ATOM     71  C   UNL A   1      39.955  24.488  26.483  1.00  0.00     0.000 A 
ENDBRANCH  52  66
BRANCH  53  72
ATOM     72  C   UNL A   1      41.871  34.608  34.019  1.00  0.00    -0.014 A 
ATOM     73  C   UNL A   1      41.405  34.563  35.343  1.00  0.00     0.009 A 
ATOM     74  C   UNL A   1      42.495  35.778  33.561  1.00  0.00     0.009 A 
ATOM     75  C   UNL A   1      41.526  35.677  36.175  1.00  0.00     0.001 A 
ATOM     76  C   UNL A   1      42.641  36.882  34.406  1.00  0.00     0.001 A 
ATOM     77  C   UNL A   1      42.146  36.835  35.707  1.00  0.00     0.000 A 
ENDBRANCH  53  72
BRANCH  65  78
ATOM     78  C   UNL A   1      45.750  29.041  32.513  1.00  0.00    -0.014 A 
ATOM     79  C   UNL A   1      46.910  29.463  31.848  1.00  0.00     0.009 A 
ATOM     80  C   UNL A   1      45.872  28.227  33.651  1.00  0.00     0.009 A 
ATOM     81  C   UNL A   1      48.167  29.050  32.294  1.00  0.00     0.001 A 
ATOM     82  C   UNL A   1      47.132  27.841  34.112  1.00  0.00     0.001 A 
ATOM     83  C   UNL A   1      48.277  28.245  33.428  1.00  0.00     0.000 A 
ENDBRANCH  65  78
ENDBRANCH  39  40
ENDBRANCH  31  34
ENDBRANCH  29  30
ENDBRANCH   1  29
TORSDOF 14
ENDMDL
