MODEL 1
REMARK VINA RESULT:     -12.4      0.000      0.000
REMARK SMILES Cc1oc2cc(OCC(=O)NCCCCNC(=O)c3ccc(-c4c5nc(c(-c6ccccc6)c6ccc([nH]6)c(-c6ccccc6)c6nc(c(-c7ccccc7)c7ccc4[nH]7)C=C6)C=C5)cc3)ccc2c(=O)c1Oc1ccc(Cl)cc1Cl
REMARK SMILES IDX 12 1 11 2 9 3 10 4 8 6 7 7 6 8 1 9 2 10 3 11 72 12 4 13
REMARK SMILES IDX 70 14 5 15 69 16 71 17 68 18 67 19 73 20 74 21 75 22 80 23
REMARK SMILES IDX 76 24 79 25 81 26 77 27 78 28 13 29 14 30 15 31 16 32 17 33
REMARK SMILES IDX 18 35 19 36 20 37 66 38 21 39 65 40 22 41 23 42 24 43 59 44
REMARK SMILES IDX 25 45 64 46 58 47 60 48 26 49 63 50 57 51 56 52 27 54 49 55
REMARK SMILES IDX 34 56 48 57 35 58 38 59 47 60 61 61 36 62 37 63 46 65 62 66
REMARK SMILES IDX 39 67 28 68 29 69 33 70 30 71 32 72 31 73 50 74 51 75 55 76
REMARK SMILES IDX 52 77 54 78 53 79 40 80 41 81 45 82 42 83 44 84 43 85
REMARK H PARENT 11 5 16 34 60 53 38 64
REMARK Flexibility Score: inf
ROOT
ATOM      1  C   UNL A   1      31.517  29.636  25.295  1.00  0.00     0.116 C 
ENDROOT
BRANCH   1   2
ATOM      2  N   UNL A   1      30.531  30.417  24.576  1.00  0.00    -0.353 N 
ATOM      3  C   UNL A   1      29.877  30.084  23.424  1.00  0.00     0.257 C 
ATOM      4  O   UNL A   1      29.029  30.859  22.977  1.00  0.00    -0.271 OA
ATOM      5  H   UNL A   1      30.304  31.293  24.964  1.00  0.00     0.163 HD
BRANCH   3   6
ATOM      6  C   UNL A   1      30.187  28.747  22.739  1.00  0.00     0.329 C 
BRANCH   6   7
ATOM      7  O   UNL A   1      29.474  27.619  23.232  1.00  0.00    -0.484 OA
BRANCH   7   8
ATOM      8  C   UNL A   1      30.198  26.622  23.825  1.00  0.00     0.123 A 
ATOM      9  C   UNL A   1      34.957  23.114  23.144  1.00  0.00     0.092 C 
ATOM     10  C   UNL A   1      33.845  23.533  24.063  1.00  0.00     0.148 A 
ATOM     11  O   UNL A   1      33.202  24.625  23.501  1.00  0.00    -0.457 OA
ATOM     12  C   UNL A   1      33.474  22.967  25.242  1.00  0.00     0.213 A 
ATOM     13  C   UNL A   1      32.045  25.084  24.051  1.00  0.00     0.142 A 
ATOM     14  C   UNL A   1      32.257  23.526  25.922  1.00  0.00     0.235 A 
ATOM     15  C   UNL A   1      31.392  26.093  23.345  1.00  0.00     0.094 A 
ATOM     16  C   UNL A   1      31.525  24.595  25.233  1.00  0.00     0.069 A 
ATOM     17  O   UNL A   1      31.855  23.098  26.999  1.00  0.00    -0.285 OA
ATOM     18  C   UNL A   1      30.325  25.111  25.728  1.00  0.00     0.020 A 
ATOM     19  C   UNL A   1      29.664  26.121  25.018  1.00  0.00     0.047 A 
BRANCH  12  20
ATOM     20  O   UNL A   1      34.039  21.897  25.930  1.00  0.00    -0.448 OA
BRANCH  20  21
ATOM     21  C   UNL A   1      34.014  20.627  25.424  1.00  0.00     0.146 A 
ATOM     22  C   UNL A   1      32.762  20.007  25.350  1.00  0.00     0.050 A 
ATOM     23  C   UNL A   1      35.166  19.942  25.021  1.00  0.00     0.085 A 
ATOM     24  C   UNL A   1      32.648  18.744  24.769  1.00  0.00     0.024 A 
ATOM     25  C   UNL A   1      35.050  18.680  24.435  1.00  0.00     0.045 A 
ATOM     26  Cl  UNL A   1      36.738  20.630  25.191  1.00  0.00    -0.080 Cl
ATOM     27  C   UNL A   1      33.790  18.097  24.296  1.00  0.00     0.042 A 
ATOM     28  Cl  UNL A   1      33.639  16.569  23.522  1.00  0.00    -0.084 Cl
ENDBRANCH  20  21
ENDBRANCH  12  20
ENDBRANCH   7   8
ENDBRANCH   6   7
ENDBRANCH   3   6
ENDBRANCH   1   2
BRANCH   1  29
ATOM     29  C   UNL A   1      31.931  30.289  26.612  1.00  0.00     0.023 C 
BRANCH  29  30
ATOM     30  C   UNL A   1      31.668  31.793  26.704  1.00  0.00     0.023 C 
BRANCH  30  31
ATOM     31  C   UNL A   1      32.815  32.633  27.257  1.00  0.00     0.116 C 
BRANCH  31  32
ATOM     32  N   UNL A   1      32.421  33.990  27.603  1.00  0.00    -0.352 N 
ATOM     33  C   UNL A   1      32.974  34.848  28.524  1.00  0.00     0.251 C 
ATOM     34  H   UNL A   1      31.650  34.345  27.105  1.00  0.00     0.163 HD
ATOM     35  O   UNL A   1      32.445  35.931  28.753  1.00  0.00    -0.269 OA
BRANCH  33  36
ATOM     36  C   UNL A   1      34.185  34.446  29.270  1.00  0.00     0.039 A 
ATOM     37  C   UNL A   1      34.034  33.879  30.539  1.00  0.00     0.014 A 
ATOM     38  C   UNL A   1      35.458  34.602  28.716  1.00  0.00     0.014 A 
ATOM     39  C   UNL A   1      35.152  33.391  31.217  1.00  0.00     0.010 A 
ATOM     40  C   UNL A   1      36.564  34.057  29.364  1.00  0.00     0.010 A 
ATOM     41  C   UNL A   1      36.420  33.436  30.615  1.00  0.00    -0.014 A 
BRANCH  41  42
ATOM     42  C   UNL A   1      37.603  32.810  31.259  1.00  0.00     0.031 A 
ATOM     43  C   UNL A   1      38.253  31.603  30.643  1.00  0.00     0.074 A 
ATOM     44  C   UNL A   1      38.041  33.280  32.443  1.00  0.00     0.049 A 
ATOM     45  N   UNL A   1      39.237  30.872  31.104  1.00  0.00    -0.248 NA
ATOM     46  C   UNL A   1      37.715  31.144  29.353  1.00  0.00     0.031 C 
ATOM     47  C   UNL A   1      37.474  34.421  33.166  1.00  0.00     0.029 A 
ATOM     48  N   UNL A   1      39.059  32.846  33.255  1.00  0.00    -0.354 N 
ATOM     49  C   UNL A   1      39.420  29.857  30.174  1.00  0.00     0.074 A 
ATOM     50  C   UNL A   1      38.422  30.043  29.143  1.00  0.00     0.031 C 
ATOM     51  C   UNL A   1      38.163  34.607  34.304  1.00  0.00     0.029 A 
ATOM     52  C   UNL A   1      39.191  33.576  34.412  1.00  0.00     0.049 A 
ATOM     53  H   UNL A   1      39.639  32.082  33.031  1.00  0.00     0.167 HD
ATOM     54  C   UNL A   1      40.346  28.869  30.169  1.00  0.00     0.031 A 
ATOM     55  C   UNL A   1      40.034  33.427  35.450  1.00  0.00     0.031 A 
ATOM     56  C   UNL A   1      41.347  28.688  31.186  1.00  0.00     0.049 A 
ATOM     57  C   UNL A   1      41.040  32.309  35.430  1.00  0.00     0.074 A 
ATOM     58  C   UNL A   1      42.367  27.753  31.235  1.00  0.00     0.029 A 
ATOM     59  N   UNL A   1      41.451  29.454  32.336  1.00  0.00    -0.354 N 
ATOM     60  N   UNL A   1      41.244  31.402  34.507  1.00  0.00    -0.248 NA
ATOM     61  C   UNL A   1      41.934  32.202  36.592  1.00  0.00     0.031 C 
ATOM     62  C   UNL A   1      43.058  27.923  32.439  1.00  0.00     0.029 A 
ATOM     63  C   UNL A   1      42.500  28.996  33.115  1.00  0.00     0.049 A 
ATOM     64  H   UNL A   1      40.865  30.211  32.567  1.00  0.00     0.167 HD
ATOM     65  C   UNL A   1      42.305  30.630  34.965  1.00  0.00     0.074 A 
ATOM     66  C   UNL A   1      42.710  31.187  36.240  1.00  0.00     0.031 C 
ATOM     67  C   UNL A   1      42.890  29.557  34.381  1.00  0.00     0.031 A 
BRANCH  54  68
ATOM     68  C   UNL A   1      40.312  27.894  29.025  1.00  0.00    -0.014 A 
ATOM     69  C   UNL A   1      41.021  28.141  27.839  1.00  0.00     0.009 A 
ATOM     70  C   UNL A   1      39.593  26.696  29.150  1.00  0.00     0.009 A 
ATOM     71  C   UNL A   1      40.982  27.223  26.787  1.00  0.00     0.001 A 
ATOM     72  C   UNL A   1      39.578  25.767  28.108  1.00  0.00     0.001 A 
ATOM     73  C   UNL A   1      40.264  26.035  26.924  1.00  0.00     0.000 A 
ENDBRANCH  54  68
BRANCH  55  74
ATOM     74  C   UNL A   1      39.971  34.364  36.600  1.00  0.00    -0.014 A 
ATOM     75  C   UNL A   1      39.203  34.051  37.732  1.00  0.00     0.009 A 
ATOM     76  C   UNL A   1      40.674  35.579  36.571  1.00  0.00     0.009 A 
ATOM     77  C   UNL A   1      39.119  34.946  38.800  1.00  0.00     0.001 A 
ATOM     78  C   UNL A   1      40.611  36.460  37.654  1.00  0.00     0.001 A 
ATOM     79  C   UNL A   1      39.827  36.147  38.762  1.00  0.00     0.000 A 
ENDBRANCH  55  74
BRANCH  67  80
ATOM     80  C   UNL A   1      44.051  28.931  35.101  1.00  0.00    -0.014 A 
ATOM     81  C   UNL A   1      43.856  27.924  36.058  1.00  0.00     0.009 A 
ATOM     82  C   UNL A   1      45.361  29.323  34.782  1.00  0.00     0.009 A 
ATOM     83  C   UNL A   1      44.949  27.341  36.701  1.00  0.00     0.001 A 
ATOM     84  C   UNL A   1      46.453  28.721  35.407  1.00  0.00     0.001 A 
ATOM     85  C   UNL A   1      46.246  27.736  36.372  1.00  0.00     0.000 A 
ENDBRANCH  67  80
ENDBRANCH  41  42
ENDBRANCH  33  36
ENDBRANCH  31  32
ENDBRANCH  30  31
ENDBRANCH  29  30
ENDBRANCH   1  29
TORSDOF 15
ENDMDL
MODEL 2
REMARK VINA RESULT:     -12.2      1.289      5.916
REMARK SMILES Cc1oc2cc(OCC(=O)NCCCCNC(=O)c3ccc(-c4c5nc(c(-c6ccccc6)c6ccc([nH]6)c(-c6ccccc6)c6nc(c(-c7ccccc7)c7ccc4[nH]7)C=C6)C=C5)cc3)ccc2c(=O)c1Oc1ccc(Cl)cc1Cl
REMARK SMILES IDX 12 1 11 2 9 3 10 4 8 6 7 7 6 8 1 9 2 10 3 11 72 12 4 13
REMARK SMILES IDX 70 14 5 15 69 16 71 17 68 18 67 19 73 20 74 21 75 22 80 23
REMARK SMILES IDX 76 24 79 25 81 26 77 27 78 28 13 29 14 30 15 31 16 32 17 33
REMARK SMILES IDX 18 35 19 36 20 37 66 38 21 39 65 40 22 41 23 42 24 43 59 44
REMARK SMILES IDX 25 45 64 46 58 47 60 48 26 49 63 50 57 51 56 52 27 54 49 55
REMARK SMILES IDX 34 56 48 57 35 58 38 59 47 60 61 61 36 62 37 63 46 65 62 66
REMARK SMILES IDX 39 67 28 68 29 69 33 70 30 71 32 72 31 73 50 74 51 75 55 76
REMARK SMILES IDX 52 77 54 78 53 79 40 80 41 81 45 82 42 83 44 84 43 85
REMARK H PARENT 11 5 16 34 60 53 38 64
REMARK Flexibility Score: inf
ROOT
ATOM      1  C   UNL A   1      31.217  30.065  24.649  1.00  0.00     0.116 C 
ENDROOT
BRANCH   1   2
ATOM      2  N   UNL A   1      30.078  30.895  24.314  1.00  0.00    -0.353 N 
ATOM      3  C   UNL A   1      29.114  30.658  23.376  1.00  0.00     0.257 C 
ATOM      4  O   UNL A   1      28.186  31.461  23.262  1.00  0.00    -0.271 OA
ATOM      5  H   UNL A   1      29.987  31.732  24.826  1.00  0.00     0.163 HD
BRANCH   3   6
ATOM      6  C   UNL A   1      29.192  29.388  22.519  1.00  0.00     0.329 C 
BRANCH   6   7
ATOM      7  O   UNL A   1      28.828  28.177  23.170  1.00  0.00    -0.484 OA
BRANCH   7   8
ATOM      8  C   UNL A   1      29.789  27.214  23.302  1.00  0.00     0.123 A 
ATOM      9  C   UNL A   1      31.767  22.891  26.881  1.00  0.00     0.092 C 
ATOM     10  C   UNL A   1      31.930  23.575  25.554  1.00  0.00     0.148 A 
ATOM     11  O   UNL A   1      30.875  24.458  25.385  1.00  0.00    -0.457 OA
ATOM     12  C   UNL A   1      32.927  23.412  24.644  1.00  0.00     0.213 A 
ATOM     13  C   UNL A   1      30.885  25.332  24.342  1.00  0.00     0.142 A 
ATOM     14  C   UNL A   1      32.903  24.297  23.430  1.00  0.00     0.235 A 
ATOM     15  C   UNL A   1      29.859  26.275  24.326  1.00  0.00     0.094 A 
ATOM     16  C   UNL A   1      31.844  25.309  23.349  1.00  0.00     0.069 A 
ATOM     17  O   UNL A   1      33.745  24.212  22.543  1.00  0.00    -0.285 OA
ATOM     18  C   UNL A   1      31.793  26.249  22.316  1.00  0.00     0.020 A 
ATOM     19  C   UNL A   1      30.766  27.200  22.299  1.00  0.00     0.047 A 
BRANCH  12  20
ATOM     20  O   UNL A   1      34.022  22.553  24.670  1.00  0.00    -0.448 OA
BRANCH  20  21
ATOM     21  C   UNL A   1      33.877  21.205  24.494  1.00  0.00     0.146 A 
ATOM     22  C   UNL A   1      32.655  20.769  23.972  1.00  0.00     0.050 A 
ATOM     23  C   UNL A   1      34.869  20.279  24.838  1.00  0.00     0.085 A 
ATOM     24  C   UNL A   1      32.466  19.416  23.689  1.00  0.00     0.024 A 
ATOM     25  C   UNL A   1      34.681  18.926  24.550  1.00  0.00     0.045 A 
ATOM     26  Cl  UNL A   1      36.348  20.765  25.579  1.00  0.00    -0.080 Cl
ATOM     27  C   UNL A   1      33.487  18.506  23.960  1.00  0.00     0.042 A 
ATOM     28  Cl  UNL A   1      33.277  16.849  23.550  1.00  0.00    -0.084 Cl
ENDBRANCH  20  21
ENDBRANCH  12  20
ENDBRANCH   7   8
ENDBRANCH   6   7
ENDBRANCH   3   6
ENDBRANCH   1   2
BRANCH   1  29
ATOM     29  C   UNL A   1      31.757  30.350  26.049  1.00  0.00     0.023 C 
BRANCH  29  30
ATOM     30  C   UNL A   1      31.520  31.772  26.561  1.00  0.00     0.023 C 
BRANCH  30  31
ATOM     31  C   UNL A   1      32.707  32.433  27.252  1.00  0.00     0.116 C 
BRANCH  31  32
ATOM     32  N   UNL A   1      32.451  33.810  27.646  1.00  0.00    -0.352 N 
ATOM     33  C   UNL A   1      33.160  34.614  28.507  1.00  0.00     0.251 C 
ATOM     34  H   UNL A   1      31.658  34.225  27.238  1.00  0.00     0.163 HD
ATOM     35  O   UNL A   1      32.738  35.729  28.798  1.00  0.00    -0.269 OA
BRANCH  33  36
ATOM     36  C   UNL A   1      34.413  34.118  29.114  1.00  0.00     0.039 A 
ATOM     37  C   UNL A   1      34.343  33.423  30.324  1.00  0.00     0.014 A 
ATOM     38  C   UNL A   1      35.645  34.314  28.485  1.00  0.00     0.014 A 
ATOM     39  C   UNL A   1      35.497  32.850  30.861  1.00  0.00     0.010 A 
ATOM     40  C   UNL A   1      36.784  33.689  28.988  1.00  0.00     0.010 A 
ATOM     41  C   UNL A   1      36.718  32.940  30.174  1.00  0.00    -0.014 A 
BRANCH  41  42
ATOM     42  C   UNL A   1      37.930  32.232  30.659  1.00  0.00     0.031 A 
ATOM     43  C   UNL A   1      38.778  32.833  31.744  1.00  0.00     0.074 A 
ATOM     44  C   UNL A   1      38.312  31.085  30.062  1.00  0.00     0.049 A 
ATOM     45  N   UNL A   1      39.915  32.404  32.234  1.00  0.00    -0.248 NA
ATOM     46  C   UNL A   1      38.300  34.089  32.342  1.00  0.00     0.031 C 
ATOM     47  C   UNL A   1      37.599  30.417  28.972  1.00  0.00     0.029 A 
ATOM     48  N   UNL A   1      39.406  30.286  30.282  1.00  0.00    -0.354 N 
ATOM     49  C   UNL A   1      40.296  33.347  33.180  1.00  0.00     0.074 A 
ATOM     50  C   UNL A   1      39.292  34.389  33.167  1.00  0.00     0.031 C 
ATOM     51  C   UNL A   1      38.263  29.301  28.631  1.00  0.00     0.029 A 
ATOM     52  C   UNL A   1      39.468  29.196  29.448  1.00  0.00     0.049 A 
ATOM     53  H   UNL A   1      40.083  30.476  30.972  1.00  0.00     0.167 HD
ATOM     54  C   UNL A   1      41.376  33.339  33.996  1.00  0.00     0.031 A 
ATOM     55  C   UNL A   1      40.396  28.227  29.340  1.00  0.00     0.031 A 
ATOM     56  C   UNL A   1      42.371  32.299  34.019  1.00  0.00     0.049 A 
ATOM     57  C   UNL A   1      41.597  28.252  30.245  1.00  0.00     0.074 A 
ATOM     58  C   UNL A   1      43.466  32.173  34.855  1.00  0.00     0.029 A 
ATOM     59  N   UNL A   1      42.392  31.209  33.163  1.00  0.00    -0.354 N 
ATOM     60  N   UNL A   1      41.905  29.115  31.182  1.00  0.00    -0.248 NA
ATOM     61  C   UNL A   1      42.572  27.165  30.080  1.00  0.00     0.031 C 
ATOM     62  C   UNL A   1      44.179  31.031  34.472  1.00  0.00     0.029 A 
ATOM     63  C   UNL A   1      43.498  30.420  33.432  1.00  0.00     0.049 A 
ATOM     64  H   UNL A   1      41.721  31.024  32.466  1.00  0.00     0.167 HD
ATOM     65  C   UNL A   1      43.096  28.662  31.734  1.00  0.00     0.074 A 
ATOM     66  C   UNL A   1      43.446  27.441  31.038  1.00  0.00     0.031 C 
ATOM     67  C   UNL A   1      43.834  29.210  32.730  1.00  0.00     0.031 A 
BRANCH  54  68
ATOM     68  C   UNL A   1      41.546  34.503  34.931  1.00  0.00    -0.014 A 
ATOM     69  C   UNL A   1      40.963  34.501  36.208  1.00  0.00     0.009 A 
ATOM     70  C   UNL A   1      42.331  35.600  34.545  1.00  0.00     0.009 A 
ATOM     71  C   UNL A   1      41.133  35.589  37.066  1.00  0.00     0.001 A 
ATOM     72  C   UNL A   1      42.523  36.675  35.415  1.00  0.00     0.001 A 
ATOM     73  C   UNL A   1      41.917  36.673  36.671  1.00  0.00     0.000 A 
ENDBRANCH  54  68
BRANCH  55  74
ATOM     74  C   UNL A   1      40.228  27.144  28.339  1.00  0.00    -0.014 A 
ATOM     75  C   UNL A   1      39.516  25.979  28.664  1.00  0.00     0.009 A 
ATOM     76  C   UNL A   1      40.781  27.265  27.055  1.00  0.00     0.009 A 
ATOM     77  C   UNL A   1      39.384  24.947  27.733  1.00  0.00     0.001 A 
ATOM     78  C   UNL A   1      40.623  26.242  26.115  1.00  0.00     0.001 A 
ATOM     79  C   UNL A   1      39.933  25.082  26.458  1.00  0.00     0.000 A 
ENDBRANCH  55  74
BRANCH  67  80
ATOM     80  C   UNL A   1      45.078  28.478  33.146  1.00  0.00    -0.014 A 
ATOM     81  C   UNL A   1      46.325  28.779  32.577  1.00  0.00     0.009 A 
ATOM     82  C   UNL A   1      45.008  27.505  34.156  1.00  0.00     0.009 A 
ATOM     83  C   UNL A   1      47.472  28.101  32.992  1.00  0.00     0.001 A 
ATOM     84  C   UNL A   1      46.160  26.847  34.587  1.00  0.00     0.001 A 
ATOM     85  C   UNL A   1      47.390  27.140  33.999  1.00  0.00     0.000 A 
ENDBRANCH  67  80
ENDBRANCH  41  42
ENDBRANCH  33  36
ENDBRANCH  31  32
ENDBRANCH  30  31
ENDBRANCH  29  30
ENDBRANCH   1  29
TORSDOF 15
ENDMDL
MODEL 3
REMARK VINA RESULT:     -12.2      1.387      2.299
REMARK SMILES Cc1oc2cc(OCC(=O)NCCCCNC(=O)c3ccc(-c4c5nc(c(-c6ccccc6)c6ccc([nH]6)c(-c6ccccc6)c6nc(c(-c7ccccc7)c7ccc4[nH]7)C=C6)C=C5)cc3)ccc2c(=O)c1Oc1ccc(Cl)cc1Cl
REMARK SMILES IDX 12 1 11 2 9 3 10 4 8 6 7 7 6 8 1 9 2 10 3 11 72 12 4 13
REMARK SMILES IDX 70 14 5 15 69 16 71 17 68 18 67 19 73 20 74 21 75 22 80 23
REMARK SMILES IDX 76 24 79 25 81 26 77 27 78 28 13 29 14 30 15 31 16 32 17 33
REMARK SMILES IDX 18 35 19 36 20 37 66 38 21 39 65 40 22 41 23 42 24 43 59 44
REMARK SMILES IDX 25 45 64 46 58 47 60 48 26 49 63 50 57 51 56 52 27 54 49 55
REMARK SMILES IDX 34 56 48 57 35 58 38 59 47 60 61 61 36 62 37 63 46 65 62 66
REMARK SMILES IDX 39 67 28 68 29 69 33 70 30 71 32 72 31 73 50 74 51 75 55 76
REMARK SMILES IDX 52 77 54 78 53 79 40 80 41 81 45 82 42 83 44 84 43 85
REMARK H PARENT 11 5 16 34 60 53 38 64
REMARK Flexibility Score: inf
ROOT
ATOM      1  C   UNL A   1      31.195  30.404  25.017  1.00  0.00     0.116 C 
ENDROOT
BRANCH   1   2
ATOM      2  N   UNL A   1      30.060  31.210  24.616  1.00  0.00    -0.353 N 
ATOM      3  C   UNL A   1      29.159  30.953  23.622  1.00  0.00     0.257 C 
ATOM      4  O   UNL A   1      28.223  31.736  23.453  1.00  0.00    -0.271 OA
ATOM      5  H   UNL A   1      29.922  32.044  25.121  1.00  0.00     0.163 HD
BRANCH   3   6
ATOM      6  C   UNL A   1      29.315  29.687  22.771  1.00  0.00     0.329 C 
BRANCH   6   7
ATOM      7  O   UNL A   1      28.989  28.462  23.417  1.00  0.00    -0.484 OA
BRANCH   7   8
ATOM      8  C   UNL A   1      29.844  27.409  23.247  1.00  0.00     0.123 A 
ATOM      9  C   UNL A   1      31.714  22.322  25.707  1.00  0.00     0.092 C 
ATOM     10  C   UNL A   1      31.801  23.230  24.512  1.00  0.00     0.148 A 
ATOM     11  O   UNL A   1      30.841  24.220  24.645  1.00  0.00    -0.457 OA
ATOM     12  C   UNL A   1      32.663  23.153  23.464  1.00  0.00     0.213 A 
ATOM     13  C   UNL A   1      30.830  25.271  23.782  1.00  0.00     0.142 A 
ATOM     14  C   UNL A   1      32.600  24.251  22.440  1.00  0.00     0.235 A 
ATOM     15  C   UNL A   1      29.923  26.289  24.070  1.00  0.00     0.094 A 
ATOM     16  C   UNL A   1      31.661  25.352  22.681  1.00  0.00     0.069 A 
ATOM     17  O   UNL A   1      33.321  24.260  21.447  1.00  0.00    -0.285 OA
ATOM     18  C   UNL A   1      31.599  26.471  21.847  1.00  0.00     0.020 A 
ATOM     19  C   UNL A   1      30.692  27.497  22.137  1.00  0.00     0.047 A 
BRANCH  12  20
ATOM     20  O   UNL A   1      33.649  22.209  23.191  1.00  0.00    -0.448 OA
BRANCH  20  21
ATOM     21  C   UNL A   1      34.827  22.185  23.884  1.00  0.00     0.146 A 
ATOM     22  C   UNL A   1      35.691  23.267  23.689  1.00  0.00     0.050 A 
ATOM     23  C   UNL A   1      35.195  21.130  24.728  1.00  0.00     0.085 A 
ATOM     24  C   UNL A   1      36.874  23.351  24.424  1.00  0.00     0.024 A 
ATOM     25  C   UNL A   1      36.377  21.217  25.466  1.00  0.00     0.045 A 
ATOM     26  Cl  UNL A   1      34.207  19.729  24.916  1.00  0.00    -0.080 Cl
ATOM     27  C   UNL A   1      37.199  22.335  25.323  1.00  0.00     0.042 A 
ATOM     28  Cl  UNL A   1      38.625  22.471  26.276  1.00  0.00    -0.084 Cl
ENDBRANCH  20  21
ENDBRANCH  12  20
ENDBRANCH   7   8
ENDBRANCH   6   7
ENDBRANCH   3   6
ENDBRANCH   1   2
BRANCH   1  29
ATOM     29  C   UNL A   1      31.654  30.708  26.441  1.00  0.00     0.023 C 
BRANCH  29  30
ATOM     30  C   UNL A   1      31.379  32.134  26.923  1.00  0.00     0.023 C 
BRANCH  30  31
ATOM     31  C   UNL A   1      32.549  33.106  26.816  1.00  0.00     0.116 C 
BRANCH  31  32
ATOM     32  N   UNL A   1      32.385  34.298  27.635  1.00  0.00    -0.352 N 
ATOM     33  C   UNL A   1      33.122  34.716  28.717  1.00  0.00     0.251 C 
ATOM     34  H   UNL A   1      31.641  34.888  27.378  1.00  0.00     0.163 HD
ATOM     35  O   UNL A   1      32.776  35.708  29.352  1.00  0.00    -0.269 OA
BRANCH  33  36
ATOM     36  C   UNL A   1      34.311  33.947  29.141  1.00  0.00     0.039 A 
ATOM     37  C   UNL A   1      35.579  34.462  28.860  1.00  0.00     0.014 A 
ATOM     38  C   UNL A   1      34.179  32.739  29.831  1.00  0.00     0.014 A 
ATOM     39  C   UNL A   1      36.714  33.811  29.345  1.00  0.00     0.010 A 
ATOM     40  C   UNL A   1      35.307  32.125  30.369  1.00  0.00     0.010 A 
ATOM     41  C   UNL A   1      36.585  32.662  30.141  1.00  0.00    -0.014 A 
BRANCH  41  42
ATOM     42  C   UNL A   1      37.768  32.025  30.774  1.00  0.00     0.031 A 
ATOM     43  C   UNL A   1      38.520  30.938  30.059  1.00  0.00     0.074 A 
ATOM     44  C   UNL A   1      38.115  32.369  32.030  1.00  0.00     0.049 A 
ATOM     45  N   UNL A   1      39.520  30.209  30.487  1.00  0.00    -0.248 NA
ATOM     46  C   UNL A   1      38.078  30.612  28.694  1.00  0.00     0.031 C 
ATOM     47  C   UNL A   1      37.444  33.382  32.848  1.00  0.00     0.029 A 
ATOM     48  N   UNL A   1      39.113  31.893  32.843  1.00  0.00    -0.354 N 
ATOM     49  C   UNL A   1      39.811  29.326  29.455  1.00  0.00     0.074 A 
ATOM     50  C   UNL A   1      38.859  29.584  28.397  1.00  0.00     0.031 C 
ATOM     51  C   UNL A   1      38.061  33.464  34.039  1.00  0.00     0.029 A 
ATOM     52  C   UNL A   1      39.141  32.483  34.084  1.00  0.00     0.049 A 
ATOM     53  H   UNL A   1      39.749  31.194  32.564  1.00  0.00     0.167 HD
ATOM     54  C   UNL A   1      40.793  28.396  29.387  1.00  0.00     0.031 A 
ATOM     55  C   UNL A   1      39.936  32.253  35.145  1.00  0.00     0.031 A 
ATOM     56  C   UNL A   1      41.749  28.145  30.433  1.00  0.00     0.049 A 
ATOM     57  C   UNL A   1      41.006  31.201  35.051  1.00  0.00     0.074 A 
ATOM     58  C   UNL A   1      42.818  27.267  30.430  1.00  0.00     0.029 A 
ATOM     59  N   UNL A   1      41.747  28.770  31.670  1.00  0.00    -0.354 N 
ATOM     60  N   UNL A   1      41.312  30.425  34.041  1.00  0.00    -0.248 NA
ATOM     61  C   UNL A   1      41.843  31.000  36.243  1.00  0.00     0.031 C 
ATOM     62  C   UNL A   1      43.434  27.324  31.685  1.00  0.00     0.029 A 
ATOM     63  C   UNL A   1      42.779  28.276  32.450  1.00  0.00     0.049 A 
ATOM     64  H   UNL A   1      41.105  29.461  31.954  1.00  0.00     0.167 HD
ATOM     65  C   UNL A   1      42.391  29.660  34.466  1.00  0.00     0.074 A 
ATOM     66  C   UNL A   1      42.696  30.078  35.820  1.00  0.00     0.031 C 
ATOM     67  C   UNL A   1      43.069  28.698  33.795  1.00  0.00     0.031 A 
BRANCH  54  68
ATOM     68  C   UNL A   1      40.877  27.568  28.136  1.00  0.00    -0.014 A 
ATOM     69  C   UNL A   1      40.210  26.336  28.034  1.00  0.00     0.009 A 
ATOM     70  C   UNL A   1      41.598  28.043  27.030  1.00  0.00     0.009 A 
ATOM     71  C   UNL A   1      40.295  25.581  26.863  1.00  0.00     0.001 A 
ATOM     72  C   UNL A   1      41.659  27.298  25.851  1.00  0.00     0.001 A 
ATOM     73  C   UNL A   1      41.015  26.064  25.771  1.00  0.00     0.000 A 
ENDBRANCH  54  68
BRANCH  55  74
ATOM     74  C   UNL A   1      39.758  33.039  36.393  1.00  0.00    -0.014 A 
ATOM     75  C   UNL A   1      38.826  32.635  37.360  1.00  0.00     0.009 A 
ATOM     76  C   UNL A   1      40.514  34.199  36.621  1.00  0.00     0.009 A 
ATOM     77  C   UNL A   1      38.636  33.391  38.519  1.00  0.00     0.001 A 
ATOM     78  C   UNL A   1      40.342  34.938  37.795  1.00  0.00     0.001 A 
ATOM     79  C   UNL A   1      39.398  34.538  38.738  1.00  0.00     0.000 A 
ENDBRANCH  55  74
BRANCH  67  80
ATOM     80  C   UNL A   1      44.225  28.051  34.501  1.00  0.00    -0.014 A 
ATOM     81  C   UNL A   1      44.073  26.832  35.180  1.00  0.00     0.009 A 
ATOM     82  C   UNL A   1      45.495  28.648  34.449  1.00  0.00     0.009 A 
ATOM     83  C   UNL A   1      45.166  26.238  35.814  1.00  0.00     0.001 A 
ATOM     84  C   UNL A   1      46.591  28.038  35.061  1.00  0.00     0.001 A 
ATOM     85  C   UNL A   1      46.423  26.838  35.750  1.00  0.00     0.000 A 
ENDBRANCH  67  80
ENDBRANCH  41  42
ENDBRANCH  33  36
ENDBRANCH  31  32
ENDBRANCH  30  31
ENDBRANCH  29  30
ENDBRANCH   1  29
TORSDOF 15
ENDMDL
