MODEL 1
REMARK VINA RESULT:     -11.4      0.000      0.000
REMARK SMILES CC1(C)CCC[C@H]1NC(=O)N[C@@H]1COC[C@@]1(C)C(=O)NCCCCNC(=O)c1ccc(-c2c3nc(c(-c4ccccc4)c4ccc([nH]4)c(-c4ccccc4)c4nc(c(-c5ccccc5)c5ccc2[nH]5)C=C4)C=C3)cc1
REMARK SMILES IDX 22 1 21 2 20 3 18 4 19 5 16 7 12 8 13 9 14 10 15 11 17 12
REMARK SMILES IDX 11 13 8 14 9 15 10 17 7 19 1 20 2 21 3 22 4 23 5 24 6 25
REMARK SMILES IDX 23 26 24 27 25 28 26 29 27 31 28 32 29 33 75 34 30 35 74 36
REMARK SMILES IDX 31 37 32 38 33 39 68 40 34 41 73 42 67 43 69 44 35 45 72 46
REMARK SMILES IDX 66 47 65 48 36 50 58 51 43 52 57 53 44 54 47 55 56 56 70 57
REMARK SMILES IDX 45 58 46 59 55 61 71 62 48 63 37 64 38 65 42 66 39 67 41 68
REMARK SMILES IDX 40 69 59 70 60 71 64 72 61 73 63 74 62 75 49 76 50 77 54 78
REMARK SMILES IDX 51 79 53 80 52 81
REMARK H PARENT 20 6 8 16 11 18 25 30 69 49 47 60
REMARK Flexibility Score: inf
ROOT
ATOM      1  C   UNL A   1      36.976  22.013  24.059  1.00  0.00     0.023 C 
ENDROOT
BRANCH   1   2
ATOM      2  C   UNL A   1      35.582  22.582  24.349  1.00  0.00     0.116 C 
BRANCH   2   3
ATOM      3  N   UNL A   1      34.687  21.750  25.134  1.00  0.00    -0.355 N 
ATOM      4  C   UNL A   1      33.366  21.905  25.457  1.00  0.00     0.230 C 
ATOM      5  O   UNL A   1      32.779  20.897  25.857  1.00  0.00    -0.274 OA
ATOM      6  H   UNL A   1      35.102  20.933  25.497  1.00  0.00     0.163 HD
BRANCH   4   7
ATOM      7  C   UNL A   1      32.673  23.275  25.434  1.00  0.00     0.092 C 
ATOM      8  C   UNL A   1      32.085  23.719  24.080  1.00  0.00     0.127 C 
ATOM      9  C   UNL A   1      30.687  24.262  24.365  1.00  0.00     0.186 C 
ATOM     10  O   UNL A   1      30.520  24.249  25.783  1.00  0.00    -0.378 OA
ATOM     11  C   UNL A   1      31.386  23.217  26.285  1.00  0.00     0.179 C 
ATOM     12  C   UNL A   1      33.605  24.248  26.116  1.00  0.00     0.026 C 
BRANCH   8  13
ATOM     13  N   UNL A   1      32.857  24.551  23.143  1.00  0.00    -0.332 N 
ATOM     14  N   UNL A   1      32.939  26.892  23.607  1.00  0.00    -0.335 N 
ATOM     15  C   UNL A   1      33.247  25.800  22.916  1.00  0.00     0.315 C 
ATOM     16  H   UNL A   1      33.530  27.642  23.368  1.00  0.00     0.165 HD
ATOM     17  O   UNL A   1      34.017  25.950  21.961  1.00  0.00    -0.249 OA
ATOM     18  H   UNL A   1      33.211  23.975  22.428  1.00  0.00     0.165 HD
BRANCH  14  19
ATOM     19  C   UNL A   1      31.965  27.289  24.624  1.00  0.00     0.089 C 
ATOM     20  C   UNL A   1      34.087  27.884  26.110  1.00  0.00     0.013 C 
ATOM     21  C   UNL A   1      32.596  28.120  25.807  1.00  0.00    -0.015 C 
ATOM     22  C   UNL A   1      31.794  27.923  27.118  1.00  0.00     0.013 C 
ATOM     23  C   UNL A   1      32.418  29.570  25.327  1.00  0.00     0.008 C 
ATOM     24  C   UNL A   1      31.035  29.580  24.707  1.00  0.00     0.003 C 
ATOM     25  C   UNL A   1      30.937  28.246  23.972  1.00  0.00     0.025 C 
ENDBRANCH  14  19
ENDBRANCH   8  13
ENDBRANCH   4   7
ENDBRANCH   2   3
ENDBRANCH   1   2
BRANCH   1  26
ATOM     26  C   UNL A   1      37.399  20.768  24.827  1.00  0.00     0.023 C 
BRANCH  26  27
ATOM     27  C   UNL A   1      38.632  20.934  25.689  1.00  0.00     0.116 C 
BRANCH  27  28
ATOM     28  N   UNL A   1      39.560  19.816  25.632  1.00  0.00    -0.352 N 
ATOM     29  C   UNL A   1      40.887  19.803  26.014  1.00  0.00     0.251 C 
ATOM     30  H   UNL A   1      39.201  18.969  25.281  1.00  0.00     0.163 HD
ATOM     31  O   UNL A   1      41.584  18.821  25.842  1.00  0.00    -0.269 OA
BRANCH  29  32
ATOM     32  C   UNL A   1      41.460  21.043  26.584  1.00  0.00     0.039 A 
ATOM     33  C   UNL A   1      41.988  22.000  25.715  1.00  0.00     0.014 A 
ATOM     34  C   UNL A   1      41.404  21.286  27.957  1.00  0.00     0.014 A 
ATOM     35  C   UNL A   1      42.399  23.232  26.225  1.00  0.00     0.010 A 
ATOM     36  C   UNL A   1      41.705  22.549  28.445  1.00  0.00     0.010 A 
ATOM     37  C   UNL A   1      42.226  23.527  27.588  1.00  0.00    -0.014 A 
BRANCH  37  38
ATOM     38  C   UNL A   1      42.626  24.840  28.146  1.00  0.00     0.031 A 
ATOM     39  C   UNL A   1      41.587  25.907  28.358  1.00  0.00     0.074 A 
ATOM     40  C   UNL A   1      43.922  25.088  28.414  1.00  0.00     0.049 A 
ATOM     41  N   UNL A   1      41.734  27.122  28.822  1.00  0.00    -0.248 NA
ATOM     42  C   UNL A   1      40.204  25.580  27.968  1.00  0.00     0.031 C 
ATOM     43  C   UNL A   1      45.030  24.155  28.192  1.00  0.00     0.029 A 
ATOM     44  N   UNL A   1      44.526  26.202  28.938  1.00  0.00    -0.354 N 
ATOM     45  C   UNL A   1      40.473  27.702  28.761  1.00  0.00     0.074 A 
ATOM     46  C   UNL A   1      39.588  26.736  28.151  1.00  0.00     0.031 C 
ATOM     47  C   UNL A   1      46.172  24.719  28.621  1.00  0.00     0.029 A 
ATOM     48  C   UNL A   1      45.881  26.061  29.114  1.00  0.00     0.049 A 
ATOM     49  H   UNL A   1      44.035  27.024  29.167  1.00  0.00     0.167 HD
ATOM     50  C   UNL A   1      40.077  28.918  29.203  1.00  0.00     0.031 A 
ATOM     51  C   UNL A   1      46.786  26.917  29.627  1.00  0.00     0.031 A 
ATOM     52  C   UNL A   1      40.953  29.867  29.830  1.00  0.00     0.049 A 
ATOM     53  C   UNL A   1      46.319  28.258  30.121  1.00  0.00     0.074 A 
ATOM     54  C   UNL A   1      40.643  31.100  30.375  1.00  0.00     0.029 A 
ATOM     55  N   UNL A   1      42.316  29.682  30.001  1.00  0.00    -0.354 N 
ATOM     56  N   UNL A   1      45.107  28.760  30.132  1.00  0.00    -0.248 NA
ATOM     57  C   UNL A   1      47.345  29.145  30.687  1.00  0.00     0.031 C 
ATOM     58  C   UNL A   1      41.829  31.684  30.831  1.00  0.00     0.029 A 
ATOM     59  C   UNL A   1      42.867  30.790  30.620  1.00  0.00     0.049 A 
ATOM     60  H   UNL A   1      42.818  28.882  29.723  1.00  0.00     0.167 HD
ATOM     61  C   UNL A   1      45.221  30.010  30.728  1.00  0.00     0.074 A 
ATOM     62  C   UNL A   1      46.615  30.178  31.084  1.00  0.00     0.031 C 
ATOM     63  C   UNL A   1      44.259  30.936  30.959  1.00  0.00     0.031 A 
BRANCH  50  64
ATOM     64  C   UNL A   1      38.628  29.279  29.020  1.00  0.00    -0.014 A 
ATOM     65  C   UNL A   1      37.710  29.158  30.077  1.00  0.00     0.009 A 
ATOM     66  C   UNL A   1      38.177  29.760  27.782  1.00  0.00     0.009 A 
ATOM     67  C   UNL A   1      36.362  29.471  29.885  1.00  0.00     0.001 A 
ATOM     68  C   UNL A   1      36.835  30.101  27.601  1.00  0.00     0.001 A 
ATOM     69  C   UNL A   1      35.928  29.946  28.648  1.00  0.00     0.000 A 
ENDBRANCH  50  64
BRANCH  51  70
ATOM     70  C   UNL A   1      48.214  26.522  29.733  1.00  0.00    -0.014 A 
ATOM     71  C   UNL A   1      49.117  26.836  28.705  1.00  0.00     0.009 A 
ATOM     72  C   UNL A   1      48.682  25.823  30.856  1.00  0.00     0.009 A 
ATOM     73  C   UNL A   1      50.453  26.434  28.787  1.00  0.00     0.001 A 
ATOM     74  C   UNL A   1      50.025  25.446  30.949  1.00  0.00     0.001 A 
ATOM     75  C   UNL A   1      50.906  25.743  29.910  1.00  0.00     0.000 A 
ENDBRANCH  51  70
BRANCH  63  76
ATOM     76  C   UNL A   1      44.683  32.202  31.649  1.00  0.00    -0.014 A 
ATOM     77  C   UNL A   1      45.088  33.328  30.916  1.00  0.00     0.009 A 
ATOM     78  C   UNL A   1      44.637  32.277  33.049  1.00  0.00     0.009 A 
ATOM     79  C   UNL A   1      45.477  34.495  31.577  1.00  0.00     0.001 A 
ATOM     80  C   UNL A   1      44.997  33.455  33.705  1.00  0.00     0.001 A 
ATOM     81  C   UNL A   1      45.426  34.559  32.970  1.00  0.00     0.000 A 
ENDBRANCH  63  76
ENDBRANCH  37  38
ENDBRANCH  29  32
ENDBRANCH  27  28
ENDBRANCH  26  27
ENDBRANCH   1  26
TORSDOF 13
ENDMDL
MODEL 2
REMARK VINA RESULT:     -11.4      0.524      5.934
REMARK SMILES CC1(C)CCC[C@H]1NC(=O)N[C@@H]1COC[C@@]1(C)C(=O)NCCCCNC(=O)c1ccc(-c2c3nc(c(-c4ccccc4)c4ccc([nH]4)c(-c4ccccc4)c4nc(c(-c5ccccc5)c5ccc2[nH]5)C=C4)C=C3)cc1
REMARK SMILES IDX 22 1 21 2 20 3 18 4 19 5 16 7 12 8 13 9 14 10 15 11 17 12
REMARK SMILES IDX 11 13 8 14 9 15 10 17 7 19 1 20 2 21 3 22 4 23 5 24 6 25
REMARK SMILES IDX 23 26 24 27 25 28 26 29 27 31 28 32 29 33 75 34 30 35 74 36
REMARK SMILES IDX 31 37 32 38 33 39 68 40 34 41 73 42 67 43 69 44 35 45 72 46
REMARK SMILES IDX 66 47 65 48 36 50 58 51 43 52 57 53 44 54 47 55 56 56 70 57
REMARK SMILES IDX 45 58 46 59 55 61 71 62 48 63 37 64 38 65 42 66 39 67 41 68
REMARK SMILES IDX 40 69 59 70 60 71 64 72 61 73 63 74 62 75 49 76 50 77 54 78
REMARK SMILES IDX 51 79 53 80 52 81
REMARK H PARENT 20 6 8 16 11 18 25 30 69 49 47 60
REMARK Flexibility Score: inf
ROOT
ATOM      1  C   UNL A   1      37.148  21.778  24.262  1.00  0.00     0.023 C 
ENDROOT
BRANCH   1   2
ATOM      2  C   UNL A   1      35.651  22.062  24.421  1.00  0.00     0.116 C 
BRANCH   2   3
ATOM      3  N   UNL A   1      34.968  21.381  25.507  1.00  0.00    -0.355 N 
ATOM      4  C   UNL A   1      33.739  21.595  26.072  1.00  0.00     0.230 C 
ATOM      5  O   UNL A   1      33.282  20.673  26.751  1.00  0.00    -0.274 OA
ATOM      6  H   UNL A   1      35.476  20.637  25.905  1.00  0.00     0.163 HD
BRANCH   4   7
ATOM      7  C   UNL A   1      33.013  22.943  25.965  1.00  0.00     0.092 C 
ATOM      8  C   UNL A   1      32.314  23.238  24.623  1.00  0.00     0.127 C 
ATOM      9  C   UNL A   1      30.928  23.783  24.959  1.00  0.00     0.186 C 
ATOM     10  O   UNL A   1      30.869  23.911  26.380  1.00  0.00    -0.378 OA
ATOM     11  C   UNL A   1      31.795  22.950  26.914  1.00  0.00     0.179 C 
ATOM     12  C   UNL A   1      33.969  23.997  26.473  1.00  0.00     0.026 C 
BRANCH   8  13
ATOM     13  N   UNL A   1      32.992  23.983  23.551  1.00  0.00    -0.332 N 
ATOM     14  N   UNL A   1      32.899  26.366  23.678  1.00  0.00    -0.335 N 
ATOM     15  C   UNL A   1      33.275  25.213  23.137  1.00  0.00     0.315 C 
ATOM     16  H   UNL A   1      33.422  27.117  23.314  1.00  0.00     0.165 HD
ATOM     17  O   UNL A   1      34.006  25.283  22.142  1.00  0.00    -0.249 OA
ATOM     18  H   UNL A   1      33.373  23.340  22.911  1.00  0.00     0.165 HD
BRANCH  14  19
ATOM     19  C   UNL A   1      31.923  26.830  24.664  1.00  0.00     0.089 C 
ATOM     20  C   UNL A   1      34.037  27.673  26.036  1.00  0.00     0.013 C 
ATOM     21  C   UNL A   1      32.532  27.810  25.738  1.00  0.00    -0.015 C 
ATOM     22  C   UNL A   1      31.758  27.723  27.078  1.00  0.00     0.013 C 
ATOM     23  C   UNL A   1      32.283  29.190  25.108  1.00  0.00     0.008 C 
ATOM     24  C   UNL A   1      30.892  29.073  24.516  1.00  0.00     0.003 C 
ATOM     25  C   UNL A   1      30.843  27.665  23.932  1.00  0.00     0.025 C 
ENDBRANCH  14  19
ENDBRANCH   8  13
ENDBRANCH   4   7
ENDBRANCH   2   3
ENDBRANCH   1   2
BRANCH   1  26
ATOM     26  C   UNL A   1      37.663  20.432  24.755  1.00  0.00     0.023 C 
BRANCH  26  27
ATOM     27  C   UNL A   1      38.733  20.505  25.822  1.00  0.00     0.116 C 
BRANCH  27  28
ATOM     28  N   UNL A   1      39.759  19.480  25.718  1.00  0.00    -0.352 N 
ATOM     29  C   UNL A   1      41.095  19.591  26.046  1.00  0.00     0.251 C 
ATOM     30  H   UNL A   1      39.467  18.606  25.372  1.00  0.00     0.163 HD
ATOM     31  O   UNL A   1      41.874  18.680  25.837  1.00  0.00    -0.269 OA
BRANCH  29  32
ATOM     32  C   UNL A   1      41.572  20.875  26.605  1.00  0.00     0.039 A 
ATOM     33  C   UNL A   1      42.025  21.863  25.728  1.00  0.00     0.014 A 
ATOM     34  C   UNL A   1      41.498  21.125  27.976  1.00  0.00     0.014 A 
ATOM     35  C   UNL A   1      42.340  23.127  26.227  1.00  0.00     0.010 A 
ATOM     36  C   UNL A   1      41.702  22.411  28.453  1.00  0.00     0.010 A 
ATOM     37  C   UNL A   1      42.146  23.420  27.587  1.00  0.00    -0.014 A 
BRANCH  37  38
ATOM     38  C   UNL A   1      42.444  24.764  28.134  1.00  0.00     0.031 A 
ATOM     39  C   UNL A   1      43.851  25.109  28.539  1.00  0.00     0.074 A 
ATOM     40  C   UNL A   1      41.447  25.652  28.309  1.00  0.00     0.049 A 
ATOM     41  N   UNL A   1      44.314  26.222  29.047  1.00  0.00    -0.248 NA
ATOM     42  C   UNL A   1      44.868  24.054  28.385  1.00  0.00     0.031 C 
ATOM     43  C   UNL A   1      40.032  25.412  28.011  1.00  0.00     0.029 A 
ATOM     44  N   UNL A   1      41.474  26.941  28.776  1.00  0.00    -0.354 N 
ATOM     45  C   UNL A   1      45.663  25.992  29.287  1.00  0.00     0.074 A 
ATOM     46  C   UNL A   1      45.930  24.616  28.938  1.00  0.00     0.031 C 
ATOM     47  C   UNL A   1      39.335  26.534  28.259  1.00  0.00     0.029 A 
ATOM     48  C   UNL A   1      40.245  27.556  28.764  1.00  0.00     0.049 A 
ATOM     49  H   UNL A   1      42.295  27.383  29.090  1.00  0.00     0.167 HD
ATOM     50  C   UNL A   1      46.605  26.858  29.728  1.00  0.00     0.031 A 
ATOM     51  C   UNL A   1      39.896  28.809  29.113  1.00  0.00     0.031 A 
ATOM     52  C   UNL A   1      46.342  28.232  30.052  1.00  0.00     0.049 A 
ATOM     53  C   UNL A   1      40.964  29.755  29.589  1.00  0.00     0.074 A 
ATOM     54  C   UNL A   1      47.235  29.213  30.443  1.00  0.00     0.029 A 
ATOM     55  N   UNL A   1      45.087  28.820  30.015  1.00  0.00    -0.354 N 
ATOM     56  N   UNL A   1      42.250  29.547  29.732  1.00  0.00    -0.248 NA
ATOM     57  C   UNL A   1      40.530  31.115  29.938  1.00  0.00     0.031 C 
ATOM     58  C   UNL A   1      46.512  30.383  30.693  1.00  0.00     0.029 A 
ATOM     59  C   UNL A   1      45.178  30.145  30.402  1.00  0.00     0.049 A 
ATOM     60  H   UNL A   1      44.255  28.363  29.754  1.00  0.00     0.167 HD
ATOM     61  C   UNL A   1      42.783  30.755  30.163  1.00  0.00     0.074 A 
ATOM     62  C   UNL A   1      41.684  31.695  30.237  1.00  0.00     0.031 C 
ATOM     63  C   UNL A   1      44.067  31.060  30.473  1.00  0.00     0.031 A 
BRANCH  50  64
ATOM     64  C   UNL A   1      48.007  26.333  29.879  1.00  0.00    -0.014 A 
ATOM     65  C   UNL A   1      48.905  26.339  28.798  1.00  0.00     0.009 A 
ATOM     66  C   UNL A   1      48.440  25.839  31.118  1.00  0.00     0.009 A 
ATOM     67  C   UNL A   1      50.194  25.822  28.946  1.00  0.00     0.001 A 
ATOM     68  C   UNL A   1      49.739  25.352  31.271  1.00  0.00     0.001 A 
ATOM     69  C   UNL A   1      50.611  25.334  30.183  1.00  0.00     0.000 A 
ENDBRANCH  50  64
BRANCH  51  70
ATOM     70  C   UNL A   1      38.483  29.254  28.991  1.00  0.00    -0.014 A 
ATOM     71  C   UNL A   1      37.980  29.694  27.757  1.00  0.00     0.009 A 
ATOM     72  C   UNL A   1      37.633  29.248  30.107  1.00  0.00     0.009 A 
ATOM     73  C   UNL A   1      36.663  30.146  27.649  1.00  0.00     0.001 A 
ATOM     74  C   UNL A   1      36.307  29.674  29.990  1.00  0.00     0.001 A 
ATOM     75  C   UNL A   1      35.826  30.132  28.765  1.00  0.00     0.000 A 
ENDBRANCH  51  70
BRANCH  63  76
ATOM     76  C   UNL A   1      44.350  32.473  30.895  1.00  0.00    -0.014 A 
ATOM     77  C   UNL A   1      44.585  33.481  29.948  1.00  0.00     0.009 A 
ATOM     78  C   UNL A   1      44.343  32.805  32.259  1.00  0.00     0.009 A 
ATOM     79  C   UNL A   1      44.845  34.790  30.362  1.00  0.00     0.001 A 
ATOM     80  C   UNL A   1      44.572  34.119  32.668  1.00  0.00     0.001 A 
ATOM     81  C   UNL A   1      44.834  35.107  31.721  1.00  0.00     0.000 A 
ENDBRANCH  63  76
ENDBRANCH  37  38
ENDBRANCH  29  32
ENDBRANCH  27  28
ENDBRANCH  26  27
ENDBRANCH   1  26
TORSDOF 13
ENDMDL
MODEL 3
REMARK VINA RESULT:     -11.4      2.965      8.420
REMARK SMILES CC1(C)CCC[C@H]1NC(=O)N[C@@H]1COC[C@@]1(C)C(=O)NCCCCNC(=O)c1ccc(-c2c3nc(c(-c4ccccc4)c4ccc([nH]4)c(-c4ccccc4)c4nc(c(-c5ccccc5)c5ccc2[nH]5)C=C4)C=C3)cc1
REMARK SMILES IDX 22 1 21 2 20 3 18 4 19 5 16 7 12 8 13 9 14 10 15 11 17 12
REMARK SMILES IDX 11 13 8 14 9 15 10 17 7 19 1 20 2 21 3 22 4 23 5 24 6 25
REMARK SMILES IDX 23 26 24 27 25 28 26 29 27 31 28 32 29 33 75 34 30 35 74 36
REMARK SMILES IDX 31 37 32 38 33 39 68 40 34 41 73 42 67 43 69 44 35 45 72 46
REMARK SMILES IDX 66 47 65 48 36 50 58 51 43 52 57 53 44 54 47 55 56 56 70 57
REMARK SMILES IDX 45 58 46 59 55 61 71 62 48 63 37 64 38 65 42 66 39 67 41 68
REMARK SMILES IDX 40 69 59 70 60 71 64 72 61 73 63 74 62 75 49 76 50 77 54 78
REMARK SMILES IDX 51 79 53 80 52 81
REMARK H PARENT 20 6 8 16 11 18 25 30 69 49 47 60
REMARK Flexibility Score: inf
ROOT
ATOM      1  C   UNL A   1      32.132  29.630  27.192  1.00  0.00     0.023 C 
ENDROOT
BRANCH   1   2
ATOM      2  C   UNL A   1      31.900  28.569  26.110  1.00  0.00     0.116 C 
BRANCH   2   3
ATOM      3  N   UNL A   1      31.959  29.019  24.731  1.00  0.00    -0.355 N 
ATOM      4  C   UNL A   1      32.007  28.316  23.557  1.00  0.00     0.230 C 
ATOM      5  O   UNL A   1      31.724  28.944  22.533  1.00  0.00    -0.274 OA
ATOM      6  H   UNL A   1      31.966  29.998  24.621  1.00  0.00     0.163 HD
BRANCH   4   7
ATOM      7  C   UNL A   1      32.490  26.861  23.493  1.00  0.00     0.092 C 
ATOM      8  C   UNL A   1      31.459  25.782  23.878  1.00  0.00     0.127 C 
ATOM      9  C   UNL A   1      31.551  24.687  22.818  1.00  0.00     0.186 C 
ATOM     10  O   UNL A   1      32.631  25.040  21.953  1.00  0.00    -0.378 OA
ATOM     11  C   UNL A   1      32.758  26.470  22.023  1.00  0.00     0.179 C 
ATOM     12  C   UNL A   1      33.820  26.810  24.208  1.00  0.00     0.026 C 
BRANCH   8  13
ATOM     13  N   UNL A   1      31.370  25.261  25.251  1.00  0.00    -0.332 N 
ATOM     14  N   UNL A   1      32.953  23.582  25.866  1.00  0.00    -0.335 N 
ATOM     15  C   UNL A   1      31.942  24.412  26.097  1.00  0.00     0.315 C 
ATOM     16  H   UNL A   1      33.326  23.233  26.708  1.00  0.00     0.165 HD
ATOM     17  O   UNL A   1      31.491  24.425  27.249  1.00  0.00    -0.249 OA
ATOM     18  H   UNL A   1      30.615  25.699  25.706  1.00  0.00     0.165 HD
BRANCH  14  19
ATOM     19  C   UNL A   1      33.665  23.043  24.708  1.00  0.00     0.089 C 
ATOM     20  C   UNL A   1      35.833  24.098  25.825  1.00  0.00     0.013 C 
ATOM     21  C   UNL A   1      35.233  23.042  24.879  1.00  0.00    -0.015 C 
ATOM     22  C   UNL A   1      35.945  23.154  23.507  1.00  0.00     0.013 C 
ATOM     23  C   UNL A   1      35.503  21.648  25.468  1.00  0.00     0.008 C 
ATOM     24  C   UNL A   1      34.567  20.740  24.695  1.00  0.00     0.003 C 
ATOM     25  C   UNL A   1      33.284  21.550  24.547  1.00  0.00     0.025 C 
ENDBRANCH  14  19
ENDBRANCH   8  13
ENDBRANCH   4   7
ENDBRANCH   2   3
ENDBRANCH   1   2
BRANCH   1  26
ATOM     26  C   UNL A   1      31.729  31.062  26.868  1.00  0.00     0.023 C 
BRANCH  26  27
ATOM     27  C   UNL A   1      32.844  32.081  26.964  1.00  0.00     0.116 C 
BRANCH  27  28
ATOM     28  N   UNL A   1      32.431  33.378  27.476  1.00  0.00    -0.352 N 
ATOM     29  C   UNL A   1      33.107  34.182  28.371  1.00  0.00     0.251 C 
ATOM     30  H   UNL A   1      31.570  33.722  27.147  1.00  0.00     0.163 HD
ATOM     31  O   UNL A   1      32.617  35.216  28.786  1.00  0.00    -0.269 OA
BRANCH  29  32
ATOM     32  C   UNL A   1      34.425  33.724  28.864  1.00  0.00     0.039 A 
ATOM     33  C   UNL A   1      34.471  32.900  29.990  1.00  0.00     0.014 A 
ATOM     34  C   UNL A   1      35.594  34.043  28.172  1.00  0.00     0.014 A 
ATOM     35  C   UNL A   1      35.690  32.344  30.380  1.00  0.00     0.010 A 
ATOM     36  C   UNL A   1      36.780  33.400  28.491  1.00  0.00     0.010 A 
ATOM     37  C   UNL A   1      36.845  32.561  29.611  1.00  0.00    -0.014 A 
BRANCH  37  38
ATOM     38  C   UNL A   1      38.143  31.954  29.988  1.00  0.00     0.031 A 
ATOM     39  C   UNL A   1      39.060  32.682  30.933  1.00  0.00     0.074 A 
ATOM     40  C   UNL A   1      38.517  30.779  29.445  1.00  0.00     0.049 A 
ATOM     41  N   UNL A   1      40.239  32.327  31.376  1.00  0.00    -0.248 NA
ATOM     42  C   UNL A   1      38.608  33.997  31.421  1.00  0.00     0.031 C 
ATOM     43  C   UNL A   1      37.741  30.009  28.469  1.00  0.00     0.029 A 
ATOM     44  N   UNL A   1      39.644  30.024  29.644  1.00  0.00    -0.354 N 
ATOM     45  C   UNL A   1      40.672  33.380  32.173  1.00  0.00     0.074 A 
ATOM     46  C   UNL A   1      39.666  34.413  32.099  1.00  0.00     0.031 C 
ATOM     47  C   UNL A   1      38.395  28.869  28.191  1.00  0.00     0.029 A 
ATOM     48  C   UNL A   1      39.647  28.845  28.940  1.00  0.00     0.049 A 
ATOM     49  H   UNL A   1      40.381  30.302  30.235  1.00  0.00     0.167 HD
ATOM     50  C   UNL A   1      41.792  33.466  32.929  1.00  0.00     0.031 A 
ATOM     51  C   UNL A   1      40.555  27.851  28.911  1.00  0.00     0.031 A 
ATOM     52  C   UNL A   1      42.778  32.427  33.020  1.00  0.00     0.049 A 
ATOM     53  C   UNL A   1      41.786  27.966  29.768  1.00  0.00     0.074 A 
ATOM     54  C   UNL A   1      43.916  32.383  33.806  1.00  0.00     0.029 A 
ATOM     55  N   UNL A   1      42.739  31.242  32.300  1.00  0.00    -0.354 N 
ATOM     56  N   UNL A   1      42.140  28.931  30.581  1.00  0.00    -0.248 NA
ATOM     57  C   UNL A   1      42.734  26.844  29.711  1.00  0.00     0.031 C 
ATOM     58  C   UNL A   1      44.592  31.192  33.524  1.00  0.00     0.029 A 
ATOM     59  C   UNL A   1      43.847  30.471  32.605  1.00  0.00     0.049 A 
ATOM     60  H   UNL A   1      42.030  30.988  31.667  1.00  0.00     0.167 HD
ATOM     61  C   UNL A   1      43.339  28.523  31.152  1.00  0.00     0.074 A 
ATOM     62  C   UNL A   1      43.638  27.214  30.608  1.00  0.00     0.031 C 
ATOM     63  C   UNL A   1      44.125  29.173  32.046  1.00  0.00     0.031 A 
BRANCH  50  64
ATOM     64  C   UNL A   1      41.996  34.732  33.715  1.00  0.00    -0.014 A 
ATOM     65  C   UNL A   1      41.480  34.871  35.015  1.00  0.00     0.009 A 
ATOM     66  C   UNL A   1      42.725  35.792  33.158  1.00  0.00     0.009 A 
ATOM     67  C   UNL A   1      41.654  36.063  35.722  1.00  0.00     0.001 A 
ATOM     68  C   UNL A   1      42.924  36.971  33.879  1.00  0.00     0.001 A 
ATOM     69  C   UNL A   1      42.380  37.109  35.155  1.00  0.00     0.000 A 
ENDBRANCH  50  64
BRANCH  51  70
ATOM     70  C   UNL A   1      40.321  26.647  28.072  1.00  0.00    -0.014 A 
ATOM     71  C   UNL A   1      40.861  26.566  26.779  1.00  0.00     0.009 A 
ATOM     72  C   UNL A   1      39.553  25.576  28.555  1.00  0.00     0.009 A 
ATOM     73  C   UNL A   1      40.611  25.450  25.976  1.00  0.00     0.001 A 
ATOM     74  C   UNL A   1      39.329  24.449  27.760  1.00  0.00     0.001 A 
ATOM     75  C   UNL A   1      39.849  24.391  26.468  1.00  0.00     0.000 A 
ENDBRANCH  51  70
BRANCH  63  76
ATOM     76  C   UNL A   1      45.367  28.464  32.504  1.00  0.00    -0.014 A 
ATOM     77  C   UNL A   1      46.590  28.637  31.838  1.00  0.00     0.009 A 
ATOM     78  C   UNL A   1      45.318  27.644  33.642  1.00  0.00     0.009 A 
ATOM     79  C   UNL A   1      47.733  27.969  32.282  1.00  0.00     0.001 A 
ATOM     80  C   UNL A   1      46.469  27.003  34.101  1.00  0.00     0.001 A 
ATOM     81  C   UNL A   1      47.672  27.157  33.415  1.00  0.00     0.000 A 
ENDBRANCH  63  76
ENDBRANCH  37  38
ENDBRANCH  29  32
ENDBRANCH  27  28
ENDBRANCH  26  27
ENDBRANCH   1  26
TORSDOF 13
ENDMDL
