MODEL 1
REMARK VINA RESULT:     -11.2      0.000      0.000
REMARK SMILES Cc1nc2scc(-c3cccs3)c2c(=O)n1CC(=O)NCCCCNC(=O)c1ccc(-c2c3nc(c(-c4ccccc4)c4ccc([nH]4)c(-c4ccccc4)c4nc(c(-c5ccccc5)c5ccc2[nH]5)C=C4)C=C3)cc1
REMARK SMILES IDX 22 1 21 2 20 3 18 4 19 5 17 7 16 8 1 9 2 10 3 11 4 12 14 13
REMARK SMILES IDX 5 14 13 15 15 16 6 17 7 18 8 19 9 20 12 21 10 22 11 23 23 24
REMARK SMILES IDX 24 25 25 26 26 27 27 29 28 30 29 31 75 32 30 33 74 34 31 35
REMARK SMILES IDX 32 36 33 37 68 38 34 39 73 40 67 41 69 42 35 43 72 44 66 45
REMARK SMILES IDX 65 46 36 48 58 49 43 50 57 51 44 52 47 53 56 54 70 55 45 56
REMARK SMILES IDX 46 57 55 59 71 60 48 61 37 62 38 63 42 64 39 65 41 66 40 67
REMARK SMILES IDX 59 68 60 69 64 70 61 71 63 72 62 73 49 74 50 75 54 76 51 77
REMARK SMILES IDX 53 78 52 79
REMARK H PARENT 20 6 25 28 69 47 47 58
REMARK Flexibility Score: inf
ROOT
ATOM      1  C   UNL A   1      40.628  21.615  26.532  1.00  0.00     0.023 C 
ENDROOT
BRANCH   1   2
ATOM      2  C   UNL A   1      39.121  21.863  26.504  1.00  0.00     0.116 C 
BRANCH   2   3
ATOM      3  N   UNL A   1      38.544  21.775  25.181  1.00  0.00    -0.355 N 
ATOM      4  C   UNL A   1      37.242  21.917  24.791  1.00  0.00     0.240 C 
ATOM      5  O   UNL A   1      37.042  22.179  23.601  1.00  0.00    -0.273 OA
ATOM      6  H   UNL A   1      39.182  21.585  24.456  1.00  0.00     0.163 HD
BRANCH   4   7
ATOM      7  C   UNL A   1      36.088  21.943  25.808  1.00  0.00     0.227 C 
BRANCH   7   8
ATOM      8  N   UNL A   1      34.794  22.306  25.227  1.00  0.00    -0.287 N 
ATOM      9  C   UNL A   1      34.149  19.915  24.814  1.00  0.00     0.088 C 
ATOM     10  C   UNL A   1      33.885  21.402  24.697  1.00  0.00     0.110 A 
ATOM     11  N   UNL A   1      32.787  21.744  24.093  1.00  0.00    -0.224 NA
ATOM     12  C   UNL A   1      32.508  23.068  24.089  1.00  0.00     0.131 A 
ATOM     13  C   UNL A   1      34.481  23.674  25.336  1.00  0.00     0.263 A 
ATOM     14  S   UNL A   1      31.076  23.662  23.378  1.00  0.00    -0.123 S 
ATOM     15  C   UNL A   1      33.251  24.067  24.674  1.00  0.00     0.085 A 
ATOM     16  O   UNL A   1      35.189  24.462  25.944  1.00  0.00    -0.268 OA
ATOM     17  C   UNL A   1      31.384  25.246  23.946  1.00  0.00     0.077 A 
ATOM     18  C   UNL A   1      32.597  25.340  24.597  1.00  0.00     0.017 A 
BRANCH  18  19
ATOM     19  C   UNL A   1      33.078  26.631  25.185  1.00  0.00     0.036 A 
ATOM     20  C   UNL A   1      32.998  26.966  26.520  1.00  0.00     0.020 A 
ATOM     21  S   UNL A   1      33.775  27.886  24.256  1.00  0.00    -0.144 S 
ATOM     22  C   UNL A   1      33.440  28.300  26.766  1.00  0.00     0.012 A 
ATOM     23  C   UNL A   1      33.829  28.935  25.608  1.00  0.00     0.065 A 
ENDBRANCH  18  19
ENDBRANCH   7   8
ENDBRANCH   4   7
ENDBRANCH   2   3
ENDBRANCH   1   2
BRANCH   1  24
ATOM     24  C   UNL A   1      41.077  20.221  26.076  1.00  0.00     0.023 C 
BRANCH  24  25
ATOM     25  C   UNL A   1      42.349  19.705  26.740  1.00  0.00     0.116 C 
BRANCH  25  26
ATOM     26  N   UNL A   1      43.454  19.527  25.804  1.00  0.00    -0.352 N 
ATOM     27  C   UNL A   1      44.098  20.500  25.065  1.00  0.00     0.251 C 
ATOM     28  H   UNL A   1      43.779  18.606  25.685  1.00  0.00     0.163 HD
ATOM     29  O   UNL A   1      44.705  20.213  24.040  1.00  0.00    -0.269 OA
BRANCH  27  30
ATOM     30  C   UNL A   1      44.049  21.901  25.526  1.00  0.00     0.039 A 
ATOM     31  C   UNL A   1      43.345  22.866  24.804  1.00  0.00     0.014 A 
ATOM     32  C   UNL A   1      44.716  22.242  26.703  1.00  0.00     0.014 A 
ATOM     33  C   UNL A   1      43.246  24.155  25.323  1.00  0.00     0.010 A 
ATOM     34  C   UNL A   1      44.521  23.479  27.274  1.00  0.00     0.010 A 
ATOM     35  C   UNL A   1      43.812  24.449  26.576  1.00  0.00    -0.014 A 
BRANCH  35  36
ATOM     36  C   UNL A   1      43.512  25.724  27.228  1.00  0.00     0.031 A 
ATOM     37  C   UNL A   1      44.453  26.816  26.858  1.00  0.00     0.074 A 
ATOM     38  C   UNL A   1      42.396  25.974  27.947  1.00  0.00     0.049 A 
ATOM     39  N   UNL A   1      45.354  27.356  27.608  1.00  0.00    -0.248 NA
ATOM     40  C   UNL A   1      44.512  27.248  25.450  1.00  0.00     0.031 C 
ATOM     41  C   UNL A   1      41.234  25.100  28.141  1.00  0.00     0.029 A 
ATOM     42  N   UNL A   1      42.011  27.123  28.576  1.00  0.00    -0.354 N 
ATOM     43  C   UNL A   1      45.944  28.353  26.839  1.00  0.00     0.074 A 
ATOM     44  C   UNL A   1      45.527  28.115  25.480  1.00  0.00     0.031 C 
ATOM     45  C   UNL A   1      40.194  25.822  28.618  1.00  0.00     0.029 A 
ATOM     46  C   UNL A   1      40.665  27.158  28.932  1.00  0.00     0.049 A 
ATOM     47  H   UNL A   1      42.632  27.863  28.763  1.00  0.00     0.167 HD
ATOM     48  C   UNL A   1      46.479  29.459  27.426  1.00  0.00     0.031 A 
ATOM     49  C   UNL A   1      39.982  28.216  29.434  1.00  0.00     0.031 A 
ATOM     50  C   UNL A   1      46.636  29.267  28.846  1.00  0.00     0.049 A 
ATOM     51  C   UNL A   1      40.979  29.131  30.024  1.00  0.00     0.074 A 
ATOM     52  C   UNL A   1      47.369  28.437  29.665  1.00  0.00     0.029 A 
ATOM     53  N   UNL A   1      45.618  29.785  29.607  1.00  0.00    -0.354 N 
ATOM     54  N   UNL A   1      41.691  28.840  31.074  1.00  0.00    -0.248 NA
ATOM     55  C   UNL A   1      41.460  30.248  29.226  1.00  0.00     0.031 C 
ATOM     56  C   UNL A   1      46.540  28.209  30.804  1.00  0.00     0.029 A 
ATOM     57  C   UNL A   1      45.370  28.957  30.663  1.00  0.00     0.049 A 
ATOM     58  H   UNL A   1      45.142  30.626  29.420  1.00  0.00     0.167 HD
ATOM     59  C   UNL A   1      42.923  29.420  30.823  1.00  0.00     0.074 A 
ATOM     60  C   UNL A   1      42.673  30.393  29.764  1.00  0.00     0.031 C 
ATOM     61  C   UNL A   1      44.068  28.842  31.288  1.00  0.00     0.031 A 
BRANCH  48  62
ATOM     62  C   UNL A   1      46.345  30.857  26.852  1.00  0.00    -0.014 A 
ATOM     63  C   UNL A   1      47.469  31.706  26.905  1.00  0.00     0.009 A 
ATOM     64  C   UNL A   1      45.109  31.470  26.577  1.00  0.00     0.009 A 
ATOM     65  C   UNL A   1      47.343  33.096  26.786  1.00  0.00     0.001 A 
ATOM     66  C   UNL A   1      44.985  32.853  26.417  1.00  0.00     0.001 A 
ATOM     67  C   UNL A   1      46.098  33.670  26.553  1.00  0.00     0.000 A 
ENDBRANCH  48  62
BRANCH  49  68
ATOM     68  C   UNL A   1      38.575  28.633  29.225  1.00  0.00    -0.014 A 
ATOM     69  C   UNL A   1      37.729  28.851  30.328  1.00  0.00     0.009 A 
ATOM     70  C   UNL A   1      38.156  29.120  27.976  1.00  0.00     0.009 A 
ATOM     71  C   UNL A   1      36.544  29.589  30.197  1.00  0.00     0.001 A 
ATOM     72  C   UNL A   1      36.968  29.852  27.844  1.00  0.00     0.001 A 
ATOM     73  C   UNL A   1      36.174  30.105  28.957  1.00  0.00     0.000 A 
ENDBRANCH  49  68
BRANCH  61  74
ATOM     74  C   UNL A   1      43.959  27.831  32.399  1.00  0.00    -0.014 A 
ATOM     75  C   UNL A   1      44.043  26.443  32.203  1.00  0.00     0.009 A 
ATOM     76  C   UNL A   1      43.950  28.327  33.712  1.00  0.00     0.009 A 
ATOM     77  C   UNL A   1      44.120  25.578  33.302  1.00  0.00     0.001 A 
ATOM     78  C   UNL A   1      44.050  27.465  34.804  1.00  0.00     0.001 A 
ATOM     79  C   UNL A   1      44.136  26.092  34.599  1.00  0.00     0.000 A 
ENDBRANCH  61  74
ENDBRANCH  35  36
ENDBRANCH  27  30
ENDBRANCH  25  26
ENDBRANCH  24  25
ENDBRANCH   1  24
TORSDOF 13
ENDMDL
MODEL 2
REMARK VINA RESULT:     -11.0      1.896      2.626
REMARK SMILES Cc1nc2scc(-c3cccs3)c2c(=O)n1CC(=O)NCCCCNC(=O)c1ccc(-c2c3nc(c(-c4ccccc4)c4ccc([nH]4)c(-c4ccccc4)c4nc(c(-c5ccccc5)c5ccc2[nH]5)C=C4)C=C3)cc1
REMARK SMILES IDX 22 1 21 2 20 3 18 4 19 5 17 7 16 8 1 9 2 10 3 11 4 12 14 13
REMARK SMILES IDX 5 14 13 15 15 16 6 17 7 18 8 19 9 20 12 21 10 22 11 23 23 24
REMARK SMILES IDX 24 25 25 26 26 27 27 29 28 30 29 31 75 32 30 33 74 34 31 35
REMARK SMILES IDX 32 36 33 37 68 38 34 39 73 40 67 41 69 42 35 43 72 44 66 45
REMARK SMILES IDX 65 46 36 48 58 49 43 50 57 51 44 52 47 53 56 54 70 55 45 56
REMARK SMILES IDX 46 57 55 59 71 60 48 61 37 62 38 63 42 64 39 65 41 66 40 67
REMARK SMILES IDX 59 68 60 69 64 70 61 71 63 72 62 73 49 74 50 75 54 76 51 77
REMARK SMILES IDX 53 78 52 79
REMARK H PARENT 20 6 25 28 69 47 47 58
REMARK Flexibility Score: inf
ROOT
ATOM      1  C   UNL A   1      39.340  23.670  27.235  1.00  0.00     0.023 C 
ENDROOT
BRANCH   1   2
ATOM      2  C   UNL A   1      38.175  24.151  26.373  1.00  0.00     0.116 C 
BRANCH   2   3
ATOM      3  N   UNL A   1      37.981  23.369  25.173  1.00  0.00    -0.355 N 
ATOM      4  C   UNL A   1      36.883  22.664  24.764  1.00  0.00     0.240 C 
ATOM      5  O   UNL A   1      36.807  22.400  23.560  1.00  0.00    -0.273 OA
ATOM      6  H   UNL A   1      38.751  23.339  24.561  1.00  0.00     0.163 HD
BRANCH   4   7
ATOM      7  C   UNL A   1      35.704  22.377  25.710  1.00  0.00     0.227 C 
BRANCH   7   8
ATOM      8  N   UNL A   1      34.399  22.755  25.162  1.00  0.00    -0.287 N 
ATOM      9  C   UNL A   1      33.794  20.387  24.593  1.00  0.00     0.088 C 
ATOM     10  C   UNL A   1      33.503  21.872  24.578  1.00  0.00     0.110 A 
ATOM     11  N   UNL A   1      32.396  22.235  24.005  1.00  0.00    -0.224 NA
ATOM     12  C   UNL A   1      32.093  23.551  24.091  1.00  0.00     0.131 A 
ATOM     13  C   UNL A   1      34.064  24.107  25.365  1.00  0.00     0.263 A 
ATOM     14  S   UNL A   1      30.646  24.165  23.430  1.00  0.00    -0.123 S 
ATOM     15  C   UNL A   1      32.823  24.522  24.738  1.00  0.00     0.085 A 
ATOM     16  O   UNL A   1      34.763  24.865  26.020  1.00  0.00    -0.268 OA
ATOM     17  C   UNL A   1      30.930  25.713  24.101  1.00  0.00     0.077 A 
ATOM     18  C   UNL A   1      32.146  25.785  24.750  1.00  0.00     0.017 A 
BRANCH  18  19
ATOM     19  C   UNL A   1      32.608  27.041  25.421  1.00  0.00     0.036 A 
ATOM     20  C   UNL A   1      32.282  27.414  26.707  1.00  0.00     0.020 A 
ATOM     21  S   UNL A   1      33.595  28.209  24.653  1.00  0.00    -0.144 S 
ATOM     22  C   UNL A   1      32.782  28.709  27.035  1.00  0.00     0.012 A 
ATOM     23  C   UNL A   1      33.460  29.280  25.982  1.00  0.00     0.065 A 
ENDBRANCH  18  19
ENDBRANCH   7   8
ENDBRANCH   4   7
ENDBRANCH   2   3
ENDBRANCH   1   2
BRANCH   1  24
ATOM     24  C   UNL A   1      39.905  22.290  26.874  1.00  0.00     0.023 C 
BRANCH  24  25
ATOM     25  C   UNL A   1      41.316  22.017  27.384  1.00  0.00     0.116 C 
BRANCH  25  26
ATOM     26  N   UNL A   1      42.316  22.003  26.322  1.00  0.00    -0.352 N 
ATOM     27  C   UNL A   1      42.783  23.076  25.588  1.00  0.00     0.251 C 
ATOM     28  H   UNL A   1      42.705  21.126  26.102  1.00  0.00     0.163 HD
ATOM     29  O   UNL A   1      43.290  22.911  24.486  1.00  0.00    -0.269 OA
BRANCH  27  30
ATOM     30  C   UNL A   1      42.666  24.435  26.152  1.00  0.00     0.039 A 
ATOM     31  C   UNL A   1      41.927  25.420  25.492  1.00  0.00     0.014 A 
ATOM     32  C   UNL A   1      43.303  24.716  27.360  1.00  0.00     0.014 A 
ATOM     33  C   UNL A   1      41.764  26.660  26.103  1.00  0.00     0.010 A 
ATOM     34  C   UNL A   1      43.046  25.898  28.019  1.00  0.00     0.010 A 
ATOM     35  C   UNL A   1      42.301  26.885  27.384  1.00  0.00    -0.014 A 
BRANCH  35  36
ATOM     36  C   UNL A   1      41.937  28.093  28.124  1.00  0.00     0.031 A 
ATOM     37  C   UNL A   1      42.928  29.195  27.986  1.00  0.00     0.074 A 
ATOM     38  C   UNL A   1      40.743  28.294  28.724  1.00  0.00     0.049 A 
ATOM     39  N   UNL A   1      43.735  29.635  28.891  1.00  0.00    -0.248 NA
ATOM     40  C   UNL A   1      43.164  29.767  26.649  1.00  0.00     0.031 C 
ATOM     41  C   UNL A   1      39.557  27.432  28.684  1.00  0.00     0.029 A 
ATOM     42  N   UNL A   1      40.296  29.381  29.418  1.00  0.00    -0.354 N 
ATOM     43  C   UNL A   1      44.425  30.691  28.308  1.00  0.00     0.074 A 
ATOM     44  C   UNL A   1      44.176  30.603  26.891  1.00  0.00     0.031 C 
ATOM     45  C   UNL A   1      38.475  28.125  29.104  1.00  0.00     0.029 A 
ATOM     46  C   UNL A   1      38.917  29.411  29.609  1.00  0.00     0.049 A 
ATOM     47  H   UNL A   1      40.897  30.084  29.755  1.00  0.00     0.167 HD
ATOM     48  C   UNL A   1      44.895  31.719  29.068  1.00  0.00     0.031 A 
ATOM     49  C   UNL A   1      38.188  30.427  30.133  1.00  0.00     0.031 A 
ATOM     50  C   UNL A   1      44.875  31.380  30.468  1.00  0.00     0.049 A 
ATOM     51  C   UNL A   1      39.115  31.254  30.931  1.00  0.00     0.074 A 
ATOM     52  C   UNL A   1      45.493  30.453  31.280  1.00  0.00     0.029 A 
ATOM     53  N   UNL A   1      43.777  31.840  31.150  1.00  0.00    -0.354 N 
ATOM     54  N   UNL A   1      39.689  30.842  32.024  1.00  0.00    -0.248 NA
ATOM     55  C   UNL A   1      39.702  32.435  30.319  1.00  0.00     0.031 C 
ATOM     56  C   UNL A   1      44.527  30.129  32.280  1.00  0.00     0.029 A 
ATOM     57  C   UNL A   1      43.391  30.915  32.076  1.00  0.00     0.049 A 
ATOM     58  H   UNL A   1      43.335  32.707  30.996  1.00  0.00     0.167 HD
ATOM     59  C   UNL A   1      40.948  31.415  31.986  1.00  0.00     0.074 A 
ATOM     60  C   UNL A   1      40.840  32.497  31.012  1.00  0.00     0.031 C 
ATOM     61  C   UNL A   1      42.022  30.766  32.523  1.00  0.00     0.031 A 
BRANCH  48  62
ATOM     62  C   UNL A   1      44.848  33.171  28.631  1.00  0.00    -0.014 A 
ATOM     63  C   UNL A   1      43.602  33.710  28.251  1.00  0.00     0.009 A 
ATOM     64  C   UNL A   1      45.988  33.911  28.266  1.00  0.00     0.009 A 
ATOM     65  C   UNL A   1      43.513  34.868  27.468  1.00  0.00     0.001 A 
ATOM     66  C   UNL A   1      45.901  35.090  27.520  1.00  0.00     0.001 A 
ATOM     67  C   UNL A   1      44.664  35.551  27.093  1.00  0.00     0.000 A 
ENDBRANCH  48  62
BRANCH  49  68
ATOM     68  C   UNL A   1      36.822  30.896  29.800  1.00  0.00    -0.014 A 
ATOM     69  C   UNL A   1      36.027  31.519  30.779  1.00  0.00     0.009 A 
ATOM     70  C   UNL A   1      36.420  31.019  28.459  1.00  0.00     0.009 A 
ATOM     71  C   UNL A   1      34.914  32.293  30.424  1.00  0.00     0.001 A 
ATOM     72  C   UNL A   1      35.303  31.788  28.105  1.00  0.00     0.001 A 
ATOM     73  C   UNL A   1      34.564  32.442  29.084  1.00  0.00     0.000 A 
ENDBRANCH  49  68
BRANCH  61  74
ATOM     74  C   UNL A   1      41.767  29.651  33.502  1.00  0.00    -0.014 A 
ATOM     75  C   UNL A   1      41.651  28.300  33.134  1.00  0.00     0.009 A 
ATOM     76  C   UNL A   1      41.826  29.973  34.866  1.00  0.00     0.009 A 
ATOM     77  C   UNL A   1      41.600  27.302  34.114  1.00  0.00     0.001 A 
ATOM     78  C   UNL A   1      41.799  28.976  35.840  1.00  0.00     0.001 A 
ATOM     79  C   UNL A   1      41.688  27.641  35.465  1.00  0.00     0.000 A 
ENDBRANCH  61  74
ENDBRANCH  35  36
ENDBRANCH  27  30
ENDBRANCH  25  26
ENDBRANCH  24  25
ENDBRANCH   1  24
TORSDOF 13
ENDMDL
MODEL 3
REMARK VINA RESULT:     -10.9      2.733      8.042
REMARK SMILES Cc1nc2scc(-c3cccs3)c2c(=O)n1CC(=O)NCCCCNC(=O)c1ccc(-c2c3nc(c(-c4ccccc4)c4ccc([nH]4)c(-c4ccccc4)c4nc(c(-c5ccccc5)c5ccc2[nH]5)C=C4)C=C3)cc1
REMARK SMILES IDX 22 1 21 2 20 3 18 4 19 5 17 7 16 8 1 9 2 10 3 11 4 12 14 13
REMARK SMILES IDX 5 14 13 15 15 16 6 17 7 18 8 19 9 20 12 21 10 22 11 23 23 24
REMARK SMILES IDX 24 25 25 26 26 27 27 29 28 30 29 31 75 32 30 33 74 34 31 35
REMARK SMILES IDX 32 36 33 37 68 38 34 39 73 40 67 41 69 42 35 43 72 44 66 45
REMARK SMILES IDX 65 46 36 48 58 49 43 50 57 51 44 52 47 53 56 54 70 55 45 56
REMARK SMILES IDX 46 57 55 59 71 60 48 61 37 62 38 63 42 64 39 65 41 66 40 67
REMARK SMILES IDX 59 68 60 69 64 70 61 71 63 72 62 73 49 74 50 75 54 76 51 77
REMARK SMILES IDX 53 78 52 79
REMARK H PARENT 20 6 25 28 69 47 47 58
REMARK Flexibility Score: inf
ROOT
ATOM      1  C   UNL A   1      34.777  29.362  26.954  1.00  0.00     0.023 C 
ENDROOT
BRANCH   1   2
ATOM      2  C   UNL A   1      33.992  28.628  25.869  1.00  0.00     0.116 C 
BRANCH   2   3
ATOM      3  N   UNL A   1      32.852  29.370  25.376  1.00  0.00    -0.355 N 
ATOM      4  C   UNL A   1      31.942  29.026  24.417  1.00  0.00     0.240 C 
ATOM      5  O   UNL A   1      30.862  29.625  24.432  1.00  0.00    -0.273 OA
ATOM      6  H   UNL A   1      32.712  30.251  25.792  1.00  0.00     0.163 HD
BRANCH   4   7
ATOM      7  C   UNL A   1      32.162  27.823  23.483  1.00  0.00     0.227 C 
BRANCH   7   8
ATOM      8  N   UNL A   1      31.786  26.537  24.074  1.00  0.00    -0.287 N 
ATOM      9  C   UNL A   1      29.332  26.934  23.729  1.00  0.00     0.088 C 
ATOM     10  C   UNL A   1      30.482  26.106  24.264  1.00  0.00     0.110 A 
ATOM     11  N   UNL A   1      30.161  25.010  24.881  1.00  0.00    -0.224 NA
ATOM     12  C   UNL A   1      31.196  24.225  25.261  1.00  0.00     0.131 A 
ATOM     13  C   UNL A   1      32.879  25.696  24.356  1.00  0.00     0.263 A 
ATOM     14  S   UNL A   1      30.928  22.730  26.036  1.00  0.00    -0.123 S 
ATOM     15  C   UNL A   1      32.533  24.462  25.037  1.00  0.00     0.085 A 
ATOM     16  O   UNL A   1      34.026  25.985  24.047  1.00  0.00    -0.268 OA
ATOM     17  C   UNL A   1      32.592  22.337  25.978  1.00  0.00     0.077 A 
ATOM     18  C   UNL A   1      33.351  23.361  25.450  1.00  0.00     0.017 A 
BRANCH  18  19
ATOM     19  C   UNL A   1      34.836  23.242  25.296  1.00  0.00     0.036 A 
ATOM     20  C   UNL A   1      35.764  23.849  26.115  1.00  0.00     0.020 A 
ATOM     21  S   UNL A   1      35.584  22.347  24.045  1.00  0.00    -0.144 S 
ATOM     22  C   UNL A   1      37.100  23.640  25.661  1.00  0.00     0.012 A 
ATOM     23  C   UNL A   1      37.140  22.892  24.506  1.00  0.00     0.065 A 
ENDBRANCH  18  19
ENDBRANCH   7   8
ENDBRANCH   4   7
ENDBRANCH   2   3
ENDBRANCH   1   2
BRANCH   1  24
ATOM     24  C   UNL A   1      34.084  30.592  27.554  1.00  0.00     0.023 C 
BRANCH  24  25
ATOM     25  C   UNL A   1      34.995  31.792  27.793  1.00  0.00     0.116 C 
BRANCH  25  26
ATOM     26  N   UNL A   1      34.692  32.505  29.029  1.00  0.00    -0.352 N 
ATOM     27  C   UNL A   1      35.104  32.187  30.309  1.00  0.00     0.251 C 
ATOM     28  H   UNL A   1      34.129  33.308  28.941  1.00  0.00     0.163 HD
ATOM     29  O   UNL A   1      34.482  32.586  31.286  1.00  0.00    -0.269 OA
BRANCH  27  30
ATOM     30  C   UNL A   1      36.310  31.357  30.489  1.00  0.00     0.039 A 
ATOM     31  C   UNL A   1      36.203  29.990  30.754  1.00  0.00     0.014 A 
ATOM     32  C   UNL A   1      37.562  31.963  30.383  1.00  0.00     0.014 A 
ATOM     33  C   UNL A   1      37.365  29.226  30.824  1.00  0.00     0.010 A 
ATOM     34  C   UNL A   1      38.702  31.192  30.334  1.00  0.00     0.010 A 
ATOM     35  C   UNL A   1      38.613  29.827  30.583  1.00  0.00    -0.014 A 
BRANCH  35  36
ATOM     36  C   UNL A   1      39.804  28.993  30.424  1.00  0.00     0.031 A 
ATOM     37  C   UNL A   1      40.541  28.762  31.696  1.00  0.00     0.074 A 
ATOM     38  C   UNL A   1      40.128  28.325  29.295  1.00  0.00     0.049 A 
ATOM     39  N   UNL A   1      41.689  29.248  32.031  1.00  0.00    -0.248 NA
ATOM     40  C   UNL A   1      39.859  28.041  32.785  1.00  0.00     0.031 C 
ATOM     41  C   UNL A   1      39.342  28.205  28.062  1.00  0.00     0.029 A 
ATOM     42  N   UNL A   1      41.195  27.511  29.046  1.00  0.00    -0.354 N 
ATOM     43  C   UNL A   1      41.980  28.715  33.282  1.00  0.00     0.074 A 
ATOM     44  C   UNL A   1      40.751  28.144  33.772  1.00  0.00     0.031 C 
ATOM     45  C   UNL A   1      39.828  27.192  27.309  1.00  0.00     0.029 A 
ATOM     46  C   UNL A   1      41.056  26.714  27.913  1.00  0.00     0.049 A 
ATOM     47  H   UNL A   1      41.996  27.490  29.619  1.00  0.00     0.167 HD
ATOM     48  C   UNL A   1      43.270  28.525  33.674  1.00  0.00     0.031 A 
ATOM     49  C   UNL A   1      41.886  25.721  27.509  1.00  0.00     0.031 A 
ATOM     50  C   UNL A   1      44.183  29.233  32.812  1.00  0.00     0.049 A 
ATOM     51  C   UNL A   1      43.194  25.967  28.146  1.00  0.00     0.074 A 
ATOM     52  C   UNL A   1      44.438  30.549  32.493  1.00  0.00     0.029 A 
ATOM     53  N   UNL A   1      44.740  28.466  31.819  1.00  0.00    -0.354 N 
ATOM     54  N   UNL A   1      43.955  26.985  27.862  1.00  0.00    -0.248 NA
ATOM     55  C   UNL A   1      43.510  25.271  29.384  1.00  0.00     0.031 C 
ATOM     56  C   UNL A   1      44.831  30.533  31.121  1.00  0.00     0.029 A 
ATOM     57  C   UNL A   1      44.862  29.208  30.681  1.00  0.00     0.049 A 
ATOM     58  H   UNL A   1      45.011  27.524  31.915  1.00  0.00     0.167 HD
ATOM     59  C   UNL A   1      44.530  27.329  29.073  1.00  0.00     0.074 A 
ATOM     60  C   UNL A   1      44.349  26.158  29.924  1.00  0.00     0.031 C 
ATOM     61  C   UNL A   1      44.828  28.631  29.353  1.00  0.00     0.031 A 
BRANCH  48  62
ATOM     62  C   UNL A   1      43.737  27.309  34.450  1.00  0.00    -0.014 A 
ATOM     63  C   UNL A   1      43.776  26.069  33.782  1.00  0.00     0.009 A 
ATOM     64  C   UNL A   1      43.817  27.267  35.855  1.00  0.00     0.009 A 
ATOM     65  C   UNL A   1      43.794  24.858  34.485  1.00  0.00     0.001 A 
ATOM     66  C   UNL A   1      43.876  26.060  36.559  1.00  0.00     0.001 A 
ATOM     67  C   UNL A   1      43.832  24.855  35.875  1.00  0.00     0.000 A 
ENDBRANCH  48  62
BRANCH  49  68
ATOM     68  C   UNL A   1      41.584  24.439  26.830  1.00  0.00    -0.014 A 
ATOM     69  C   UNL A   1      42.534  23.845  25.979  1.00  0.00     0.009 A 
ATOM     70  C   UNL A   1      40.505  23.646  27.255  1.00  0.00     0.009 A 
ATOM     71  C   UNL A   1      42.445  22.490  25.628  1.00  0.00     0.001 A 
ATOM     72  C   UNL A   1      40.413  22.294  26.898  1.00  0.00     0.001 A 
ATOM     73  C   UNL A   1      41.393  21.711  26.103  1.00  0.00     0.000 A 
ENDBRANCH  49  68
BRANCH  61  74
ATOM     74  C   UNL A   1      44.913  29.607  28.209  1.00  0.00    -0.014 A 
ATOM     75  C   UNL A   1      43.829  30.381  27.760  1.00  0.00     0.009 A 
ATOM     76  C   UNL A   1      46.190  29.874  27.693  1.00  0.00     0.009 A 
ATOM     77  C   UNL A   1      44.030  31.398  26.818  1.00  0.00     0.001 A 
ATOM     78  C   UNL A   1      46.391  30.902  26.773  1.00  0.00     0.001 A 
ATOM     79  C   UNL A   1      45.312  31.665  26.337  1.00  0.00     0.000 A 
ENDBRANCH  61  74
ENDBRANCH  35  36
ENDBRANCH  27  30
ENDBRANCH  25  26
ENDBRANCH  24  25
ENDBRANCH   1  24
TORSDOF 13
ENDMDL
