MODEL 1
REMARK VINA RESULT:     -10.0      0.000      0.000
REMARK SMILES C[C@H](NC(=O)CCn1ccccc1=O)C(=O)NCCCCNC(=O)c1ccc(-c2c3nc(c(-c4ccccc4)c4ccc([nH]4)c(-c4ccccc4)c4nc(c(-c5ccccc5)c5ccc2[nH]5)C=C4)C=C3)cc1
REMARK SMILES IDX 18 1 17 2 15 3 16 4 2 6 1 7 3 8 4 9 5 11 6 12 7 13 8 14 9 15
REMARK SMILES IDX 13 16 10 17 12 18 14 19 11 20 19 21 20 22 21 23 22 24 23 25
REMARK SMILES IDX 24 27 25 28 26 29 72 30 27 31 71 32 28 33 29 34 30 35 65 36
REMARK SMILES IDX 31 37 70 38 64 39 66 40 32 41 69 42 63 43 62 44 33 46 55 47
REMARK SMILES IDX 40 48 54 49 41 50 44 51 53 52 67 53 42 54 43 55 52 57 68 58
REMARK SMILES IDX 45 59 34 60 35 61 39 62 36 63 38 64 37 65 56 66 57 67 61 68
REMARK SMILES IDX 58 69 60 70 59 71 46 72 47 73 51 74 48 75 50 76 49 77
REMARK H PARENT 17 5 3 10 22 26 66 45 44 56
REMARK Flexibility Score: inf
ROOT
ATOM      1  C   UNL A   1      31.366  29.081  24.229  1.00  0.00     0.116 C 
ENDROOT
BRANCH   1   2
ATOM      2  N   UNL A   1      32.542  28.947  23.377  1.00  0.00    -0.354 N 
ATOM      3  C   UNL A   1      33.250  27.864  22.938  1.00  0.00     0.242 C 
ATOM      4  O   UNL A   1      33.959  28.070  21.944  1.00  0.00    -0.273 OA
ATOM      5  H   UNL A   1      32.896  29.807  23.055  1.00  0.00     0.163 HD
BRANCH   3   6
ATOM      6  C   UNL A   1      33.285  26.460  23.636  1.00  0.00     0.168 C 
ATOM      7  C   UNL A   1      34.053  26.508  24.957  1.00  0.00     0.041 C 
BRANCH   6   8
ATOM      8  N   UNL A   1      33.492  25.271  22.801  1.00  0.00    -0.345 N 
ATOM      9  C   UNL A   1      33.778  23.960  22.982  1.00  0.00     0.222 C 
ATOM     10  H   UNL A   1      33.395  25.487  21.845  1.00  0.00     0.164 HD
ATOM     11  O   UNL A   1      34.216  23.365  21.991  1.00  0.00    -0.275 OA
BRANCH   9  12
ATOM     12  C   UNL A   1      33.559  23.200  24.270  1.00  0.00     0.122 C 
BRANCH  12  13
ATOM     13  C   UNL A   1      34.454  21.958  24.389  1.00  0.00     0.135 C 
BRANCH  13  14
ATOM     14  N   UNL A   1      35.784  22.203  24.974  1.00  0.00    -0.315 N 
ATOM     15  C   UNL A   1      36.134  23.490  25.311  1.00  0.00     0.089 A 
ATOM     16  C   UNL A   1      36.692  21.153  25.119  1.00  0.00     0.250 A 
ATOM     17  C   UNL A   1      37.317  23.813  25.839  1.00  0.00     0.018 A 
ATOM     18  C   UNL A   1      38.022  21.518  25.699  1.00  0.00     0.072 A 
ATOM     19  O   UNL A   1      36.475  19.986  24.809  1.00  0.00    -0.269 OA
ATOM     20  C   UNL A   1      38.297  22.783  26.041  1.00  0.00     0.007 A 
ENDBRANCH  13  14
ENDBRANCH  12  13
ENDBRANCH   9  12
ENDBRANCH   6   8
ENDBRANCH   3   6
ENDBRANCH   1   2
BRANCH   1  21
ATOM     21  C   UNL A   1      31.556  29.996  25.435  1.00  0.00     0.023 C 
BRANCH  21  22
ATOM     22  C   UNL A   1      31.995  29.306  26.728  1.00  0.00     0.023 C 
BRANCH  22  23
ATOM     23  C   UNL A   1      33.437  29.563  27.165  1.00  0.00     0.116 C 
BRANCH  23  24
ATOM     24  N   UNL A   1      33.610  30.796  27.922  1.00  0.00    -0.352 N 
ATOM     25  C   UNL A   1      34.679  31.260  28.662  1.00  0.00     0.251 C 
ATOM     26  H   UNL A   1      32.833  31.401  27.901  1.00  0.00     0.163 HD
ATOM     27  O   UNL A   1      34.570  32.284  29.319  1.00  0.00    -0.269 OA
BRANCH  25  28
ATOM     28  C   UNL A   1      35.946  30.493  28.706  1.00  0.00     0.039 A 
ATOM     29  C   UNL A   1      36.311  29.769  29.840  1.00  0.00     0.014 A 
ATOM     30  C   UNL A   1      36.792  30.516  27.594  1.00  0.00     0.014 A 
ATOM     31  C   UNL A   1      37.605  29.270  29.950  1.00  0.00     0.010 A 
ATOM     32  C   UNL A   1      38.058  29.924  27.669  1.00  0.00     0.010 A 
ATOM     33  C   UNL A   1      38.504  29.361  28.874  1.00  0.00    -0.014 A 
BRANCH  33  34
ATOM     34  C   UNL A   1      39.908  28.897  29.047  1.00  0.00     0.031 A 
ATOM     35  C   UNL A   1      40.921  29.759  29.758  1.00  0.00     0.074 A 
ATOM     36  C   UNL A   1      40.257  27.663  28.634  1.00  0.00     0.049 A 
ATOM     37  N   UNL A   1      42.172  29.496  30.041  1.00  0.00    -0.248 NA
ATOM     38  C   UNL A   1      40.474  31.086  30.214  1.00  0.00     0.031 C 
ATOM     39  C   UNL A   1      39.366  26.718  27.961  1.00  0.00     0.029 A 
ATOM     40  N   UNL A   1      41.443  26.979  28.750  1.00  0.00    -0.354 N 
ATOM     41  C   UNL A   1      42.662  30.621  30.693  1.00  0.00     0.074 A 
ATOM     42  C   UNL A   1      41.588  31.588  30.731  1.00  0.00     0.031 C 
ATOM     43  C   UNL A   1      40.013  25.558  27.780  1.00  0.00     0.029 A 
ATOM     44  C   UNL A   1      41.386  25.697  28.258  1.00  0.00     0.049 A 
ATOM     45  H   UNL A   1      42.255  27.370  29.146  1.00  0.00     0.167 HD
ATOM     46  C   UNL A   1      43.891  30.826  31.226  1.00  0.00     0.031 A 
ATOM     47  C   UNL A   1      42.328  24.738  28.187  1.00  0.00     0.031 A 
ATOM     48  C   UNL A   1      44.961  29.864  31.193  1.00  0.00     0.049 A 
ATOM     49  C   UNL A   1      43.703  25.013  28.724  1.00  0.00     0.074 A 
ATOM     50  C   UNL A   1      46.238  29.984  31.713  1.00  0.00     0.029 A 
ATOM     51  N   UNL A   1      44.882  28.608  30.613  1.00  0.00    -0.354 N 
ATOM     52  N   UNL A   1      44.147  26.084  29.337  1.00  0.00    -0.248 NA
ATOM     53  C   UNL A   1      44.707  23.951  28.562  1.00  0.00     0.031 C 
ATOM     54  C   UNL A   1      46.951  28.828  31.392  1.00  0.00     0.029 A 
ATOM     55  C   UNL A   1      46.096  27.955  30.739  1.00  0.00     0.049 A 
ATOM     56  H   UNL A   1      44.082  28.236  30.176  1.00  0.00     0.167 HD
ATOM     57  C   UNL A   1      45.476  25.822  29.645  1.00  0.00     0.074 A 
ATOM     58  C   UNL A   1      45.760  24.483  29.172  1.00  0.00     0.031 C 
ATOM     59  C   UNL A   1      46.376  26.625  30.262  1.00  0.00     0.031 A 
BRANCH  46  60
ATOM     60  C   UNL A   1      44.162  32.149  31.892  1.00  0.00    -0.014 A 
ATOM     61  C   UNL A   1      43.857  32.321  33.253  1.00  0.00     0.009 A 
ATOM     62  C   UNL A   1      44.623  33.252  31.157  1.00  0.00     0.009 A 
ATOM     63  C   UNL A   1      43.994  33.571  33.859  1.00  0.00     0.001 A 
ATOM     64  C   UNL A   1      44.789  34.495  31.774  1.00  0.00     0.001 A 
ATOM     65  C   UNL A   1      44.465  34.657  33.121  1.00  0.00     0.000 A 
ENDBRANCH  46  60
BRANCH  47  66
ATOM     66  C   UNL A   1      41.978  23.424  27.585  1.00  0.00    -0.014 A 
ATOM     67  C   UNL A   1      41.410  22.408  28.373  1.00  0.00     0.009 A 
ATOM     68  C   UNL A   1      42.277  23.150  26.242  1.00  0.00     0.009 A 
ATOM     69  C   UNL A   1      41.185  21.137  27.842  1.00  0.00     0.001 A 
ATOM     70  C   UNL A   1      42.020  21.887  25.705  1.00  0.00     0.001 A 
ATOM     71  C   UNL A   1      41.488  20.878  26.507  1.00  0.00     0.000 A 
ENDBRANCH  47  66
BRANCH  59  72
ATOM     72  C   UNL A   1      47.764  26.092  30.483  1.00  0.00    -0.014 A 
ATOM     73  C   UNL A   1      48.138  25.625  31.755  1.00  0.00     0.009 A 
ATOM     74  C   UNL A   1      48.735  26.158  29.472  1.00  0.00     0.009 A 
ATOM     75  C   UNL A   1      49.458  25.256  32.015  1.00  0.00     0.001 A 
ATOM     76  C   UNL A   1      50.049  25.760  29.729  1.00  0.00     0.001 A 
ATOM     77  C   UNL A   1      50.412  25.321  31.001  1.00  0.00     0.000 A 
ENDBRANCH  59  72
ENDBRANCH  33  34
ENDBRANCH  25  28
ENDBRANCH  23  24
ENDBRANCH  22  23
ENDBRANCH  21  22
ENDBRANCH   1  21
TORSDOF 15
ENDMDL
MODEL 2
REMARK VINA RESULT:      -9.8      3.560      5.654
REMARK SMILES C[C@H](NC(=O)CCn1ccccc1=O)C(=O)NCCCCNC(=O)c1ccc(-c2c3nc(c(-c4ccccc4)c4ccc([nH]4)c(-c4ccccc4)c4nc(c(-c5ccccc5)c5ccc2[nH]5)C=C4)C=C3)cc1
REMARK SMILES IDX 18 1 17 2 15 3 16 4 2 6 1 7 3 8 4 9 5 11 6 12 7 13 8 14 9 15
REMARK SMILES IDX 13 16 10 17 12 18 14 19 11 20 19 21 20 22 21 23 22 24 23 25
REMARK SMILES IDX 24 27 25 28 26 29 72 30 27 31 71 32 28 33 29 34 30 35 65 36
REMARK SMILES IDX 31 37 70 38 64 39 66 40 32 41 69 42 63 43 62 44 33 46 55 47
REMARK SMILES IDX 40 48 54 49 41 50 44 51 53 52 67 53 42 54 43 55 52 57 68 58
REMARK SMILES IDX 45 59 34 60 35 61 39 62 36 63 38 64 37 65 56 66 57 67 61 68
REMARK SMILES IDX 58 69 60 70 59 71 46 72 47 73 51 74 48 75 50 76 49 77
REMARK H PARENT 17 5 3 10 22 26 66 45 44 56
REMARK Flexibility Score: inf
ROOT
ATOM      1  C   UNL A   1      31.610  29.907  25.174  1.00  0.00     0.116 C 
ENDROOT
BRANCH   1   2
ATOM      2  N   UNL A   1      32.853  29.700  24.441  1.00  0.00    -0.354 N 
ATOM      3  C   UNL A   1      33.570  28.578  24.132  1.00  0.00     0.242 C 
ATOM      4  O   UNL A   1      34.369  28.709  23.195  1.00  0.00    -0.273 OA
ATOM      5  H   UNL A   1      33.256  30.531  24.102  1.00  0.00     0.163 HD
BRANCH   3   6
ATOM      6  C   UNL A   1      33.508  27.218  24.911  1.00  0.00     0.168 C 
ATOM      7  C   UNL A   1      33.865  27.400  26.386  1.00  0.00     0.041 C 
BRANCH   6   8
ATOM      8  N   UNL A   1      34.029  26.014  24.254  1.00  0.00    -0.345 N 
ATOM      9  C   UNL A   1      33.685  24.709  24.141  1.00  0.00     0.222 C 
ATOM     10  H   UNL A   1      34.856  26.209  23.758  1.00  0.00     0.164 HD
ATOM     11  O   UNL A   1      34.588  23.945  23.784  1.00  0.00    -0.275 OA
BRANCH   9  12
ATOM     12  C   UNL A   1      32.296  24.161  24.378  1.00  0.00     0.122 C 
BRANCH  12  13
ATOM     13  C   UNL A   1      31.365  24.358  23.173  1.00  0.00     0.135 C 
BRANCH  13  14
ATOM     14  N   UNL A   1      30.644  25.643  23.148  1.00  0.00    -0.315 N 
ATOM     15  C   UNL A   1      29.481  25.767  23.873  1.00  0.00     0.089 A 
ATOM     16  C   UNL A   1      31.102  26.690  22.346  1.00  0.00     0.250 A 
ATOM     17  C   UNL A   1      28.756  26.886  23.907  1.00  0.00     0.018 A 
ATOM     18  C   UNL A   1      30.280  27.939  22.374  1.00  0.00     0.072 A 
ATOM     19  O   UNL A   1      32.105  26.650  21.640  1.00  0.00    -0.269 OA
ATOM     20  C   UNL A   1      29.176  28.016  23.127  1.00  0.00     0.007 A 
ENDBRANCH  13  14
ENDBRANCH  12  13
ENDBRANCH   9  12
ENDBRANCH   6   8
ENDBRANCH   3   6
ENDBRANCH   1   2
BRANCH   1  21
ATOM     21  C   UNL A   1      31.788  30.476  26.578  1.00  0.00     0.023 C 
BRANCH  21  22
ATOM     22  C   UNL A   1      31.534  31.978  26.722  1.00  0.00     0.023 C 
BRANCH  22  23
ATOM     23  C   UNL A   1      32.704  32.806  27.250  1.00  0.00     0.116 C 
BRANCH  23  24
ATOM     24  N   UNL A   1      32.339  34.166  27.626  1.00  0.00    -0.352 N 
ATOM     25  C   UNL A   1      32.903  35.034  28.539  1.00  0.00     0.251 C 
ATOM     26  H   UNL A   1      31.559  34.527  27.145  1.00  0.00     0.163 HD
ATOM     27  O   UNL A   1      32.362  36.102  28.783  1.00  0.00    -0.269 OA
BRANCH  25  28
ATOM     28  C   UNL A   1      34.135  34.654  29.269  1.00  0.00     0.039 A 
ATOM     29  C   UNL A   1      35.392  34.792  28.682  1.00  0.00     0.014 A 
ATOM     30  C   UNL A   1      34.025  34.132  30.561  1.00  0.00     0.014 A 
ATOM     31  C   UNL A   1      36.499  34.201  29.282  1.00  0.00     0.010 A 
ATOM     32  C   UNL A   1      35.159  33.629  31.209  1.00  0.00     0.010 A 
ATOM     33  C   UNL A   1      36.393  33.591  30.543  1.00  0.00    -0.014 A 
BRANCH  33  34
ATOM     34  C   UNL A   1      37.572  32.891  31.124  1.00  0.00     0.031 A 
ATOM     35  C   UNL A   1      38.117  33.292  32.472  1.00  0.00     0.074 A 
ATOM     36  C   UNL A   1      38.108  31.839  30.475  1.00  0.00     0.049 A 
ATOM     37  N   UNL A   1      39.105  32.762  33.151  1.00  0.00    -0.248 NA
ATOM     38  C   UNL A   1      37.473  34.430  33.148  1.00  0.00     0.031 C 
ATOM     39  C   UNL A   1      37.655  31.331  29.180  1.00  0.00     0.029 A 
ATOM     40  N   UNL A   1      39.125  30.987  30.831  1.00  0.00    -0.354 N 
ATOM     41  C   UNL A   1      39.206  33.505  34.321  1.00  0.00     0.074 A 
ATOM     42  C   UNL A   1      38.208  34.548  34.246  1.00  0.00     0.031 C 
ATOM     43  C   UNL A   1      38.345  30.221  28.880  1.00  0.00     0.029 A 
ATOM     44  C   UNL A   1      39.339  29.979  29.922  1.00  0.00     0.049 A 
ATOM     45  H   UNL A   1      39.651  31.090  31.656  1.00  0.00     0.167 HD
ATOM     46  C   UNL A   1      40.044  33.326  35.370  1.00  0.00     0.031 A 
ATOM     47  C   UNL A   1      40.235  28.974  29.915  1.00  0.00     0.031 A 
ATOM     48  C   UNL A   1      41.036  32.286  35.449  1.00  0.00     0.049 A 
ATOM     49  C   UNL A   1      41.199  28.837  31.058  1.00  0.00     0.074 A 
ATOM     50  C   UNL A   1      41.925  32.026  36.478  1.00  0.00     0.029 A 
ATOM     51  N   UNL A   1      41.269  31.336  34.468  1.00  0.00    -0.354 N 
ATOM     52  N   UNL A   1      41.279  29.550  32.155  1.00  0.00    -0.248 NA
ATOM     53  C   UNL A   1      42.194  27.759  30.965  1.00  0.00     0.031 C 
ATOM     54  C   UNL A   1      42.739  30.960  36.092  1.00  0.00     0.029 A 
ATOM     55  C   UNL A   1      42.307  30.505  34.857  1.00  0.00     0.049 A 
ATOM     56  H   UNL A   1      40.772  31.262  33.622  1.00  0.00     0.167 HD
ATOM     57  C   UNL A   1      42.323  29.002  32.889  1.00  0.00     0.074 A 
ATOM     58  C   UNL A   1      42.831  27.882  32.123  1.00  0.00     0.031 C 
ATOM     59  C   UNL A   1      42.813  29.396  34.088  1.00  0.00     0.031 A 
BRANCH  46  60
ATOM     60  C   UNL A   1      39.939  34.280  36.531  1.00  0.00    -0.014 A 
ATOM     61  C   UNL A   1      39.108  33.967  37.620  1.00  0.00     0.009 A 
ATOM     62  C   UNL A   1      40.579  35.529  36.505  1.00  0.00     0.009 A 
ATOM     63  C   UNL A   1      38.910  34.888  38.650  1.00  0.00     0.001 A 
ATOM     64  C   UNL A   1      40.403  36.437  37.553  1.00  0.00     0.001 A 
ATOM     65  C   UNL A   1      39.561  36.121  38.619  1.00  0.00     0.000 A 
ENDBRANCH  46  60
BRANCH  47  66
ATOM     66  C   UNL A   1      40.240  28.018  28.775  1.00  0.00    -0.014 A 
ATOM     67  C   UNL A   1      39.561  26.791  28.873  1.00  0.00     0.009 A 
ATOM     68  C   UNL A   1      40.980  28.291  27.617  1.00  0.00     0.009 A 
ATOM     69  C   UNL A   1      39.656  25.842  27.854  1.00  0.00     0.001 A 
ATOM     70  C   UNL A   1      41.047  27.352  26.583  1.00  0.00     0.001 A 
ATOM     71  C   UNL A   1      40.397  26.125  26.708  1.00  0.00     0.000 A 
ENDBRANCH  47  66
BRANCH  59  72
ATOM     72  C   UNL A   1      43.958  28.618  34.675  1.00  0.00    -0.014 A 
ATOM     73  C   UNL A   1      43.699  27.548  35.548  1.00  0.00     0.009 A 
ATOM     74  C   UNL A   1      45.288  29.013  34.461  1.00  0.00     0.009 A 
ATOM     75  C   UNL A   1      44.745  26.903  36.209  1.00  0.00     0.001 A 
ATOM     76  C   UNL A   1      46.334  28.344  35.101  1.00  0.00     0.001 A 
ATOM     77  C   UNL A   1      46.061  27.300  35.983  1.00  0.00     0.000 A 
ENDBRANCH  59  72
ENDBRANCH  33  34
ENDBRANCH  25  28
ENDBRANCH  23  24
ENDBRANCH  22  23
ENDBRANCH  21  22
ENDBRANCH   1  21
TORSDOF 15
ENDMDL
MODEL 3
REMARK VINA RESULT:      -9.8      1.888      7.812
REMARK SMILES C[C@H](NC(=O)CCn1ccccc1=O)C(=O)NCCCCNC(=O)c1ccc(-c2c3nc(c(-c4ccccc4)c4ccc([nH]4)c(-c4ccccc4)c4nc(c(-c5ccccc5)c5ccc2[nH]5)C=C4)C=C3)cc1
REMARK SMILES IDX 18 1 17 2 15 3 16 4 2 6 1 7 3 8 4 9 5 11 6 12 7 13 8 14 9 15
REMARK SMILES IDX 13 16 10 17 12 18 14 19 11 20 19 21 20 22 21 23 22 24 23 25
REMARK SMILES IDX 24 27 25 28 26 29 72 30 27 31 71 32 28 33 29 34 30 35 65 36
REMARK SMILES IDX 31 37 70 38 64 39 66 40 32 41 69 42 63 43 62 44 33 46 55 47
REMARK SMILES IDX 40 48 54 49 41 50 44 51 53 52 67 53 42 54 43 55 52 57 68 58
REMARK SMILES IDX 45 59 34 60 35 61 39 62 36 63 38 64 37 65 56 66 57 67 61 68
REMARK SMILES IDX 58 69 60 70 59 71 46 72 47 73 51 74 48 75 50 76 49 77
REMARK H PARENT 17 5 3 10 22 26 66 45 44 56
REMARK Flexibility Score: inf
ROOT
ATOM      1  C   UNL A   1      35.305  22.020  24.372  1.00  0.00     0.116 C 
ENDROOT
BRANCH   1   2
ATOM      2  N   UNL A   1      34.741  20.842  25.018  1.00  0.00    -0.354 N 
ATOM      3  C   UNL A   1      33.476  20.325  25.062  1.00  0.00     0.242 C 
ATOM      4  O   UNL A   1      33.409  19.132  25.383  1.00  0.00    -0.273 OA
ATOM      5  H   UNL A   1      35.400  20.314  25.524  1.00  0.00     0.163 HD
BRANCH   3   6
ATOM      6  C   UNL A   1      32.155  21.137  24.822  1.00  0.00     0.168 C 
ATOM      7  C   UNL A   1      32.121  21.752  23.423  1.00  0.00     0.041 C 
BRANCH   6   8
ATOM      8  N   UNL A   1      31.639  21.967  25.915  1.00  0.00    -0.345 N 
ATOM      9  C   UNL A   1      31.985  23.113  26.549  1.00  0.00     0.222 C 
ATOM     10  H   UNL A   1      30.814  21.586  26.292  1.00  0.00     0.164 HD
ATOM     11  O   UNL A   1      31.470  23.288  27.660  1.00  0.00    -0.275 OA
BRANCH   9  12
ATOM     12  C   UNL A   1      32.898  24.173  25.976  1.00  0.00     0.122 C 
BRANCH  12  13
ATOM     13  C   UNL A   1      32.153  25.188  25.097  1.00  0.00     0.135 C 
BRANCH  13  14
ATOM     14  N   UNL A   1      32.466  26.601  25.378  1.00  0.00    -0.315 N 
ATOM     15  C   UNL A   1      33.638  26.904  26.032  1.00  0.00     0.089 A 
ATOM     16  C   UNL A   1      31.554  27.603  25.043  1.00  0.00     0.250 A 
ATOM     17  C   UNL A   1      34.004  28.151  26.337  1.00  0.00     0.018 A 
ATOM     18  C   UNL A   1      31.960  28.998  25.398  1.00  0.00     0.072 A 
ATOM     19  O   UNL A   1      30.472  27.416  24.495  1.00  0.00    -0.269 OA
ATOM     20  C   UNL A   1      33.129  29.239  26.004  1.00  0.00     0.007 A 
ENDBRANCH  13  14
ENDBRANCH  12  13
ENDBRANCH   9  12
ENDBRANCH   6   8
ENDBRANCH   3   6
ENDBRANCH   1   2
BRANCH   1  21
ATOM     21  C   UNL A   1      36.830  22.057  24.339  1.00  0.00     0.023 C 
BRANCH  21  22
ATOM     22  C   UNL A   1      37.534  20.767  24.763  1.00  0.00     0.023 C 
BRANCH  22  23
ATOM     23  C   UNL A   1      38.683  20.929  25.756  1.00  0.00     0.116 C 
BRANCH  23  24
ATOM     24  N   UNL A   1      39.675  19.863  25.685  1.00  0.00    -0.352 N 
ATOM     25  C   UNL A   1      41.018  19.854  26.008  1.00  0.00     0.251 C 
ATOM     26  H   UNL A   1      39.329  19.004  25.352  1.00  0.00     0.163 HD
ATOM     27  O   UNL A   1      41.700  18.872  25.761  1.00  0.00    -0.269 OA
BRANCH  25  28
ATOM     28  C   UNL A   1      41.650  21.054  26.605  1.00  0.00     0.039 A 
ATOM     29  C   UNL A   1      41.691  21.235  27.987  1.00  0.00     0.014 A 
ATOM     30  C   UNL A   1      42.198  22.024  25.761  1.00  0.00     0.014 A 
ATOM     31  C   UNL A   1      42.060  22.472  28.507  1.00  0.00     0.010 A 
ATOM     32  C   UNL A   1      42.664  23.230  26.294  1.00  0.00     0.010 A 
ATOM     33  C   UNL A   1      42.530  23.494  27.665  1.00  0.00    -0.014 A 
BRANCH  33  34
ATOM     34  C   UNL A   1      42.836  24.834  28.236  1.00  0.00     0.031 A 
ATOM     35  C   UNL A   1      44.259  25.240  28.526  1.00  0.00     0.074 A 
ATOM     36  C   UNL A   1      41.839  25.722  28.423  1.00  0.00     0.049 A 
ATOM     37  N   UNL A   1      44.714  26.383  28.977  1.00  0.00    -0.248 NA
ATOM     38  C   UNL A   1      45.310  24.240  28.274  1.00  0.00     0.031 C 
ATOM     39  C   UNL A   1      40.424  25.466  28.154  1.00  0.00     0.029 A 
ATOM     40  N   UNL A   1      41.867  27.028  28.848  1.00  0.00    -0.354 N 
ATOM     41  C   UNL A   1      46.092  26.235  29.074  1.00  0.00     0.074 A 
ATOM     42  C   UNL A   1      46.400  24.881  28.673  1.00  0.00     0.031 C 
ATOM     43  C   UNL A   1      39.729  26.593  28.359  1.00  0.00     0.029 A 
ATOM     44  C   UNL A   1      40.634  27.632  28.843  1.00  0.00     0.049 A 
ATOM     45  H   UNL A   1      42.692  27.485  29.131  1.00  0.00     0.167 HD
ATOM     46  C   UNL A   1      47.020  27.149  29.449  1.00  0.00     0.031 A 
ATOM     47  C   UNL A   1      40.261  28.878  29.194  1.00  0.00     0.031 A 
ATOM     48  C   UNL A   1      46.716  28.499  29.845  1.00  0.00     0.049 A 
ATOM     49  C   UNL A   1      41.299  29.852  29.670  1.00  0.00     0.074 A 
ATOM     50  C   UNL A   1      47.594  29.496  30.234  1.00  0.00     0.029 A 
ATOM     51  N   UNL A   1      45.443  29.043  29.900  1.00  0.00    -0.354 N 
ATOM     52  N   UNL A   1      42.598  29.693  29.755  1.00  0.00    -0.248 NA
ATOM     53  C   UNL A   1      40.824  31.176  30.097  1.00  0.00     0.031 C 
ATOM     54  C   UNL A   1      46.848  30.621  30.586  1.00  0.00     0.029 A 
ATOM     55  C   UNL A   1      45.511  30.353  30.343  1.00  0.00     0.049 A 
ATOM     56  H   UNL A   1      44.614  28.569  29.659  1.00  0.00     0.167 HD
ATOM     57  C   UNL A   1      43.097  30.897  30.233  1.00  0.00     0.074 A 
ATOM     58  C   UNL A   1      41.965  31.785  30.398  1.00  0.00     0.031 C 
ATOM     59  C   UNL A   1      44.381  31.231  30.511  1.00  0.00     0.031 A 
BRANCH  46  60
ATOM     60  C   UNL A   1      48.466  26.726  29.459  1.00  0.00    -0.014 A 
ATOM     61  C   UNL A   1      49.037  26.219  30.638  1.00  0.00     0.009 A 
ATOM     62  C   UNL A   1      49.287  26.922  28.338  1.00  0.00     0.009 A 
ATOM     63  C   UNL A   1      50.401  25.930  30.699  1.00  0.00     0.001 A 
ATOM     64  C   UNL A   1      50.647  26.602  28.392  1.00  0.00     0.001 A 
ATOM     65  C   UNL A   1      51.205  26.117  29.574  1.00  0.00     0.000 A 
ENDBRANCH  46  60
BRANCH  47  66
ATOM     66  C   UNL A   1      38.827  29.260  29.090  1.00  0.00    -0.014 A 
ATOM     67  C   UNL A   1      37.970  29.116  30.194  1.00  0.00     0.009 A 
ATOM     68  C   UNL A   1      38.291  29.697  27.870  1.00  0.00     0.009 A 
ATOM     69  C   UNL A   1      36.602  29.365  30.071  1.00  0.00     0.001 A 
ATOM     70  C   UNL A   1      36.926  29.977  27.758  1.00  0.00     0.001 A 
ATOM     71  C   UNL A   1      36.081  29.798  28.853  1.00  0.00     0.000 A 
ENDBRANCH  47  66
BRANCH  59  72
ATOM     72  C   UNL A   1      44.657  32.619  31.018  1.00  0.00    -0.014 A 
ATOM     73  C   UNL A   1      44.594  32.883  32.397  1.00  0.00     0.009 A 
ATOM     74  C   UNL A   1      44.863  33.687  30.131  1.00  0.00     0.009 A 
ATOM     75  C   UNL A   1      44.711  34.189  32.875  1.00  0.00     0.001 A 
ATOM     76  C   UNL A   1      45.010  34.989  30.616  1.00  0.00     0.001 A 
ATOM     77  C   UNL A   1      44.921  35.240  31.984  1.00  0.00     0.000 A 
ENDBRANCH  59  72
ENDBRANCH  33  34
ENDBRANCH  25  28
ENDBRANCH  23  24
ENDBRANCH  22  23
ENDBRANCH  21  22
ENDBRANCH   1  21
TORSDOF 15
ENDMDL
