MODEL 1
REMARK VINA RESULT:     -14.3      0.000      0.000
REMARK SMILES Cc1coc2cc3c(cc12)[C@@H](C)[C@H](CCC(=O)N[C@@H](Cc1c[nH]c2ccccc12)C(=O)NCCCCNC(=O)c1ccc(-c2c4nc(c(-c5ccccc5)c5ccc([nH]5)c(-c5ccccc5)c5nc(c(-c6ccccc6)c6ccc2[nH]6)C=C5)C=C4)cc1)C(=O)O3
REMARK SMILES IDX 33 1 32 2 30 3 31 4 19 6 18 7 16 8 17 9 15 11 14 12 13 13
REMARK SMILES IDX 1 14 2 15 3 16 10 17 4 18 5 19 9 20 6 21 8 22 7 23 11 24
REMARK SMILES IDX 90 25 12 26 88 27 89 28 20 29 21 30 22 31 29 32 23 33 24 34
REMARK SMILES IDX 28 35 25 37 27 38 26 39 34 40 35 41 36 42 37 43 38 44 39 46
REMARK SMILES IDX 40 47 41 48 87 49 42 50 86 51 43 52 44 53 45 54 80 55 46 56
REMARK SMILES IDX 85 57 79 58 81 59 47 60 84 61 78 62 77 63 48 65 70 66 55 67
REMARK SMILES IDX 69 68 56 69 59 70 68 71 82 72 57 73 58 74 67 76 83 77 60 78
REMARK SMILES IDX 49 79 50 80 54 81 51 82 53 83 52 84 71 85 72 86 76 87 73 88
REMARK SMILES IDX 75 89 74 90 61 91 62 92 66 93 63 94 65 95 64 96
REMARK H PARENT 32 5 18 10 23 36 37 45 81 64 59 75
REMARK Flexibility Score: inf
ROOT
ATOM      1  C   UNL A   1      35.449  20.358  25.082  1.00  0.00     0.116 C 
ENDROOT
BRANCH   1   2
ATOM      2  N   UNL A   1      34.943  21.052  26.241  1.00  0.00    -0.354 N 
ATOM      3  C   UNL A   1      33.812  21.799  26.349  1.00  0.00     0.242 C 
ATOM      4  O   UNL A   1      33.439  22.095  27.489  1.00  0.00    -0.273 OA
ATOM      5  H   UNL A   1      35.487  20.976  27.057  1.00  0.00     0.163 HD
BRANCH   3   6
ATOM      6  C   UNL A   1      32.950  22.143  25.119  1.00  0.00     0.175 C 
BRANCH   6   7
ATOM      7  N   UNL A   1      33.717  22.790  24.008  1.00  0.00    -0.344 N 
ATOM      8  C   UNL A   1      34.480  23.927  23.873  1.00  0.00     0.220 C 
ATOM      9  O   UNL A   1      35.029  24.072  22.772  1.00  0.00    -0.275 OA
ATOM     10  H   UNL A   1      33.662  22.276  23.170  1.00  0.00     0.164 HD
BRANCH   8  11
ATOM     11  C   UNL A   1      34.684  25.032  24.951  1.00  0.00     0.101 C 
BRANCH  11  12
ATOM     12  C   UNL A   1      33.850  26.398  24.824  1.00  0.00     0.026 C 
BRANCH  12  13
ATOM     13  C   UNL A   1      33.098  26.882  26.125  1.00  0.00     0.107 C 
ATOM     14  C   UNL A   1      28.845  32.128  23.597  1.00  0.00     0.048 C 
ATOM     15  C   UNL A   1      29.249  30.823  23.029  1.00  0.00    -0.005 A 
ATOM     16  C   UNL A   1      28.829  30.283  21.829  1.00  0.00     0.199 A 
ATOM     17  C   UNL A   1      30.096  29.842  23.625  1.00  0.00     0.024 A 
ATOM     18  O   UNL A   1      29.282  29.013  21.683  1.00  0.00    -0.464 OA
ATOM     19  C   UNL A   1      30.005  28.727  22.797  1.00  0.00     0.137 A 
ATOM     20  C   UNL A   1      30.887  29.758  24.795  1.00  0.00     0.020 A 
ATOM     21  C   UNL A   1      30.507  27.479  23.120  1.00  0.00     0.095 A 
ATOM     22  C   UNL A   1      31.442  28.523  25.133  1.00  0.00    -0.001 A 
ATOM     23  C   UNL A   1      31.075  27.416  24.386  1.00  0.00     0.138 A 
ATOM     24  C   UNL A   1      32.333  28.249  26.319  1.00  0.00     0.034 C 
ATOM     25  O   UNL A   1      31.139  26.173  25.054  1.00  0.00    -0.426 OA
ATOM     26  C   UNL A   1      31.403  28.196  27.571  1.00  0.00     0.014 C 
ATOM     27  C   UNL A   1      31.969  25.955  26.176  1.00  0.00     0.314 C 
ATOM     28  O   UNL A   1      31.864  25.079  27.007  1.00  0.00    -0.251 OA
ENDBRANCH  12  13
ENDBRANCH  11  12
ENDBRANCH   8  11
ENDBRANCH   6   7
BRANCH   6  29
ATOM     29  C   UNL A   1      31.980  20.917  24.883  1.00  0.00     0.072 C 
BRANCH  29  30
ATOM     30  C   UNL A   1      32.222  19.754  23.950  1.00  0.00    -0.020 A 
ATOM     31  C   UNL A   1      32.122  19.635  22.577  1.00  0.00     0.087 A 
ATOM     32  C   UNL A   1      32.550  18.439  24.429  1.00  0.00     0.003 A 
ATOM     33  N   UNL A   1      32.453  18.350  22.212  1.00  0.00    -0.361 N 
ATOM     34  C   UNL A   1      32.775  17.617  23.328  1.00  0.00     0.046 A 
ATOM     35  C   UNL A   1      32.732  17.902  25.718  1.00  0.00     0.010 A 
ATOM     36  H   UNL A   1      32.457  18.008  21.289  1.00  0.00     0.166 HD
ATOM     37  C   UNL A   1      33.281  16.317  23.451  1.00  0.00     0.026 A 
ATOM     38  C   UNL A   1      33.257  16.620  25.861  1.00  0.00     0.001 A 
ATOM     39  C   UNL A   1      33.562  15.853  24.740  1.00  0.00     0.002 A 
ENDBRANCH  29  30
ENDBRANCH   6  29
ENDBRANCH   3   6
ENDBRANCH   1   2
BRANCH   1  40
ATOM     40  C   UNL A   1      36.950  20.412  24.948  1.00  0.00     0.023 C 
BRANCH  40  41
ATOM     41  C   UNL A   1      37.457  21.775  24.478  1.00  0.00     0.023 C 
BRANCH  41  42
ATOM     42  C   UNL A   1      38.098  22.655  25.563  1.00  0.00     0.116 C 
BRANCH  42  43
ATOM     43  N   UNL A   1      39.233  22.062  26.245  1.00  0.00    -0.352 N 
ATOM     44  C   UNL A   1      40.114  22.478  27.200  1.00  0.00     0.251 C 
ATOM     45  H   UNL A   1      39.409  21.141  25.946  1.00  0.00     0.163 HD
ATOM     46  O   UNL A   1      40.853  21.631  27.707  1.00  0.00    -0.269 OA
BRANCH  44  47
ATOM     47  C   UNL A   1      40.311  23.901  27.556  1.00  0.00     0.039 A 
ATOM     48  C   UNL A   1      41.511  24.424  28.023  1.00  0.00     0.014 A 
ATOM     49  C   UNL A   1      39.171  24.722  27.538  1.00  0.00     0.014 A 
ATOM     50  C   UNL A   1      41.531  25.637  28.676  1.00  0.00     0.010 A 
ATOM     51  C   UNL A   1      39.202  25.983  28.119  1.00  0.00     0.010 A 
ATOM     52  C   UNL A   1      40.365  26.397  28.756  1.00  0.00    -0.014 A 
BRANCH  52  53
ATOM     53  C   UNL A   1      40.489  27.680  29.422  1.00  0.00     0.031 A 
ATOM     54  C   UNL A   1      41.457  28.605  28.772  1.00  0.00     0.074 A 
ATOM     55  C   UNL A   1      39.784  28.029  30.512  1.00  0.00     0.049 A 
ATOM     56  N   UNL A   1      42.549  29.088  29.268  1.00  0.00    -0.248 NA
ATOM     57  C   UNL A   1      41.256  28.900  27.344  1.00  0.00     0.031 C 
ATOM     58  C   UNL A   1      38.646  27.342  31.121  1.00  0.00     0.029 A 
ATOM     59  N   UNL A   1      39.892  29.166  31.250  1.00  0.00    -0.354 N 
ATOM     60  C   UNL A   1      43.104  29.878  28.266  1.00  0.00     0.074 A 
ATOM     61  C   UNL A   1      42.342  29.623  27.071  1.00  0.00     0.031 C 
ATOM     62  C   UNL A   1      38.015  28.194  31.963  1.00  0.00     0.029 A 
ATOM     63  C   UNL A   1      38.798  29.414  32.064  1.00  0.00     0.049 A 
ATOM     64  H   UNL A   1      40.677  29.759  31.209  1.00  0.00     0.167 HD
ATOM     65  C   UNL A   1      44.033  30.835  28.537  1.00  0.00     0.031 A 
ATOM     66  C   UNL A   1      38.532  30.574  32.709  1.00  0.00     0.031 A 
ATOM     67  C   UNL A   1      44.676  30.617  29.805  1.00  0.00     0.049 A 
ATOM     68  C   UNL A   1      39.801  31.328  32.826  1.00  0.00     0.074 A 
ATOM     69  C   UNL A   1      45.491  29.632  30.323  1.00  0.00     0.029 A 
ATOM     70  N   UNL A   1      44.208  31.325  30.884  1.00  0.00    -0.354 N 
ATOM     71  N   UNL A   1      40.797  30.947  33.571  1.00  0.00    -0.248 NA
ATOM     72  C   UNL A   1      40.129  32.293  31.790  1.00  0.00     0.031 C 
ATOM     73  C   UNL A   1      45.095  29.503  31.685  1.00  0.00     0.029 A 
ATOM     74  C   UNL A   1      44.107  30.455  31.940  1.00  0.00     0.049 A 
ATOM     75  H   UNL A   1      43.987  32.285  30.899  1.00  0.00     0.167 HD
ATOM     76  C   UNL A   1      41.927  31.260  32.833  1.00  0.00     0.074 A 
ATOM     77  C   UNL A   1      41.460  32.190  31.806  1.00  0.00     0.031 C 
ATOM     78  C   UNL A   1      43.072  30.524  32.951  1.00  0.00     0.031 A 
BRANCH  65  79
ATOM     79  C   UNL A   1      44.074  32.158  27.816  1.00  0.00    -0.014 A 
ATOM     80  C   UNL A   1      44.283  33.387  28.473  1.00  0.00     0.009 A 
ATOM     81  C   UNL A   1      44.180  32.170  26.415  1.00  0.00     0.009 A 
ATOM     82  C   UNL A   1      44.597  34.558  27.780  1.00  0.00     0.001 A 
ATOM     83  C   UNL A   1      44.536  33.333  25.719  1.00  0.00     0.001 A 
ATOM     84  C   UNL A   1      44.750  34.526  26.404  1.00  0.00     0.000 A 
ENDBRANCH  65  79
BRANCH  66  85
ATOM     85  C   UNL A   1      37.222  31.242  32.858  1.00  0.00    -0.014 A 
ATOM     86  C   UNL A   1      36.293  31.217  31.802  1.00  0.00     0.009 A 
ATOM     87  C   UNL A   1      37.015  32.164  33.896  1.00  0.00     0.009 A 
ATOM     88  C   UNL A   1      35.227  32.120  31.755  1.00  0.00     0.001 A 
ATOM     89  C   UNL A   1      35.948  33.071  33.846  1.00  0.00     0.001 A 
ATOM     90  C   UNL A   1      35.067  33.061  32.767  1.00  0.00     0.000 A 
ENDBRANCH  66  85
BRANCH  78  91
ATOM     91  C   UNL A   1      43.151  29.506  34.071  1.00  0.00    -0.014 A 
ATOM     92  C   UNL A   1      42.596  28.235  33.861  1.00  0.00     0.009 A 
ATOM     93  C   UNL A   1      43.618  29.815  35.362  1.00  0.00     0.009 A 
ATOM     94  C   UNL A   1      42.508  27.305  34.899  1.00  0.00     0.001 A 
ATOM     95  C   UNL A   1      43.559  28.872  36.396  1.00  0.00     0.001 A 
ATOM     96  C   UNL A   1      42.995  27.620  36.165  1.00  0.00     0.000 A 
ENDBRANCH  78  91
ENDBRANCH  52  53
ENDBRANCH  44  47
ENDBRANCH  42  43
ENDBRANCH  41  42
ENDBRANCH  40  41
ENDBRANCH   1  40
TORSDOF 17
ENDMDL
MODEL 2
REMARK VINA RESULT:     -14.2      0.978      1.326
REMARK SMILES Cc1coc2cc3c(cc12)[C@@H](C)[C@H](CCC(=O)N[C@@H](Cc1c[nH]c2ccccc12)C(=O)NCCCCNC(=O)c1ccc(-c2c4nc(c(-c5ccccc5)c5ccc([nH]5)c(-c5ccccc5)c5nc(c(-c6ccccc6)c6ccc2[nH]6)C=C5)C=C4)cc1)C(=O)O3
REMARK SMILES IDX 33 1 32 2 30 3 31 4 19 6 18 7 16 8 17 9 15 11 14 12 13 13
REMARK SMILES IDX 1 14 2 15 3 16 10 17 4 18 5 19 9 20 6 21 8 22 7 23 11 24
REMARK SMILES IDX 90 25 12 26 88 27 89 28 20 29 21 30 22 31 29 32 23 33 24 34
REMARK SMILES IDX 28 35 25 37 27 38 26 39 34 40 35 41 36 42 37 43 38 44 39 46
REMARK SMILES IDX 40 47 41 48 87 49 42 50 86 51 43 52 44 53 45 54 80 55 46 56
REMARK SMILES IDX 85 57 79 58 81 59 47 60 84 61 78 62 77 63 48 65 70 66 55 67
REMARK SMILES IDX 69 68 56 69 59 70 68 71 82 72 57 73 58 74 67 76 83 77 60 78
REMARK SMILES IDX 49 79 50 80 54 81 51 82 53 83 52 84 71 85 72 86 76 87 73 88
REMARK SMILES IDX 75 89 74 90 61 91 62 92 66 93 63 94 65 95 64 96
REMARK H PARENT 32 5 18 10 23 36 37 45 81 64 59 75
REMARK Flexibility Score: inf
ROOT
ATOM      1  C   UNL A   1      35.655  20.594  25.072  1.00  0.00     0.116 C 
ENDROOT
BRANCH   1   2
ATOM      2  N   UNL A   1      35.102  21.184  26.266  1.00  0.00    -0.354 N 
ATOM      3  C   UNL A   1      33.913  21.826  26.416  1.00  0.00     0.242 C 
ATOM      4  O   UNL A   1      33.526  22.032  27.571  1.00  0.00    -0.273 OA
ATOM      5  H   UNL A   1      35.657  21.113  27.075  1.00  0.00     0.163 HD
BRANCH   3   6
ATOM      6  C   UNL A   1      33.015  22.157  25.209  1.00  0.00     0.175 C 
BRANCH   6   7
ATOM      7  N   UNL A   1      33.744  22.813  24.077  1.00  0.00    -0.344 N 
ATOM      8  C   UNL A   1      34.493  23.957  23.923  1.00  0.00     0.220 C 
ATOM      9  O   UNL A   1      35.009  24.109  22.808  1.00  0.00    -0.275 OA
ATOM     10  H   UNL A   1      33.669  22.301  23.240  1.00  0.00     0.164 HD
BRANCH   8  11
ATOM     11  C   UNL A   1      34.720  25.060  24.999  1.00  0.00     0.101 C 
BRANCH  11  12
ATOM     12  C   UNL A   1      33.893  26.433  24.882  1.00  0.00     0.026 C 
BRANCH  12  13
ATOM     13  C   UNL A   1      33.092  26.878  26.168  1.00  0.00     0.107 C 
ATOM     14  C   UNL A   1      28.829  32.099  23.607  1.00  0.00     0.048 C 
ATOM     15  C   UNL A   1      29.274  30.813  23.027  1.00  0.00    -0.005 A 
ATOM     16  C   UNL A   1      28.901  30.289  21.804  1.00  0.00     0.199 A 
ATOM     17  C   UNL A   1      30.119  29.835  23.631  1.00  0.00     0.024 A 
ATOM     18  O   UNL A   1      29.381  29.031  21.648  1.00  0.00    -0.464 OA
ATOM     19  C   UNL A   1      30.074  28.735  22.779  1.00  0.00     0.137 A 
ATOM     20  C   UNL A   1      30.874  29.741  24.823  1.00  0.00     0.020 A 
ATOM     21  C   UNL A   1      30.588  27.489  23.093  1.00  0.00     0.095 A 
ATOM     22  C   UNL A   1      31.440  28.509  25.155  1.00  0.00    -0.001 A 
ATOM     23  C   UNL A   1      31.116  27.411  24.375  1.00  0.00     0.138 A 
ATOM     24  C   UNL A   1      32.298  28.226  26.364  1.00  0.00     0.034 C 
ATOM     25  O   UNL A   1      31.181  26.156  25.021  1.00  0.00    -0.426 OA
ATOM     26  C   UNL A   1      31.329  28.133  27.584  1.00  0.00     0.014 C 
ATOM     27  C   UNL A   1      31.978  25.930  26.164  1.00  0.00     0.314 C 
ATOM     28  O   UNL A   1      31.863  25.037  26.975  1.00  0.00    -0.251 OA
ENDBRANCH  12  13
ENDBRANCH  11  12
ENDBRANCH   8  11
ENDBRANCH   6   7
BRANCH   6  29
ATOM     29  C   UNL A   1      32.056  20.917  24.998  1.00  0.00     0.072 C 
BRANCH  29  30
ATOM     30  C   UNL A   1      32.267  19.780  24.027  1.00  0.00    -0.020 A 
ATOM     31  C   UNL A   1      32.111  19.695  22.656  1.00  0.00     0.087 A 
ATOM     32  C   UNL A   1      32.625  18.456  24.457  1.00  0.00     0.003 A 
ATOM     33  N   UNL A   1      32.435  18.422  22.245  1.00  0.00    -0.361 N 
ATOM     34  C   UNL A   1      32.809  17.664  23.327  1.00  0.00     0.046 A 
ATOM     35  C   UNL A   1      32.864  17.889  25.724  1.00  0.00     0.010 A 
ATOM     36  H   UNL A   1      32.404  18.103  21.314  1.00  0.00     0.166 HD
ATOM     37  C   UNL A   1      33.330  16.366  23.397  1.00  0.00     0.026 A 
ATOM     38  C   UNL A   1      33.404  16.607  25.812  1.00  0.00     0.001 A 
ATOM     39  C   UNL A   1      33.667  15.872  24.660  1.00  0.00     0.002 A 
ENDBRANCH  29  30
ENDBRANCH   6  29
ENDBRANCH   3   6
ENDBRANCH   1   2
BRANCH   1  40
ATOM     40  C   UNL A   1      37.134  20.837  24.902  1.00  0.00     0.023 C 
BRANCH  40  41
ATOM     41  C   UNL A   1      37.503  22.319  24.947  1.00  0.00     0.023 C 
BRANCH  41  42
ATOM     42  C   UNL A   1      38.358  22.754  26.148  1.00  0.00     0.116 C 
BRANCH  42  43
ATOM     43  N   UNL A   1      39.734  22.297  26.120  1.00  0.00    -0.352 N 
ATOM     44  C   UNL A   1      40.923  22.776  26.588  1.00  0.00     0.251 C 
ATOM     45  H   UNL A   1      39.833  21.437  25.651  1.00  0.00     0.163 HD
ATOM     46  O   UNL A   1      41.897  22.020  26.562  1.00  0.00    -0.269 OA
BRANCH  44  47
ATOM     47  C   UNL A   1      41.125  24.184  26.998  1.00  0.00     0.039 A 
ATOM     48  C   UNL A   1      41.764  24.564  28.172  1.00  0.00     0.014 A 
ATOM     49  C   UNL A   1      40.512  25.169  26.205  1.00  0.00     0.014 A 
ATOM     50  C   UNL A   1      41.594  25.837  28.671  1.00  0.00     0.010 A 
ATOM     51  C   UNL A   1      40.410  26.476  26.660  1.00  0.00     0.010 A 
ATOM     52  C   UNL A   1      40.884  26.780  27.930  1.00  0.00    -0.014 A 
BRANCH  52  53
ATOM     53  C   UNL A   1      40.794  28.107  28.512  1.00  0.00     0.031 A 
ATOM     54  C   UNL A   1      41.885  29.026  28.088  1.00  0.00     0.074 A 
ATOM     55  C   UNL A   1      39.809  28.497  29.340  1.00  0.00     0.049 A 
ATOM     56  N   UNL A   1      42.788  29.580  28.828  1.00  0.00    -0.248 NA
ATOM     57  C   UNL A   1      42.080  29.223  26.642  1.00  0.00     0.031 C 
ATOM     58  C   UNL A   1      38.561  27.805  29.661  1.00  0.00     0.029 A 
ATOM     59  N   UNL A   1      39.686  29.681  29.996  1.00  0.00    -0.354 N 
ATOM     60  C   UNL A   1      43.582  30.327  27.963  1.00  0.00     0.074 A 
ATOM     61  C   UNL A   1      43.185  29.968  26.626  1.00  0.00     0.031 C 
ATOM     62  C   UNL A   1      37.706  28.684  30.236  1.00  0.00     0.029 A 
ATOM     63  C   UNL A   1      38.406  29.937  30.461  1.00  0.00     0.049 A 
ATOM     64  H   UNL A   1      40.440  30.300  30.130  1.00  0.00     0.167 HD
ATOM     65  C   UNL A   1      44.381  31.334  28.409  1.00  0.00     0.031 A 
ATOM     66  C   UNL A   1      37.950  31.124  30.923  1.00  0.00     0.031 A 
ATOM     67  C   UNL A   1      44.654  31.222  29.817  1.00  0.00     0.049 A 
ATOM     68  C   UNL A   1      39.122  31.932  31.329  1.00  0.00     0.074 A 
ATOM     69  C   UNL A   1      45.314  30.303  30.607  1.00  0.00     0.029 A 
ATOM     70  N   UNL A   1      43.893  31.978  30.674  1.00  0.00    -0.354 N 
ATOM     71  N   UNL A   1      39.881  31.638  32.343  1.00  0.00    -0.248 NA
ATOM     72  C   UNL A   1      39.704  32.842  30.356  1.00  0.00     0.031 C 
ATOM     73  C   UNL A   1      44.560  30.245  31.814  1.00  0.00     0.029 A 
ATOM     74  C   UNL A   1      43.521  31.172  31.720  1.00  0.00     0.049 A 
ATOM     75  H   UNL A   1      43.657  32.927  30.559  1.00  0.00     0.167 HD
ATOM     76  C   UNL A   1      41.165  31.947  31.923  1.00  0.00     0.074 A 
ATOM     77  C   UNL A   1      40.980  32.792  30.743  1.00  0.00     0.031 C 
ATOM     78  C   UNL A   1      42.247  31.265  32.402  1.00  0.00     0.031 A 
BRANCH  65  79
ATOM     79  C   UNL A   1      44.594  32.610  27.635  1.00  0.00    -0.014 A 
ATOM     80  C   UNL A   1      44.155  32.790  26.309  1.00  0.00     0.009 A 
ATOM     81  C   UNL A   1      45.001  33.767  28.323  1.00  0.00     0.009 A 
ATOM     82  C   UNL A   1      44.104  34.048  25.704  1.00  0.00     0.001 A 
ATOM     83  C   UNL A   1      44.913  35.035  27.735  1.00  0.00     0.001 A 
ATOM     84  C   UNL A   1      44.459  35.175  26.427  1.00  0.00     0.000 A 
ENDBRANCH  65  79
BRANCH  66  85
ATOM     85  C   UNL A   1      36.637  31.749  30.660  1.00  0.00    -0.014 A 
ATOM     86  C   UNL A   1      36.020  31.595  29.405  1.00  0.00     0.009 A 
ATOM     87  C   UNL A   1      36.147  32.749  31.515  1.00  0.00     0.009 A 
ATOM     88  C   UNL A   1      34.990  32.446  28.995  1.00  0.00     0.001 A 
ATOM     89  C   UNL A   1      35.117  33.605  31.102  1.00  0.00     0.001 A 
ATOM     90  C   UNL A   1      34.554  33.465  29.836  1.00  0.00     0.000 A 
ENDBRANCH  66  85
BRANCH  78  91
ATOM     91  C   UNL A   1      42.034  30.323  33.570  1.00  0.00    -0.014 A 
ATOM     92  C   UNL A   1      42.381  30.764  34.856  1.00  0.00     0.009 A 
ATOM     93  C   UNL A   1      41.651  28.978  33.417  1.00  0.00     0.009 A 
ATOM     94  C   UNL A   1      42.346  29.897  35.951  1.00  0.00     0.001 A 
ATOM     95  C   UNL A   1      41.585  28.115  34.518  1.00  0.00     0.001 A 
ATOM     96  C   UNL A   1      41.942  28.575  35.783  1.00  0.00     0.000 A 
ENDBRANCH  78  91
ENDBRANCH  52  53
ENDBRANCH  44  47
ENDBRANCH  42  43
ENDBRANCH  41  42
ENDBRANCH  40  41
ENDBRANCH   1  40
TORSDOF 17
ENDMDL
MODEL 3
REMARK VINA RESULT:     -14.1      2.503      5.215
REMARK SMILES Cc1coc2cc3c(cc12)[C@@H](C)[C@H](CCC(=O)N[C@@H](Cc1c[nH]c2ccccc12)C(=O)NCCCCNC(=O)c1ccc(-c2c4nc(c(-c5ccccc5)c5ccc([nH]5)c(-c5ccccc5)c5nc(c(-c6ccccc6)c6ccc2[nH]6)C=C5)C=C4)cc1)C(=O)O3
REMARK SMILES IDX 33 1 32 2 30 3 31 4 19 6 18 7 16 8 17 9 15 11 14 12 13 13
REMARK SMILES IDX 1 14 2 15 3 16 10 17 4 18 5 19 9 20 6 21 8 22 7 23 11 24
REMARK SMILES IDX 90 25 12 26 88 27 89 28 20 29 21 30 22 31 29 32 23 33 24 34
REMARK SMILES IDX 28 35 25 37 27 38 26 39 34 40 35 41 36 42 37 43 38 44 39 46
REMARK SMILES IDX 40 47 41 48 87 49 42 50 86 51 43 52 44 53 45 54 80 55 46 56
REMARK SMILES IDX 85 57 79 58 81 59 47 60 84 61 78 62 77 63 48 65 70 66 55 67
REMARK SMILES IDX 69 68 56 69 59 70 68 71 82 72 57 73 58 74 67 76 83 77 60 78
REMARK SMILES IDX 49 79 50 80 54 81 51 82 53 83 52 84 71 85 72 86 76 87 73 88
REMARK SMILES IDX 75 89 74 90 61 91 62 92 66 93 63 94 65 95 64 96
REMARK H PARENT 32 5 18 10 23 36 37 45 81 64 59 75
REMARK Flexibility Score: inf
ROOT
ATOM      1  C   UNL A   1      36.300  21.401  25.785  1.00  0.00     0.116 C 
ENDROOT
BRANCH   1   2
ATOM      2  N   UNL A   1      35.292  21.459  26.815  1.00  0.00    -0.354 N 
ATOM      3  C   UNL A   1      33.991  21.835  26.701  1.00  0.00     0.242 C 
ATOM      4  O   UNL A   1      33.243  21.573  27.649  1.00  0.00    -0.273 OA
ATOM      5  H   UNL A   1      35.585  21.192  27.716  1.00  0.00     0.163 HD
BRANCH   3   6
ATOM      6  C   UNL A   1      33.434  22.432  25.394  1.00  0.00     0.175 C 
BRANCH   6   7
ATOM      7  N   UNL A   1      34.494  22.885  24.439  1.00  0.00    -0.344 N 
ATOM      8  C   UNL A   1      34.511  23.430  23.176  1.00  0.00     0.220 C 
ATOM      9  O   UNL A   1      35.629  23.749  22.748  1.00  0.00    -0.275 OA
ATOM     10  H   UNL A   1      35.400  22.762  24.804  1.00  0.00     0.164 HD
BRANCH   8  11
ATOM     11  C   UNL A   1      33.277  23.650  22.252  1.00  0.00     0.101 C 
BRANCH  11  12
ATOM     12  C   UNL A   1      32.498  25.053  22.326  1.00  0.00     0.026 C 
BRANCH  12  13
ATOM     13  C   UNL A   1      33.322  26.282  22.876  1.00  0.00     0.107 C 
ATOM     14  C   UNL A   1      28.750  31.773  21.910  1.00  0.00     0.048 C 
ATOM     15  C   UNL A   1      28.535  30.370  22.324  1.00  0.00    -0.005 A 
ATOM     16  C   UNL A   1      27.332  29.792  22.680  1.00  0.00     0.199 A 
ATOM     17  C   UNL A   1      29.524  29.355  22.498  1.00  0.00     0.024 A 
ATOM     18  O   UNL A   1      27.516  28.530  23.141  1.00  0.00    -0.464 OA
ATOM     19  C   UNL A   1      28.852  28.285  23.082  1.00  0.00     0.137 A 
ATOM     20  C   UNL A   1      30.916  29.244  22.273  1.00  0.00     0.020 A 
ATOM     21  C   UNL A   1      29.479  27.171  23.610  1.00  0.00     0.095 A 
ATOM     22  C   UNL A   1      31.577  28.114  22.758  1.00  0.00    -0.001 A 
ATOM     23  C   UNL A   1      30.866  27.234  23.555  1.00  0.00     0.138 A 
ATOM     24  C   UNL A   1      33.045  27.808  22.588  1.00  0.00     0.034 C 
ATOM     25  O   UNL A   1      31.629  26.487  24.481  1.00  0.00    -0.426 OA
ATOM     26  C   UNL A   1      33.809  28.717  23.602  1.00  0.00     0.014 C 
ATOM     27  C   UNL A   1      33.007  26.235  24.303  1.00  0.00     0.314 C 
ATOM     28  O   UNL A   1      33.811  25.916  25.151  1.00  0.00    -0.251 OA
ENDBRANCH  12  13
ENDBRANCH  11  12
ENDBRANCH   8  11
ENDBRANCH   6   7
BRANCH   6  29
ATOM     29  C   UNL A   1      32.224  21.515  24.950  1.00  0.00     0.072 C 
BRANCH  29  30
ATOM     30  C   UNL A   1      32.282  20.379  23.957  1.00  0.00    -0.020 A 
ATOM     31  C   UNL A   1      32.017  20.323  22.602  1.00  0.00     0.087 A 
ATOM     32  C   UNL A   1      32.580  19.028  24.349  1.00  0.00     0.003 A 
ATOM     33  N   UNL A   1      32.221  19.036  22.157  1.00  0.00    -0.361 N 
ATOM     34  C   UNL A   1      32.623  18.240  23.202  1.00  0.00     0.046 A 
ATOM     35  C   UNL A   1      32.875  18.430  25.589  1.00  0.00     0.010 A 
ATOM     36  H   UNL A   1      32.097  18.732  21.229  1.00  0.00     0.166 HD
ATOM     37  C   UNL A   1      33.057  16.909  23.221  1.00  0.00     0.026 A 
ATOM     38  C   UNL A   1      33.331  17.114  25.626  1.00  0.00     0.001 A 
ATOM     39  C   UNL A   1      33.455  16.377  24.451  1.00  0.00     0.002 A 
ENDBRANCH  29  30
ENDBRANCH   6  29
ENDBRANCH   3   6
ENDBRANCH   1   2
BRANCH   1  40
ATOM     40  C   UNL A   1      36.388  20.063  25.095  1.00  0.00     0.023 C 
BRANCH  40  41
ATOM     41  C   UNL A   1      37.813  19.697  24.685  1.00  0.00     0.023 C 
BRANCH  41  42
ATOM     42  C   UNL A   1      38.878  19.837  25.784  1.00  0.00     0.116 C 
BRANCH  42  43
ATOM     43  N   UNL A   1      40.161  19.232  25.477  1.00  0.00    -0.352 N 
ATOM     44  C   UNL A   1      41.437  19.384  25.936  1.00  0.00     0.251 C 
ATOM     45  H   UNL A   1      40.094  18.552  24.770  1.00  0.00     0.163 HD
ATOM     46  O   UNL A   1      42.276  18.551  25.587  1.00  0.00    -0.269 OA
BRANCH  44  47
ATOM     47  C   UNL A   1      41.883  20.560  26.717  1.00  0.00     0.039 A 
ATOM     48  C   UNL A   1      41.637  20.727  28.074  1.00  0.00     0.014 A 
ATOM     49  C   UNL A   1      42.471  21.614  25.996  1.00  0.00     0.014 A 
ATOM     50  C   UNL A   1      41.742  21.975  28.649  1.00  0.00     0.010 A 
ATOM     51  C   UNL A   1      42.661  22.853  26.590  1.00  0.00     0.010 A 
ATOM     52  C   UNL A   1      42.219  23.045  27.893  1.00  0.00    -0.014 A 
BRANCH  52  53
ATOM     53  C   UNL A   1      42.338  24.311  28.592  1.00  0.00     0.031 A 
ATOM     54  C   UNL A   1      41.274  25.292  28.248  1.00  0.00     0.074 A 
ATOM     55  C   UNL A   1      43.300  24.582  29.492  1.00  0.00     0.049 A 
ATOM     56  N   UNL A   1      41.412  26.447  27.684  1.00  0.00    -0.248 NA
ATOM     57  C   UNL A   1      39.876  24.861  28.414  1.00  0.00     0.031 C 
ATOM     58  C   UNL A   1      44.260  23.665  30.105  1.00  0.00     0.029 A 
ATOM     59  N   UNL A   1      43.543  25.758  30.130  1.00  0.00    -0.354 N 
ATOM     60  C   UNL A   1      40.126  26.966  27.561  1.00  0.00     0.074 A 
ATOM     61  C   UNL A   1      39.219  25.901  27.902  1.00  0.00     0.031 C 
ATOM     62  C   UNL A   1      44.798  24.255  31.198  1.00  0.00     0.029 A 
ATOM     63  C   UNL A   1      44.338  25.632  31.257  1.00  0.00     0.049 A 
ATOM     64  H   UNL A   1      43.185  26.621  29.817  1.00  0.00     0.167 HD
ATOM     65  C   UNL A   1      39.902  28.294  27.372  1.00  0.00     0.031 A 
ATOM     66  C   UNL A   1      44.533  26.581  32.203  1.00  0.00     0.031 A 
ATOM     67  C   UNL A   1      41.067  28.971  26.869  1.00  0.00     0.049 A 
ATOM     68  C   UNL A   1      44.200  27.893  31.604  1.00  0.00     0.074 A 
ATOM     69  C   UNL A   1      41.806  28.897  25.706  1.00  0.00     0.029 A 
ATOM     70  N   UNL A   1      41.856  29.636  27.775  1.00  0.00    -0.354 N 
ATOM     71  N   UNL A   1      44.900  28.451  30.661  1.00  0.00    -0.248 NA
ATOM     72  C   UNL A   1      42.846  28.399  31.761  1.00  0.00     0.031 C 
ATOM     73  C   UNL A   1      43.157  29.091  26.114  1.00  0.00     0.029 A 
ATOM     74  C   UNL A   1      43.163  29.334  27.489  1.00  0.00     0.049 A 
ATOM     75  H   UNL A   1      41.541  30.225  28.499  1.00  0.00     0.167 HD
ATOM     76  C   UNL A   1      43.962  29.040  29.828  1.00  0.00     0.074 A 
ATOM     77  C   UNL A   1      42.730  29.077  30.616  1.00  0.00     0.031 C 
ATOM     78  C   UNL A   1      44.199  29.183  28.491  1.00  0.00     0.031 A 
BRANCH  65  79
ATOM     79  C   UNL A   1      38.742  29.023  28.001  1.00  0.00    -0.014 A 
ATOM     80  C   UNL A   1      37.669  29.551  27.257  1.00  0.00     0.009 A 
ATOM     81  C   UNL A   1      38.565  28.952  29.394  1.00  0.00     0.009 A 
ATOM     82  C   UNL A   1      36.479  29.969  27.859  1.00  0.00     0.001 A 
ATOM     83  C   UNL A   1      37.359  29.332  29.996  1.00  0.00     0.001 A 
ATOM     84  C   UNL A   1      36.314  29.835  29.227  1.00  0.00     0.000 A 
ENDBRANCH  65  79
BRANCH  66  85
ATOM     85  C   UNL A   1      44.588  26.394  33.668  1.00  0.00    -0.014 A 
ATOM     86  C   UNL A   1      43.664  25.547  34.307  1.00  0.00     0.009 A 
ATOM     87  C   UNL A   1      45.326  27.282  34.466  1.00  0.00     0.009 A 
ATOM     88  C   UNL A   1      43.444  25.624  35.685  1.00  0.00     0.001 A 
ATOM     89  C   UNL A   1      45.103  27.362  35.846  1.00  0.00     0.001 A 
ATOM     90  C   UNL A   1      44.149  26.547  36.451  1.00  0.00     0.000 A 
ENDBRANCH  66  85
BRANCH  78  91
ATOM     91  C   UNL A   1      45.597  28.898  27.980  1.00  0.00    -0.014 A 
ATOM     92  C   UNL A   1      45.947  27.570  27.697  1.00  0.00     0.009 A 
ATOM     93  C   UNL A   1      46.609  29.874  27.918  1.00  0.00     0.009 A 
ATOM     94  C   UNL A   1      47.260  27.225  27.364  1.00  0.00     0.001 A 
ATOM     95  C   UNL A   1      47.918  29.535  27.555  1.00  0.00     0.001 A 
ATOM     96  C   UNL A   1      48.243  28.207  27.286  1.00  0.00     0.000 A 
ENDBRANCH  78  91
ENDBRANCH  52  53
ENDBRANCH  44  47
ENDBRANCH  42  43
ENDBRANCH  41  42
ENDBRANCH  40  41
ENDBRANCH   1  40
TORSDOF 17
ENDMDL
