MODEL 1
REMARK VINA RESULT:     -11.7      0.000      0.000
REMARK SMILES CC(C)C[C@@H](NC(=O)Cn1nc(O)ccc1=O)C(=O)NCCCCNC(=O)c1ccc(-c2c3nc(c(-c4ccccc4)c4ccc([nH]4)c(-c4ccccc4)c4nc(c(-c5ccccc5)c5ccc2[nH]5)C=C4)C=C3)cc1
REMARK SMILES IDX 21 1 20 2 18 3 19 4 5 6 4 7 2 8 1 9 3 10 6 11 7 12 8 14 9 15
REMARK SMILES IDX 10 16 11 17 16 18 12 19 15 20 17 21 14 22 13 23 22 25 23 26
REMARK SMILES IDX 24 27 25 28 26 29 27 31 28 32 29 33 75 34 30 35 74 36 31 37
REMARK SMILES IDX 32 38 33 39 68 40 34 41 73 42 67 43 69 44 35 45 72 46 66 47
REMARK SMILES IDX 65 48 36 50 58 51 43 52 57 53 44 54 47 55 56 56 70 57 45 58
REMARK SMILES IDX 46 59 55 61 71 62 48 63 37 64 38 65 42 66 39 67 41 68 40 69
REMARK SMILES IDX 59 70 60 71 64 72 61 73 63 74 62 75 49 76 50 77 54 78 51 79
REMARK SMILES IDX 53 80 52 81
REMARK H PARENT 20 5 6 13 13 24 25 30 69 49 47 60
REMARK Flexibility Score: inf
ROOT
ATOM      1  C   UNL A   1      34.207  25.319  25.541  1.00  0.00     0.116 C 
ENDROOT
BRANCH   1   2
ATOM      2  N   UNL A   1      34.143  23.455  26.500  1.00  0.00    -0.354 N 
ATOM      3  C   UNL A   1      34.397  22.047  26.537  1.00  0.00     0.242 C 
ATOM      4  O   UNL A   1      34.194  21.592  27.682  1.00  0.00    -0.273 OA
ATOM      5  H   UNL A   1      33.727  23.647  27.372  1.00  0.00     0.163 HD
BRANCH   3   6
ATOM      6  C   UNL A   1      34.973  20.999  25.434  1.00  0.00     0.171 C 
BRANCH   6   7
ATOM      7  C   UNL A   1      36.483  20.911  25.172  1.00  0.00     0.038 C 
BRANCH   7   8
ATOM      8  C   UNL A   1      37.352  22.042  24.583  1.00  0.00    -0.015 C 
ATOM      9  C   UNL A   1      36.699  22.927  23.541  1.00  0.00     0.007 C 
ATOM     10  C   UNL A   1      37.843  22.893  25.776  1.00  0.00     0.007 C 
ENDBRANCH   7   8
ENDBRANCH   6   7
BRANCH   6  11
ATOM     11  N   UNL A   1      34.409  19.656  25.464  1.00  0.00    -0.343 N 
ATOM     12  C   UNL A   1      33.116  19.321  25.201  1.00  0.00     0.242 C 
ATOM     13  H   UNL A   1      35.022  18.922  25.698  1.00  0.00     0.164 HD
ATOM     14  O   UNL A   1      32.639  18.361  25.815  1.00  0.00    -0.273 OA
BRANCH  12  15
ATOM     15  C   UNL A   1      32.352  19.957  24.050  1.00  0.00     0.248 C 
BRANCH  15  16
ATOM     16  N   UNL A   1      31.923  21.336  24.170  1.00  0.00    -0.217 N 
ATOM     17  N   UNL A   1      31.103  21.736  25.771  1.00  0.00    -0.131 NA
ATOM     18  C   UNL A   1      32.168  22.684  22.945  1.00  0.00     0.267 A 
ATOM     19  C   UNL A   1      30.569  23.084  26.022  1.00  0.00     0.229 A 
ATOM     20  C   UNL A   1      31.208  24.346  23.390  1.00  0.00     0.079 A 
ATOM     21  O   UNL A   1      33.058  22.710  22.099  1.00  0.00    -0.268 OA
ATOM     22  C   UNL A   1      30.590  24.543  24.780  1.00  0.00     0.075 A 
BRANCH  19  23
ATOM     23  O   UNL A   1      30.232  23.545  27.241  1.00  0.00    -0.492 OA
ATOM     24  H   UNL A   1      29.344  23.779  27.425  1.00  0.00     0.295 HD
ENDBRANCH  19  23
ENDBRANCH  15  16
ENDBRANCH  12  15
ENDBRANCH   6  11
ENDBRANCH   3   6
ENDBRANCH   1   2
BRANCH   1  25
ATOM     25  C   UNL A   1      33.120  26.669  25.644  1.00  0.00     0.023 C 
BRANCH  25  26
ATOM     26  C   UNL A   1      33.542  27.676  26.733  1.00  0.00     0.023 C 
BRANCH  26  27
ATOM     27  C   UNL A   1      34.150  28.957  26.174  1.00  0.00     0.116 C 
BRANCH  27  28
ATOM     28  N   UNL A   1      33.867  30.129  26.968  1.00  0.00    -0.352 N 
ATOM     29  C   UNL A   1      34.594  30.775  27.929  1.00  0.00     0.251 C 
ATOM     30  H   UNL A   1      32.991  30.539  26.784  1.00  0.00     0.163 HD
ATOM     31  O   UNL A   1      34.100  31.739  28.509  1.00  0.00    -0.269 OA
BRANCH  29  32
ATOM     32  C   UNL A   1      35.930  30.294  28.337  1.00  0.00     0.039 A 
ATOM     33  C   UNL A   1      36.163  29.632  29.545  1.00  0.00     0.014 A 
ATOM     34  C   UNL A   1      36.975  30.460  27.423  1.00  0.00     0.014 A 
ATOM     35  C   UNL A   1      37.458  29.228  29.878  1.00  0.00     0.010 A 
ATOM     36  C   UNL A   1      38.252  29.987  27.724  1.00  0.00     0.010 A 
ATOM     37  C   UNL A   1      38.514  29.387  28.964  1.00  0.00    -0.014 A 
BRANCH  37  38
ATOM     38  C   UNL A   1      39.879  28.883  29.267  1.00  0.00     0.031 A 
ATOM     39  C   UNL A   1      40.877  29.757  29.976  1.00  0.00     0.074 A 
ATOM     40  C   UNL A   1      40.236  27.649  28.862  1.00  0.00     0.049 A 
ATOM     41  N   UNL A   1      42.138  29.522  30.238  1.00  0.00    -0.248 NA
ATOM     42  C   UNL A   1      40.404  31.070  30.444  1.00  0.00     0.031 C 
ATOM     43  C   UNL A   1      39.361  26.702  28.170  1.00  0.00     0.029 A 
ATOM     44  N   UNL A   1      41.430  26.977  28.973  1.00  0.00    -0.354 N 
ATOM     45  C   UNL A   1      42.616  30.665  30.867  1.00  0.00     0.074 A 
ATOM     46  C   UNL A   1      41.516  31.602  30.933  1.00  0.00     0.031 C 
ATOM     47  C   UNL A   1      40.030  25.559  27.957  1.00  0.00     0.029 A 
ATOM     48  C   UNL A   1      41.404  25.718  28.424  1.00  0.00     0.049 A 
ATOM     49  H   UNL A   1      42.227  27.362  29.404  1.00  0.00     0.167 HD
ATOM     50  C   UNL A   1      43.857  30.906  31.347  1.00  0.00     0.031 A 
ATOM     51  C   UNL A   1      42.377  24.796  28.284  1.00  0.00     0.031 A 
ATOM     52  C   UNL A   1      44.945  29.964  31.288  1.00  0.00     0.049 A 
ATOM     53  C   UNL A   1      43.757  25.106  28.786  1.00  0.00     0.074 A 
ATOM     54  C   UNL A   1      46.227  30.106  31.791  1.00  0.00     0.029 A 
ATOM     55  N   UNL A   1      44.884  28.716  30.690  1.00  0.00    -0.354 N 
ATOM     56  N   UNL A   1      44.186  26.181  29.401  1.00  0.00    -0.248 NA
ATOM     57  C   UNL A   1      44.789  24.080  28.575  1.00  0.00     0.031 C 
ATOM     58  C   UNL A   1      46.961  28.974  31.437  1.00  0.00     0.029 A 
ATOM     59  C   UNL A   1      46.116  28.091  30.783  1.00  0.00     0.049 A 
ATOM     60  H   UNL A   1      44.085  28.331  30.262  1.00  0.00     0.167 HD
ATOM     61  C   UNL A   1      45.530  25.958  29.666  1.00  0.00     0.074 A 
ATOM     62  C   UNL A   1      45.843  24.636  29.161  1.00  0.00     0.031 C 
ATOM     63  C   UNL A   1      46.421  26.777  30.273  1.00  0.00     0.031 A 
BRANCH  50  64
ATOM     64  C   UNL A   1      44.133  32.248  31.972  1.00  0.00    -0.014 A 
ATOM     65  C   UNL A   1      44.616  33.299  31.175  1.00  0.00     0.009 A 
ATOM     66  C   UNL A   1      44.017  32.447  33.356  1.00  0.00     0.009 A 
ATOM     67  C   UNL A   1      44.994  34.513  31.750  1.00  0.00     0.001 A 
ATOM     68  C   UNL A   1      44.366  33.673  33.926  1.00  0.00     0.001 A 
ATOM     69  C   UNL A   1      44.864  34.701  33.125  1.00  0.00     0.000 A 
ENDBRANCH  50  64
BRANCH  51  70
ATOM     70  C   UNL A   1      42.053  23.492  27.646  1.00  0.00    -0.014 A 
ATOM     71  C   UNL A   1      42.357  23.258  26.295  1.00  0.00     0.009 A 
ATOM     72  C   UNL A   1      41.364  22.506  28.365  1.00  0.00     0.009 A 
ATOM     73  C   UNL A   1      41.943  22.082  25.666  1.00  0.00     0.001 A 
ATOM     74  C   UNL A   1      40.979  21.315  27.743  1.00  0.00     0.001 A 
ATOM     75  C   UNL A   1      41.256  21.110  26.392  1.00  0.00     0.000 A 
ENDBRANCH  51  70
BRANCH  63  76
ATOM     76  C   UNL A   1      47.830  26.282  30.450  1.00  0.00    -0.014 A 
ATOM     77  C   UNL A   1      48.717  26.304  29.361  1.00  0.00     0.009 A 
ATOM     78  C   UNL A   1      48.244  25.687  31.651  1.00  0.00     0.009 A 
ATOM     79  C   UNL A   1      49.979  25.719  29.462  1.00  0.00     0.001 A 
ATOM     80  C   UNL A   1      49.520  25.130  31.760  1.00  0.00     0.001 A 
ATOM     81  C   UNL A   1      50.381  25.135  30.662  1.00  0.00     0.000 A 
ENDBRANCH  63  76
ENDBRANCH  37  38
ENDBRANCH  29  32
ENDBRANCH  27  28
ENDBRANCH  26  27
ENDBRANCH  25  26
ENDBRANCH   1  25
TORSDOF 17
ENDMDL
MODEL 2
REMARK VINA RESULT:     -11.5      1.814      7.248
REMARK SMILES CC(C)C[C@@H](NC(=O)Cn1nc(O)ccc1=O)C(=O)NCCCCNC(=O)c1ccc(-c2c3nc(c(-c4ccccc4)c4ccc([nH]4)c(-c4ccccc4)c4nc(c(-c5ccccc5)c5ccc2[nH]5)C=C4)C=C3)cc1
REMARK SMILES IDX 21 1 20 2 18 3 19 4 5 6 4 7 2 8 1 9 3 10 6 11 7 12 8 14 9 15
REMARK SMILES IDX 10 16 11 17 16 18 12 19 15 20 17 21 14 22 13 23 22 25 23 26
REMARK SMILES IDX 24 27 25 28 26 29 27 31 28 32 29 33 75 34 30 35 74 36 31 37
REMARK SMILES IDX 32 38 33 39 68 40 34 41 73 42 67 43 69 44 35 45 72 46 66 47
REMARK SMILES IDX 65 48 36 50 58 51 43 52 57 53 44 54 47 55 56 56 70 57 45 58
REMARK SMILES IDX 46 59 55 61 71 62 48 63 37 64 38 65 42 66 39 67 41 68 40 69
REMARK SMILES IDX 59 70 60 71 64 72 61 73 63 74 62 75 49 76 50 77 54 78 51 79
REMARK SMILES IDX 53 80 52 81
REMARK H PARENT 20 5 6 13 13 24 25 30 69 49 47 60
REMARK Flexibility Score: inf
ROOT
ATOM      1  C   UNL A   1      36.460  22.096  25.640  1.00  0.00     0.116 C 
ENDROOT
BRANCH   1   2
ATOM      2  N   UNL A   1      34.914  22.285  24.236  1.00  0.00    -0.354 N 
ATOM      3  C   UNL A   1      33.575  22.037  23.794  1.00  0.00     0.242 C 
ATOM      4  O   UNL A   1      33.315  22.711  22.776  1.00  0.00    -0.273 OA
ATOM      5  H   UNL A   1      35.312  22.817  23.509  1.00  0.00     0.163 HD
BRANCH   3   6
ATOM      6  C   UNL A   1      32.355  21.153  24.409  1.00  0.00     0.171 C 
BRANCH   6   7
ATOM      7  C   UNL A   1      32.376  19.623  24.283  1.00  0.00     0.038 C 
BRANCH   7   8
ATOM      8  C   UNL A   1      33.163  18.665  25.200  1.00  0.00    -0.015 C 
ATOM      9  C   UNL A   1      32.528  17.318  25.482  1.00  0.00     0.007 C 
ATOM     10  C   UNL A   1      34.555  18.475  24.556  1.00  0.00     0.007 C 
ENDBRANCH   7   8
ENDBRANCH   6   7
BRANCH   6  11
ATOM     11  N   UNL A   1      31.899  21.521  25.742  1.00  0.00    -0.343 N 
ATOM     12  C   UNL A   1      31.896  22.776  26.272  1.00  0.00     0.242 C 
ATOM     13  H   UNL A   1      31.563  20.794  26.314  1.00  0.00     0.164 HD
ATOM     14  O   UNL A   1      32.081  22.882  27.489  1.00  0.00    -0.273 OA
BRANCH  12  15
ATOM     15  C   UNL A   1      31.469  23.982  25.449  1.00  0.00     0.248 C 
BRANCH  15  16
ATOM     16  N   UNL A   1      32.056  25.273  25.742  1.00  0.00    -0.217 N 
ATOM     17  N   UNL A   1      31.083  26.295  26.928  1.00  0.00    -0.131 NA
ATOM     18  C   UNL A   1      33.650  25.936  25.110  1.00  0.00     0.267 A 
ATOM     19  C   UNL A   1      31.526  27.652  27.286  1.00  0.00     0.229 A 
ATOM     20  C   UNL A   1      33.953  27.832  25.551  1.00  0.00     0.079 A 
ATOM     21  O   UNL A   1      34.592  25.249  24.727  1.00  0.00    -0.268 OA
ATOM     22  C   UNL A   1      33.067  28.547  26.580  1.00  0.00     0.075 A 
BRANCH  19  23
ATOM     23  O   UNL A   1      31.060  28.341  28.345  1.00  0.00    -0.492 OA
ATOM     24  H   UNL A   1      30.302  28.038  28.804  1.00  0.00     0.295 HD
ENDBRANCH  19  23
ENDBRANCH  15  16
ENDBRANCH  12  15
ENDBRANCH   6  11
ENDBRANCH   3   6
ENDBRANCH   1   2
BRANCH   1  25
ATOM     25  C   UNL A   1      38.154  21.793  25.406  1.00  0.00     0.023 C 
BRANCH  25  26
ATOM     26  C   UNL A   1      38.434  20.332  24.999  1.00  0.00     0.023 C 
BRANCH  26  27
ATOM     27  C   UNL A   1      39.088  19.508  26.102  1.00  0.00     0.116 C 
BRANCH  27  28
ATOM     28  N   UNL A   1      40.393  18.998  25.751  1.00  0.00    -0.352 N 
ATOM     29  C   UNL A   1      41.645  19.527  25.891  1.00  0.00     0.251 C 
ATOM     30  H   UNL A   1      40.378  18.106  25.334  1.00  0.00     0.163 HD
ATOM     31  O   UNL A   1      42.611  18.907  25.453  1.00  0.00    -0.269 OA
BRANCH  29  32
ATOM     32  C   UNL A   1      41.855  20.861  26.490  1.00  0.00     0.039 A 
ATOM     33  C   UNL A   1      41.761  21.101  27.863  1.00  0.00     0.014 A 
ATOM     34  C   UNL A   1      42.231  21.897  25.628  1.00  0.00     0.014 A 
ATOM     35  C   UNL A   1      41.945  22.395  28.358  1.00  0.00     0.010 A 
ATOM     36  C   UNL A   1      42.489  23.170  26.133  1.00  0.00     0.010 A 
ATOM     37  C   UNL A   1      42.327  23.440  27.499  1.00  0.00    -0.014 A 
BRANCH  37  38
ATOM     38  C   UNL A   1      42.613  24.802  28.023  1.00  0.00     0.031 A 
ATOM     39  C   UNL A   1      44.003  25.178  28.455  1.00  0.00     0.074 A 
ATOM     40  C   UNL A   1      41.606  25.688  28.154  1.00  0.00     0.049 A 
ATOM     41  N   UNL A   1      44.418  26.282  29.023  1.00  0.00    -0.248 NA
ATOM     42  C   UNL A   1      45.067  24.185  28.230  1.00  0.00     0.031 C 
ATOM     43  C   UNL A   1      40.215  25.447  27.767  1.00  0.00     0.029 A 
ATOM     44  N   UNL A   1      41.597  26.970  28.647  1.00  0.00    -0.354 N 
ATOM     45  C   UNL A   1      45.777  26.104  29.255  1.00  0.00     0.074 A 
ATOM     46  C   UNL A   1      46.116  24.780  28.783  1.00  0.00     0.031 C 
ATOM     47  C   UNL A   1      39.497  26.556  27.997  1.00  0.00     0.029 A 
ATOM     48  C   UNL A   1      40.356  27.560  28.619  1.00  0.00     0.049 A 
ATOM     49  H   UNL A   1      42.402  27.422  28.988  1.00  0.00     0.167 HD
ATOM     50  C   UNL A   1      46.659  26.969  29.807  1.00  0.00     0.031 A 
ATOM     51  C   UNL A   1      39.940  28.761  29.064  1.00  0.00     0.031 A 
ATOM     52  C   UNL A   1      46.317  28.291  30.265  1.00  0.00     0.049 A 
ATOM     53  C   UNL A   1      40.929  29.685  29.713  1.00  0.00     0.074 A 
ATOM     54  C   UNL A   1      47.156  29.255  30.797  1.00  0.00     0.029 A 
ATOM     55  N   UNL A   1      45.041  28.831  30.251  1.00  0.00    -0.354 N 
ATOM     56  N   UNL A   1      42.215  29.511  29.901  1.00  0.00    -0.248 NA
ATOM     57  C   UNL A   1      40.415  30.968  30.213  1.00  0.00     0.031 C 
ATOM     58  C   UNL A   1      46.378  30.351  31.169  1.00  0.00     0.029 A 
ATOM     59  C   UNL A   1      45.066  30.104  30.797  1.00  0.00     0.049 A 
ATOM     60  H   UNL A   1      44.238  28.379  29.907  1.00  0.00     0.167 HD
ATOM     61  C   UNL A   1      42.667  30.666  30.525  1.00  0.00     0.074 A 
ATOM     62  C   UNL A   1      41.522  31.542  30.668  1.00  0.00     0.031 C 
ATOM     63  C   UNL A   1      43.921  30.968  30.940  1.00  0.00     0.031 A 
BRANCH  50  64
ATOM     64  C   UNL A   1      48.087  26.524  29.971  1.00  0.00    -0.014 A 
ATOM     65  C   UNL A   1      49.002  26.726  28.924  1.00  0.00     0.009 A 
ATOM     66  C   UNL A   1      48.506  25.815  31.107  1.00  0.00     0.009 A 
ATOM     67  C   UNL A   1      50.298  26.214  29.003  1.00  0.00     0.001 A 
ATOM     68  C   UNL A   1      49.813  25.331  31.198  1.00  0.00     0.001 A 
ATOM     69  C   UNL A   1      50.704  25.521  30.141  1.00  0.00     0.000 A 
ENDBRANCH  50  64
BRANCH  51  70
ATOM     70  C   UNL A   1      38.514  29.144  28.889  1.00  0.00    -0.014 A 
ATOM     71  C   UNL A   1      38.064  29.708  27.684  1.00  0.00     0.009 A 
ATOM     72  C   UNL A   1      37.614  29.025  29.958  1.00  0.00     0.009 A 
ATOM     73  C   UNL A   1      36.755  30.180  27.564  1.00  0.00     0.001 A 
ATOM     74  C   UNL A   1      36.295  29.468  29.825  1.00  0.00     0.001 A 
ATOM     75  C   UNL A   1      35.871  30.058  28.635  1.00  0.00     0.000 A 
ENDBRANCH  51  70
BRANCH  63  76
ATOM     76  C   UNL A   1      44.149  32.309  31.583  1.00  0.00    -0.014 A 
ATOM     77  C   UNL A   1      43.953  32.459  32.966  1.00  0.00     0.009 A 
ATOM     78  C   UNL A   1      44.438  33.443  30.810  1.00  0.00     0.009 A 
ATOM     79  C   UNL A   1      44.017  33.720  33.559  1.00  0.00     0.001 A 
ATOM     80  C   UNL A   1      44.533  34.700  31.411  1.00  0.00     0.001 A 
ATOM     81  C   UNL A   1      44.310  34.839  32.781  1.00  0.00     0.000 A 
ENDBRANCH  63  76
ENDBRANCH  37  38
ENDBRANCH  29  32
ENDBRANCH  27  28
ENDBRANCH  26  27
ENDBRANCH  25  26
ENDBRANCH   1  25
TORSDOF 17
ENDMDL
MODEL 3
REMARK VINA RESULT:     -11.3      1.825      7.278
REMARK SMILES CC(C)C[C@@H](NC(=O)Cn1nc(O)ccc1=O)C(=O)NCCCCNC(=O)c1ccc(-c2c3nc(c(-c4ccccc4)c4ccc([nH]4)c(-c4ccccc4)c4nc(c(-c5ccccc5)c5ccc2[nH]5)C=C4)C=C3)cc1
REMARK SMILES IDX 21 1 20 2 18 3 19 4 5 6 4 7 2 8 1 9 3 10 6 11 7 12 8 14 9 15
REMARK SMILES IDX 10 16 11 17 16 18 12 19 15 20 17 21 14 22 13 23 22 25 23 26
REMARK SMILES IDX 24 27 25 28 26 29 27 31 28 32 29 33 75 34 30 35 74 36 31 37
REMARK SMILES IDX 32 38 33 39 68 40 34 41 73 42 67 43 69 44 35 45 72 46 66 47
REMARK SMILES IDX 65 48 36 50 58 51 43 52 57 53 44 54 47 55 56 56 70 57 45 58
REMARK SMILES IDX 46 59 55 61 71 62 48 63 37 64 38 65 42 66 39 67 41 68 40 69
REMARK SMILES IDX 59 70 60 71 64 72 61 73 63 74 62 75 49 76 50 77 54 78 51 79
REMARK SMILES IDX 53 80 52 81
REMARK H PARENT 20 5 6 13 13 24 25 30 69 49 47 60
REMARK Flexibility Score: inf
ROOT
ATOM      1  C   UNL A   1      37.484  23.216  26.059  1.00  0.00     0.116 C 
ENDROOT
BRANCH   1   2
ATOM      2  N   UNL A   1      35.605  22.864  26.919  1.00  0.00    -0.354 N 
ATOM      3  C   UNL A   1      34.192  23.082  26.994  1.00  0.00     0.242 C 
ATOM      4  O   UNL A   1      33.661  22.271  27.782  1.00  0.00    -0.273 OA
ATOM      5  H   UNL A   1      35.787  22.218  27.640  1.00  0.00     0.163 HD
BRANCH   3   6
ATOM      6  C   UNL A   1      33.184  24.082  26.199  1.00  0.00     0.171 C 
BRANCH   6   7
ATOM      7  C   UNL A   1      33.752  25.190  25.302  1.00  0.00     0.038 C 
BRANCH   7   8
ATOM      8  C   UNL A   1      33.238  26.644  25.250  1.00  0.00    -0.015 C 
ATOM      9  C   UNL A   1      33.711  27.571  26.351  1.00  0.00     0.007 C 
ATOM     10  C   UNL A   1      33.637  27.208  23.867  1.00  0.00     0.007 C 
ENDBRANCH   7   8
ENDBRANCH   6   7
BRANCH   6  11
ATOM     11  N   UNL A   1      32.047  23.458  25.535  1.00  0.00    -0.343 N 
ATOM     12  C   UNL A   1      31.994  23.066  24.232  1.00  0.00     0.242 C 
ATOM     13  H   UNL A   1      31.242  23.306  26.080  1.00  0.00     0.164 HD
ATOM     14  O   UNL A   1      30.902  23.138  23.659  1.00  0.00    -0.273 OA
BRANCH  12  15
ATOM     15  C   UNL A   1      33.170  22.367  23.566  1.00  0.00     0.248 C 
BRANCH  15  16
ATOM     16  N   UNL A   1      33.294  20.930  23.692  1.00  0.00    -0.217 N 
ATOM     17  N   UNL A   1      32.200  19.974  22.557  1.00  0.00    -0.131 NA
ATOM     18  C   UNL A   1      34.441  20.008  24.792  1.00  0.00     0.267 A 
ATOM     19  C   UNL A   1      32.176  18.504  22.602  1.00  0.00     0.229 A 
ATOM     20  C   UNL A   1      34.108  18.066  24.840  1.00  0.00     0.079 A 
ATOM     21  O   UNL A   1      35.502  20.447  25.226  1.00  0.00    -0.268 OA
ATOM     22  C   UNL A   1      33.181  17.406  23.811  1.00  0.00     0.075 A 
BRANCH  19  23
ATOM     23  O   UNL A   1      31.651  17.730  21.634  1.00  0.00    -0.492 OA
ATOM     24  H   UNL A   1      31.380  16.854  21.830  1.00  0.00     0.295 HD
ENDBRANCH  19  23
ENDBRANCH  15  16
ENDBRANCH  12  15
ENDBRANCH   6  11
ENDBRANCH   3   6
ENDBRANCH   1   2
BRANCH   1  25
ATOM     25  C   UNL A   1      38.938  22.268  26.118  1.00  0.00     0.023 C 
BRANCH  25  26
ATOM     26  C   UNL A   1      38.819  20.966  25.299  1.00  0.00     0.023 C 
BRANCH  26  27
ATOM     27  C   UNL A   1      39.180  19.715  26.092  1.00  0.00     0.116 C 
BRANCH  27  28
ATOM     28  N   UNL A   1      40.479  19.176  25.766  1.00  0.00    -0.352 N 
ATOM     29  C   UNL A   1      41.740  19.673  25.934  1.00  0.00     0.251 C 
ATOM     30  H   UNL A   1      40.451  18.285  25.346  1.00  0.00     0.163 HD
ATOM     31  O   UNL A   1      42.700  19.032  25.515  1.00  0.00    -0.269 OA
BRANCH  29  32
ATOM     32  C   UNL A   1      41.969  21.001  26.542  1.00  0.00     0.039 A 
ATOM     33  C   UNL A   1      41.889  21.231  27.917  1.00  0.00     0.014 A 
ATOM     34  C   UNL A   1      42.349  22.039  25.685  1.00  0.00     0.014 A 
ATOM     35  C   UNL A   1      42.091  22.519  28.420  1.00  0.00     0.010 A 
ATOM     36  C   UNL A   1      42.625  23.306  26.197  1.00  0.00     0.010 A 
ATOM     37  C   UNL A   1      42.477  23.566  27.567  1.00  0.00    -0.014 A 
BRANCH  37  38
ATOM     38  C   UNL A   1      42.782  24.921  28.099  1.00  0.00     0.031 A 
ATOM     39  C   UNL A   1      44.181  25.281  28.518  1.00  0.00     0.074 A 
ATOM     40  C   UNL A   1      41.785  25.815  28.249  1.00  0.00     0.049 A 
ATOM     41  N   UNL A   1      44.613  26.376  29.090  1.00  0.00    -0.248 NA
ATOM     42  C   UNL A   1      45.232  24.280  28.272  1.00  0.00     0.031 C 
ATOM     43  C   UNL A   1      40.388  25.591  27.877  1.00  0.00     0.029 A 
ATOM     44  N   UNL A   1      41.794  27.093  28.753  1.00  0.00    -0.354 N 
ATOM     45  C   UNL A   1      45.972  26.183  29.304  1.00  0.00     0.074 A 
ATOM     46  C   UNL A   1      46.293  24.860  28.817  1.00  0.00     0.031 C 
ATOM     47  C   UNL A   1      39.683  26.705  28.124  1.00  0.00     0.029 A 
ATOM     48  C   UNL A   1      40.558  27.694  28.744  1.00  0.00     0.049 A 
ATOM     49  H   UNL A   1      42.607  27.535  29.088  1.00  0.00     0.167 HD
ATOM     50  C   UNL A   1      46.869  27.035  29.853  1.00  0.00     0.031 A 
ATOM     51  C   UNL A   1      40.159  28.896  29.205  1.00  0.00     0.031 A 
ATOM     52  C   UNL A   1      46.545  28.356  30.326  1.00  0.00     0.049 A 
ATOM     53  C   UNL A   1      41.164  29.805  29.849  1.00  0.00     0.074 A 
ATOM     54  C   UNL A   1      47.399  29.308  30.856  1.00  0.00     0.029 A 
ATOM     55  N   UNL A   1      45.274  28.909  30.332  1.00  0.00    -0.354 N 
ATOM     56  N   UNL A   1      42.450  29.618  30.021  1.00  0.00    -0.248 NA
ATOM     57  C   UNL A   1      40.668  31.088  30.367  1.00  0.00     0.031 C 
ATOM     58  C   UNL A   1      46.636  30.408  31.247  1.00  0.00     0.029 A 
ATOM     59  C   UNL A   1      45.317  30.176  30.888  1.00  0.00     0.049 A 
ATOM     60  H   UNL A   1      44.463  28.467  29.993  1.00  0.00     0.167 HD
ATOM     61  C   UNL A   1      42.921  30.762  30.649  1.00  0.00     0.074 A 
ATOM     62  C   UNL A   1      41.786  31.648  30.813  1.00  0.00     0.031 C 
ATOM     63  C   UNL A   1      44.182  31.049  31.053  1.00  0.00     0.031 A 
BRANCH  50  64
ATOM     64  C   UNL A   1      48.295  26.575  29.996  1.00  0.00    -0.014 A 
ATOM     65  C   UNL A   1      49.203  26.791  28.947  1.00  0.00     0.009 A 
ATOM     66  C   UNL A   1      48.716  25.840  31.115  1.00  0.00     0.009 A 
ATOM     67  C   UNL A   1      50.495  26.268  29.004  1.00  0.00     0.001 A 
ATOM     68  C   UNL A   1      50.020  25.344  31.185  1.00  0.00     0.001 A 
ATOM     69  C   UNL A   1      50.904  25.548  30.125  1.00  0.00     0.000 A 
ENDBRANCH  50  64
BRANCH  51  70
ATOM     70  C   UNL A   1      38.734  29.294  29.050  1.00  0.00    -0.014 A 
ATOM     71  C   UNL A   1      37.828  29.147  30.113  1.00  0.00     0.009 A 
ATOM     72  C   UNL A   1      38.257  29.745  27.811  1.00  0.00     0.009 A 
ATOM     73  C   UNL A   1      36.468  29.405  29.929  1.00  0.00     0.001 A 
ATOM     74  C   UNL A   1      36.900  30.035  27.638  1.00  0.00     0.001 A 
ATOM     75  C   UNL A   1      36.006  29.851  28.692  1.00  0.00     0.000 A 
ENDBRANCH  51  70
BRANCH  63  76
ATOM     76  C   UNL A   1      44.430  32.382  31.704  1.00  0.00    -0.014 A 
ATOM     77  C   UNL A   1      44.815  33.480  30.915  1.00  0.00     0.009 A 
ATOM     78  C   UNL A   1      44.402  32.525  33.099  1.00  0.00     0.009 A 
ATOM     79  C   UNL A   1      45.190  34.684  31.511  1.00  0.00     0.001 A 
ATOM     80  C   UNL A   1      44.747  33.741  33.691  1.00  0.00     0.001 A 
ATOM     81  C   UNL A   1      45.152  34.815  32.898  1.00  0.00     0.000 A 
ENDBRANCH  63  76
ENDBRANCH  37  38
ENDBRANCH  29  32
ENDBRANCH  27  28
ENDBRANCH  26  27
ENDBRANCH  25  26
ENDBRANCH   1  25
TORSDOF 17
ENDMDL
