MODEL 1
REMARK VINA RESULT:     -13.0      0.000      0.000
REMARK SMILES Cc1cccc(CC(=O)N2CCC3(CCC(=O)N([C@H](C)C(=O)NCCCCNC(=O)c4ccc(-c5c6nc(c(-c7ccccc7)c7ccc([nH]7)c(-c7ccccc7)c7nc(c(-c8ccccc8)c8ccc5[nH]8)C=C7)C=C6)cc4)C3)CC2)c1
REMARK SMILES IDX 25 1 24 2 23 3 21 4 22 5 19 7 20 8 18 9 8 10 9 11 10 12
REMARK SMILES IDX 11 13 81 14 12 15 80 16 13 17 14 18 79 19 15 20 16 21 17 22
REMARK SMILES IDX 7 23 6 24 1 25 2 26 3 27 82 28 4 29 5 30 26 31 27 32 28 33
REMARK SMILES IDX 29 34 30 36 31 37 32 38 78 39 33 40 77 41 34 42 35 43 36 44
REMARK SMILES IDX 71 45 37 46 76 47 70 48 72 49 38 50 75 51 69 52 68 53 39 55
REMARK SMILES IDX 61 56 46 57 60 58 47 59 50 60 59 61 73 62 48 63 49 64 58 66
REMARK SMILES IDX 74 67 51 68 40 69 41 70 45 71 42 72 44 73 43 74 62 75 63 76
REMARK SMILES IDX 67 77 64 78 66 79 65 80 52 81 53 82 57 83 54 84 56 85 55 86
REMARK H PARENT 23 6 28 35 72 54 50 65
REMARK Flexibility Score: inf
ROOT
ATOM      1  C   UNL A   1      34.870  29.343  27.276  1.00  0.00     0.023 C 
ENDROOT
BRANCH   1   2
ATOM      2  C   UNL A   1      33.996  28.860  26.123  1.00  0.00     0.116 C 
BRANCH   2   3
ATOM      3  N   UNL A   1      32.869  29.732  25.830  1.00  0.00    -0.354 N 
ATOM      4  C   UNL A   1      31.990  29.700  24.783  1.00  0.00     0.242 C 
ATOM      5  O   UNL A   1      30.952  30.366  24.887  1.00  0.00    -0.273 OA
ATOM      6  H   UNL A   1      32.717  30.454  26.483  1.00  0.00     0.163 HD
BRANCH   4   7
ATOM      7  C   UNL A   1      32.280  28.900  23.486  1.00  0.00     0.171 C 
ATOM      8  C   UNL A   1      33.779  28.699  23.243  1.00  0.00     0.042 C 
BRANCH   7   9
ATOM      9  N   UNL A   1      31.506  27.672  23.221  1.00  0.00    -0.330 N 
ATOM     10  C   UNL A   1      32.669  22.337  26.870  1.00  0.00     0.226 C 
ATOM     11  O   UNL A   1      32.625  22.479  28.098  1.00  0.00    -0.275 OA
ATOM     12  N   UNL A   1      31.922  23.161  26.039  1.00  0.00    -0.342 N 
ATOM     13  C   UNL A   1      31.407  24.426  26.557  1.00  0.00     0.120 C 
ATOM     14  C   UNL A   1      31.485  22.861  24.684  1.00  0.00     0.120 C 
ATOM     15  C   UNL A   1      31.808  25.579  25.623  1.00  0.00     0.030 C 
ATOM     16  C   UNL A   1      32.004  23.925  23.731  1.00  0.00     0.030 C 
ATOM     17  C   UNL A   1      31.472  25.325  24.124  1.00  0.00    -0.008 C 
ATOM     18  C   UNL A   1      29.948  25.362  23.845  1.00  0.00     0.019 C 
ATOM     19  C   UNL A   1      32.176  26.379  23.239  1.00  0.00     0.127 C 
ATOM     20  C   UNL A   1      29.371  26.759  23.873  1.00  0.00     0.101 C 
ATOM     21  C   UNL A   1      30.145  27.695  22.985  1.00  0.00     0.223 C 
ATOM     22  O   UNL A   1      29.573  28.491  22.250  1.00  0.00    -0.275 OA
BRANCH  10  23
ATOM     23  C   UNL A   1      33.734  21.406  26.287  1.00  0.00     0.135 C 
BRANCH  23  24
ATOM     24  C   UNL A   1      34.912  22.008  25.567  1.00  0.00    -0.038 A 
ATOM     25  C   UNL A   1      37.956  24.135  26.453  1.00  0.00     0.044 C 
ATOM     26  C   UNL A   1      36.945  23.357  25.663  1.00  0.00    -0.051 A 
ATOM     27  C   UNL A   1      36.987  23.363  24.265  1.00  0.00     0.003 A 
ATOM     28  C   UNL A   1      35.920  22.655  26.307  1.00  0.00     0.007 A 
ATOM     29  C   UNL A   1      36.022  22.677  23.524  1.00  0.00     0.001 A 
ATOM     30  C   UNL A   1      34.988  22.000  24.170  1.00  0.00     0.004 A 
ENDBRANCH  23  24
ENDBRANCH  10  23
ENDBRANCH   7   9
ENDBRANCH   4   7
ENDBRANCH   2   3
ENDBRANCH   1   2
BRANCH   1  31
ATOM     31  C   UNL A   1      34.285  30.493  28.094  1.00  0.00     0.023 C 
BRANCH  31  32
ATOM     32  C   UNL A   1      34.678  31.887  27.622  1.00  0.00     0.116 C 
BRANCH  32  33
ATOM     33  N   UNL A   1      33.914  32.979  28.204  1.00  0.00    -0.352 N 
ATOM     34  C   UNL A   1      34.136  33.704  29.366  1.00  0.00     0.251 C 
ATOM     35  H   UNL A   1      33.116  33.245  27.693  1.00  0.00     0.163 HD
ATOM     36  O   UNL A   1      33.297  34.513  29.729  1.00  0.00    -0.269 OA
BRANCH  34  37
ATOM     37  C   UNL A   1      35.440  33.619  30.086  1.00  0.00     0.039 A 
ATOM     38  C   UNL A   1      36.560  34.198  29.471  1.00  0.00     0.014 A 
ATOM     39  C   UNL A   1      35.620  32.820  31.209  1.00  0.00     0.014 A 
ATOM     40  C   UNL A   1      37.838  33.752  29.801  1.00  0.00     0.010 A 
ATOM     41  C   UNL A   1      36.865  32.285  31.456  1.00  0.00     0.010 A 
ATOM     42  C   UNL A   1      37.962  32.699  30.700  1.00  0.00    -0.014 A 
BRANCH  42  43
ATOM     43  C   UNL A   1      39.154  31.875  30.827  1.00  0.00     0.031 A 
ATOM     44  C   UNL A   1      39.255  30.588  30.121  1.00  0.00     0.074 A 
ATOM     45  C   UNL A   1      40.227  32.391  31.466  1.00  0.00     0.049 A 
ATOM     46  N   UNL A   1      40.099  29.661  30.418  1.00  0.00    -0.248 NA
ATOM     47  C   UNL A   1      38.356  30.221  29.032  1.00  0.00     0.031 C 
ATOM     48  C   UNL A   1      41.610  31.921  31.427  1.00  0.00     0.029 A 
ATOM     49  N   UNL A   1      40.220  33.361  32.476  1.00  0.00    -0.354 N 
ATOM     50  C   UNL A   1      40.080  28.747  29.390  1.00  0.00     0.074 A 
ATOM     51  C   UNL A   1      38.910  29.081  28.614  1.00  0.00     0.031 C 
ATOM     52  C   UNL A   1      42.244  32.364  32.526  1.00  0.00     0.029 A 
ATOM     53  C   UNL A   1      41.237  32.979  33.375  1.00  0.00     0.049 A 
ATOM     54  H   UNL A   1      39.629  34.146  32.544  1.00  0.00     0.167 HD
ATOM     55  C   UNL A   1      41.144  27.911  29.227  1.00  0.00     0.031 A 
ATOM     56  C   UNL A   1      40.939  32.566  34.642  1.00  0.00     0.031 A 
ATOM     57  C   UNL A   1      42.107  28.042  30.322  1.00  0.00     0.049 A 
ATOM     58  C   UNL A   1      41.412  31.164  34.963  1.00  0.00     0.074 A 
ATOM     59  C   UNL A   1      43.339  28.668  30.437  1.00  0.00     0.029 A 
ATOM     60  N   UNL A   1      41.702  27.737  31.616  1.00  0.00    -0.354 N 
ATOM     61  N   UNL A   1      41.719  30.267  34.066  1.00  0.00    -0.248 NA
ATOM     62  C   UNL A   1      41.542  30.653  36.324  1.00  0.00     0.031 C 
ATOM     63  C   UNL A   1      43.648  28.781  31.819  1.00  0.00     0.029 A 
ATOM     64  C   UNL A   1      42.619  28.202  32.539  1.00  0.00     0.049 A 
ATOM     65  H   UNL A   1      40.875  27.255  31.844  1.00  0.00     0.167 HD
ATOM     66  C   UNL A   1      42.067  29.092  34.684  1.00  0.00     0.074 A 
ATOM     67  C   UNL A   1      41.955  29.393  36.099  1.00  0.00     0.031 C 
ATOM     68  C   UNL A   1      42.396  27.977  33.965  1.00  0.00     0.031 A 
BRANCH  55  69
ATOM     69  C   UNL A   1      41.448  27.184  27.935  1.00  0.00    -0.014 A 
ATOM     70  C   UNL A   1      41.788  27.925  26.787  1.00  0.00     0.009 A 
ATOM     71  C   UNL A   1      41.356  25.794  27.755  1.00  0.00     0.009 A 
ATOM     72  C   UNL A   1      41.931  27.326  25.526  1.00  0.00     0.001 A 
ATOM     73  C   UNL A   1      41.467  25.189  26.494  1.00  0.00     0.001 A 
ATOM     74  C   UNL A   1      41.743  25.959  25.376  1.00  0.00     0.000 A 
ENDBRANCH  55  69
BRANCH  56  75
ATOM     75  C   UNL A   1      39.704  33.187  35.205  1.00  0.00    -0.014 A 
ATOM     76  C   UNL A   1      38.474  32.518  35.029  1.00  0.00     0.009 A 
ATOM     77  C   UNL A   1      39.781  34.197  36.173  1.00  0.00     0.009 A 
ATOM     78  C   UNL A   1      37.394  32.764  35.881  1.00  0.00     0.001 A 
ATOM     79  C   UNL A   1      38.687  34.456  37.012  1.00  0.00     0.001 A 
ATOM     80  C   UNL A   1      37.512  33.715  36.890  1.00  0.00     0.000 A 
ENDBRANCH  56  75
BRANCH  68  81
ATOM     81  C   UNL A   1      42.588  26.566  34.488  1.00  0.00    -0.014 A 
ATOM     82  C   UNL A   1      41.653  25.846  35.239  1.00  0.00     0.009 A 
ATOM     83  C   UNL A   1      43.757  25.858  34.114  1.00  0.00     0.009 A 
ATOM     84  C   UNL A   1      41.879  24.512  35.616  1.00  0.00     0.001 A 
ATOM     85  C   UNL A   1      43.969  24.517  34.445  1.00  0.00     0.001 A 
ATOM     86  C   UNL A   1      43.030  23.844  35.209  1.00  0.00     0.000 A 
ENDBRANCH  68  81
ENDBRANCH  42  43
ENDBRANCH  34  37
ENDBRANCH  32  33
ENDBRANCH  31  32
ENDBRANCH   1  31
TORSDOF 14
ENDMDL
MODEL 2
REMARK VINA RESULT:     -12.9      3.676      9.178
REMARK SMILES Cc1cccc(CC(=O)N2CCC3(CCC(=O)N([C@H](C)C(=O)NCCCCNC(=O)c4ccc(-c5c6nc(c(-c7ccccc7)c7ccc([nH]7)c(-c7ccccc7)c7nc(c(-c8ccccc8)c8ccc5[nH]8)C=C7)C=C6)cc4)C3)CC2)c1
REMARK SMILES IDX 25 1 24 2 23 3 21 4 22 5 19 7 20 8 18 9 8 10 9 11 10 12
REMARK SMILES IDX 11 13 81 14 12 15 80 16 13 17 14 18 79 19 15 20 16 21 17 22
REMARK SMILES IDX 7 23 6 24 1 25 2 26 3 27 82 28 4 29 5 30 26 31 27 32 28 33
REMARK SMILES IDX 29 34 30 36 31 37 32 38 78 39 33 40 77 41 34 42 35 43 36 44
REMARK SMILES IDX 71 45 37 46 76 47 70 48 72 49 38 50 75 51 69 52 68 53 39 55
REMARK SMILES IDX 61 56 46 57 60 58 47 59 50 60 59 61 73 62 48 63 49 64 58 66
REMARK SMILES IDX 74 67 51 68 40 69 41 70 45 71 42 72 44 73 43 74 62 75 63 76
REMARK SMILES IDX 67 77 64 78 66 79 65 80 52 81 53 82 57 83 54 84 56 85 55 86
REMARK H PARENT 23 6 28 35 72 54 50 65
REMARK Flexibility Score: inf
ROOT
ATOM      1  C   UNL A   1      37.981  20.473  25.223  1.00  0.00     0.023 C 
ENDROOT
BRANCH   1   2
ATOM      2  C   UNL A   1      36.482  20.652  25.010  1.00  0.00     0.116 C 
BRANCH   2   3
ATOM      3  N   UNL A   1      36.143  21.496  23.875  1.00  0.00    -0.354 N 
ATOM      4  C   UNL A   1      35.504  22.706  23.847  1.00  0.00     0.242 C 
ATOM      5  O   UNL A   1      35.572  23.364  22.802  1.00  0.00    -0.273 OA
ATOM      6  H   UNL A   1      36.412  21.145  22.996  1.00  0.00     0.163 HD
BRANCH   4   7
ATOM      7  C   UNL A   1      34.685  23.234  25.054  1.00  0.00     0.171 C 
ATOM      8  C   UNL A   1      35.273  24.518  25.646  1.00  0.00     0.042 C 
BRANCH   7   9
ATOM      9  N   UNL A   1      33.215  23.297  24.941  1.00  0.00    -0.330 N 
ATOM     10  C   UNL A   1      30.434  28.830  22.756  1.00  0.00     0.226 C 
ATOM     11  O   UNL A   1      30.852  29.279  21.681  1.00  0.00    -0.275 OA
ATOM     12  N   UNL A   1      30.500  27.469  23.022  1.00  0.00    -0.342 N 
ATOM     13  C   UNL A   1      31.403  26.628  22.240  1.00  0.00     0.120 C 
ATOM     14  C   UNL A   1      29.672  26.728  23.960  1.00  0.00     0.120 C 
ATOM     15  C   UNL A   1      32.302  25.806  23.179  1.00  0.00     0.030 C 
ATOM     16  C   UNL A   1      30.554  26.030  24.982  1.00  0.00     0.030 C 
ATOM     17  C   UNL A   1      31.524  25.041  24.290  1.00  0.00    -0.008 C 
ATOM     18  C   UNL A   1      30.695  23.860  23.724  1.00  0.00     0.019 C 
ATOM     19  C   UNL A   1      32.512  24.504  25.351  1.00  0.00     0.127 C 
ATOM     20  C   UNL A   1      31.543  22.676  23.318  1.00  0.00     0.101 C 
ATOM     21  C   UNL A   1      32.469  22.255  24.426  1.00  0.00     0.223 C 
ATOM     22  O   UNL A   1      32.628  21.073  24.706  1.00  0.00    -0.275 OA
BRANCH  10  23
ATOM     23  C   UNL A   1      30.071  29.822  23.863  1.00  0.00     0.135 C 
BRANCH  23  24
ATOM     24  C   UNL A   1      31.086  30.122  24.932  1.00  0.00    -0.038 A 
ATOM     25  C   UNL A   1      34.108  28.394  26.500  1.00  0.00     0.044 C 
ATOM     26  C   UNL A   1      33.032  29.400  26.220  1.00  0.00    -0.051 A 
ATOM     27  C   UNL A   1      32.855  30.498  27.070  1.00  0.00     0.003 A 
ATOM     28  C   UNL A   1      32.160  29.234  25.138  1.00  0.00     0.007 A 
ATOM     29  C   UNL A   1      31.826  31.414  26.840  1.00  0.00     0.001 A 
ATOM     30  C   UNL A   1      30.945  31.230  25.775  1.00  0.00     0.004 A 
ENDBRANCH  23  24
ENDBRANCH  10  23
ENDBRANCH   7   9
ENDBRANCH   4   7
ENDBRANCH   2   3
ENDBRANCH   1   2
BRANCH   1  31
ATOM     31  C   UNL A   1      38.714  21.710  25.738  1.00  0.00     0.023 C 
BRANCH  31  32
ATOM     32  C   UNL A   1      39.887  21.426  26.668  1.00  0.00     0.116 C 
BRANCH  32  33
ATOM     33  N   UNL A   1      40.918  20.559  26.123  1.00  0.00    -0.352 N 
ATOM     34  C   UNL A   1      42.294  20.732  26.069  1.00  0.00     0.251 C 
ATOM     35  H   UNL A   1      40.588  19.718  25.731  1.00  0.00     0.163 HD
ATOM     36  O   UNL A   1      42.970  19.919  25.458  1.00  0.00    -0.269 OA
BRANCH  34  37
ATOM     37  C   UNL A   1      42.964  21.800  26.866  1.00  0.00     0.039 A 
ATOM     38  C   UNL A   1      42.715  21.833  28.246  1.00  0.00     0.014 A 
ATOM     39  C   UNL A   1      43.635  22.862  26.272  1.00  0.00     0.014 A 
ATOM     40  C   UNL A   1      42.875  23.025  28.950  1.00  0.00     0.010 A 
ATOM     41  C   UNL A   1      43.681  24.074  26.927  1.00  0.00     0.010 A 
ATOM     42  C   UNL A   1      43.232  24.169  28.244  1.00  0.00    -0.014 A 
BRANCH  42  43
ATOM     43  C   UNL A   1      43.043  25.522  28.743  1.00  0.00     0.031 A 
ATOM     44  C   UNL A   1      41.855  26.302  28.361  1.00  0.00     0.074 A 
ATOM     45  C   UNL A   1      43.888  25.982  29.692  1.00  0.00     0.049 A 
ATOM     46  N   UNL A   1      41.759  27.583  28.476  1.00  0.00    -0.248 NA
ATOM     47  C   UNL A   1      40.676  25.689  27.759  1.00  0.00     0.031 C 
ATOM     48  C   UNL A   1      43.710  27.133  30.574  1.00  0.00     0.029 A 
ATOM     49  N   UNL A   1      45.216  25.590  29.897  1.00  0.00    -0.354 N 
ATOM     50  C   UNL A   1      40.438  27.912  28.283  1.00  0.00     0.074 A 
ATOM     51  C   UNL A   1      39.832  26.722  27.734  1.00  0.00     0.031 C 
ATOM     52  C   UNL A   1      44.919  27.537  30.998  1.00  0.00     0.029 A 
ATOM     53  C   UNL A   1      45.906  26.766  30.262  1.00  0.00     0.049 A 
ATOM     54  H   UNL A   1      45.591  24.684  29.808  1.00  0.00     0.167 HD
ATOM     55  C   UNL A   1      39.976  29.105  28.755  1.00  0.00     0.031 A 
ATOM     56  C   UNL A   1      46.856  27.307  29.444  1.00  0.00     0.031 A 
ATOM     57  C   UNL A   1      41.062  29.932  29.284  1.00  0.00     0.049 A 
ATOM     58  C   UNL A   1      46.560  28.726  29.008  1.00  0.00     0.074 A 
ATOM     59  C   UNL A   1      41.489  30.234  30.568  1.00  0.00     0.029 A 
ATOM     60  N   UNL A   1      42.078  30.339  28.429  1.00  0.00    -0.354 N 
ATOM     61  N   UNL A   1      45.378  29.278  29.048  1.00  0.00    -0.248 NA
ATOM     62  C   UNL A   1      47.571  29.623  28.458  1.00  0.00     0.031 C 
ATOM     63  C   UNL A   1      42.796  30.783  30.479  1.00  0.00     0.029 A 
ATOM     64  C   UNL A   1      43.150  30.838  29.143  1.00  0.00     0.049 A 
ATOM     65  H   UNL A   1      42.039  30.282  27.447  1.00  0.00     0.167 HD
ATOM     66  C   UNL A   1      45.442  30.553  28.543  1.00  0.00     0.074 A 
ATOM     67  C   UNL A   1      46.843  30.725  28.203  1.00  0.00     0.031 C 
ATOM     68  C   UNL A   1      44.327  31.337  28.439  1.00  0.00     0.031 A 
BRANCH  55  69
ATOM     69  C   UNL A   1      38.512  29.400  28.995  1.00  0.00    -0.014 A 
ATOM     70  C   UNL A   1      37.767  30.064  28.001  1.00  0.00     0.009 A 
ATOM     71  C   UNL A   1      37.821  29.119  30.185  1.00  0.00     0.009 A 
ATOM     72  C   UNL A   1      36.452  30.502  28.221  1.00  0.00     0.001 A 
ATOM     73  C   UNL A   1      36.518  29.579  30.426  1.00  0.00     0.001 A 
ATOM     74  C   UNL A   1      35.836  30.282  29.445  1.00  0.00     0.000 A 
ENDBRANCH  55  69
BRANCH  56  75
ATOM     75  C   UNL A   1      47.577  26.303  28.609  1.00  0.00    -0.014 A 
ATOM     76  C   UNL A   1      47.295  26.250  27.226  1.00  0.00     0.009 A 
ATOM     77  C   UNL A   1      48.740  25.677  29.076  1.00  0.00     0.009 A 
ATOM     78  C   UNL A   1      48.212  25.699  26.327  1.00  0.00     0.001 A 
ATOM     79  C   UNL A   1      49.647  25.106  28.171  1.00  0.00     0.001 A 
ATOM     80  C   UNL A   1      49.401  25.152  26.799  1.00  0.00     0.000 A 
ENDBRANCH  56  75
BRANCH  68  81
ATOM     81  C   UNL A   1      44.198  32.663  27.712  1.00  0.00    -0.014 A 
ATOM     82  C   UNL A   1      44.287  32.841  26.328  1.00  0.00     0.009 A 
ATOM     83  C   UNL A   1      43.857  33.815  28.463  1.00  0.00     0.009 A 
ATOM     84  C   UNL A   1      44.075  34.094  25.731  1.00  0.00     0.001 A 
ATOM     85  C   UNL A   1      43.600  35.056  27.873  1.00  0.00     0.001 A 
ATOM     86  C   UNL A   1      43.719  35.197  26.501  1.00  0.00     0.000 A 
ENDBRANCH  68  81
ENDBRANCH  42  43
ENDBRANCH  34  37
ENDBRANCH  32  33
ENDBRANCH  31  32
ENDBRANCH   1  31
TORSDOF 14
ENDMDL
MODEL 3
REMARK VINA RESULT:     -12.8      3.877      9.627
REMARK SMILES Cc1cccc(CC(=O)N2CCC3(CCC(=O)N([C@H](C)C(=O)NCCCCNC(=O)c4ccc(-c5c6nc(c(-c7ccccc7)c7ccc([nH]7)c(-c7ccccc7)c7nc(c(-c8ccccc8)c8ccc5[nH]8)C=C7)C=C6)cc4)C3)CC2)c1
REMARK SMILES IDX 25 1 24 2 23 3 21 4 22 5 19 7 20 8 18 9 8 10 9 11 10 12
REMARK SMILES IDX 11 13 81 14 12 15 80 16 13 17 14 18 79 19 15 20 16 21 17 22
REMARK SMILES IDX 7 23 6 24 1 25 2 26 3 27 82 28 4 29 5 30 26 31 27 32 28 33
REMARK SMILES IDX 29 34 30 36 31 37 32 38 78 39 33 40 77 41 34 42 35 43 36 44
REMARK SMILES IDX 71 45 37 46 76 47 70 48 72 49 38 50 75 51 69 52 68 53 39 55
REMARK SMILES IDX 61 56 46 57 60 58 47 59 50 60 59 61 73 62 48 63 49 64 58 66
REMARK SMILES IDX 74 67 51 68 40 69 41 70 45 71 42 72 44 73 43 74 62 75 63 76
REMARK SMILES IDX 67 77 64 78 66 79 65 80 52 81 53 82 57 83 54 84 56 85 55 86
REMARK H PARENT 23 6 28 35 72 54 50 65
REMARK Flexibility Score: inf
ROOT
ATOM      1  C   UNL A   1      37.828  22.151  25.656  1.00  0.00     0.023 C 
ENDROOT
BRANCH   1   2
ATOM      2  C   UNL A   1      36.681  21.905  24.681  1.00  0.00     0.116 C 
BRANCH   2   3
ATOM      3  N   UNL A   1      35.987  20.644  24.892  1.00  0.00    -0.354 N 
ATOM      4  C   UNL A   1      34.689  20.306  24.620  1.00  0.00     0.242 C 
ATOM      5  O   UNL A   1      34.399  19.104  24.626  1.00  0.00    -0.273 OA
ATOM      6  H   UNL A   1      36.531  19.927  25.290  1.00  0.00     0.163 HD
BRANCH   4   7
ATOM      7  C   UNL A   1      33.598  21.375  24.352  1.00  0.00     0.171 C 
ATOM      8  C   UNL A   1      32.220  20.757  24.099  1.00  0.00     0.042 C 
BRANCH   7   9
ATOM      9  N   UNL A   1      33.524  22.552  25.240  1.00  0.00    -0.330 N 
ATOM     10  C   UNL A   1      29.458  27.463  23.664  1.00  0.00     0.226 C 
ATOM     11  O   UNL A   1      28.279  27.162  23.440  1.00  0.00    -0.275 OA
ATOM     12  N   UNL A   1      30.232  26.687  24.518  1.00  0.00    -0.342 N 
ATOM     13  C   UNL A   1      29.807  25.325  24.833  1.00  0.00     0.120 C 
ATOM     14  C   UNL A   1      31.415  27.116  25.247  1.00  0.00     0.120 C 
ATOM     15  C   UNL A   1      30.958  24.341  24.568  1.00  0.00     0.030 C 
ATOM     16  C   UNL A   1      32.594  26.233  24.876  1.00  0.00     0.030 C 
ATOM     17  C   UNL A   1      32.307  24.753  25.227  1.00  0.00    -0.008 C 
ATOM     18  C   UNL A   1      32.278  24.614  26.770  1.00  0.00     0.019 C 
ATOM     19  C   UNL A   1      33.456  23.886  24.661  1.00  0.00     0.127 C 
ATOM     20  C   UNL A   1      32.334  23.179  27.241  1.00  0.00     0.101 C 
ATOM     21  C   UNL A   1      33.484  22.437  26.616  1.00  0.00     0.223 C 
ATOM     22  O   UNL A   1      34.196  21.694  27.279  1.00  0.00    -0.275 OA
BRANCH  10  23
ATOM     23  C   UNL A   1      30.103  28.551  22.805  1.00  0.00     0.135 C 
BRANCH  23  24
ATOM     24  C   UNL A   1      29.453  29.907  22.739  1.00  0.00    -0.038 A 
ATOM     25  C   UNL A   1      27.931  32.165  20.063  1.00  0.00     0.044 C 
ATOM     26  C   UNL A   1      28.424  31.661  21.387  1.00  0.00    -0.051 A 
ATOM     27  C   UNL A   1      28.463  32.515  22.495  1.00  0.00     0.003 A 
ATOM     28  C   UNL A   1      28.896  30.351  21.524  1.00  0.00     0.007 A 
ATOM     29  C   UNL A   1      28.963  32.065  23.719  1.00  0.00     0.001 A 
ATOM     30  C   UNL A   1      29.455  30.766  23.844  1.00  0.00     0.004 A 
ENDBRANCH  23  24
ENDBRANCH  10  23
ENDBRANCH   7   9
ENDBRANCH   4   7
ENDBRANCH   2   3
ENDBRANCH   1   2
BRANCH   1  31
ATOM     31  C   UNL A   1      38.839  21.012  25.766  1.00  0.00     0.023 C 
BRANCH  31  32
ATOM     32  C   UNL A   1      40.248  21.434  26.161  1.00  0.00     0.116 C 
BRANCH  32  33
ATOM     33  N   UNL A   1      41.298  20.484  25.833  1.00  0.00    -0.352 N 
ATOM     34  C   UNL A   1      42.673  20.579  25.999  1.00  0.00     0.251 C 
ATOM     35  H   UNL A   1      40.985  19.643  25.429  1.00  0.00     0.163 HD
ATOM     36  O   UNL A   1      43.387  19.700  25.545  1.00  0.00    -0.269 OA
BRANCH  34  37
ATOM     37  C   UNL A   1      43.270  21.650  26.849  1.00  0.00     0.039 A 
ATOM     38  C   UNL A   1      42.893  21.694  28.200  1.00  0.00     0.014 A 
ATOM     39  C   UNL A   1      43.998  22.707  26.313  1.00  0.00     0.014 A 
ATOM     40  C   UNL A   1      42.993  22.890  28.907  1.00  0.00     0.010 A 
ATOM     41  C   UNL A   1      43.987  23.922  26.962  1.00  0.00     0.010 A 
ATOM     42  C   UNL A   1      43.418  24.027  28.231  1.00  0.00    -0.014 A 
BRANCH  42  43
ATOM     43  C   UNL A   1      43.188  25.385  28.701  1.00  0.00     0.031 A 
ATOM     44  C   UNL A   1      42.004  26.140  28.262  1.00  0.00     0.074 A 
ATOM     45  C   UNL A   1      43.988  25.872  29.675  1.00  0.00     0.049 A 
ATOM     46  N   UNL A   1      41.884  27.420  28.354  1.00  0.00    -0.248 NA
ATOM     47  C   UNL A   1      40.859  25.498  27.625  1.00  0.00     0.031 C 
ATOM     48  C   UNL A   1      43.759  27.033  30.532  1.00  0.00     0.029 A 
ATOM     49  N   UNL A   1      45.314  25.505  29.937  1.00  0.00    -0.354 N 
ATOM     50  C   UNL A   1      40.566  27.725  28.105  1.00  0.00     0.074 A 
ATOM     51  C   UNL A   1      40.000  26.517  27.552  1.00  0.00     0.031 C 
ATOM     52  C   UNL A   1      44.944  27.463  30.996  1.00  0.00     0.029 A 
ATOM     53  C   UNL A   1      45.970  26.697  30.310  1.00  0.00     0.049 A 
ATOM     54  H   UNL A   1      45.706  24.604  29.876  1.00  0.00     0.167 HD
ATOM     55  C   UNL A   1      40.067  28.917  28.540  1.00  0.00     0.031 A 
ATOM     56  C   UNL A   1      46.942  27.242  29.521  1.00  0.00     0.031 A 
ATOM     57  C   UNL A   1      41.118  29.769  29.099  1.00  0.00     0.049 A 
ATOM     58  C   UNL A   1      46.641  28.649  29.053  1.00  0.00     0.074 A 
ATOM     59  C   UNL A   1      41.490  30.097  30.393  1.00  0.00     0.029 A 
ATOM     60  N   UNL A   1      42.160  30.181  28.277  1.00  0.00    -0.354 N 
ATOM     61  N   UNL A   1      45.450  29.182  29.039  1.00  0.00    -0.248 NA
ATOM     62  C   UNL A   1      47.659  29.555  28.528  1.00  0.00     0.031 C 
ATOM     63  C   UNL A   1      42.792  30.666  30.346  1.00  0.00     0.029 A 
ATOM     64  C   UNL A   1      43.196  30.707  29.025  1.00  0.00     0.049 A 
ATOM     65  H   UNL A   1      42.161  30.108  27.295  1.00  0.00     0.167 HD
ATOM     66  C   UNL A   1      45.514  30.451  28.518  1.00  0.00     0.074 A 
ATOM     67  C   UNL A   1      46.924  30.641  28.229  1.00  0.00     0.031 C 
ATOM     68  C   UNL A   1      44.392  31.214  28.358  1.00  0.00     0.031 A 
BRANCH  55  69
ATOM     69  C   UNL A   1      38.590  29.192  28.719  1.00  0.00    -0.014 A 
ATOM     70  C   UNL A   1      37.848  29.719  27.645  1.00  0.00     0.009 A 
ATOM     71  C   UNL A   1      37.882  29.022  29.921  1.00  0.00     0.009 A 
ATOM     72  C   UNL A   1      36.517  30.137  27.790  1.00  0.00     0.001 A 
ATOM     73  C   UNL A   1      36.561  29.466  30.085  1.00  0.00     0.001 A 
ATOM     74  C   UNL A   1      35.882  30.036  29.020  1.00  0.00     0.000 A 
ENDBRANCH  55  69
BRANCH  56  75
ATOM     75  C   UNL A   1      47.711  26.237  28.730  1.00  0.00    -0.014 A 
ATOM     76  C   UNL A   1      47.348  26.022  27.383  1.00  0.00     0.009 A 
ATOM     77  C   UNL A   1      48.962  25.779  29.165  1.00  0.00     0.009 A 
ATOM     78  C   UNL A   1      48.259  25.479  26.472  1.00  0.00     0.001 A 
ATOM     79  C   UNL A   1      49.864  25.216  28.252  1.00  0.00     0.001 A 
ATOM     80  C   UNL A   1      49.528  25.102  26.903  1.00  0.00     0.000 A 
ENDBRANCH  56  75
BRANCH  68  81
ATOM     81  C   UNL A   1      44.270  32.527  27.607  1.00  0.00    -0.014 A 
ATOM     82  C   UNL A   1      44.333  32.676  26.218  1.00  0.00     0.009 A 
ATOM     83  C   UNL A   1      43.964  33.701  28.341  1.00  0.00     0.009 A 
ATOM     84  C   UNL A   1      44.130  33.920  25.599  1.00  0.00     0.001 A 
ATOM     85  C   UNL A   1      43.715  34.933  27.730  1.00  0.00     0.001 A 
ATOM     86  C   UNL A   1      43.808  35.045  26.353  1.00  0.00     0.000 A 
ENDBRANCH  68  81
ENDBRANCH  42  43
ENDBRANCH  34  37
ENDBRANCH  32  33
ENDBRANCH  31  32
ENDBRANCH   1  31
TORSDOF 14
ENDMDL
