MODEL 1
REMARK VINA RESULT:     -10.1      0.000      0.000
REMARK SMILES CSc1nc(C2CC2)nc(C)c1C(=O)NCCCCNC(=O)c1ccc(-c2c3nc(c(-c4ccccc4)c4ccc([nH]4)c(-c4ccccc4)c4nc(c(-c5ccccc5)c5ccc2[nH]5)C=C4)C=C3)cc1
REMARK SMILES IDX 18 1 17 2 16 3 15 4 13 5 14 6 12 8 3 9 4 10 5 11 10 12 9 13
REMARK SMILES IDX 11 14 2 15 1 16 6 17 7 18 8 19 19 20 20 21 21 22 22 24 23 25
REMARK SMILES IDX 24 26 70 27 25 28 69 29 26 30 27 31 28 32 63 33 29 34 68 35
REMARK SMILES IDX 62 36 64 37 30 38 67 39 61 40 60 41 31 43 53 44 38 45 52 46
REMARK SMILES IDX 39 47 42 48 51 49 65 50 40 51 41 52 50 54 66 55 43 56 32 57
REMARK SMILES IDX 33 58 37 59 34 60 36 61 35 62 54 63 55 64 59 65 56 66 58 67
REMARK SMILES IDX 57 68 44 69 45 70 49 71 46 72 48 73 47 74
REMARK H PARENT 15 7 20 23 64 42 42 53
REMARK Flexibility Score: inf
ROOT
ATOM      1  C   UNL A   1      37.680  20.652  24.708  1.00  0.00     0.023 C 
ENDROOT
BRANCH   1   2
ATOM      2  C   UNL A   1      36.579  19.643  25.028  1.00  0.00     0.023 C 
BRANCH   2   3
ATOM      3  C   UNL A   1      35.150  20.104  24.689  1.00  0.00     0.116 C 
BRANCH   3   4
ATOM      4  N   UNL A   1      34.479  20.480  25.913  1.00  0.00    -0.352 N 
ATOM      5  C   UNL A   1      34.317  21.690  26.540  1.00  0.00     0.255 C 
ATOM      6  O   UNL A   1      34.282  21.644  27.773  1.00  0.00    -0.269 OA
ATOM      7  H   UNL A   1      34.059  19.725  26.386  1.00  0.00     0.163 HD
BRANCH   5   8
ATOM      8  C   UNL A   1      34.102  23.011  25.891  1.00  0.00     0.093 A 
ATOM      9  C   UNL A   1      32.774  23.421  25.704  1.00  0.00     0.113 A 
ATOM     10  N   UNL A   1      32.402  24.683  25.366  1.00  0.00    -0.225 NA
ATOM     11  C   UNL A   1      33.362  25.595  25.204  1.00  0.00     0.133 A 
ATOM     12  C   UNL A   1      35.028  24.016  25.650  1.00  0.00     0.055 A 
ATOM     13  N   UNL A   1      34.656  25.279  25.307  1.00  0.00    -0.237 NA
ATOM     14  C   UNL A   1      36.510  23.949  25.787  1.00  0.00     0.068 C 
BRANCH   9  15
ATOM     15  S   UNL A   1      31.358  22.312  25.772  1.00  0.00    -0.109 SA
ATOM     16  C   UNL A   1      30.257  23.350  26.770  1.00  0.00     0.092 C 
ENDBRANCH   9  15
BRANCH  11  17
ATOM     17  C   UNL A   1      33.019  27.026  24.881  1.00  0.00     0.058 C 
ATOM     18  C   UNL A   1      33.921  27.895  24.041  1.00  0.00     0.012 C 
ATOM     19  C   UNL A   1      32.628  27.398  23.466  1.00  0.00     0.012 C 
ENDBRANCH  11  17
ENDBRANCH   5   8
ENDBRANCH   3   4
ENDBRANCH   2   3
ENDBRANCH   1   2
BRANCH   1  20
ATOM     20  C   UNL A   1      38.768  20.722  25.770  1.00  0.00     0.116 C 
BRANCH  20  21
ATOM     21  N   UNL A   1      39.743  19.643  25.681  1.00  0.00    -0.352 N 
ATOM     22  C   UNL A   1      41.076  19.673  26.025  1.00  0.00     0.251 C 
ATOM     23  H   UNL A   1      39.407  18.786  25.334  1.00  0.00     0.163 HD
ATOM     24  O   UNL A   1      41.799  18.712  25.837  1.00  0.00    -0.269 OA
BRANCH  22  25
ATOM     25  C   UNL A   1      41.620  20.930  26.575  1.00  0.00     0.039 A 
ATOM     26  C   UNL A   1      42.110  21.891  25.691  1.00  0.00     0.014 A 
ATOM     27  C   UNL A   1      41.543  21.187  27.945  1.00  0.00     0.014 A 
ATOM     28  C   UNL A   1      42.458  23.150  26.177  1.00  0.00     0.010 A 
ATOM     29  C   UNL A   1      41.808  22.467  28.414  1.00  0.00     0.010 A 
ATOM     30  C   UNL A   1      42.269  23.459  27.534  1.00  0.00    -0.014 A 
BRANCH  30  31
ATOM     31  C   UNL A   1      42.555  24.812  28.061  1.00  0.00     0.031 A 
ATOM     32  C   UNL A   1      43.949  25.163  28.498  1.00  0.00     0.074 A 
ATOM     33  C   UNL A   1      41.551  25.697  28.215  1.00  0.00     0.049 A 
ATOM     34  N   UNL A   1      44.389  26.267  29.046  1.00  0.00    -0.248 NA
ATOM     35  C   UNL A   1      44.979  24.125  28.323  1.00  0.00     0.031 C 
ATOM     36  C   UNL A   1      40.146  25.459  27.872  1.00  0.00     0.029 A 
ATOM     37  N   UNL A   1      41.560  26.978  28.704  1.00  0.00    -0.354 N 
ATOM     38  C   UNL A   1      45.736  26.047  29.300  1.00  0.00     0.074 A 
ATOM     39  C   UNL A   1      46.029  24.689  28.899  1.00  0.00     0.031 C 
ATOM     40  C   UNL A   1      39.437  26.569  28.134  1.00  0.00     0.029 A 
ATOM     41  C   UNL A   1      40.326  27.580  28.697  1.00  0.00     0.049 A 
ATOM     42  H   UNL A   1      42.374  27.424  29.032  1.00  0.00     0.167 HD
ATOM     43  C   UNL A   1      46.654  26.906  29.800  1.00  0.00     0.031 A 
ATOM     44  C   UNL A   1      39.952  28.808  29.101  1.00  0.00     0.031 A 
ATOM     45  C   UNL A   1      46.366  28.262  30.182  1.00  0.00     0.049 A 
ATOM     46  C   UNL A   1      40.990  29.743  29.657  1.00  0.00     0.074 A 
ATOM     47  C   UNL A   1      47.238  29.232  30.642  1.00  0.00     0.029 A 
ATOM     48  N   UNL A   1      45.105  28.836  30.148  1.00  0.00    -0.354 N 
ATOM     49  N   UNL A   1      42.276  29.545  29.824  1.00  0.00    -0.248 NA
ATOM     50  C   UNL A   1      40.526  31.075  30.070  1.00  0.00     0.031 C 
ATOM     51  C   UNL A   1      46.497  30.382  30.929  1.00  0.00     0.029 A 
ATOM     52  C   UNL A   1      45.172  30.143  30.600  1.00  0.00     0.049 A 
ATOM     53  H   UNL A   1      44.286  28.383  29.847  1.00  0.00     0.167 HD
ATOM     54  C   UNL A   1      42.778  30.734  30.338  1.00  0.00     0.074 A 
ATOM     55  C   UNL A   1      41.662  31.652  30.438  1.00  0.00     0.031 C 
ATOM     56  C   UNL A   1      44.049  31.040  30.693  1.00  0.00     0.031 A 
BRANCH  43  57
ATOM     57  C   UNL A   1      48.058  26.393  29.963  1.00  0.00    -0.014 A 
ATOM     58  C   UNL A   1      48.481  25.802  31.165  1.00  0.00     0.009 A 
ATOM     59  C   UNL A   1      48.964  26.487  28.895  1.00  0.00     0.009 A 
ATOM     60  C   UNL A   1      49.796  25.354  31.308  1.00  0.00     0.001 A 
ATOM     61  C   UNL A   1      50.268  26.009  29.032  1.00  0.00     0.001 A 
ATOM     62  C   UNL A   1      50.686  25.454  30.240  1.00  0.00     0.000 A 
ENDBRANCH  43  57
BRANCH  44  63
ATOM     63  C   UNL A   1      38.536  29.238  28.975  1.00  0.00    -0.014 A 
ATOM     64  C   UNL A   1      38.053  29.744  27.758  1.00  0.00     0.009 A 
ATOM     65  C   UNL A   1      37.662  29.153  30.069  1.00  0.00     0.009 A 
ATOM     66  C   UNL A   1      36.731  30.181  27.647  1.00  0.00     0.001 A 
ATOM     67  C   UNL A   1      36.333  29.565  29.948  1.00  0.00     0.001 A 
ATOM     68  C   UNL A   1      35.871  30.088  28.741  1.00  0.00     0.000 A 
ENDBRANCH  44  63
BRANCH  56  69
ATOM     69  C   UNL A   1      44.306  32.432  31.196  1.00  0.00    -0.014 A 
ATOM     70  C   UNL A   1      44.613  33.479  30.314  1.00  0.00     0.009 A 
ATOM     71  C   UNL A   1      44.197  32.705  32.568  1.00  0.00     0.009 A 
ATOM     72  C   UNL A   1      44.835  34.768  30.802  1.00  0.00     0.001 A 
ATOM     73  C   UNL A   1      44.392  33.999  33.049  1.00  0.00     0.001 A 
ATOM     74  C   UNL A   1      44.719  35.028  32.167  1.00  0.00     0.000 A 
ENDBRANCH  56  69
ENDBRANCH  30  31
ENDBRANCH  22  25
ENDBRANCH  20  21
ENDBRANCH   1  20
TORSDOF 13
ENDMDL
MODEL 2
REMARK VINA RESULT:     -10.1      1.178      1.717
REMARK SMILES CSc1nc(C2CC2)nc(C)c1C(=O)NCCCCNC(=O)c1ccc(-c2c3nc(c(-c4ccccc4)c4ccc([nH]4)c(-c4ccccc4)c4nc(c(-c5ccccc5)c5ccc2[nH]5)C=C4)C=C3)cc1
REMARK SMILES IDX 18 1 17 2 16 3 15 4 13 5 14 6 12 8 3 9 4 10 5 11 10 12 9 13
REMARK SMILES IDX 11 14 2 15 1 16 6 17 7 18 8 19 19 20 20 21 21 22 22 24 23 25
REMARK SMILES IDX 24 26 70 27 25 28 69 29 26 30 27 31 28 32 63 33 29 34 68 35
REMARK SMILES IDX 62 36 64 37 30 38 67 39 61 40 60 41 31 43 53 44 38 45 52 46
REMARK SMILES IDX 39 47 42 48 51 49 65 50 40 51 41 52 50 54 66 55 43 56 32 57
REMARK SMILES IDX 33 58 37 59 34 60 36 61 35 62 54 63 55 64 59 65 56 66 58 67
REMARK SMILES IDX 57 68 44 69 45 70 49 71 46 72 48 73 47 74
REMARK H PARENT 15 7 20 23 64 42 42 53
REMARK Flexibility Score: inf
ROOT
ATOM      1  C   UNL A   1      37.526  20.738  24.607  1.00  0.00     0.023 C 
ENDROOT
BRANCH   1   2
ATOM      2  C   UNL A   1      36.376  21.716  24.842  1.00  0.00     0.023 C 
BRANCH   2   3
ATOM      3  C   UNL A   1      36.392  22.971  23.951  1.00  0.00     0.116 C 
BRANCH   3   4
ATOM      4  N   UNL A   1      35.202  22.975  23.130  1.00  0.00    -0.352 N 
ATOM      5  C   UNL A   1      33.938  23.465  23.344  1.00  0.00     0.255 C 
ATOM      6  O   UNL A   1      33.026  22.821  22.817  1.00  0.00    -0.269 OA
ATOM      7  H   UNL A   1      35.320  22.543  22.253  1.00  0.00     0.163 HD
BRANCH   5   8
ATOM      8  C   UNL A   1      33.573  24.714  24.065  1.00  0.00     0.093 A 
ATOM      9  C   UNL A   1      33.475  24.640  25.461  1.00  0.00     0.113 A 
ATOM     10  N   UNL A   1      33.403  25.719  26.283  1.00  0.00    -0.225 NA
ATOM     11  C   UNL A   1      33.428  26.931  25.727  1.00  0.00     0.133 A 
ATOM     12  C   UNL A   1      33.540  26.014  23.578  1.00  0.00     0.055 A 
ATOM     13  N   UNL A   1      33.462  27.095  24.401  1.00  0.00    -0.237 NA
ATOM     14  C   UNL A   1      33.658  26.466  22.164  1.00  0.00     0.068 C 
BRANCH   9  15
ATOM     15  S   UNL A   1      33.319  23.100  26.379  1.00  0.00    -0.109 SA
ATOM     16  C   UNL A   1      31.603  23.294  26.931  1.00  0.00     0.092 C 
ENDBRANCH   9  15
BRANCH  11  17
ATOM     17  C   UNL A   1      33.405  28.172  26.580  1.00  0.00     0.058 C 
ATOM     18  C   UNL A   1      33.220  29.547  25.988  1.00  0.00     0.012 C 
ATOM     19  C   UNL A   1      32.103  28.921  26.769  1.00  0.00     0.012 C 
ENDBRANCH  11  17
ENDBRANCH   5   8
ENDBRANCH   3   4
ENDBRANCH   2   3
ENDBRANCH   1   2
BRANCH   1  20
ATOM     20  C   UNL A   1      38.631  20.836  25.649  1.00  0.00     0.116 C 
BRANCH  20  21
ATOM     21  N   UNL A   1      39.578  19.730  25.603  1.00  0.00    -0.352 N 
ATOM     22  C   UNL A   1      40.897  19.726  25.998  1.00  0.00     0.251 C 
ATOM     23  H   UNL A   1      39.232  18.880  25.248  1.00  0.00     0.163 HD
ATOM     24  O   UNL A   1      41.600  18.743  25.843  1.00  0.00    -0.269 OA
BRANCH  22  25
ATOM     25  C   UNL A   1      41.454  20.971  26.562  1.00  0.00     0.039 A 
ATOM     26  C   UNL A   1      42.011  21.908  25.693  1.00  0.00     0.014 A 
ATOM     27  C   UNL A   1      41.325  21.241  27.926  1.00  0.00     0.014 A 
ATOM     28  C   UNL A   1      42.375  23.161  26.186  1.00  0.00     0.010 A 
ATOM     29  C   UNL A   1      41.609  22.516  28.396  1.00  0.00     0.010 A 
ATOM     30  C   UNL A   1      42.137  23.486  27.531  1.00  0.00    -0.014 A 
BRANCH  30  31
ATOM     31  C   UNL A   1      42.440  24.836  28.060  1.00  0.00     0.031 A 
ATOM     32  C   UNL A   1      43.839  25.168  28.497  1.00  0.00     0.074 A 
ATOM     33  C   UNL A   1      41.448  25.732  28.215  1.00  0.00     0.049 A 
ATOM     34  N   UNL A   1      44.293  26.265  29.047  1.00  0.00    -0.248 NA
ATOM     35  C   UNL A   1      44.855  24.117  28.319  1.00  0.00     0.031 C 
ATOM     36  C   UNL A   1      40.040  25.513  27.873  1.00  0.00     0.029 A 
ATOM     37  N   UNL A   1      41.474  27.013  28.707  1.00  0.00    -0.354 N 
ATOM     38  C   UNL A   1      45.637  26.027  29.300  1.00  0.00     0.074 A 
ATOM     39  C   UNL A   1      45.913  24.667  28.896  1.00  0.00     0.031 C 
ATOM     40  C   UNL A   1      39.345  26.632  28.137  1.00  0.00     0.029 A 
ATOM     41  C   UNL A   1      40.247  27.631  28.701  1.00  0.00     0.049 A 
ATOM     42  H   UNL A   1      42.294  27.448  29.035  1.00  0.00     0.167 HD
ATOM     43  C   UNL A   1      46.567  26.873  29.801  1.00  0.00     0.031 A 
ATOM     44  C   UNL A   1      39.890  28.863  29.107  1.00  0.00     0.031 A 
ATOM     45  C   UNL A   1      46.296  28.232  30.185  1.00  0.00     0.049 A 
ATOM     46  C   UNL A   1      40.939  29.783  29.665  1.00  0.00     0.074 A 
ATOM     47  C   UNL A   1      47.181  29.190  30.646  1.00  0.00     0.029 A 
ATOM     48  N   UNL A   1      45.043  28.823  30.153  1.00  0.00    -0.354 N 
ATOM     49  N   UNL A   1      42.223  29.568  29.831  1.00  0.00    -0.248 NA
ATOM     50  C   UNL A   1      40.493  31.120  30.080  1.00  0.00     0.031 C 
ATOM     51  C   UNL A   1      46.454  30.350  30.936  1.00  0.00     0.029 A 
ATOM     52  C   UNL A   1      45.127  30.128  30.607  1.00  0.00     0.049 A 
ATOM     53  H   UNL A   1      44.217  28.381  29.851  1.00  0.00     0.167 HD
ATOM     54  C   UNL A   1      42.740  30.750  30.346  1.00  0.00     0.074 A 
ATOM     55  C   UNL A   1      41.636  31.682  30.449  1.00  0.00     0.031 C 
ATOM     56  C   UNL A   1      44.015  31.039  30.702  1.00  0.00     0.031 A 
BRANCH  43  57
ATOM     57  C   UNL A   1      47.964  26.342  29.962  1.00  0.00    -0.014 A 
ATOM     58  C   UNL A   1      48.889  26.399  28.907  1.00  0.00     0.009 A 
ATOM     59  C   UNL A   1      48.364  25.793  31.189  1.00  0.00     0.009 A 
ATOM     60  C   UNL A   1      50.175  25.878  29.065  1.00  0.00     0.001 A 
ATOM     61  C   UNL A   1      49.661  25.302  31.354  1.00  0.00     0.001 A 
ATOM     62  C   UNL A   1      50.560  25.333  30.290  1.00  0.00     0.000 A 
ENDBRANCH  43  57
BRANCH  44  63
ATOM     63  C   UNL A   1      38.479  29.311  28.983  1.00  0.00    -0.014 A 
ATOM     64  C   UNL A   1      37.612  29.241  30.084  1.00  0.00     0.009 A 
ATOM     65  C   UNL A   1      37.988  29.801  27.763  1.00  0.00     0.009 A 
ATOM     66  C   UNL A   1      36.276  29.629  29.960  1.00  0.00     0.001 A 
ATOM     67  C   UNL A   1      36.659  30.214  27.648  1.00  0.00     0.001 A 
ATOM     68  C   UNL A   1      35.801  30.119  28.743  1.00  0.00     0.000 A 
ENDBRANCH  44  63
BRANCH  56  69
ATOM     69  C   UNL A   1      44.289  32.427  31.206  1.00  0.00    -0.014 A 
ATOM     70  C   UNL A   1      44.607  33.472  30.326  1.00  0.00     0.009 A 
ATOM     71  C   UNL A   1      44.187  32.698  32.580  1.00  0.00     0.009 A 
ATOM     72  C   UNL A   1      44.846  34.757  30.816  1.00  0.00     0.001 A 
ATOM     73  C   UNL A   1      44.399  33.989  33.063  1.00  0.00     0.001 A 
ATOM     74  C   UNL A   1      44.737  35.016  32.182  1.00  0.00     0.000 A 
ENDBRANCH  56  69
ENDBRANCH  30  31
ENDBRANCH  22  25
ENDBRANCH  20  21
ENDBRANCH   1  20
TORSDOF 13
ENDMDL
MODEL 3
REMARK VINA RESULT:     -10.1      4.575      9.547
REMARK SMILES CSc1nc(C2CC2)nc(C)c1C(=O)NCCCCNC(=O)c1ccc(-c2c3nc(c(-c4ccccc4)c4ccc([nH]4)c(-c4ccccc4)c4nc(c(-c5ccccc5)c5ccc2[nH]5)C=C4)C=C3)cc1
REMARK SMILES IDX 18 1 17 2 16 3 15 4 13 5 14 6 12 8 3 9 4 10 5 11 10 12 9 13
REMARK SMILES IDX 11 14 2 15 1 16 6 17 7 18 8 19 19 20 20 21 21 22 22 24 23 25
REMARK SMILES IDX 24 26 70 27 25 28 69 29 26 30 27 31 28 32 63 33 29 34 68 35
REMARK SMILES IDX 62 36 64 37 30 38 67 39 61 40 60 41 31 43 53 44 38 45 52 46
REMARK SMILES IDX 39 47 42 48 51 49 65 50 40 51 41 52 50 54 66 55 43 56 32 57
REMARK SMILES IDX 33 58 37 59 34 60 36 61 35 62 54 63 55 64 59 65 56 66 58 67
REMARK SMILES IDX 57 68 44 69 45 70 49 71 46 72 48 73 47 74
REMARK H PARENT 15 7 20 23 64 42 42 53
REMARK Flexibility Score: inf
ROOT
ATOM      1  C   UNL A   1      31.512  32.039  26.841  1.00  0.00     0.023 C 
ENDROOT
BRANCH   1   2
ATOM      2  C   UNL A   1      31.806  30.542  26.757  1.00  0.00     0.023 C 
BRANCH   2   3
ATOM      3  C   UNL A   1      32.413  30.068  25.424  1.00  0.00     0.116 C 
BRANCH   3   4
ATOM      4  N   UNL A   1      31.339  29.747  24.511  1.00  0.00    -0.352 N 
ATOM      5  C   UNL A   1      31.272  28.904  23.430  1.00  0.00     0.255 C 
ATOM      6  O   UNL A   1      30.524  29.274  22.519  1.00  0.00    -0.269 OA
ATOM      7  H   UNL A   1      30.498  30.224  24.700  1.00  0.00     0.163 HD
BRANCH   5   8
ATOM      8  C   UNL A   1      31.932  27.579  23.286  1.00  0.00     0.093 A 
ATOM      9  C   UNL A   1      31.129  26.443  23.463  1.00  0.00     0.113 A 
ATOM     10  N   UNL A   1      31.501  25.181  23.126  1.00  0.00    -0.225 NA
ATOM     11  C   UNL A   1      32.709  25.009  22.589  1.00  0.00     0.133 A 
ATOM     12  C   UNL A   1      33.187  27.292  22.769  1.00  0.00     0.055 A 
ATOM     13  N   UNL A   1      33.562  26.027  22.436  1.00  0.00    -0.237 NA
ATOM     14  C   UNL A   1      34.276  28.246  22.419  1.00  0.00     0.068 C 
BRANCH   9  15
ATOM     15  S   UNL A   1      29.520  26.464  24.269  1.00  0.00    -0.109 SA
ATOM     16  C   UNL A   1      29.994  25.670  25.828  1.00  0.00     0.092 C 
ENDBRANCH   9  15
BRANCH  11  17
ATOM     17  C   UNL A   1      33.167  23.645  22.141  1.00  0.00     0.058 C 
ATOM     18  C   UNL A   1      34.358  22.958  22.761  1.00  0.00     0.012 C 
ATOM     19  C   UNL A   1      32.977  22.457  23.062  1.00  0.00     0.012 C 
ENDBRANCH  11  17
ENDBRANCH   5   8
ENDBRANCH   3   4
ENDBRANCH   2   3
ENDBRANCH   1   2
BRANCH   1  20
ATOM     20  C   UNL A   1      32.674  32.857  27.383  1.00  0.00     0.116 C 
BRANCH  20  21
ATOM     21  N   UNL A   1      32.321  34.233  27.705  1.00  0.00    -0.352 N 
ATOM     22  C   UNL A   1      32.951  35.088  28.583  1.00  0.00     0.251 C 
ATOM     23  H   UNL A   1      31.536  34.598  27.238  1.00  0.00     0.163 HD
ATOM     24  O   UNL A   1      32.508  36.200  28.810  1.00  0.00    -0.269 OA
BRANCH  22  25
ATOM     25  C   UNL A   1      34.150  34.594  29.288  1.00  0.00     0.039 A 
ATOM     26  C   UNL A   1      33.989  33.976  30.528  1.00  0.00     0.014 A 
ATOM     27  C   UNL A   1      35.401  34.655  28.671  1.00  0.00     0.014 A 
ATOM     28  C   UNL A   1      35.082  33.346  31.121  1.00  0.00     0.010 A 
ATOM     29  C   UNL A   1      36.465  33.954  29.222  1.00  0.00     0.010 A 
ATOM     30  C   UNL A   1      36.316  33.295  30.452  1.00  0.00    -0.014 A 
BRANCH  30  31
ATOM     31  C   UNL A   1      37.470  32.564  31.022  1.00  0.00     0.031 A 
ATOM     32  C   UNL A   1      38.086  33.032  32.310  1.00  0.00     0.074 A 
ATOM     33  C   UNL A   1      38.006  31.528  30.348  1.00  0.00     0.049 A 
ATOM     34  N   UNL A   1      39.138  32.572  32.937  1.00  0.00    -0.248 NA
ATOM     35  C   UNL A   1      37.454  34.191  32.964  1.00  0.00     0.031 C 
ATOM     36  C   UNL A   1      37.528  31.008  29.066  1.00  0.00     0.029 A 
ATOM     37  N   UNL A   1      39.079  30.729  30.652  1.00  0.00    -0.354 N 
ATOM     38  C   UNL A   1      39.305  33.396  34.042  1.00  0.00     0.074 A 
ATOM     39  C   UNL A   1      38.283  34.416  33.971  1.00  0.00     0.031 C 
ATOM     40  C   UNL A   1      38.285  29.957  28.708  1.00  0.00     0.029 A 
ATOM     41  C   UNL A   1      39.323  29.755  29.714  1.00  0.00     0.049 A 
ATOM     42  H   UNL A   1      39.624  30.842  31.464  1.00  0.00     0.167 HD
ATOM     43  C   UNL A   1      40.213  33.298  35.041  1.00  0.00     0.031 A 
ATOM     44  C   UNL A   1      40.278  28.808  29.669  1.00  0.00     0.031 A 
ATOM     45  C   UNL A   1      41.217  32.273  35.120  1.00  0.00     0.049 A 
ATOM     46  C   UNL A   1      41.278  28.723  30.788  1.00  0.00     0.074 A 
ATOM     47  C   UNL A   1      42.145  32.050  36.122  1.00  0.00     0.029 A 
ATOM     48  N   UNL A   1      41.424  31.299  34.156  1.00  0.00    -0.354 N 
ATOM     49  N   UNL A   1      41.378  29.466  31.865  1.00  0.00    -0.248 NA
ATOM     50  C   UNL A   1      42.289  27.661  30.692  1.00  0.00     0.031 C 
ATOM     51  C   UNL A   1      42.943  30.967  35.742  1.00  0.00     0.029 A 
ATOM     52  C   UNL A   1      42.479  30.485  34.529  1.00  0.00     0.049 A 
ATOM     53  H   UNL A   1      40.898  31.201  33.330  1.00  0.00     0.167 HD
ATOM     54  C   UNL A   1      42.447  28.946  32.584  1.00  0.00     0.074 A 
ATOM     55  C   UNL A   1      42.949  27.816  31.831  1.00  0.00     0.031 C 
ATOM     56  C   UNL A   1      42.965  29.365  33.764  1.00  0.00     0.031 A 
BRANCH  43  57
ATOM     57  C   UNL A   1      40.155  34.338  36.125  1.00  0.00    -0.014 A 
ATOM     58  C   UNL A   1      39.354  34.155  37.265  1.00  0.00     0.009 A 
ATOM     59  C   UNL A   1      40.923  35.507  36.014  1.00  0.00     0.009 A 
ATOM     60  C   UNL A   1      39.292  35.142  38.251  1.00  0.00     0.001 A 
ATOM     61  C   UNL A   1      40.883  36.477  37.017  1.00  0.00     0.001 A 
ATOM     62  C   UNL A   1      40.060  36.300  38.128  1.00  0.00     0.000 A 
ENDBRANCH  43  57
BRANCH  44  63
ATOM     63  C   UNL A   1      40.324  27.847  28.537  1.00  0.00    -0.014 A 
ATOM     64  C   UNL A   1      39.656  26.616  28.624  1.00  0.00     0.009 A 
ATOM     65  C   UNL A   1      41.041  28.150  27.370  1.00  0.00     0.009 A 
ATOM     66  C   UNL A   1      39.727  25.696  27.575  1.00  0.00     0.001 A 
ATOM     67  C   UNL A   1      41.088  27.240  26.311  1.00  0.00     0.001 A 
ATOM     68  C   UNL A   1      40.440  26.010  26.418  1.00  0.00     0.000 A 
ENDBRANCH  44  63
BRANCH  56  69
ATOM     69  C   UNL A   1      44.116  28.581  34.326  1.00  0.00    -0.014 A 
ATOM     70  C   UNL A   1      45.444  28.936  34.048  1.00  0.00     0.009 A 
ATOM     71  C   UNL A   1      43.864  27.494  35.178  1.00  0.00     0.009 A 
ATOM     72  C   UNL A   1      46.498  28.199  34.591  1.00  0.00     0.001 A 
ATOM     73  C   UNL A   1      44.919  26.778  35.742  1.00  0.00     0.001 A 
ATOM     74  C   UNL A   1      46.236  27.126  35.441  1.00  0.00     0.000 A 
ENDBRANCH  56  69
ENDBRANCH  30  31
ENDBRANCH  22  25
ENDBRANCH  20  21
ENDBRANCH   1  20
TORSDOF 13
ENDMDL
