MODEL 1
REMARK VINA RESULT:     -11.6      0.000      0.000
REMARK SMILES C[C@@H](C(=O)NCCCCNC(=O)c1ccc(-c2c3nc(c(-c4ccccc4)c4ccc([nH]4)c(-c4ccccc4)c4nc(c(-c5ccccc5)c5ccc2[nH]5)C=C4)C=C3)cc1)c1ccc(OC2CCCC2)cc1F
REMARK SMILES IDX 7 1 6 2 5 3 3 4 4 5 2 7 1 8 61 9 62 10 72 11 63 12 71 13
REMARK SMILES IDX 73 14 64 15 65 16 66 17 67 18 70 19 68 20 69 21 8 22 9 23
REMARK SMILES IDX 10 24 11 25 12 27 13 28 14 29 60 30 15 31 59 32 16 33 17 34
REMARK SMILES IDX 18 35 53 36 19 37 58 38 52 39 54 40 20 41 57 42 51 43 50 44
REMARK SMILES IDX 21 46 43 47 28 48 42 49 29 50 32 51 41 52 55 53 30 54 31 55
REMARK SMILES IDX 40 57 56 58 33 59 22 60 23 61 27 62 24 63 26 64 25 65 44 66
REMARK SMILES IDX 45 67 49 68 46 69 48 70 47 71 34 72 35 73 39 74 36 75 38 76
REMARK SMILES IDX 37 77
REMARK H PARENT 5 6 10 26 54 45 32 56
REMARK Flexibility Score: inf
ROOT
ATOM      1  C   UNL A   1      31.649  30.794  26.131  1.00  0.00     0.023 C 
ENDROOT
BRANCH   1   2
ATOM      2  C   UNL A   1      32.991  30.198  26.574  1.00  0.00     0.116 C 
BRANCH   2   3
ATOM      3  N   UNL A   1      32.764  29.139  27.536  1.00  0.00    -0.356 N 
ATOM      4  C   UNL A   1      32.234  27.904  27.268  1.00  0.00     0.227 C 
ATOM      5  O   UNL A   1      31.469  27.425  28.106  1.00  0.00    -0.274 OA
ATOM      6  H   UNL A   1      33.015  29.323  28.469  1.00  0.00     0.163 HD
BRANCH   4   7
ATOM      7  C   UNL A   1      32.592  27.216  25.939  1.00  0.00     0.108 C 
ATOM      8  C   UNL A   1      34.085  27.479  25.685  1.00  0.00     0.023 C 
BRANCH   7   9
ATOM      9  C   UNL A   1      31.734  27.649  24.751  1.00  0.00     0.000 A 
ATOM     10  C   UNL A   1      32.270  28.436  23.719  1.00  0.00     0.011 A 
ATOM     11  C   UNL A   1      30.395  27.269  24.615  1.00  0.00     0.130 A 
ATOM     12  C   UNL A   1      31.464  28.917  22.681  1.00  0.00     0.047 A 
ATOM     13  C   UNL A   1      29.578  27.785  23.611  1.00  0.00     0.086 A 
ATOM     14  F   UNL A   1      29.848  26.364  25.439  1.00  0.00    -0.207 F 
ATOM     15  C   UNL A   1      30.103  28.623  22.636  1.00  0.00     0.122 A 
BRANCH  15  16
ATOM     16  O   UNL A   1      29.440  29.198  21.594  1.00  0.00    -0.490 OA
BRANCH  16  17
ATOM     17  C   UNL A   1      28.543  30.288  21.760  1.00  0.00     0.173 C 
ATOM     18  C   UNL A   1      28.858  31.244  22.906  1.00  0.00     0.045 C 
ATOM     19  C   UNL A   1      28.292  31.135  20.517  1.00  0.00     0.045 C 
ATOM     20  C   UNL A   1      28.120  32.522  22.548  1.00  0.00     0.004 C 
ATOM     21  C   UNL A   1      27.917  32.520  21.034  1.00  0.00     0.004 C 
ENDBRANCH  16  17
ENDBRANCH  15  16
ENDBRANCH   7   9
ENDBRANCH   4   7
ENDBRANCH   2   3
ENDBRANCH   1   2
BRANCH   1  22
ATOM     22  C   UNL A   1      31.393  32.219  26.627  1.00  0.00     0.023 C 
BRANCH  22  23
ATOM     23  C   UNL A   1      32.593  32.888  27.281  1.00  0.00     0.116 C 
BRANCH  23  24
ATOM     24  N   UNL A   1      32.343  34.284  27.601  1.00  0.00    -0.352 N 
ATOM     25  C   UNL A   1      32.960  35.083  28.530  1.00  0.00     0.251 C 
ATOM     26  H   UNL A   1      31.631  34.717  27.079  1.00  0.00     0.163 HD
ATOM     27  O   UNL A   1      32.511  36.198  28.778  1.00  0.00    -0.269 OA
BRANCH  25  28
ATOM     28  C   UNL A   1      34.148  34.584  29.252  1.00  0.00     0.039 A 
ATOM     29  C   UNL A   1      33.978  34.053  30.532  1.00  0.00     0.014 A 
ATOM     30  C   UNL A   1      35.416  34.624  28.667  1.00  0.00     0.014 A 
ATOM     31  C   UNL A   1      35.072  33.505  31.200  1.00  0.00     0.010 A 
ATOM     32  C   UNL A   1      36.490  34.007  29.300  1.00  0.00     0.010 A 
ATOM     33  C   UNL A   1      36.329  33.440  30.573  1.00  0.00    -0.014 A 
BRANCH  33  34
ATOM     34  C   UNL A   1      37.474  32.766  31.232  1.00  0.00     0.031 A 
ATOM     35  C   UNL A   1      38.121  31.564  30.600  1.00  0.00     0.074 A 
ATOM     36  C   UNL A   1      37.904  33.213  32.429  1.00  0.00     0.049 A 
ATOM     37  N   UNL A   1      39.118  30.840  31.040  1.00  0.00    -0.248 NA
ATOM     38  C   UNL A   1      37.563  31.102  29.319  1.00  0.00     0.031 C 
ATOM     39  C   UNL A   1      37.332  34.342  33.168  1.00  0.00     0.029 A 
ATOM     40  N   UNL A   1      38.923  32.772  33.235  1.00  0.00    -0.354 N 
ATOM     41  C   UNL A   1      39.302  29.837  30.097  1.00  0.00     0.074 A 
ATOM     42  C   UNL A   1      38.280  30.012  29.088  1.00  0.00     0.031 C 
ATOM     43  C   UNL A   1      38.030  34.526  34.300  1.00  0.00     0.029 A 
ATOM     44  C   UNL A   1      39.068  33.505  34.390  1.00  0.00     0.049 A 
ATOM     45  H   UNL A   1      39.496  32.004  33.009  1.00  0.00     0.167 HD
ATOM     46  C   UNL A   1      40.251  28.871  30.060  1.00  0.00     0.031 A 
ATOM     47  C   UNL A   1      39.937  33.367  35.408  1.00  0.00     0.031 A 
ATOM     48  C   UNL A   1      41.268  28.696  31.063  1.00  0.00     0.049 A 
ATOM     49  C   UNL A   1      40.962  32.268  35.353  1.00  0.00     0.074 A 
ATOM     50  C   UNL A   1      42.302  27.776  31.089  1.00  0.00     0.029 A 
ATOM     51  N   UNL A   1      41.378  29.454  32.217  1.00  0.00    -0.354 N 
ATOM     52  N   UNL A   1      41.169  31.377  34.414  1.00  0.00    -0.248 NA
ATOM     53  C   UNL A   1      41.883  32.167  36.494  1.00  0.00     0.031 C 
ATOM     54  C   UNL A   1      43.003  27.940  32.287  1.00  0.00     0.029 A 
ATOM     55  C   UNL A   1      42.446  29.005  32.976  1.00  0.00     0.049 A 
ATOM     56  H   UNL A   1      40.785  30.201  32.461  1.00  0.00     0.167 HD
ATOM     57  C   UNL A   1      42.259  30.627  34.839  1.00  0.00     0.074 A 
ATOM     58  C   UNL A   1      42.684  31.186  36.105  1.00  0.00     0.031 C 
ATOM     59  C   UNL A   1      42.854  29.569  34.236  1.00  0.00     0.031 A 
BRANCH  46  60
ATOM     60  C   UNL A   1      40.230  27.921  28.894  1.00  0.00    -0.014 A 
ATOM     61  C   UNL A   1      40.917  28.216  27.705  1.00  0.00     0.009 A 
ATOM     62  C   UNL A   1      39.562  26.691  29.004  1.00  0.00     0.009 A 
ATOM     63  C   UNL A   1      40.909  27.314  26.640  1.00  0.00     0.001 A 
ATOM     64  C   UNL A   1      39.581  25.777  27.948  1.00  0.00     0.001 A 
ATOM     65  C   UNL A   1      40.247  26.093  26.765  1.00  0.00     0.000 A 
ENDBRANCH  46  60
BRANCH  47  66
ATOM     66  C   UNL A   1      39.885  34.293  36.570  1.00  0.00    -0.014 A 
ATOM     67  C   UNL A   1      39.142  33.964  37.714  1.00  0.00     0.009 A 
ATOM     68  C   UNL A   1      40.556  35.525  36.531  1.00  0.00     0.009 A 
ATOM     69  C   UNL A   1      39.041  34.865  38.777  1.00  0.00     0.001 A 
ATOM     70  C   UNL A   1      40.480  36.410  37.609  1.00  0.00     0.001 A 
ATOM     71  C   UNL A   1      39.713  36.085  38.725  1.00  0.00     0.000 A 
ENDBRANCH  47  66
BRANCH  59  72
ATOM     72  C   UNL A   1      44.050  28.972  34.925  1.00  0.00    -0.014 A 
ATOM     73  C   UNL A   1      45.348  29.447  34.681  1.00  0.00     0.009 A 
ATOM     74  C   UNL A   1      43.871  27.934  35.852  1.00  0.00     0.009 A 
ATOM     75  C   UNL A   1      46.445  28.864  35.316  1.00  0.00     0.001 A 
ATOM     76  C   UNL A   1      44.966  27.375  36.512  1.00  0.00     0.001 A 
ATOM     77  C   UNL A   1      46.253  27.832  36.235  1.00  0.00     0.000 A 
ENDBRANCH  59  72
ENDBRANCH  33  34
ENDBRANCH  25  28
ENDBRANCH  23  24
ENDBRANCH  22  23
ENDBRANCH   1  22
TORSDOF 14
ENDMDL
MODEL 2
REMARK VINA RESULT:     -11.4      2.540      7.421
REMARK SMILES C[C@@H](C(=O)NCCCCNC(=O)c1ccc(-c2c3nc(c(-c4ccccc4)c4ccc([nH]4)c(-c4ccccc4)c4nc(c(-c5ccccc5)c5ccc2[nH]5)C=C4)C=C3)cc1)c1ccc(OC2CCCC2)cc1F
REMARK SMILES IDX 7 1 6 2 5 3 3 4 4 5 2 7 1 8 61 9 62 10 72 11 63 12 71 13
REMARK SMILES IDX 73 14 64 15 65 16 66 17 67 18 70 19 68 20 69 21 8 22 9 23
REMARK SMILES IDX 10 24 11 25 12 27 13 28 14 29 60 30 15 31 59 32 16 33 17 34
REMARK SMILES IDX 18 35 53 36 19 37 58 38 52 39 54 40 20 41 57 42 51 43 50 44
REMARK SMILES IDX 21 46 43 47 28 48 42 49 29 50 32 51 41 52 55 53 30 54 31 55
REMARK SMILES IDX 40 57 56 58 33 59 22 60 23 61 27 62 24 63 26 64 25 65 44 66
REMARK SMILES IDX 45 67 49 68 46 69 48 70 47 71 34 72 35 73 39 74 36 75 38 76
REMARK SMILES IDX 37 77
REMARK H PARENT 5 6 10 26 54 45 32 56
REMARK Flexibility Score: inf
ROOT
ATOM      1  C   UNL A   1      31.614  30.218  26.561  1.00  0.00     0.023 C 
ENDROOT
BRANCH   1   2
ATOM      2  C   UNL A   1      32.245  29.709  25.259  1.00  0.00     0.116 C 
BRANCH   2   3
ATOM      3  N   UNL A   1      31.465  28.606  24.735  1.00  0.00    -0.356 N 
ATOM      4  C   UNL A   1      31.818  27.791  23.692  1.00  0.00     0.227 C 
ATOM      5  O   UNL A   1      30.922  27.441  22.923  1.00  0.00    -0.274 OA
ATOM      6  H   UNL A   1      30.602  28.425  25.170  1.00  0.00     0.163 HD
BRANCH   4   7
ATOM      7  C   UNL A   1      33.296  27.397  23.526  1.00  0.00     0.108 C 
ATOM      8  C   UNL A   1      33.606  27.441  22.022  1.00  0.00     0.023 C 
BRANCH   7   9
ATOM      9  C   UNL A   1      33.663  26.045  24.137  1.00  0.00     0.000 A 
ATOM     10  C   UNL A   1      33.959  24.939  23.324  1.00  0.00     0.011 A 
ATOM     11  C   UNL A   1      33.750  25.846  25.519  1.00  0.00     0.130 A 
ATOM     12  C   UNL A   1      34.198  23.676  23.877  1.00  0.00     0.047 A 
ATOM     13  C   UNL A   1      33.940  24.581  26.073  1.00  0.00     0.086 A 
ATOM     14  F   UNL A   1      33.679  26.879  26.371  1.00  0.00    -0.207 F 
ATOM     15  C   UNL A   1      34.158  23.479  25.256  1.00  0.00     0.122 A 
BRANCH  15  16
ATOM     16  O   UNL A   1      34.364  22.190  25.643  1.00  0.00    -0.490 OA
BRANCH  16  17
ATOM     17  C   UNL A   1      35.662  21.636  25.814  1.00  0.00     0.173 C 
ATOM     18  C   UNL A   1      35.999  20.438  24.933  1.00  0.00     0.045 C 
ATOM     19  C   UNL A   1      36.822  22.620  25.706  1.00  0.00     0.045 C 
ATOM     20  C   UNL A   1      37.517  20.389  24.923  1.00  0.00     0.004 C 
ATOM     21  C   UNL A   1      38.019  21.795  25.247  1.00  0.00     0.004 C 
ENDBRANCH  16  17
ENDBRANCH  15  16
ENDBRANCH   7   9
ENDBRANCH   4   7
ENDBRANCH   2   3
ENDBRANCH   1   2
BRANCH   1  22
ATOM     22  C   UNL A   1      31.488  31.741  26.653  1.00  0.00     0.023 C 
BRANCH  22  23
ATOM     23  C   UNL A   1      32.748  32.454  27.121  1.00  0.00     0.116 C 
BRANCH  23  24
ATOM     24  N   UNL A   1      32.472  33.786  27.636  1.00  0.00    -0.352 N 
ATOM     25  C   UNL A   1      33.161  34.511  28.574  1.00  0.00     0.251 C 
ATOM     26  H   UNL A   1      31.679  34.229  27.259  1.00  0.00     0.163 HD
ATOM     27  O   UNL A   1      32.693  35.559  29.008  1.00  0.00    -0.269 OA
BRANCH  25  28
ATOM     28  C   UNL A   1      34.454  34.009  29.083  1.00  0.00     0.039 A 
ATOM     29  C   UNL A   1      34.462  33.242  30.249  1.00  0.00     0.014 A 
ATOM     30  C   UNL A   1      35.648  34.279  28.407  1.00  0.00     0.014 A 
ATOM     31  C   UNL A   1      35.660  32.692  30.703  1.00  0.00     0.010 A 
ATOM     32  C   UNL A   1      36.828  33.666  28.816  1.00  0.00     0.010 A 
ATOM     33  C   UNL A   1      36.845  32.866  29.968  1.00  0.00    -0.014 A 
BRANCH  33  34
ATOM     34  C   UNL A   1      38.104  32.200  30.386  1.00  0.00     0.031 A 
ATOM     35  C   UNL A   1      39.007  32.842  31.403  1.00  0.00     0.074 A 
ATOM     36  C   UNL A   1      38.455  31.031  29.813  1.00  0.00     0.049 A 
ATOM     37  N   UNL A   1      40.151  32.414  31.874  1.00  0.00    -0.248 NA
ATOM     38  C   UNL A   1      38.583  34.142  31.947  1.00  0.00     0.031 C 
ATOM     39  C   UNL A   1      37.687  30.328  28.782  1.00  0.00     0.029 A 
ATOM     40  N   UNL A   1      39.548  30.228  30.017  1.00  0.00    -0.354 N 
ATOM     41  C   UNL A   1      40.584  33.391  32.761  1.00  0.00     0.074 A 
ATOM     42  C   UNL A   1      39.609  34.460  32.723  1.00  0.00     0.031 C 
ATOM     43  C   UNL A   1      38.316  29.183  28.470  1.00  0.00     0.029 A 
ATOM     44  C   UNL A   1      39.549  29.092  29.243  1.00  0.00     0.049 A 
ATOM     45  H   UNL A   1      40.265  30.445  30.656  1.00  0.00     0.167 HD
ATOM     46  C   UNL A   1      41.682  33.391  33.553  1.00  0.00     0.031 A 
ATOM     47  C   UNL A   1      40.444  28.090  29.162  1.00  0.00     0.031 A 
ATOM     48  C   UNL A   1      42.652  32.329  33.593  1.00  0.00     0.049 A 
ATOM     49  C   UNL A   1      41.668  28.130  30.035  1.00  0.00     0.074 A 
ATOM     50  C   UNL A   1      43.773  32.216  34.398  1.00  0.00     0.029 A 
ATOM     51  N   UNL A   1      42.619  31.199  32.791  1.00  0.00    -0.354 N 
ATOM     52  N   UNL A   1      42.022  29.027  30.924  1.00  0.00    -0.248 NA
ATOM     53  C   UNL A   1      42.609  27.009  29.902  1.00  0.00     0.031 C 
ATOM     54  C   UNL A   1      44.449  31.045  34.043  1.00  0.00     0.029 A 
ATOM     55  C   UNL A   1      43.715  30.397  33.064  1.00  0.00     0.049 A 
ATOM     56  H   UNL A   1      41.921  30.997  32.128  1.00  0.00     0.167 HD
ATOM     57  C   UNL A   1      43.211  28.565  31.473  1.00  0.00     0.074 A 
ATOM     58  C   UNL A   1      43.503  27.298  30.837  1.00  0.00     0.031 C 
ATOM     59  C   UNL A   1      43.993  29.140  32.419  1.00  0.00     0.031 A 
BRANCH  46  60
ATOM     60  C   UNL A   1      41.896  34.584  34.445  1.00  0.00    -0.014 A 
ATOM     61  C   UNL A   1      41.627  34.518  35.822  1.00  0.00     0.009 A 
ATOM     62  C   UNL A   1      42.424  35.771  33.912  1.00  0.00     0.009 A 
ATOM     63  C   UNL A   1      41.854  35.626  36.641  1.00  0.00     0.001 A 
ATOM     64  C   UNL A   1      42.678  36.867  34.740  1.00  0.00     0.001 A 
ATOM     65  C   UNL A   1      42.385  36.796  36.101  1.00  0.00     0.000 A 
ENDBRANCH  46  60
BRANCH  47  66
ATOM     66  C   UNL A   1      40.222  26.958  28.225  1.00  0.00    -0.014 A 
ATOM     67  C   UNL A   1      39.457  25.847  28.615  1.00  0.00     0.009 A 
ATOM     68  C   UNL A   1      40.797  26.967  26.945  1.00  0.00     0.009 A 
ATOM     69  C   UNL A   1      39.306  24.755  27.757  1.00  0.00     0.001 A 
ATOM     70  C   UNL A   1      40.617  25.889  26.076  1.00  0.00     0.001 A 
ATOM     71  C   UNL A   1      39.882  24.778  26.488  1.00  0.00     0.000 A 
ENDBRANCH  47  66
BRANCH  59  72
ATOM     72  C   UNL A   1      45.221  28.382  32.845  1.00  0.00    -0.014 A 
ATOM     73  C   UNL A   1      46.460  28.586  32.219  1.00  0.00     0.009 A 
ATOM     74  C   UNL A   1      45.139  27.468  33.906  1.00  0.00     0.009 A 
ATOM     75  C   UNL A   1      47.582  27.856  32.617  1.00  0.00     0.001 A 
ATOM     76  C   UNL A   1      46.269  26.765  34.326  1.00  0.00     0.001 A 
ATOM     77  C   UNL A   1      47.486  26.950  33.673  1.00  0.00     0.000 A 
ENDBRANCH  59  72
ENDBRANCH  33  34
ENDBRANCH  25  28
ENDBRANCH  23  24
ENDBRANCH  22  23
ENDBRANCH   1  22
TORSDOF 14
ENDMDL
MODEL 3
REMARK VINA RESULT:     -11.4      4.851      9.146
REMARK SMILES C[C@@H](C(=O)NCCCCNC(=O)c1ccc(-c2c3nc(c(-c4ccccc4)c4ccc([nH]4)c(-c4ccccc4)c4nc(c(-c5ccccc5)c5ccc2[nH]5)C=C4)C=C3)cc1)c1ccc(OC2CCCC2)cc1F
REMARK SMILES IDX 7 1 6 2 5 3 3 4 4 5 2 7 1 8 61 9 62 10 72 11 63 12 71 13
REMARK SMILES IDX 73 14 64 15 65 16 66 17 67 18 70 19 68 20 69 21 8 22 9 23
REMARK SMILES IDX 10 24 11 25 12 27 13 28 14 29 60 30 15 31 59 32 16 33 17 34
REMARK SMILES IDX 18 35 53 36 19 37 58 38 52 39 54 40 20 41 57 42 51 43 50 44
REMARK SMILES IDX 21 46 43 47 28 48 42 49 29 50 32 51 41 52 55 53 30 54 31 55
REMARK SMILES IDX 40 57 56 58 33 59 22 60 23 61 27 62 24 63 26 64 25 65 44 66
REMARK SMILES IDX 45 67 49 68 46 69 48 70 47 71 34 72 35 73 39 74 36 75 38 76
REMARK SMILES IDX 37 77
REMARK H PARENT 5 6 10 26 54 45 32 56
REMARK Flexibility Score: inf
ROOT
ATOM      1  C   UNL A   1      36.240  20.492  25.038  1.00  0.00     0.023 C 
ENDROOT
BRANCH   1   2
ATOM      2  C   UNL A   1      35.991  21.854  25.698  1.00  0.00     0.116 C 
BRANCH   2   3
ATOM      3  N   UNL A   1      35.711  22.848  24.681  1.00  0.00    -0.356 N 
ATOM      4  C   UNL A   1      34.618  22.876  23.858  1.00  0.00     0.227 C 
ATOM      5  O   UNL A   1      34.799  23.231  22.692  1.00  0.00    -0.274 OA
ATOM      6  H   UNL A   1      36.370  23.571  24.574  1.00  0.00     0.163 HD
BRANCH   4   7
ATOM      7  C   UNL A   1      33.255  22.433  24.419  1.00  0.00     0.108 C 
ATOM      8  C   UNL A   1      32.792  21.233  23.578  1.00  0.00     0.023 C 
BRANCH   7   9
ATOM      9  C   UNL A   1      32.198  23.536  24.457  1.00  0.00     0.000 A 
ATOM     10  C   UNL A   1      31.188  23.605  23.483  1.00  0.00     0.011 A 
ATOM     11  C   UNL A   1      32.162  24.506  25.464  1.00  0.00     0.130 A 
ATOM     12  C   UNL A   1      30.279  24.668  23.456  1.00  0.00     0.047 A 
ATOM     13  C   UNL A   1      31.290  25.592  25.414  1.00  0.00     0.086 A 
ATOM     14  F   UNL A   1      32.956  24.412  26.540  1.00  0.00    -0.207 F 
ATOM     15  C   UNL A   1      30.343  25.689  24.403  1.00  0.00     0.122 A 
BRANCH  15  16
ATOM     16  O   UNL A   1      29.423  26.678  24.222  1.00  0.00    -0.490 OA
BRANCH  16  17
ATOM     17  C   UNL A   1      29.454  27.564  23.111  1.00  0.00     0.173 C 
ATOM     18  C   UNL A   1      28.396  28.662  23.103  1.00  0.00     0.045 C 
ATOM     19  C   UNL A   1      30.799  28.226  22.830  1.00  0.00     0.045 C 
ATOM     20  C   UNL A   1      28.952  29.718  22.165  1.00  0.00     0.004 C 
ATOM     21  C   UNL A   1      30.469  29.540  22.130  1.00  0.00     0.004 C 
ENDBRANCH  16  17
ENDBRANCH  15  16
ENDBRANCH   7   9
ENDBRANCH   4   7
ENDBRANCH   2   3
ENDBRANCH   1   2
BRANCH   1  22
ATOM     22  C   UNL A   1      37.695  20.239  24.636  1.00  0.00     0.023 C 
BRANCH  22  23
ATOM     23  C   UNL A   1      38.710  20.477  25.745  1.00  0.00     0.116 C 
BRANCH  23  24
ATOM     24  N   UNL A   1      39.774  19.486  25.744  1.00  0.00    -0.352 N 
ATOM     25  C   UNL A   1      41.100  19.639  26.061  1.00  0.00     0.251 C 
ATOM     26  H   UNL A   1      39.506  18.577  25.480  1.00  0.00     0.163 HD
ATOM     27  O   UNL A   1      41.892  18.726  25.851  1.00  0.00    -0.269 OA
BRANCH  25  28
ATOM     28  C   UNL A   1      41.575  20.918  26.627  1.00  0.00     0.039 A 
ATOM     29  C   UNL A   1      42.103  21.878  25.762  1.00  0.00     0.014 A 
ATOM     30  C   UNL A   1      41.485  21.177  27.998  1.00  0.00     0.014 A 
ATOM     31  C   UNL A   1      42.483  23.122  26.263  1.00  0.00     0.010 A 
ATOM     32  C   UNL A   1      41.791  22.444  28.484  1.00  0.00     0.010 A 
ATOM     33  C   UNL A   1      42.293  23.430  27.621  1.00  0.00    -0.014 A 
BRANCH  33  34
ATOM     34  C   UNL A   1      42.598  24.784  28.144  1.00  0.00     0.031 A 
ATOM     35  C   UNL A   1      43.997  25.144  28.564  1.00  0.00     0.074 A 
ATOM     36  C   UNL A   1      41.600  25.680  28.282  1.00  0.00     0.049 A 
ATOM     37  N   UNL A   1      44.443  26.271  29.058  1.00  0.00    -0.248 NA
ATOM     38  C   UNL A   1      45.023  24.098  28.432  1.00  0.00     0.031 C 
ATOM     39  C   UNL A   1      40.192  25.438  27.953  1.00  0.00     0.029 A 
ATOM     40  N   UNL A   1      41.616  26.974  28.736  1.00  0.00    -0.354 N 
ATOM     41  C   UNL A   1      45.795  26.068  29.301  1.00  0.00     0.074 A 
ATOM     42  C   UNL A   1      46.087  24.695  28.952  1.00  0.00     0.031 C 
ATOM     43  C   UNL A   1      39.488  26.558  28.182  1.00  0.00     0.029 A 
ATOM     44  C   UNL A   1      40.382  27.580  28.714  1.00  0.00     0.049 A 
ATOM     45  H   UNL A   1      42.433  27.426  29.048  1.00  0.00     0.167 HD
ATOM     46  C   UNL A   1      46.718  26.951  29.752  1.00  0.00     0.031 A 
ATOM     47  C   UNL A   1      40.011  28.819  29.086  1.00  0.00     0.031 A 
ATOM     48  C   UNL A   1      46.430  28.318  30.098  1.00  0.00     0.049 A 
ATOM     49  C   UNL A   1      41.053  29.770  29.609  1.00  0.00     0.074 A 
ATOM     50  C   UNL A   1      47.307  29.303  30.519  1.00  0.00     0.029 A 
ATOM     51  N   UNL A   1      45.168  28.891  30.068  1.00  0.00    -0.354 N 
ATOM     52  N   UNL A   1      42.342  29.583  29.759  1.00  0.00    -0.248 NA
ATOM     53  C   UNL A   1      40.588  31.108  29.999  1.00  0.00     0.031 C 
ATOM     54  C   UNL A   1      46.567  30.456  30.798  1.00  0.00     0.029 A 
ATOM     55  C   UNL A   1      45.240  30.209  30.488  1.00  0.00     0.049 A 
ATOM     56  H   UNL A   1      44.345  28.431  29.788  1.00  0.00     0.167 HD
ATOM     57  C   UNL A   1      42.844  30.787  30.236  1.00  0.00     0.074 A 
ATOM     58  C   UNL A   1      41.726  31.703  30.324  1.00  0.00     0.031 C 
ATOM     59  C   UNL A   1      44.117  31.107  30.574  1.00  0.00     0.031 A 
BRANCH  46  60
ATOM     60  C   UNL A   1      48.133  26.463  29.900  1.00  0.00    -0.014 A 
ATOM     61  C   UNL A   1      48.567  25.846  31.084  1.00  0.00     0.009 A 
ATOM     62  C   UNL A   1      49.028  26.572  28.824  1.00  0.00     0.009 A 
ATOM     63  C   UNL A   1      49.877  25.375  31.198  1.00  0.00     0.001 A 
ATOM     64  C   UNL A   1      50.328  26.074  28.930  1.00  0.00     0.001 A 
ATOM     65  C   UNL A   1      50.754  25.484  30.119  1.00  0.00     0.000 A 
ENDBRANCH  46  60
BRANCH  47  66
ATOM     66  C   UNL A   1      38.590  29.243  28.977  1.00  0.00    -0.014 A 
ATOM     67  C   UNL A   1      37.723  29.127  30.075  1.00  0.00     0.009 A 
ATOM     68  C   UNL A   1      38.084  29.738  27.765  1.00  0.00     0.009 A 
ATOM     69  C   UNL A   1      36.373  29.463  29.949  1.00  0.00     0.001 A 
ATOM     70  C   UNL A   1      36.742  30.105  27.652  1.00  0.00     0.001 A 
ATOM     71  C   UNL A   1      35.884  29.955  28.740  1.00  0.00     0.000 A 
ENDBRANCH  47  66
BRANCH  59  72
ATOM     72  C   UNL A   1      44.371  32.515  31.035  1.00  0.00    -0.014 A 
ATOM     73  C   UNL A   1      44.318  32.860  32.395  1.00  0.00     0.009 A 
ATOM     74  C   UNL A   1      44.690  33.507  30.095  1.00  0.00     0.009 A 
ATOM     75  C   UNL A   1      44.536  34.179  32.798  1.00  0.00     0.001 A 
ATOM     76  C   UNL A   1      44.942  34.817  30.503  1.00  0.00     0.001 A 
ATOM     77  C   UNL A   1      44.853  35.154  31.853  1.00  0.00     0.000 A 
ENDBRANCH  59  72
ENDBRANCH  33  34
ENDBRANCH  25  28
ENDBRANCH  23  24
ENDBRANCH  22  23
ENDBRANCH   1  22
TORSDOF 14
ENDMDL
