MODEL 1
REMARK VINA RESULT:     -11.6      0.000      0.000
REMARK SMILES Cc1c(Cl)cc2c(c1C)O[C@H](C(F)(F)F)C(C(=O)NCCCCNC(=O)c1ccc(-c3c4nc(c(-c5ccccc5)c5ccc([nH]5)c(-c5ccccc5)c5nc(c(-c6ccccc6)c6ccc3[nH]6)C=C5)C=C4)cc1)=C2
REMARK SMILES IDX 22 1 21 2 20 3 19 4 17 5 18 6 16 8 1 9 2 10 3 11 8 12 4 13
REMARK SMILES IDX 5 14 7 15 9 16 6 17 10 18 75 19 11 20 12 21 13 22 14 23
REMARK SMILES IDX 15 24 23 25 24 26 25 27 26 29 27 30 28 31 74 32 29 33 73 34
REMARK SMILES IDX 30 35 31 36 32 37 67 38 33 39 72 40 66 41 68 42 34 43 71 44
REMARK SMILES IDX 65 45 64 46 35 48 57 49 42 50 56 51 43 52 46 53 55 54 69 55
REMARK SMILES IDX 44 56 45 57 54 59 70 60 47 61 36 62 37 63 41 64 38 65 40 66
REMARK SMILES IDX 39 67 58 68 59 69 63 70 60 71 62 72 61 73 48 74 49 75 53 76
REMARK SMILES IDX 50 77 52 78 51 79
REMARK H PARENT 19 7 24 28 68 47 46 58
REMARK Flexibility Score: inf
ROOT
ATOM      1  C   UNL A   1      36.116  23.402  26.092  1.00  0.00     0.023 C 
ENDROOT
BRANCH   1   2
ATOM      2  C   UNL A   1      35.238  22.151  26.001  1.00  0.00     0.023 C 
BRANCH   2   3
ATOM      3  C   UNL A   1      33.888  22.383  25.327  1.00  0.00     0.116 C 
BRANCH   3   4
ATOM      4  N   UNL A   1      34.030  22.682  23.913  1.00  0.00    -0.352 N 
ATOM      5  C   UNL A   1      33.745  23.720  23.092  1.00  0.00     0.251 C 
ATOM      6  O   UNL A   1      34.030  23.541  21.904  1.00  0.00    -0.270 OA
ATOM      7  H   UNL A   1      34.441  21.933  23.423  1.00  0.00     0.163 HD
BRANCH   5   8
ATOM      8  C   UNL A   1      33.131  25.013  23.517  1.00  0.00     0.067 C 
ATOM      9  C   UNL A   1      31.778  30.850  26.196  1.00  0.00     0.046 C 
ATOM     10  C   UNL A   1      32.264  29.501  25.723  1.00  0.00    -0.026 A 
ATOM     11  C   UNL A   1      33.398  28.925  26.338  1.00  0.00     0.045 A 
ATOM     12  C   UNL A   1      31.663  28.814  24.641  1.00  0.00    -0.004 A 
ATOM     13  Cl  UNL A   1      34.244  29.719  27.626  1.00  0.00    -0.084 Cl
ATOM     14  C   UNL A   1      33.911  27.692  25.921  1.00  0.00     0.032 A 
ATOM     15  C   UNL A   1      32.190  27.563  24.249  1.00  0.00     0.131 A 
ATOM     16  C   UNL A   1      30.475  29.333  23.869  1.00  0.00     0.049 C 
ATOM     17  C   UNL A   1      33.305  27.004  24.874  1.00  0.00     0.019 A 
ATOM     18  O   UNL A   1      31.595  26.943  23.181  1.00  0.00    -0.475 OA
ATOM     19  C   UNL A   1      33.851  25.741  24.391  1.00  0.00     0.025 C 
ATOM     20  C   UNL A   1      31.784  25.506  23.073  1.00  0.00     0.314 C 
BRANCH  20  21
ATOM     21  C   UNL A   1      30.623  24.781  23.778  1.00  0.00     0.429 C 
ATOM     22  F   UNL A   1      30.984  24.416  25.033  1.00  0.00    -0.167 F 
ATOM     23  F   UNL A   1      29.527  25.566  23.910  1.00  0.00    -0.167 F 
ATOM     24  F   UNL A   1      30.230  23.664  23.127  1.00  0.00    -0.167 F 
ENDBRANCH  20  21
ENDBRANCH   5   8
ENDBRANCH   3   4
ENDBRANCH   2   3
ENDBRANCH   1   2
BRANCH   1  25
ATOM     25  C   UNL A   1      37.281  23.459  25.106  1.00  0.00     0.116 C 
BRANCH  25  26
ATOM     26  N   UNL A   1      38.398  22.590  25.453  1.00  0.00    -0.352 N 
ATOM     27  C   UNL A   1      39.484  22.898  26.240  1.00  0.00     0.251 C 
ATOM     28  H   UNL A   1      38.372  21.679  25.082  1.00  0.00     0.163 HD
ATOM     29  O   UNL A   1      40.391  22.092  26.415  1.00  0.00    -0.269 OA
BRANCH  27  30
ATOM     30  C   UNL A   1      39.557  24.248  26.823  1.00  0.00     0.039 A 
ATOM     31  C   UNL A   1      39.033  24.453  28.100  1.00  0.00     0.014 A 
ATOM     32  C   UNL A   1      40.246  25.263  26.155  1.00  0.00     0.014 A 
ATOM     33  C   UNL A   1      39.279  25.661  28.751  1.00  0.00     0.010 A 
ATOM     34  C   UNL A   1      40.538  26.445  26.827  1.00  0.00     0.010 A 
ATOM     35  C   UNL A   1      40.071  26.645  28.135  1.00  0.00    -0.014 A 
BRANCH  35  36
ATOM     36  C   UNL A   1      40.449  27.876  28.865  1.00  0.00     0.031 A 
ATOM     37  C   UNL A   1      39.471  29.005  28.997  1.00  0.00     0.074 A 
ATOM     38  C   UNL A   1      41.694  27.993  29.365  1.00  0.00     0.049 A 
ATOM     39  N   UNL A   1      39.626  30.161  29.589  1.00  0.00    -0.248 NA
ATOM     40  C   UNL A   1      38.154  28.820  28.366  1.00  0.00     0.031 C 
ATOM     41  C   UNL A   1      42.750  26.983  29.262  1.00  0.00     0.029 A 
ATOM     42  N   UNL A   1      42.281  29.016  30.067  1.00  0.00    -0.354 N 
ATOM     43  C   UNL A   1      38.435  30.844  29.393  1.00  0.00     0.074 A 
ATOM     44  C   UNL A   1      37.582  29.994  28.591  1.00  0.00     0.031 C 
ATOM     45  C   UNL A   1      43.840  27.420  29.913  1.00  0.00     0.029 A 
ATOM     46  C   UNL A   1      43.571  28.747  30.456  1.00  0.00     0.049 A 
ATOM     47  H   UNL A   1      41.821  29.862  30.273  1.00  0.00     0.167 HD
ATOM     48  C   UNL A   1      38.072  32.062  29.859  1.00  0.00     0.031 A 
ATOM     49  C   UNL A   1      44.435  29.484  31.177  1.00  0.00     0.031 A 
ATOM     50  C   UNL A   1      38.909  32.899  30.672  1.00  0.00     0.049 A 
ATOM     51  C   UNL A   1      44.010  30.832  31.682  1.00  0.00     0.074 A 
ATOM     52  C   UNL A   1      38.608  34.125  31.240  1.00  0.00     0.029 A 
ATOM     53  N   UNL A   1      40.211  32.595  31.035  1.00  0.00    -0.354 N 
ATOM     54  N   UNL A   1      42.858  31.440  31.537  1.00  0.00    -0.248 NA
ATOM     55  C   UNL A   1      45.003  31.594  32.454  1.00  0.00     0.031 C 
ATOM     56  C   UNL A   1      39.742  34.576  31.925  1.00  0.00     0.029 A 
ATOM     57  C   UNL A   1      40.734  33.615  31.808  1.00  0.00     0.049 A 
ATOM     58  H   UNL A   1      40.691  31.774  30.781  1.00  0.00     0.167 HD
ATOM     59  C   UNL A   1      42.979  32.645  32.213  1.00  0.00     0.074 A 
ATOM     60  C   UNL A   1      44.313  32.682  32.777  1.00  0.00     0.031 C 
ATOM     61  C   UNL A   1      42.063  33.633  32.357  1.00  0.00     0.031 A 
BRANCH  48  62
ATOM     62  C   UNL A   1      36.699  32.549  29.505  1.00  0.00    -0.014 A 
ATOM     63  C   UNL A   1      36.474  33.264  28.318  1.00  0.00     0.009 A 
ATOM     64  C   UNL A   1      35.616  32.272  30.352  1.00  0.00     0.009 A 
ATOM     65  C   UNL A   1      35.194  33.721  28.001  1.00  0.00     0.001 A 
ATOM     66  C   UNL A   1      34.333  32.711  30.021  1.00  0.00     0.001 A 
ATOM     67  C   UNL A   1      34.125  33.441  28.851  1.00  0.00     0.000 A 
ENDBRANCH  48  62
BRANCH  49  68
ATOM     68  C   UNL A   1      45.775  28.940  31.505  1.00  0.00    -0.014 A 
ATOM     69  C   UNL A   1      45.960  28.181  32.670  1.00  0.00     0.009 A 
ATOM     70  C   UNL A   1      46.868  29.160  30.653  1.00  0.00     0.009 A 
ATOM     71  C   UNL A   1      47.218  27.664  32.984  1.00  0.00     0.001 A 
ATOM     72  C   UNL A   1      48.122  28.626  30.963  1.00  0.00     0.001 A 
ATOM     73  C   UNL A   1      48.297  27.883  32.129  1.00  0.00     0.000 A 
ENDBRANCH  49  68
BRANCH  61  74
ATOM     74  C   UNL A   1      42.462  34.831  33.163  1.00  0.00    -0.014 A 
ATOM     75  C   UNL A   1      43.098  35.925  32.557  1.00  0.00     0.009 A 
ATOM     76  C   UNL A   1      42.129  34.898  34.525  1.00  0.00     0.009 A 
ATOM     77  C   UNL A   1      43.403  37.063  33.306  1.00  0.00     0.001 A 
ATOM     78  C   UNL A   1      42.419  36.044  35.266  1.00  0.00     0.001 A 
ATOM     79  C   UNL A   1      43.058  37.124  34.656  1.00  0.00     0.000 A 
ENDBRANCH  61  74
ENDBRANCH  35  36
ENDBRANCH  27  30
ENDBRANCH  25  26
ENDBRANCH   1  25
TORSDOF 12
ENDMDL
MODEL 2
REMARK VINA RESULT:     -11.6      2.707      7.670
REMARK SMILES Cc1c(Cl)cc2c(c1C)O[C@H](C(F)(F)F)C(C(=O)NCCCCNC(=O)c1ccc(-c3c4nc(c(-c5ccccc5)c5ccc([nH]5)c(-c5ccccc5)c5nc(c(-c6ccccc6)c6ccc3[nH]6)C=C5)C=C4)cc1)=C2
REMARK SMILES IDX 22 1 21 2 20 3 19 4 17 5 18 6 16 8 1 9 2 10 3 11 8 12 4 13
REMARK SMILES IDX 5 14 7 15 9 16 6 17 10 18 75 19 11 20 12 21 13 22 14 23
REMARK SMILES IDX 15 24 23 25 24 26 25 27 26 29 27 30 28 31 74 32 29 33 73 34
REMARK SMILES IDX 30 35 31 36 32 37 67 38 33 39 72 40 66 41 68 42 34 43 71 44
REMARK SMILES IDX 65 45 64 46 35 48 57 49 42 50 56 51 43 52 46 53 55 54 69 55
REMARK SMILES IDX 44 56 45 57 54 59 70 60 47 61 36 62 37 63 41 64 38 65 40 66
REMARK SMILES IDX 39 67 58 68 59 69 63 70 60 71 62 72 61 73 48 74 49 75 53 76
REMARK SMILES IDX 50 77 52 78 51 79
REMARK H PARENT 19 7 24 28 68 47 46 58
REMARK Flexibility Score: inf
ROOT
ATOM      1  C   UNL A   1      33.077  29.284  25.827  1.00  0.00     0.023 C 
ENDROOT
BRANCH   1   2
ATOM      2  C   UNL A   1      33.511  28.149  24.896  1.00  0.00     0.023 C 
BRANCH   2   3
ATOM      3  C   UNL A   1      32.354  27.345  24.310  1.00  0.00     0.116 C 
BRANCH   3   4
ATOM      4  N   UNL A   1      31.541  26.728  25.343  1.00  0.00    -0.352 N 
ATOM      5  C   UNL A   1      31.461  25.516  25.940  1.00  0.00     0.251 C 
ATOM      6  O   UNL A   1      30.578  25.412  26.798  1.00  0.00    -0.270 OA
ATOM      7  H   UNL A   1      30.874  27.356  25.703  1.00  0.00     0.163 HD
BRANCH   5   8
ATOM      8  C   UNL A   1      32.336  24.344  25.638  1.00  0.00     0.067 C 
ATOM      9  C   UNL A   1      37.278  20.067  25.037  1.00  0.00     0.046 C 
ATOM     10  C   UNL A   1      36.299  21.198  25.243  1.00  0.00    -0.026 A 
ATOM     11  C   UNL A   1      36.781  22.455  25.672  1.00  0.00     0.045 A 
ATOM     12  C   UNL A   1      34.902  21.032  25.082  1.00  0.00    -0.004 A 
ATOM     13  Cl  UNL A   1      38.466  22.738  25.961  1.00  0.00    -0.084 Cl
ATOM     14  C   UNL A   1      35.918  23.529  25.908  1.00  0.00     0.032 A 
ATOM     15  C   UNL A   1      34.052  22.137  25.312  1.00  0.00     0.131 A 
ATOM     16  C   UNL A   1      34.250  19.735  24.671  1.00  0.00     0.049 C 
ATOM     17  C   UNL A   1      34.547  23.374  25.726  1.00  0.00     0.019 A 
ATOM     18  O   UNL A   1      32.704  21.927  25.169  1.00  0.00    -0.475 OA
ATOM     19  C   UNL A   1      33.623  24.466  26.011  1.00  0.00     0.025 C 
ATOM     20  C   UNL A   1      31.884  23.102  24.926  1.00  0.00     0.314 C 
BRANCH  20  21
ATOM     21  C   UNL A   1      31.724  23.310  23.408  1.00  0.00     0.429 C 
ATOM     22  F   UNL A   1      31.625  22.115  22.774  1.00  0.00    -0.167 F 
ATOM     23  F   UNL A   1      30.601  24.001  23.097  1.00  0.00    -0.167 F 
ATOM     24  F   UNL A   1      32.762  23.978  22.858  1.00  0.00    -0.167 F 
ENDBRANCH  20  21
ENDBRANCH   5   8
ENDBRANCH   3   4
ENDBRANCH   2   3
ENDBRANCH   1   2
BRANCH   1  25
ATOM     25  C   UNL A   1      33.622  29.209  27.251  1.00  0.00     0.116 C 
BRANCH  25  26
ATOM     26  N   UNL A   1      33.664  30.492  27.941  1.00  0.00    -0.352 N 
ATOM     27  C   UNL A   1      34.724  31.040  28.625  1.00  0.00     0.251 C 
ATOM     28  H   UNL A   1      32.839  31.028  27.914  1.00  0.00     0.163 HD
ATOM     29  O   UNL A   1      34.618  32.110  29.213  1.00  0.00    -0.269 OA
BRANCH  27  30
ATOM     30  C   UNL A   1      35.982  30.275  28.683  1.00  0.00     0.039 A 
ATOM     31  C   UNL A   1      36.836  30.311  27.581  1.00  0.00     0.014 A 
ATOM     32  C   UNL A   1      36.357  29.632  29.865  1.00  0.00     0.014 A 
ATOM     33  C   UNL A   1      38.116  29.772  27.694  1.00  0.00     0.010 A 
ATOM     34  C   UNL A   1      37.653  29.145  29.995  1.00  0.00     0.010 A 
ATOM     35  C   UNL A   1      38.546  29.227  28.916  1.00  0.00    -0.014 A 
BRANCH  35  36
ATOM     36  C   UNL A   1      39.944  28.772  29.090  1.00  0.00     0.031 A 
ATOM     37  C   UNL A   1      40.964  29.684  29.703  1.00  0.00     0.074 A 
ATOM     38  C   UNL A   1      40.303  27.552  28.645  1.00  0.00     0.049 A 
ATOM     39  N   UNL A   1      42.234  29.464  29.925  1.00  0.00    -0.248 NA
ATOM     40  C   UNL A   1      40.503  31.023  30.102  1.00  0.00     0.031 C 
ATOM     41  C   UNL A   1      39.413  26.590  27.990  1.00  0.00     0.029 A 
ATOM     42  N   UNL A   1      41.514  26.909  28.683  1.00  0.00    -0.354 N 
ATOM     43  C   UNL A   1      42.725  30.638  30.478  1.00  0.00     0.074 A 
ATOM     44  C   UNL A   1      41.630  31.582  30.518  1.00  0.00     0.031 C 
ATOM     45  C   UNL A   1      40.098  25.467  27.726  1.00  0.00     0.029 A 
ATOM     46  C   UNL A   1      41.479  25.637  28.168  1.00  0.00     0.049 A 
ATOM     47  H   UNL A   1      42.332  27.321  29.047  1.00  0.00     0.167 HD
ATOM     48  C   UNL A   1      43.972  30.901  30.934  1.00  0.00     0.031 A 
ATOM     49  C   UNL A   1      42.447  24.708  28.072  1.00  0.00     0.031 A 
ATOM     50  C   UNL A   1      45.056  29.959  30.914  1.00  0.00     0.049 A 
ATOM     51  C   UNL A   1      43.823  25.023  28.584  1.00  0.00     0.074 A 
ATOM     52  C   UNL A   1      46.340  30.113  31.406  1.00  0.00     0.029 A 
ATOM     53  N   UNL A   1      44.981  28.685  30.374  1.00  0.00    -0.354 N 
ATOM     54  N   UNL A   1      44.256  26.118  29.158  1.00  0.00    -0.248 NA
ATOM     55  C   UNL A   1      44.841  23.972  28.439  1.00  0.00     0.031 C 
ATOM     56  C   UNL A   1      47.052  28.939  31.138  1.00  0.00     0.029 A 
ATOM     57  C   UNL A   1      46.200  28.046  30.508  1.00  0.00     0.049 A 
ATOM     58  H   UNL A   1      44.179  28.293  29.959  1.00  0.00     0.167 HD
ATOM     59  C   UNL A   1      45.590  25.884  29.460  1.00  0.00     0.074 A 
ATOM     60  C   UNL A   1      45.894  24.539  29.013  1.00  0.00     0.031 C 
ATOM     61  C   UNL A   1      46.483  26.710  30.056  1.00  0.00     0.031 A 
BRANCH  48  62
ATOM     62  C   UNL A   1      44.218  32.264  31.506  1.00  0.00    -0.014 A 
ATOM     63  C   UNL A   1      44.568  33.340  30.675  1.00  0.00     0.009 A 
ATOM     64  C   UNL A   1      44.077  32.483  32.885  1.00  0.00     0.009 A 
ATOM     65  C   UNL A   1      44.803  34.604  31.219  1.00  0.00     0.001 A 
ATOM     66  C   UNL A   1      44.292  33.752  33.422  1.00  0.00     0.001 A 
ATOM     67  C   UNL A   1      44.662  34.809  32.591  1.00  0.00     0.000 A 
ENDBRANCH  48  62
BRANCH  49  68
ATOM     68  C   UNL A   1      42.137  23.372  27.506  1.00  0.00    -0.014 A 
ATOM     69  C   UNL A   1      42.442  23.090  26.166  1.00  0.00     0.009 A 
ATOM     70  C   UNL A   1      41.555  22.372  28.298  1.00  0.00     0.009 A 
ATOM     71  C   UNL A   1      42.155  21.835  25.625  1.00  0.00     0.001 A 
ATOM     72  C   UNL A   1      41.285  21.112  27.758  1.00  0.00     0.001 A 
ATOM     73  C   UNL A   1      41.581  20.846  26.423  1.00  0.00     0.000 A 
ENDBRANCH  49  68
BRANCH  61  74
ATOM     74  C   UNL A   1      47.869  26.184  30.277  1.00  0.00    -0.014 A 
ATOM     75  C   UNL A   1      48.826  26.232  29.252  1.00  0.00     0.009 A 
ATOM     76  C   UNL A   1      48.241  25.708  31.543  1.00  0.00     0.009 A 
ATOM     77  C   UNL A   1      50.132  25.802  29.491  1.00  0.00     0.001 A 
ATOM     78  C   UNL A   1      49.552  25.295  31.783  1.00  0.00     0.001 A 
ATOM     79  C   UNL A   1      50.495  25.341  30.757  1.00  0.00     0.000 A 
ENDBRANCH  61  74
ENDBRANCH  35  36
ENDBRANCH  27  30
ENDBRANCH  25  26
ENDBRANCH   1  25
TORSDOF 12
ENDMDL
MODEL 3
REMARK VINA RESULT:     -11.5      2.792      7.813
REMARK SMILES Cc1c(Cl)cc2c(c1C)O[C@H](C(F)(F)F)C(C(=O)NCCCCNC(=O)c1ccc(-c3c4nc(c(-c5ccccc5)c5ccc([nH]5)c(-c5ccccc5)c5nc(c(-c6ccccc6)c6ccc3[nH]6)C=C5)C=C4)cc1)=C2
REMARK SMILES IDX 22 1 21 2 20 3 19 4 17 5 18 6 16 8 1 9 2 10 3 11 8 12 4 13
REMARK SMILES IDX 5 14 7 15 9 16 6 17 10 18 75 19 11 20 12 21 13 22 14 23
REMARK SMILES IDX 15 24 23 25 24 26 25 27 26 29 27 30 28 31 74 32 29 33 73 34
REMARK SMILES IDX 30 35 31 36 32 37 67 38 33 39 72 40 66 41 68 42 34 43 71 44
REMARK SMILES IDX 65 45 64 46 35 48 57 49 42 50 56 51 43 52 46 53 55 54 69 55
REMARK SMILES IDX 44 56 45 57 54 59 70 60 47 61 36 62 37 63 41 64 38 65 40 66
REMARK SMILES IDX 39 67 58 68 59 69 63 70 60 71 62 72 61 73 48 74 49 75 53 76
REMARK SMILES IDX 50 77 52 78 51 79
REMARK H PARENT 19 7 24 28 68 47 46 58
REMARK Flexibility Score: inf
ROOT
ATOM      1  C   UNL A   1      32.961  29.055  26.021  1.00  0.00     0.023 C 
ENDROOT
BRANCH   1   2
ATOM      2  C   UNL A   1      33.380  28.121  24.883  1.00  0.00     0.023 C 
BRANCH   2   3
ATOM      3  C   UNL A   1      32.236  27.299  24.297  1.00  0.00     0.116 C 
BRANCH   3   4
ATOM      4  N   UNL A   1      31.435  26.666  25.330  1.00  0.00    -0.352 N 
ATOM      5  C   UNL A   1      31.379  25.453  25.927  1.00  0.00     0.251 C 
ATOM      6  O   UNL A   1      30.497  25.332  26.784  1.00  0.00    -0.270 OA
ATOM      7  H   UNL A   1      30.754  27.280  25.688  1.00  0.00     0.163 HD
BRANCH   5   8
ATOM      8  C   UNL A   1      32.279  24.300  25.627  1.00  0.00     0.067 C 
ATOM      9  C   UNL A   1      37.307  20.121  25.047  1.00  0.00     0.046 C 
ATOM     10  C   UNL A   1      36.304  21.232  25.249  1.00  0.00    -0.026 A 
ATOM     11  C   UNL A   1      36.760  22.496  25.688  1.00  0.00     0.045 A 
ATOM     12  C   UNL A   1      34.913  21.040  25.077  1.00  0.00    -0.004 A 
ATOM     13  Cl  UNL A   1      38.437  22.811  25.991  1.00  0.00    -0.084 Cl
ATOM     14  C   UNL A   1      35.874  23.553  25.921  1.00  0.00     0.032 A 
ATOM     15  C   UNL A   1      34.040  22.127  25.305  1.00  0.00     0.131 A 
ATOM     16  C   UNL A   1      34.289  19.732  24.656  1.00  0.00     0.049 C 
ATOM     17  C   UNL A   1      34.507  23.372  25.728  1.00  0.00     0.019 A 
ATOM     18  O   UNL A   1      32.698  21.892  25.151  1.00  0.00    -0.475 OA
ATOM     19  C   UNL A   1      33.560  24.445  26.011  1.00  0.00     0.025 C 
ATOM     20  C   UNL A   1      31.857  23.052  24.906  1.00  0.00     0.314 C 
BRANCH  20  21
ATOM     21  C   UNL A   1      31.704  23.264  23.388  1.00  0.00     0.429 C 
ATOM     22  F   UNL A   1      30.451  23.694  23.094  1.00  0.00    -0.167 F 
ATOM     23  F   UNL A   1      32.552  24.205  22.909  1.00  0.00    -0.167 F 
ATOM     24  F   UNL A   1      31.925  22.136  22.677  1.00  0.00    -0.167 F 
ENDBRANCH  20  21
ENDBRANCH   5   8
ENDBRANCH   3   4
ENDBRANCH   2   3
ENDBRANCH   1   2
BRANCH   1  25
ATOM     25  C   UNL A   1      33.867  29.039  27.251  1.00  0.00     0.116 C 
BRANCH  25  26
ATOM     26  N   UNL A   1      33.870  30.285  28.005  1.00  0.00    -0.352 N 
ATOM     27  C   UNL A   1      34.913  30.830  28.717  1.00  0.00     0.251 C 
ATOM     28  H   UNL A   1      33.029  30.796  28.004  1.00  0.00     0.163 HD
ATOM     29  O   UNL A   1      34.774  31.865  29.359  1.00  0.00    -0.269 OA
BRANCH  27  30
ATOM     30  C   UNL A   1      36.193  30.102  28.737  1.00  0.00     0.039 A 
ATOM     31  C   UNL A   1      37.003  30.143  27.601  1.00  0.00     0.014 A 
ATOM     32  C   UNL A   1      36.633  29.490  29.914  1.00  0.00     0.014 A 
ATOM     33  C   UNL A   1      38.301  29.642  27.673  1.00  0.00     0.010 A 
ATOM     34  C   UNL A   1      37.946  29.043  30.000  1.00  0.00     0.010 A 
ATOM     35  C   UNL A   1      38.794  29.131  28.886  1.00  0.00    -0.014 A 
BRANCH  35  36
ATOM     36  C   UNL A   1      40.210  28.718  29.011  1.00  0.00     0.031 A 
ATOM     37  C   UNL A   1      40.631  27.335  28.610  1.00  0.00     0.074 A 
ATOM     38  C   UNL A   1      41.107  29.577  29.534  1.00  0.00     0.049 A 
ATOM     39  N   UNL A   1      41.820  26.793  28.658  1.00  0.00    -0.248 NA
ATOM     40  C   UNL A   1      39.577  26.440  28.108  1.00  0.00     0.031 C 
ATOM     41  C   UNL A   1      40.811  30.933  30.003  1.00  0.00     0.029 A 
ATOM     42  N   UNL A   1      42.453  29.436  29.755  1.00  0.00    -0.354 N 
ATOM     43  C   UNL A   1      41.656  25.492  28.204  1.00  0.00     0.074 A 
ATOM     44  C   UNL A   1      40.247  25.312  27.927  1.00  0.00     0.031 C 
ATOM     45  C   UNL A   1      41.949  31.512  30.417  1.00  0.00     0.029 A 
ATOM     46  C   UNL A   1      43.048  30.563  30.268  1.00  0.00     0.049 A 
ATOM     47  H   UNL A   1      42.947  28.605  29.563  1.00  0.00     0.167 HD
ATOM     48  C   UNL A   1      42.596  24.539  28.013  1.00  0.00     0.031 A 
ATOM     49  C   UNL A   1      44.335  30.807  30.573  1.00  0.00     0.031 A 
ATOM     50  C   UNL A   1      43.998  24.722  28.268  1.00  0.00     0.049 A 
ATOM     51  C   UNL A   1      45.361  29.733  30.353  1.00  0.00     0.074 A 
ATOM     52  C   UNL A   1      45.036  23.833  28.050  1.00  0.00     0.029 A 
ATOM     53  N   UNL A   1      44.557  25.874  28.796  1.00  0.00    -0.354 N 
ATOM     54  N   UNL A   1      45.198  28.527  29.868  1.00  0.00    -0.248 NA
ATOM     55  C   UNL A   1      46.748  30.056  30.718  1.00  0.00     0.031 C 
ATOM     56  C   UNL A   1      46.224  24.440  28.474  1.00  0.00     0.029 A 
ATOM     57  C   UNL A   1      45.925  25.716  28.925  1.00  0.00     0.049 A 
ATOM     58  H   UNL A   1      44.056  26.684  29.041  1.00  0.00     0.167 HD
ATOM     59  C   UNL A   1      46.460  27.952  29.851  1.00  0.00     0.074 A 
ATOM     60  C   UNL A   1      47.382  28.944  30.367  1.00  0.00     0.031 C 
ATOM     61  C   UNL A   1      46.824  26.713  29.442  1.00  0.00     0.031 A 
BRANCH  48  62
ATOM     62  C   UNL A   1      42.131  23.214  27.487  1.00  0.00    -0.014 A 
ATOM     63  C   UNL A   1      42.289  22.883  26.132  1.00  0.00     0.009 A 
ATOM     64  C   UNL A   1      41.551  22.278  28.357  1.00  0.00     0.009 A 
ATOM     65  C   UNL A   1      41.845  21.651  25.651  1.00  0.00     0.001 A 
ATOM     66  C   UNL A   1      41.128  21.039  27.876  1.00  0.00     0.001 A 
ATOM     67  C   UNL A   1      41.268  20.729  26.524  1.00  0.00     0.000 A 
ENDBRANCH  48  62
BRANCH  49  68
ATOM     68  C   UNL A   1      44.734  32.143  31.079  1.00  0.00    -0.014 A 
ATOM     69  C   UNL A   1      44.736  32.400  32.458  1.00  0.00     0.009 A 
ATOM     70  C   UNL A   1      45.130  33.158  30.196  1.00  0.00     0.009 A 
ATOM     71  C   UNL A   1      45.111  33.653  32.943  1.00  0.00     0.001 A 
ATOM     72  C   UNL A   1      45.522  34.406  30.686  1.00  0.00     0.001 A 
ATOM     73  C   UNL A   1      45.508  34.654  32.058  1.00  0.00     0.000 A 
ENDBRANCH  49  68
BRANCH  61  74
ATOM     74  C   UNL A   1      48.278  26.360  29.519  1.00  0.00    -0.014 A 
ATOM     75  C   UNL A   1      49.146  26.657  28.457  1.00  0.00     0.009 A 
ATOM     76  C   UNL A   1      48.798  25.797  30.694  1.00  0.00     0.009 A 
ATOM     77  C   UNL A   1      50.510  26.386  28.569  1.00  0.00     0.001 A 
ATOM     78  C   UNL A   1      50.165  25.544  30.809  1.00  0.00     0.001 A 
ATOM     79  C   UNL A   1      51.019  25.836  29.746  1.00  0.00     0.000 A 
ENDBRANCH  61  74
ENDBRANCH  35  36
ENDBRANCH  27  30
ENDBRANCH  25  26
ENDBRANCH   1  25
TORSDOF 12
ENDMDL
