MODEL 1
REMARK VINA RESULT:      -9.7      0.000      0.000
REMARK SMILES C[NH+]1CCN(c2nc3c(cc2F)c(=O)c(C(=O)NCCCCNC(=O)c2ccc(-c4c5nc(c(-c6ccccc6)c6ccc([nH]6)c(-c6ccccc6)c6nc(c(-c7ccccc7)c7ccc4[nH]7)C=C6)C=C5)cc2)cn3-c2ccc(F)cc2F)CC1
REMARK SMILES IDX 21 1 20 2 19 3 18 4 16 5 17 6 15 8 6 9 7 10 11 11 8 12 10 13
REMARK SMILES IDX 12 14 9 15 75 16 13 17 74 18 14 19 5 20 1 21 2 22 3 23 85 24
REMARK SMILES IDX 4 26 84 27 76 28 77 29 82 30 78 31 81 32 83 33 79 34 80 35
REMARK SMILES IDX 22 36 23 37 24 38 25 40 26 41 27 42 73 43 28 44 72 45 29 46
REMARK SMILES IDX 30 47 31 48 66 49 32 50 71 51 65 52 67 53 33 54 70 55 64 56
REMARK SMILES IDX 63 57 34 59 56 60 41 61 55 62 42 63 45 64 54 65 68 66 43 67
REMARK SMILES IDX 44 68 53 70 69 71 46 72 35 73 36 74 40 75 37 76 39 77 38 78
REMARK SMILES IDX 57 79 58 80 62 81 59 82 61 83 60 84 47 85 48 86 52 87 49 88
REMARK SMILES IDX 51 89 50 90
REMARK H PARENT 18 7 2 25 23 39 67 58 45 69
REMARK Flexibility Score: inf
ROOT
ATOM      1  C   UNL A   1      41.723  22.069  26.218  1.00  0.00     0.023 C 
ENDROOT
BRANCH   1   2
ATOM      2  C   UNL A   1      42.642  22.958  27.050  1.00  0.00     0.023 C 
BRANCH   2   3
ATOM      3  C   UNL A   1      44.132  22.618  26.950  1.00  0.00     0.116 C 
BRANCH   3   4
ATOM      4  N   UNL A   1      44.561  22.557  25.568  1.00  0.00    -0.352 N 
ATOM      5  C   UNL A   1      44.971  23.523  24.702  1.00  0.00     0.256 C 
ATOM      6  O   UNL A   1      45.285  23.139  23.571  1.00  0.00    -0.269 OA
ATOM      7  H   UNL A   1      44.556  21.651  25.185  1.00  0.00     0.163 HD
BRANCH   5   8
ATOM      8  C   UNL A   1      45.121  24.959  25.072  1.00  0.00     0.104 A 
ATOM      9  C   UNL A   1      45.130  29.722  26.856  1.00  0.00     0.167 A 
ATOM     10  N   UNL A   1      46.102  28.872  26.433  1.00  0.00    -0.209 NA
ATOM     11  C   UNL A   1      43.785  29.346  26.826  1.00  0.00     0.166 A 
ATOM     12  C   UNL A   1      45.772  27.634  25.986  1.00  0.00     0.151 A 
ATOM     13  C   UNL A   1      43.425  28.119  26.306  1.00  0.00     0.059 A 
ATOM     14  F   UNL A   1      42.818  30.185  27.230  1.00  0.00    -0.203 F 
ATOM     15  C   UNL A   1      44.434  27.263  25.871  1.00  0.00     0.069 A 
ATOM     16  N   UNL A   1      46.783  26.687  25.613  1.00  0.00    -0.297 N 
ATOM     17  C   UNL A   1      44.080  25.997  25.218  1.00  0.00     0.203 A 
ATOM     18  C   UNL A   1      46.380  25.405  25.241  1.00  0.00     0.111 A 
ATOM     19  O   UNL A   1      42.940  25.898  24.783  1.00  0.00    -0.288 OA
BRANCH   9  20
ATOM     20  N   UNL A   1      45.527  30.963  27.278  1.00  0.00    -0.343 N 
ATOM     21  C   UNL A   1      44.105  34.861  28.177  1.00  0.00     0.332 C 
ATOM     22  N   UNL A   1      44.987  33.717  27.960  1.00  0.00    -0.334 N 
ATOM     23  C   UNL A   1      44.893  33.233  26.562  1.00  0.00     0.283 C 
ATOM     24  C   UNL A   1      44.640  32.615  28.888  1.00  0.00     0.283 C 
ATOM     25  H   UNL A   1      45.944  34.022  28.139  1.00  0.00     0.347 HD
ATOM     26  C   UNL A   1      45.798  32.003  26.289  1.00  0.00     0.179 C 
ATOM     27  C   UNL A   1      45.521  31.366  28.679  1.00  0.00     0.179 C 
ENDBRANCH   9  20
BRANCH  16  28
ATOM     28  C   UNL A   1      48.177  26.994  25.674  1.00  0.00     0.083 A 
ATOM     29  C   UNL A   1      48.877  27.405  24.527  1.00  0.00     0.033 A 
ATOM     30  C   UNL A   1      48.890  26.908  26.885  1.00  0.00     0.150 A 
ATOM     31  C   UNL A   1      50.237  27.720  24.597  1.00  0.00     0.041 A 
ATOM     32  C   UNL A   1      50.246  27.208  26.960  1.00  0.00     0.080 A 
ATOM     33  F   UNL A   1      48.267  26.503  28.003  1.00  0.00    -0.205 F 
ATOM     34  C   UNL A   1      50.906  27.614  25.811  1.00  0.00     0.126 A 
ATOM     35  F   UNL A   1      52.211  27.910  25.871  1.00  0.00    -0.207 F 
ENDBRANCH  16  28
ENDBRANCH   5   8
ENDBRANCH   3   4
ENDBRANCH   2   3
ENDBRANCH   1   2
BRANCH   1  36
ATOM     36  C   UNL A   1      40.396  21.732  26.881  1.00  0.00     0.116 C 
BRANCH  36  37
ATOM     37  N   UNL A   1      39.237  22.080  26.071  1.00  0.00    -0.352 N 
ATOM     38  C   UNL A   1      38.601  23.295  26.001  1.00  0.00     0.251 C 
ATOM     39  H   UNL A   1      38.868  21.362  25.508  1.00  0.00     0.163 HD
ATOM     40  O   UNL A   1      37.590  23.452  25.326  1.00  0.00    -0.269 OA
BRANCH  38  41
ATOM     41  C   UNL A   1      39.145  24.406  26.799  1.00  0.00     0.039 A 
ATOM     42  C   UNL A   1      39.921  25.375  26.160  1.00  0.00     0.014 A 
ATOM     43  C   UNL A   1      38.795  24.532  28.148  1.00  0.00     0.014 A 
ATOM     44  C   UNL A   1      40.301  26.515  26.865  1.00  0.00     0.010 A 
ATOM     45  C   UNL A   1      39.132  25.694  28.831  1.00  0.00     0.010 A 
ATOM     46  C   UNL A   1      39.884  26.692  28.193  1.00  0.00    -0.014 A 
BRANCH  46  47
ATOM     47  C   UNL A   1      40.252  27.910  28.947  1.00  0.00     0.031 A 
ATOM     48  C   UNL A   1      41.602  27.996  29.594  1.00  0.00     0.074 A 
ATOM     49  C   UNL A   1      39.361  28.908  29.086  1.00  0.00     0.049 A 
ATOM     50  N   UNL A   1      42.102  28.957  30.326  1.00  0.00    -0.248 NA
ATOM     51  C   UNL A   1      42.501  26.845  29.410  1.00  0.00     0.031 C 
ATOM     52  C   UNL A   1      38.011  28.929  28.520  1.00  0.00     0.029 A 
ATOM     53  N   UNL A   1      39.464  30.105  29.748  1.00  0.00    -0.354 N 
ATOM     54  C   UNL A   1      43.366  28.522  30.698  1.00  0.00     0.074 A 
ATOM     55  C   UNL A   1      43.544  27.198  30.146  1.00  0.00     0.031 C 
ATOM     56  C   UNL A   1      37.422  30.094  28.834  1.00  0.00     0.029 A 
ATOM     57  C   UNL A   1      38.341  30.889  29.644  1.00  0.00     0.049 A 
ATOM     58  H   UNL A   1      40.265  30.376  30.251  1.00  0.00     0.167 HD
ATOM     59  C   UNL A   1      44.303  29.177  31.420  1.00  0.00     0.031 A 
ATOM     60  C   UNL A   1      38.087  32.114  30.141  1.00  0.00     0.031 A 
ATOM     61  C   UNL A   1      44.138  30.502  31.945  1.00  0.00     0.049 A 
ATOM     62  C   UNL A   1      39.137  32.812  30.958  1.00  0.00     0.074 A 
ATOM     63  C   UNL A   1      45.057  31.275  32.632  1.00  0.00     0.029 A 
ATOM     64  N   UNL A   1      42.978  31.251  31.838  1.00  0.00    -0.354 N 
ATOM     65  N   UNL A   1      40.345  32.408  31.262  1.00  0.00    -0.248 NA
ATOM     66  C   UNL A   1      38.787  34.132  31.501  1.00  0.00     0.031 C 
ATOM     67  C   UNL A   1      44.441  32.483  32.970  1.00  0.00     0.029 A 
ATOM     68  C   UNL A   1      43.150  32.471  32.465  1.00  0.00     0.049 A 
ATOM     69  H   UNL A   1      42.155  30.959  31.383  1.00  0.00     0.167 HD
ATOM     70  C   UNL A   1      40.909  33.430  32.012  1.00  0.00     0.074 A 
ATOM     71  C   UNL A   1      39.911  34.475  32.119  1.00  0.00     0.031 C 
ATOM     72  C   UNL A   1      42.145  33.496  32.559  1.00  0.00     0.031 A 
BRANCH  59  73
ATOM     73  C   UNL A   1      45.595  28.465  31.678  1.00  0.00    -0.014 A 
ATOM     74  C   UNL A   1      46.668  28.575  30.780  1.00  0.00     0.009 A 
ATOM     75  C   UNL A   1      45.757  27.711  32.850  1.00  0.00     0.009 A 
ATOM     76  C   UNL A   1      47.874  27.923  31.041  1.00  0.00     0.001 A 
ATOM     77  C   UNL A   1      46.970  27.076  33.117  1.00  0.00     0.001 A 
ATOM     78  C   UNL A   1      48.025  27.179  32.211  1.00  0.00     0.000 A 
ENDBRANCH  59  73
BRANCH  60  79
ATOM     79  C   UNL A   1      36.792  32.775  29.846  1.00  0.00    -0.014 A 
ATOM     80  C   UNL A   1      35.736  32.691  30.764  1.00  0.00     0.009 A 
ATOM     81  C   UNL A   1      36.611  33.504  28.661  1.00  0.00     0.009 A 
ATOM     82  C   UNL A   1      34.517  33.317  30.498  1.00  0.00     0.001 A 
ATOM     83  C   UNL A   1      35.395  34.142  28.404  1.00  0.00     0.001 A 
ATOM     84  C   UNL A   1      34.348  34.045  29.321  1.00  0.00     0.000 A 
ENDBRANCH  60  79
BRANCH  72  85
ATOM     85  C   UNL A   1      42.508  34.742  33.311  1.00  0.00    -0.014 A 
ATOM     86  C   UNL A   1      43.114  35.822  32.655  1.00  0.00     0.009 A 
ATOM     87  C   UNL A   1      42.142  34.871  34.659  1.00  0.00     0.009 A 
ATOM     88  C   UNL A   1      43.351  37.015  33.342  1.00  0.00     0.001 A 
ATOM     89  C   UNL A   1      42.367  36.070  35.337  1.00  0.00     0.001 A 
ATOM     90  C   UNL A   1      42.970  37.139  34.678  1.00  0.00     0.000 A 
ENDBRANCH  72  85
ENDBRANCH  46  47
ENDBRANCH  38  41
ENDBRANCH  36  37
ENDBRANCH   1  36
TORSDOF 13
ENDMDL
MODEL 2
REMARK VINA RESULT:      -9.5      3.792     10.345
REMARK SMILES C[NH+]1CCN(c2nc3c(cc2F)c(=O)c(C(=O)NCCCCNC(=O)c2ccc(-c4c5nc(c(-c6ccccc6)c6ccc([nH]6)c(-c6ccccc6)c6nc(c(-c7ccccc7)c7ccc4[nH]7)C=C6)C=C5)cc2)cn3-c2ccc(F)cc2F)CC1
REMARK SMILES IDX 21 1 20 2 19 3 18 4 16 5 17 6 15 8 6 9 7 10 11 11 8 12 10 13
REMARK SMILES IDX 12 14 9 15 75 16 13 17 74 18 14 19 5 20 1 21 2 22 3 23 85 24
REMARK SMILES IDX 4 26 84 27 76 28 77 29 82 30 78 31 81 32 83 33 79 34 80 35
REMARK SMILES IDX 22 36 23 37 24 38 25 40 26 41 27 42 73 43 28 44 72 45 29 46
REMARK SMILES IDX 30 47 31 48 66 49 32 50 71 51 65 52 67 53 33 54 70 55 64 56
REMARK SMILES IDX 63 57 34 59 56 60 41 61 55 62 42 63 45 64 54 65 68 66 43 67
REMARK SMILES IDX 44 68 53 70 69 71 46 72 35 73 36 74 40 75 37 76 39 77 38 78
REMARK SMILES IDX 57 79 58 80 62 81 59 82 61 83 60 84 47 85 48 86 52 87 49 88
REMARK SMILES IDX 51 89 50 90
REMARK H PARENT 18 7 2 25 23 39 67 58 45 69
REMARK Flexibility Score: inf
ROOT
ATOM      1  C   UNL A   1      35.337  33.156  28.168  1.00  0.00     0.023 C 
ENDROOT
BRANCH   1   2
ATOM      2  C   UNL A   1      36.750  33.408  28.680  1.00  0.00     0.023 C 
BRANCH   2   3
ATOM      3  C   UNL A   1      36.883  34.578  29.659  1.00  0.00     0.116 C 
BRANCH   3   4
ATOM      4  N   UNL A   1      35.802  34.576  30.624  1.00  0.00    -0.352 N 
ATOM      5  C   UNL A   1      35.666  33.967  31.833  1.00  0.00     0.256 C 
ATOM      6  O   UNL A   1      34.604  34.174  32.427  1.00  0.00    -0.269 OA
ATOM      7  H   UNL A   1      35.023  35.114  30.357  1.00  0.00     0.163 HD
BRANCH   5   8
ATOM      8  C   UNL A   1      36.737  33.153  32.476  1.00  0.00     0.104 A 
ATOM      9  C   UNL A   1      40.481  30.070  34.006  1.00  0.00     0.167 A 
ATOM     10  N   UNL A   1      40.166  31.367  34.258  1.00  0.00    -0.209 NA
ATOM     11  C   UNL A   1      39.673  29.282  33.184  1.00  0.00     0.166 A 
ATOM     12  C   UNL A   1      39.060  31.917  33.696  1.00  0.00     0.151 A 
ATOM     13  C   UNL A   1      38.505  29.803  32.663  1.00  0.00     0.059 A 
ATOM     14  F   UNL A   1      39.970  27.996  32.941  1.00  0.00    -0.203 F 
ATOM     15  C   UNL A   1      38.195  31.133  32.937  1.00  0.00     0.069 A 
ATOM     16  N   UNL A   1      38.750  33.306  33.876  1.00  0.00    -0.297 N 
ATOM     17  C   UNL A   1      36.912  31.686  32.487  1.00  0.00     0.203 A 
ATOM     18  C   UNL A   1      37.645  33.828  33.204  1.00  0.00     0.111 A 
ATOM     19  O   UNL A   1      36.036  30.884  32.192  1.00  0.00    -0.288 OA
BRANCH   9  20
ATOM     20  N   UNL A   1      41.599  29.569  34.618  1.00  0.00    -0.343 N 
ATOM     21  C   UNL A   1      43.633  25.962  35.556  1.00  0.00     0.332 C 
ATOM     22  N   UNL A   1      43.273  27.375  35.470  1.00  0.00    -0.334 N 
ATOM     23  C   UNL A   1      41.949  27.623  36.088  1.00  0.00     0.283 C 
ATOM     24  C   UNL A   1      43.248  27.817  34.056  1.00  0.00     0.283 C 
ATOM     25  H   UNL A   1      43.980  27.908  35.979  1.00  0.00     0.347 HD
ATOM     26  C   UNL A   1      41.514  29.111  36.002  1.00  0.00     0.179 C 
ATOM     27  C   UNL A   1      42.841  29.297  33.905  1.00  0.00     0.179 C 
ENDBRANCH   9  20
BRANCH  16  28
ATOM     28  C   UNL A   1      39.568  34.176  34.661  1.00  0.00     0.083 A 
ATOM     29  C   UNL A   1      39.336  34.339  36.038  1.00  0.00     0.033 A 
ATOM     30  C   UNL A   1      40.639  34.886  34.086  1.00  0.00     0.150 A 
ATOM     31  C   UNL A   1      40.150  35.178  36.804  1.00  0.00     0.041 A 
ATOM     32  C   UNL A   1      41.446  35.732  34.839  1.00  0.00     0.080 A 
ATOM     33  F   UNL A   1      40.888  34.775  32.772  1.00  0.00    -0.205 F 
ATOM     34  C   UNL A   1      41.193  35.867  36.195  1.00  0.00     0.126 A 
ATOM     35  F   UNL A   1      41.966  36.676  36.932  1.00  0.00    -0.207 F 
ENDBRANCH  16  28
ENDBRANCH   5   8
ENDBRANCH   3   4
ENDBRANCH   2   3
ENDBRANCH   1   2
BRANCH   1  36
ATOM     36  C   UNL A   1      34.522  32.184  29.007  1.00  0.00     0.116 C 
BRANCH  36  37
ATOM     37  N   UNL A   1      33.923  31.107  28.232  1.00  0.00    -0.352 N 
ATOM     38  C   UNL A   1      34.539  29.973  27.762  1.00  0.00     0.251 C 
ATOM     39  H   UNL A   1      32.966  31.201  28.021  1.00  0.00     0.163 HD
ATOM     40  O   UNL A   1      33.944  29.161  27.063  1.00  0.00    -0.269 OA
BRANCH  38  41
ATOM     41  C   UNL A   1      35.961  29.776  28.087  1.00  0.00     0.039 A 
ATOM     42  C   UNL A   1      36.297  29.233  29.329  1.00  0.00     0.014 A 
ATOM     43  C   UNL A   1      36.940  30.033  27.121  1.00  0.00     0.014 A 
ATOM     44  C   UNL A   1      37.623  28.887  29.583  1.00  0.00     0.010 A 
ATOM     45  C   UNL A   1      38.251  29.639  27.359  1.00  0.00     0.010 A 
ATOM     46  C   UNL A   1      38.599  29.062  28.590  1.00  0.00    -0.014 A 
BRANCH  46  47
ATOM     47  C   UNL A   1      40.004  28.672  28.832  1.00  0.00     0.031 A 
ATOM     48  C   UNL A   1      40.937  29.646  29.486  1.00  0.00     0.074 A 
ATOM     49  C   UNL A   1      40.447  27.469  28.422  1.00  0.00     0.049 A 
ATOM     50  N   UNL A   1      42.210  29.513  29.754  1.00  0.00    -0.248 NA
ATOM     51  C   UNL A   1      40.370  30.948  29.876  1.00  0.00     0.031 C 
ATOM     52  C   UNL A   1      39.639  26.447  27.755  1.00  0.00     0.029 A 
ATOM     53  N   UNL A   1      41.693  26.904  28.513  1.00  0.00    -0.354 N 
ATOM     54  C   UNL A   1      42.597  30.713  30.330  1.00  0.00     0.074 A 
ATOM     55  C   UNL A   1      41.438  31.578  30.342  1.00  0.00     0.031 C 
ATOM     56  C   UNL A   1      40.403  25.366  27.525  1.00  0.00     0.029 A 
ATOM     57  C   UNL A   1      41.758  25.630  28.002  1.00  0.00     0.049 A 
ATOM     58  H   UNL A   1      42.468  27.365  28.906  1.00  0.00     0.167 HD
ATOM     59  C   UNL A   1      43.808  31.058  30.825  1.00  0.00     0.031 A 
ATOM     60  C   UNL A   1      42.793  24.773  27.933  1.00  0.00     0.031 A 
ATOM     61  C   UNL A   1      44.951  30.191  30.839  1.00  0.00     0.049 A 
ATOM     62  C   UNL A   1      44.132  25.187  28.471  1.00  0.00     0.074 A 
ATOM     63  C   UNL A   1      46.202  30.428  31.380  1.00  0.00     0.029 A 
ATOM     64  N   UNL A   1      44.981  28.919  30.290  1.00  0.00    -0.354 N 
ATOM     65  N   UNL A   1      44.472  26.308  29.057  1.00  0.00    -0.248 NA
ATOM     66  C   UNL A   1      45.231  24.219  28.336  1.00  0.00     0.031 C 
ATOM     67  C   UNL A   1      47.001  29.309  31.130  1.00  0.00     0.029 A 
ATOM     68  C   UNL A   1      46.236  28.367  30.461  1.00  0.00     0.049 A 
ATOM     69  H   UNL A   1      44.222  28.476  29.846  1.00  0.00     0.167 HD
ATOM     70  C   UNL A   1      45.815  26.175  29.380  1.00  0.00     0.074 A 
ATOM     71  C   UNL A   1      46.230  24.864  28.926  1.00  0.00     0.031 C 
ATOM     72  C   UNL A   1      46.628  27.060  30.002  1.00  0.00     0.031 A 
BRANCH  59  73
ATOM     73  C   UNL A   1      43.951  32.435  31.397  1.00  0.00    -0.014 A 
ATOM     74  C   UNL A   1      43.918  32.644  32.784  1.00  0.00     0.009 A 
ATOM     75  C   UNL A   1      44.163  33.528  30.544  1.00  0.00     0.009 A 
ATOM     76  C   UNL A   1      44.073  33.928  33.306  1.00  0.00     0.001 A 
ATOM     77  C   UNL A   1      44.337  34.809  31.070  1.00  0.00     0.001 A 
ATOM     78  C   UNL A   1      44.287  35.008  32.449  1.00  0.00     0.000 A 
ENDBRANCH  59  73
BRANCH  60  79
ATOM     79  C   UNL A   1      42.590  23.417  27.364  1.00  0.00    -0.014 A 
ATOM     80  C   UNL A   1      42.880  23.173  26.014  1.00  0.00     0.009 A 
ATOM     81  C   UNL A   1      42.126  22.363  28.165  1.00  0.00     0.009 A 
ATOM     82  C   UNL A   1      42.700  21.899  25.473  1.00  0.00     0.001 A 
ATOM     83  C   UNL A   1      41.961  21.086  27.624  1.00  0.00     0.001 A 
ATOM     84  C   UNL A   1      42.245  20.856  26.278  1.00  0.00     0.000 A 
ENDBRANCH  60  79
BRANCH  72  85
ATOM     85  C   UNL A   1      48.047  26.647  30.250  1.00  0.00    -0.014 A 
ATOM     86  C   UNL A   1      48.397  25.953  31.417  1.00  0.00     0.009 A 
ATOM     87  C   UNL A   1      49.017  26.859  29.259  1.00  0.00     0.009 A 
ATOM     88  C   UNL A   1      49.700  25.482  31.588  1.00  0.00     0.001 A 
ATOM     89  C   UNL A   1      50.314  26.374  29.427  1.00  0.00     0.001 A 
ATOM     90  C   UNL A   1      50.653  25.686  30.590  1.00  0.00     0.000 A 
ENDBRANCH  72  85
ENDBRANCH  46  47
ENDBRANCH  38  41
ENDBRANCH  36  37
ENDBRANCH   1  36
TORSDOF 13
ENDMDL
MODEL 3
REMARK VINA RESULT:      -9.3      3.829     10.017
REMARK SMILES C[NH+]1CCN(c2nc3c(cc2F)c(=O)c(C(=O)NCCCCNC(=O)c2ccc(-c4c5nc(c(-c6ccccc6)c6ccc([nH]6)c(-c6ccccc6)c6nc(c(-c7ccccc7)c7ccc4[nH]7)C=C6)C=C5)cc2)cn3-c2ccc(F)cc2F)CC1
REMARK SMILES IDX 21 1 20 2 19 3 18 4 16 5 17 6 15 8 6 9 7 10 11 11 8 12 10 13
REMARK SMILES IDX 12 14 9 15 75 16 13 17 74 18 14 19 5 20 1 21 2 22 3 23 85 24
REMARK SMILES IDX 4 26 84 27 76 28 77 29 82 30 78 31 81 32 83 33 79 34 80 35
REMARK SMILES IDX 22 36 23 37 24 38 25 40 26 41 27 42 73 43 28 44 72 45 29 46
REMARK SMILES IDX 30 47 31 48 66 49 32 50 71 51 65 52 67 53 33 54 70 55 64 56
REMARK SMILES IDX 63 57 34 59 56 60 41 61 55 62 42 63 45 64 54 65 68 66 43 67
REMARK SMILES IDX 44 68 53 70 69 71 46 72 35 73 36 74 40 75 37 76 39 77 38 78
REMARK SMILES IDX 57 79 58 80 62 81 59 82 61 83 60 84 47 85 48 86 52 87 49 88
REMARK SMILES IDX 51 89 50 90
REMARK H PARENT 18 7 2 25 23 39 67 58 45 69
REMARK Flexibility Score: inf
ROOT
ATOM      1  C   UNL A   1      35.660  33.011  28.327  1.00  0.00     0.023 C 
ENDROOT
BRANCH   1   2
ATOM      2  C   UNL A   1      37.033  33.082  28.984  1.00  0.00     0.023 C 
BRANCH   2   3
ATOM      3  C   UNL A   1      37.259  34.306  29.876  1.00  0.00     0.116 C 
BRANCH   3   4
ATOM      4  N   UNL A   1      36.227  34.413  30.887  1.00  0.00    -0.352 N 
ATOM      5  C   UNL A   1      36.114  33.872  32.130  1.00  0.00     0.256 C 
ATOM      6  O   UNL A   1      35.095  34.169  32.760  1.00  0.00    -0.269 OA
ATOM      7  H   UNL A   1      35.467  34.981  30.627  1.00  0.00     0.163 HD
BRANCH   5   8
ATOM      8  C   UNL A   1      37.168  33.031  32.766  1.00  0.00     0.104 A 
ATOM      9  C   UNL A   1      40.838  29.848  34.272  1.00  0.00     0.167 A 
ATOM     10  N   UNL A   1      40.562  31.154  34.522  1.00  0.00    -0.209 NA
ATOM     11  C   UNL A   1      40.000  29.080  33.461  1.00  0.00     0.166 A 
ATOM     12  C   UNL A   1      39.467  31.734  33.969  1.00  0.00     0.151 A 
ATOM     13  C   UNL A   1      38.843  29.632  32.949  1.00  0.00     0.059 A 
ATOM     14  F   UNL A   1      40.258  27.785  33.220  1.00  0.00    -0.203 F 
ATOM     15  C   UNL A   1      38.573  30.972  33.221  1.00  0.00     0.069 A 
ATOM     16  N   UNL A   1      39.199  33.132  34.146  1.00  0.00    -0.297 N 
ATOM     17  C   UNL A   1      37.301  31.559  32.781  1.00  0.00     0.203 A 
ATOM     18  C   UNL A   1      38.102  33.682  33.483  1.00  0.00     0.111 A 
ATOM     19  O   UNL A   1      36.400  30.781  32.497  1.00  0.00    -0.288 OA
BRANCH   9  20
ATOM     20  N   UNL A   1      41.948  29.318  34.875  1.00  0.00    -0.343 N 
ATOM     21  C   UNL A   1      43.988  25.673  35.635  1.00  0.00     0.332 C 
ATOM     22  N   UNL A   1      43.620  27.086  35.627  1.00  0.00    -0.334 N 
ATOM     23  C   UNL A   1      42.282  27.289  36.232  1.00  0.00     0.283 C 
ATOM     24  C   UNL A   1      43.620  27.613  34.242  1.00  0.00     0.283 C 
ATOM     25  H   UNL A   1      44.312  27.592  36.181  1.00  0.00     0.347 HD
ATOM     26  C   UNL A   1      41.838  28.776  36.227  1.00  0.00     0.179 C 
ATOM     27  C   UNL A   1      43.206  29.097  34.173  1.00  0.00     0.179 C 
ENDBRANCH   9  20
BRANCH  16  28
ATOM     28  C   UNL A   1      40.048  33.980  34.921  1.00  0.00     0.083 A 
ATOM     29  C   UNL A   1      39.844  34.142  36.302  1.00  0.00     0.033 A 
ATOM     30  C   UNL A   1      41.124  34.670  34.329  1.00  0.00     0.150 A 
ATOM     31  C   UNL A   1      40.688  34.960  37.056  1.00  0.00     0.041 A 
ATOM     32  C   UNL A   1      41.961  35.496  35.071  1.00  0.00     0.080 A 
ATOM     33  F   UNL A   1      41.347  34.561  33.010  1.00  0.00    -0.205 F 
ATOM     34  C   UNL A   1      41.735  35.631  36.432  1.00  0.00     0.126 A 
ATOM     35  F   UNL A   1      42.537  36.420  37.158  1.00  0.00    -0.207 F 
ENDBRANCH  16  28
ENDBRANCH   5   8
ENDBRANCH   3   4
ENDBRANCH   2   3
ENDBRANCH   1   2
BRANCH   1  36
ATOM     36  C   UNL A   1      34.623  32.219  29.109  1.00  0.00     0.116 C 
BRANCH  36  37
ATOM     37  N   UNL A   1      34.040  31.119  28.352  1.00  0.00    -0.352 N 
ATOM     38  C   UNL A   1      34.673  29.987  27.902  1.00  0.00     0.251 C 
ATOM     39  H   UNL A   1      33.082  31.195  28.141  1.00  0.00     0.163 HD
ATOM     40  O   UNL A   1      34.090  29.154  27.218  1.00  0.00    -0.269 OA
BRANCH  38  41
ATOM     41  C   UNL A   1      36.099  29.818  28.229  1.00  0.00     0.039 A 
ATOM     42  C   UNL A   1      36.444  29.325  29.489  1.00  0.00     0.014 A 
ATOM     43  C   UNL A   1      37.072  30.049  27.251  1.00  0.00     0.014 A 
ATOM     44  C   UNL A   1      37.775  29.003  29.752  1.00  0.00     0.010 A 
ATOM     45  C   UNL A   1      38.387  29.679  27.499  1.00  0.00     0.010 A 
ATOM     46  C   UNL A   1      38.745  29.152  28.749  1.00  0.00    -0.014 A 
BRANCH  46  47
ATOM     47  C   UNL A   1      40.156  28.786  29.001  1.00  0.00     0.031 A 
ATOM     48  C   UNL A   1      40.654  27.437  28.578  1.00  0.00     0.074 A 
ATOM     49  C   UNL A   1      40.967  29.644  29.646  1.00  0.00     0.049 A 
ATOM     50  N   UNL A   1      41.840  26.911  28.738  1.00  0.00    -0.248 NA
ATOM     51  C   UNL A   1      39.688  26.555  27.902  1.00  0.00     0.031 C 
ATOM     52  C   UNL A   1      40.590  30.975  30.124  1.00  0.00     0.029 A 
ATOM     53  N   UNL A   1      42.284  29.520  30.008  1.00  0.00    -0.354 N 
ATOM     54  C   UNL A   1      41.759  25.637  28.196  1.00  0.00     0.074 A 
ATOM     55  C   UNL A   1      40.401  25.451  27.735  1.00  0.00     0.031 C 
ATOM     56  C   UNL A   1      41.661  31.558  30.689  1.00  0.00     0.029 A 
ATOM     57  C   UNL A   1      42.789  30.631  30.637  1.00  0.00     0.049 A 
ATOM     58  H   UNL A   1      42.818  28.711  29.833  1.00  0.00     0.167 HD
ATOM     59  C   UNL A   1      42.737  24.710  28.074  1.00  0.00     0.031 A 
ATOM     60  C   UNL A   1      44.024  30.875  31.112  1.00  0.00     0.031 A 
ATOM     61  C   UNL A   1      44.092  24.904  28.506  1.00  0.00     0.049 A 
ATOM     62  C   UNL A   1      45.086  29.822  30.984  1.00  0.00     0.074 A 
ATOM     63  C   UNL A   1      45.169  24.047  28.364  1.00  0.00     0.029 A 
ATOM     64  N   UNL A   1      44.555  26.033  29.160  1.00  0.00    -0.354 N 
ATOM     65  N   UNL A   1      45.008  28.640  30.425  1.00  0.00    -0.248 NA
ATOM     66  C   UNL A   1      46.405  30.135  31.552  1.00  0.00     0.031 C 
ATOM     67  C   UNL A   1      46.280  24.647  28.962  1.00  0.00     0.029 A 
ATOM     68  C   UNL A   1      45.899  25.888  29.448  1.00  0.00     0.049 A 
ATOM     69  H   UNL A   1      44.009  26.821  29.385  1.00  0.00     0.167 HD
ATOM     70  C   UNL A   1      46.270  28.075  30.554  1.00  0.00     0.074 A 
ATOM     71  C   UNL A   1      47.096  29.044  31.245  1.00  0.00     0.031 C 
ATOM     72  C   UNL A   1      46.703  26.864  30.134  1.00  0.00     0.031 A 
BRANCH  59  73
ATOM     73  C   UNL A   1      42.370  23.403  27.442  1.00  0.00    -0.014 A 
ATOM     74  C   UNL A   1      42.640  23.160  26.086  1.00  0.00     0.009 A 
ATOM     75  C   UNL A   1      41.790  22.389  28.218  1.00  0.00     0.009 A 
ATOM     76  C   UNL A   1      42.312  21.930  25.513  1.00  0.00     0.001 A 
ATOM     77  C   UNL A   1      41.481  21.154  27.646  1.00  0.00     0.001 A 
ATOM     78  C   UNL A   1      41.738  20.927  26.295  1.00  0.00     0.000 A 
ENDBRANCH  59  73
BRANCH  60  79
ATOM     79  C   UNL A   1      44.332  32.193  31.721  1.00  0.00    -0.014 A 
ATOM     80  C   UNL A   1      44.288  32.349  33.114  1.00  0.00     0.009 A 
ATOM     81  C   UNL A   1      44.687  33.289  30.921  1.00  0.00     0.009 A 
ATOM     82  C   UNL A   1      44.584  33.584  33.695  1.00  0.00     0.001 A 
ATOM     83  C   UNL A   1      44.998  34.519  31.507  1.00  0.00     0.001 A 
ATOM     84  C   UNL A   1      44.943  34.666  32.893  1.00  0.00     0.000 A 
ENDBRANCH  60  79
BRANCH  72  85
ATOM     85  C   UNL A   1      48.138  26.512  30.387  1.00  0.00    -0.014 A 
ATOM     86  C   UNL A   1      49.132  26.853  29.459  1.00  0.00     0.009 A 
ATOM     87  C   UNL A   1      48.507  25.931  31.608  1.00  0.00     0.009 A 
ATOM     88  C   UNL A   1      50.476  26.614  29.753  1.00  0.00     0.001 A 
ATOM     89  C   UNL A   1      49.851  25.707  31.904  1.00  0.00     0.001 A 
ATOM     90  C   UNL A   1      50.833  26.049  30.977  1.00  0.00     0.000 A 
ENDBRANCH  72  85
ENDBRANCH  46  47
ENDBRANCH  38  41
ENDBRANCH  36  37
ENDBRANCH   1  36
TORSDOF 13
ENDMDL
