MODEL 1
REMARK VINA RESULT:     -12.6      0.000      0.000
REMARK SMILES O=C(NCCCCNC(=O)[C@H]1CC=CC[C@H]1c1nc2cc(Br)ccc2o1)c1ccc(-c2c3nc(c(-c4ccccc4)c4ccc([nH]4)c(-c4ccccc4)c4nc(c(-c5ccccc5)c5ccc2[nH]5)C=C4)C=C3)cc1
REMARK SMILES IDX 5 1 4 2 3 3 1 4 2 5 27 7 28 8 74 9 29 10 73 11 30 12 31 13
REMARK SMILES IDX 32 14 67 15 33 16 72 17 66 18 68 19 34 20 71 21 65 22 64 23
REMARK SMILES IDX 35 25 57 26 42 27 56 28 43 29 46 30 55 31 69 32 44 33 45 34
REMARK SMILES IDX 54 36 70 37 47 38 36 39 37 40 41 41 38 42 40 43 39 44 58 45
REMARK SMILES IDX 59 46 63 47 60 48 62 49 61 50 48 51 49 52 53 53 50 54 52 55
REMARK SMILES IDX 51 56 6 57 7 58 8 59 9 60 10 62 11 63 12 64 16 65 13 66
REMARK SMILES IDX 15 67 14 68 17 69 18 70 26 71 19 72 25 73 20 74 24 75 21 76
REMARK SMILES IDX 23 77 22 78
REMARK H PARENT 3 6 68 24 46 35 8 61
REMARK Flexibility Score: inf
ROOT
ATOM      1  C   UNL A   1      35.238  30.815  27.542  1.00  0.00     0.023 C 
ENDROOT
BRANCH   1   2
ATOM      2  C   UNL A   1      36.312  29.976  28.202  1.00  0.00     0.116 C 
BRANCH   2   3
ATOM      3  N   UNL A   1      37.236  30.799  29.004  1.00  0.00    -0.352 N 
ATOM      4  O   UNL A   1      39.022  31.067  30.398  1.00  0.00    -0.269 OA
ATOM      5  C   UNL A   1      38.509  30.484  29.463  1.00  0.00     0.251 C 
ATOM      6  H   UNL A   1      36.906  31.694  29.247  1.00  0.00     0.163 HD
BRANCH   5   7
ATOM      7  C   UNL A   1      39.226  29.420  28.744  1.00  0.00     0.039 A 
ATOM      8  C   UNL A   1      39.349  29.378  27.357  1.00  0.00     0.014 A 
ATOM      9  C   UNL A   1      39.937  28.554  29.556  1.00  0.00     0.014 A 
ATOM     10  C   UNL A   1      40.286  28.496  26.824  1.00  0.00     0.010 A 
ATOM     11  C   UNL A   1      41.086  28.030  29.055  1.00  0.00     0.010 A 
ATOM     12  C   UNL A   1      41.189  27.853  27.695  1.00  0.00    -0.014 A 
BRANCH  12  13
ATOM     13  C   UNL A   1      42.323  27.065  27.238  1.00  0.00     0.031 A 
ATOM     14  C   UNL A   1      42.005  25.636  27.097  1.00  0.00     0.074 A 
ATOM     15  C   UNL A   1      43.524  27.577  26.879  1.00  0.00     0.049 A 
ATOM     16  N   UNL A   1      42.215  24.746  28.002  1.00  0.00    -0.248 NA
ATOM     17  C   UNL A   1      41.164  25.181  25.981  1.00  0.00     0.031 C 
ATOM     18  C   UNL A   1      43.940  28.981  26.727  1.00  0.00     0.029 A 
ATOM     19  N   UNL A   1      44.651  26.908  26.514  1.00  0.00    -0.354 N 
ATOM     20  C   UNL A   1      41.768  23.555  27.465  1.00  0.00     0.074 A 
ATOM     21  C   UNL A   1      40.937  23.914  26.343  1.00  0.00     0.031 C 
ATOM     22  C   UNL A   1      45.139  29.050  26.105  1.00  0.00     0.029 A 
ATOM     23  C   UNL A   1      45.667  27.706  25.998  1.00  0.00     0.049 A 
ATOM     24  H   UNL A   1      44.741  25.932  26.608  1.00  0.00     0.167 HD
ATOM     25  C   UNL A   1      42.384  22.394  27.815  1.00  0.00     0.031 A 
ATOM     26  C   UNL A   1      46.895  27.303  25.587  1.00  0.00     0.031 A 
ATOM     27  C   UNL A   1      43.227  22.586  28.978  1.00  0.00     0.049 A 
ATOM     28  C   UNL A   1      47.173  26.031  26.286  1.00  0.00     0.074 A 
ATOM     29  C   UNL A   1      43.007  22.994  30.278  1.00  0.00     0.029 A 
ATOM     30  N   UNL A   1      44.563  22.801  28.727  1.00  0.00    -0.354 N 
ATOM     31  N   UNL A   1      47.362  25.950  27.571  1.00  0.00    -0.248 NA
ATOM     32  C   UNL A   1      46.793  24.794  25.627  1.00  0.00     0.031 C 
ATOM     33  C   UNL A   1      44.119  23.829  30.602  1.00  0.00     0.029 A 
ATOM     34  C   UNL A   1      45.016  23.814  29.532  1.00  0.00     0.049 A 
ATOM     35  H   UNL A   1      45.107  22.304  28.073  1.00  0.00     0.167 HD
ATOM     36  C   UNL A   1      46.677  24.805  27.948  1.00  0.00     0.074 A 
ATOM     37  C   UNL A   1      46.453  24.076  26.700  1.00  0.00     0.031 C 
ATOM     38  C   UNL A   1      46.113  24.702  29.188  1.00  0.00     0.031 A 
BRANCH  25  39
ATOM     39  C   UNL A   1      42.598  21.260  26.848  1.00  0.00    -0.014 A 
ATOM     40  C   UNL A   1      43.519  21.303  25.784  1.00  0.00     0.009 A 
ATOM     41  C   UNL A   1      42.062  20.001  27.165  1.00  0.00     0.009 A 
ATOM     42  C   UNL A   1      43.906  20.156  25.087  1.00  0.00     0.001 A 
ATOM     43  C   UNL A   1      42.474  18.844  26.495  1.00  0.00     0.001 A 
ATOM     44  C   UNL A   1      43.399  18.922  25.460  1.00  0.00     0.000 A 
ENDBRANCH  25  39
BRANCH  26  45
ATOM     45  C   UNL A   1      47.623  27.682  24.354  1.00  0.00    -0.014 A 
ATOM     46  C   UNL A   1      46.930  28.218  23.254  1.00  0.00     0.009 A 
ATOM     47  C   UNL A   1      48.927  27.203  24.136  1.00  0.00     0.009 A 
ATOM     48  C   UNL A   1      47.491  28.205  21.971  1.00  0.00     0.001 A 
ATOM     49  C   UNL A   1      49.487  27.189  22.851  1.00  0.00     0.001 A 
ATOM     50  C   UNL A   1      48.760  27.671  21.766  1.00  0.00     0.000 A 
ENDBRANCH  26  45
BRANCH  38  51
ATOM     51  C   UNL A   1      46.505  25.722  30.239  1.00  0.00    -0.014 A 
ATOM     52  C   UNL A   1      45.770  26.918  30.290  1.00  0.00     0.009 A 
ATOM     53  C   UNL A   1      47.645  25.615  31.058  1.00  0.00     0.009 A 
ATOM     54  C   UNL A   1      46.167  27.978  31.107  1.00  0.00     0.001 A 
ATOM     55  C   UNL A   1      48.026  26.668  31.901  1.00  0.00     0.001 A 
ATOM     56  C   UNL A   1      47.293  27.852  31.915  1.00  0.00     0.000 A 
ENDBRANCH  38  51
ENDBRANCH  12  13
ENDBRANCH   5   7
ENDBRANCH   2   3
ENDBRANCH   1   2
BRANCH   1  57
ATOM     57  C   UNL A   1      33.932  30.049  27.273  1.00  0.00     0.023 C 
BRANCH  57  58
ATOM     58  C   UNL A   1      34.071  28.718  26.527  1.00  0.00     0.116 C 
BRANCH  58  59
ATOM     59  N   UNL A   1      33.987  28.824  25.077  1.00  0.00    -0.356 N 
ATOM     60  C   UNL A   1      32.914  28.957  24.237  1.00  0.00     0.224 C 
ATOM     61  H   UNL A   1      34.857  28.796  24.617  1.00  0.00     0.163 HD
ATOM     62  O   UNL A   1      33.138  29.202  23.051  1.00  0.00    -0.275 OA
BRANCH  60  63
ATOM     63  C   UNL A   1      31.495  28.814  24.774  1.00  0.00     0.095 C 
ATOM     64  C   UNL A   1      30.652  30.027  24.304  1.00  0.00     0.041 C 
ATOM     65  C   UNL A   1      30.876  27.423  24.485  1.00  0.00     0.092 C 
ATOM     66  C   UNL A   1      29.470  29.741  23.430  1.00  0.00    -0.030 C 
ATOM     67  C   UNL A   1      30.023  27.331  23.210  1.00  0.00     0.041 C 
ATOM     68  C   UNL A   1      29.182  28.533  22.940  1.00  0.00    -0.030 C 
BRANCH  65  69
ATOM     69  C   UNL A   1      31.873  26.297  24.494  1.00  0.00     0.199 A 
ATOM     70  N   UNL A   1      32.437  25.700  25.528  1.00  0.00    -0.213 NA
ATOM     71  O   UNL A   1      32.270  25.810  23.277  1.00  0.00    -0.440 OA
ATOM     72  C   UNL A   1      33.193  24.705  24.969  1.00  0.00     0.111 A 
ATOM     73  C   UNL A   1      33.092  24.765  23.592  1.00  0.00     0.154 A 
ATOM     74  C   UNL A   1      33.980  23.705  25.554  1.00  0.00     0.048 A 
ATOM     75  C   UNL A   1      33.707  23.877  22.717  1.00  0.00     0.050 A 
ATOM     76  C   UNL A   1      34.568  22.760  24.701  1.00  0.00     0.020 A 
ATOM     77  C   UNL A   1      34.419  22.829  23.311  1.00  0.00     0.019 A 
ATOM     78  Br  UNL A   1      35.587  21.351  25.449  1.00  0.00    -0.051 Br
ENDBRANCH  65  69
ENDBRANCH  60  63
ENDBRANCH  58  59
ENDBRANCH  57  58
ENDBRANCH   1  57
TORSDOF 12
ENDMDL
MODEL 2
REMARK VINA RESULT:     -12.6      3.191      7.984
REMARK SMILES O=C(NCCCCNC(=O)[C@H]1CC=CC[C@H]1c1nc2cc(Br)ccc2o1)c1ccc(-c2c3nc(c(-c4ccccc4)c4ccc([nH]4)c(-c4ccccc4)c4nc(c(-c5ccccc5)c5ccc2[nH]5)C=C4)C=C3)cc1
REMARK SMILES IDX 5 1 4 2 3 3 1 4 2 5 27 7 28 8 74 9 29 10 73 11 30 12 31 13
REMARK SMILES IDX 32 14 67 15 33 16 72 17 66 18 68 19 34 20 71 21 65 22 64 23
REMARK SMILES IDX 35 25 57 26 42 27 56 28 43 29 46 30 55 31 69 32 44 33 45 34
REMARK SMILES IDX 54 36 70 37 47 38 36 39 37 40 41 41 38 42 40 43 39 44 58 45
REMARK SMILES IDX 59 46 63 47 60 48 62 49 61 50 48 51 49 52 53 53 50 54 52 55
REMARK SMILES IDX 51 56 6 57 7 58 8 59 9 60 10 62 11 63 12 64 16 65 13 66
REMARK SMILES IDX 15 67 14 68 17 69 18 70 26 71 19 72 25 73 20 74 24 75 21 76
REMARK SMILES IDX 23 77 22 78
REMARK H PARENT 3 6 68 24 46 35 8 61
REMARK Flexibility Score: inf
ROOT
ATOM      1  C   UNL A   1      39.171  21.083  25.529  1.00  0.00     0.023 C 
ENDROOT
BRANCH   1   2
ATOM      2  C   UNL A   1      39.766  20.148  26.560  1.00  0.00     0.116 C 
BRANCH   2   3
ATOM      3  N   UNL A   1      40.922  19.405  26.026  1.00  0.00    -0.352 N 
ATOM      4  O   UNL A   1      42.913  19.274  24.921  1.00  0.00    -0.269 OA
ATOM      5  C   UNL A   1      42.179  19.882  25.675  1.00  0.00     0.251 C 
ATOM      6  H   UNL A   1      40.784  18.438  25.901  1.00  0.00     0.163 HD
BRANCH   5   7
ATOM      7  C   UNL A   1      42.595  21.155  26.282  1.00  0.00     0.039 A 
ATOM      8  C   UNL A   1      42.685  22.352  25.575  1.00  0.00     0.014 A 
ATOM      9  C   UNL A   1      42.712  21.123  27.661  1.00  0.00     0.014 A 
ATOM     10  C   UNL A   1      42.802  23.526  26.315  1.00  0.00     0.010 A 
ATOM     11  C   UNL A   1      42.419  22.264  28.338  1.00  0.00     0.010 A 
ATOM     12  C   UNL A   1      42.622  23.471  27.712  1.00  0.00    -0.014 A 
BRANCH  12  13
ATOM     13  C   UNL A   1      42.533  24.652  28.557  1.00  0.00     0.031 A 
ATOM     14  C   UNL A   1      41.351  25.477  28.263  1.00  0.00     0.074 A 
ATOM     15  C   UNL A   1      43.376  24.936  29.578  1.00  0.00     0.049 A 
ATOM     16  N   UNL A   1      41.344  26.489  27.469  1.00  0.00    -0.248 NA
ATOM     17  C   UNL A   1      40.017  25.013  28.668  1.00  0.00     0.031 C 
ATOM     18  C   UNL A   1      44.452  24.118  30.163  1.00  0.00     0.029 A 
ATOM     19  N   UNL A   1      43.406  26.047  30.363  1.00  0.00    -0.354 N 
ATOM     20  C   UNL A   1      40.045  26.960  27.476  1.00  0.00     0.074 A 
ATOM     21  C   UNL A   1      39.243  25.898  28.031  1.00  0.00     0.031 C 
ATOM     22  C   UNL A   1      44.875  24.665  31.326  1.00  0.00     0.029 A 
ATOM     23  C   UNL A   1      44.251  25.964  31.465  1.00  0.00     0.049 A 
ATOM     24  H   UNL A   1      42.871  26.849  30.165  1.00  0.00     0.167 HD
ATOM     25  C   UNL A   1      39.818  28.291  27.313  1.00  0.00     0.031 A 
ATOM     26  C   UNL A   1      44.490  26.930  32.386  1.00  0.00     0.031 A 
ATOM     27  C   UNL A   1      41.007  28.961  26.824  1.00  0.00     0.049 A 
ATOM     28  C   UNL A   1      44.170  28.217  31.735  1.00  0.00     0.074 A 
ATOM     29  C   UNL A   1      41.793  28.840  25.695  1.00  0.00     0.029 A 
ATOM     30  N   UNL A   1      41.788  29.576  27.775  1.00  0.00    -0.354 N 
ATOM     31  N   UNL A   1      44.866  28.711  30.752  1.00  0.00    -0.248 NA
ATOM     32  C   UNL A   1      42.820  28.734  31.872  1.00  0.00     0.031 C 
ATOM     33  C   UNL A   1      43.135  28.997  26.156  1.00  0.00     0.029 A 
ATOM     34  C   UNL A   1      43.108  29.307  27.518  1.00  0.00     0.049 A 
ATOM     35  H   UNL A   1      41.452  30.124  28.522  1.00  0.00     0.167 HD
ATOM     36  C   UNL A   1      43.917  29.224  29.882  1.00  0.00     0.074 A 
ATOM     37  C   UNL A   1      42.692  29.317  30.677  1.00  0.00     0.031 C 
ATOM     38  C   UNL A   1      44.143  29.251  28.535  1.00  0.00     0.031 A 
BRANCH  25  39
ATOM     39  C   UNL A   1      38.723  29.027  28.037  1.00  0.00    -0.014 A 
ATOM     40  C   UNL A   1      37.626  29.629  27.391  1.00  0.00     0.009 A 
ATOM     41  C   UNL A   1      38.634  28.889  29.432  1.00  0.00     0.009 A 
ATOM     42  C   UNL A   1      36.491  30.048  28.089  1.00  0.00     0.001 A 
ATOM     43  C   UNL A   1      37.484  29.273  30.130  1.00  0.00     0.001 A 
ATOM     44  C   UNL A   1      36.411  29.848  29.457  1.00  0.00     0.000 A 
ENDBRANCH  25  39
BRANCH  26  45
ATOM     45  C   UNL A   1      44.540  26.802  33.861  1.00  0.00    -0.014 A 
ATOM     46  C   UNL A   1      43.503  26.155  34.556  1.00  0.00     0.009 A 
ATOM     47  C   UNL A   1      45.423  27.606  34.604  1.00  0.00     0.009 A 
ATOM     48  C   UNL A   1      43.310  26.365  35.927  1.00  0.00     0.001 A 
ATOM     49  C   UNL A   1      45.229  27.817  35.976  1.00  0.00     0.001 A 
ATOM     50  C   UNL A   1      44.159  27.213  36.632  1.00  0.00     0.000 A 
ENDBRANCH  26  45
BRANCH  38  51
ATOM     51  C   UNL A   1      45.555  28.999  28.042  1.00  0.00    -0.014 A 
ATOM     52  C   UNL A   1      46.331  30.118  27.697  1.00  0.00     0.009 A 
ATOM     53  C   UNL A   1      46.080  27.724  27.764  1.00  0.00     0.009 A 
ATOM     54  C   UNL A   1      47.574  29.975  27.077  1.00  0.00     0.001 A 
ATOM     55  C   UNL A   1      47.340  27.579  27.169  1.00  0.00     0.001 A 
ATOM     56  C   UNL A   1      48.080  28.705  26.815  1.00  0.00     0.000 A 
ENDBRANCH  38  51
ENDBRANCH  12  13
ENDBRANCH   5   7
ENDBRANCH   2   3
ENDBRANCH   1   2
BRANCH   1  57
ATOM     57  C   UNL A   1      38.760  22.452  26.097  1.00  0.00     0.023 C 
BRANCH  57  58
ATOM     58  C   UNL A   1      37.389  22.979  25.663  1.00  0.00     0.116 C 
BRANCH  58  59
ATOM     59  N   UNL A   1      36.279  22.548  26.502  1.00  0.00    -0.356 N 
ATOM     60  C   UNL A   1      35.230  21.704  26.257  1.00  0.00     0.224 C 
ATOM     61  H   UNL A   1      36.285  22.932  27.409  1.00  0.00     0.163 HD
ATOM     62  O   UNL A   1      34.522  21.374  27.210  1.00  0.00    -0.275 OA
BRANCH  60  63
ATOM     63  C   UNL A   1      34.970  21.191  24.847  1.00  0.00     0.095 C 
ATOM     64  C   UNL A   1      35.112  19.647  24.835  1.00  0.00     0.041 C 
ATOM     65  C   UNL A   1      33.656  21.742  24.234  1.00  0.00     0.092 C 
ATOM     66  C   UNL A   1      33.899  18.851  24.464  1.00  0.00    -0.030 C 
ATOM     67  C   UNL A   1      32.420  20.844  24.408  1.00  0.00     0.041 C 
ATOM     68  C   UNL A   1      32.690  19.385  24.267  1.00  0.00    -0.030 C 
BRANCH  65  69
ATOM     69  C   UNL A   1      33.317  23.139  24.675  1.00  0.00     0.199 A 
ATOM     70  N   UNL A   1      32.413  23.532  25.553  1.00  0.00    -0.213 NA
ATOM     71  O   UNL A   1      34.026  24.160  24.099  1.00  0.00    -0.440 OA
ATOM     72  C   UNL A   1      32.583  24.889  25.625  1.00  0.00     0.111 A 
ATOM     73  C   UNL A   1      33.572  25.279  24.740  1.00  0.00     0.154 A 
ATOM     74  C   UNL A   1      31.956  25.858  26.418  1.00  0.00     0.048 A 
ATOM     75  C   UNL A   1      34.020  26.585  24.585  1.00  0.00     0.050 A 
ATOM     76  C   UNL A   1      32.424  27.176  26.325  1.00  0.00     0.020 A 
ATOM     77  C   UNL A   1      33.451  27.532  25.443  1.00  0.00     0.019 A 
ATOM     78  Br  UNL A   1      31.652  28.509  27.425  1.00  0.00    -0.051 Br
ENDBRANCH  65  69
ENDBRANCH  60  63
ENDBRANCH  58  59
ENDBRANCH  57  58
ENDBRANCH   1  57
TORSDOF 12
ENDMDL
MODEL 3
REMARK VINA RESULT:     -12.3      2.934      7.398
REMARK SMILES O=C(NCCCCNC(=O)[C@H]1CC=CC[C@H]1c1nc2cc(Br)ccc2o1)c1ccc(-c2c3nc(c(-c4ccccc4)c4ccc([nH]4)c(-c4ccccc4)c4nc(c(-c5ccccc5)c5ccc2[nH]5)C=C4)C=C3)cc1
REMARK SMILES IDX 5 1 4 2 3 3 1 4 2 5 27 7 28 8 74 9 29 10 73 11 30 12 31 13
REMARK SMILES IDX 32 14 67 15 33 16 72 17 66 18 68 19 34 20 71 21 65 22 64 23
REMARK SMILES IDX 35 25 57 26 42 27 56 28 43 29 46 30 55 31 69 32 44 33 45 34
REMARK SMILES IDX 54 36 70 37 47 38 36 39 37 40 41 41 38 42 40 43 39 44 58 45
REMARK SMILES IDX 59 46 63 47 60 48 62 49 61 50 48 51 49 52 53 53 50 54 52 55
REMARK SMILES IDX 51 56 6 57 7 58 8 59 9 60 10 62 11 63 12 64 16 65 13 66
REMARK SMILES IDX 15 67 14 68 17 69 18 70 26 71 19 72 25 73 20 74 24 75 21 76
REMARK SMILES IDX 23 77 22 78
REMARK H PARENT 3 6 68 24 46 35 8 61
REMARK Flexibility Score: inf
ROOT
ATOM      1  C   UNL A   1      37.307  20.930  24.925  1.00  0.00     0.023 C 
ENDROOT
BRANCH   1   2
ATOM      2  C   UNL A   1      38.656  21.194  25.560  1.00  0.00     0.116 C 
BRANCH   2   3
ATOM      3  N   UNL A   1      39.455  19.963  25.687  1.00  0.00    -0.352 N 
ATOM      4  O   UNL A   1      41.417  18.802  25.609  1.00  0.00    -0.269 OA
ATOM      5  C   UNL A   1      40.825  19.827  25.880  1.00  0.00     0.251 C 
ATOM      6  H   UNL A   1      38.950  19.120  25.626  1.00  0.00     0.163 HD
BRANCH   5   7
ATOM      7  C   UNL A   1      41.527  20.983  26.459  1.00  0.00     0.039 A 
ATOM      8  C   UNL A   1      42.022  22.040  25.699  1.00  0.00     0.014 A 
ATOM      9  C   UNL A   1      41.497  21.041  27.841  1.00  0.00     0.014 A 
ATOM     10  C   UNL A   1      42.398  23.196  26.379  1.00  0.00     0.010 A 
ATOM     11  C   UNL A   1      41.478  22.274  28.413  1.00  0.00     0.010 A 
ATOM     12  C   UNL A   1      42.076  23.317  27.747  1.00  0.00    -0.014 A 
BRANCH  12  13
ATOM     13  C   UNL A   1      42.247  24.546  28.507  1.00  0.00     0.031 A 
ATOM     14  C   UNL A   1      41.206  25.544  28.220  1.00  0.00     0.074 A 
ATOM     15  C   UNL A   1      43.195  24.742  29.454  1.00  0.00     0.049 A 
ATOM     16  N   UNL A   1      41.316  26.490  27.355  1.00  0.00    -0.248 NA
ATOM     17  C   UNL A   1      39.843  25.346  28.733  1.00  0.00     0.031 C 
ATOM     18  C   UNL A   1      44.153  23.787  30.036  1.00  0.00     0.029 A 
ATOM     19  N   UNL A   1      43.467  25.877  30.152  1.00  0.00    -0.354 N 
ATOM     20  C   UNL A   1      40.120  27.179  27.402  1.00  0.00     0.074 A 
ATOM     21  C   UNL A   1      39.189  26.311  28.078  1.00  0.00     0.031 C 
ATOM     22  C   UNL A   1      44.742  24.323  31.130  1.00  0.00     0.029 A 
ATOM     23  C   UNL A   1      44.358  25.718  31.208  1.00  0.00     0.049 A 
ATOM     24  H   UNL A   1      43.063  26.746  29.928  1.00  0.00     0.167 HD
ATOM     25  C   UNL A   1      40.112  28.517  27.154  1.00  0.00     0.031 A 
ATOM     26  C   UNL A   1      44.821  26.683  32.041  1.00  0.00     0.031 A 
ATOM     27  C   UNL A   1      41.360  28.938  26.551  1.00  0.00     0.049 A 
ATOM     28  C   UNL A   1      44.681  27.963  31.316  1.00  0.00     0.074 A 
ATOM     29  C   UNL A   1      42.036  28.611  25.392  1.00  0.00     0.029 A 
ATOM     30  N   UNL A   1      42.298  29.465  27.409  1.00  0.00    -0.354 N 
ATOM     31  N   UNL A   1      45.381  28.265  30.262  1.00  0.00    -0.248 NA
ATOM     32  C   UNL A   1      43.450  28.714  31.491  1.00  0.00     0.031 C 
ATOM     33  C   UNL A   1      43.413  28.561  25.763  1.00  0.00     0.029 A 
ATOM     34  C   UNL A   1      43.532  28.955  27.098  1.00  0.00     0.049 A 
ATOM     35  H   UNL A   1      42.112  30.109  28.131  1.00  0.00     0.167 HD
ATOM     36  C   UNL A   1      44.475  28.880  29.411  1.00  0.00     0.074 A 
ATOM     37  C   UNL A   1      43.342  29.234  30.266  1.00  0.00     0.031 C 
ATOM     38  C   UNL A   1      44.610  28.783  28.056  1.00  0.00     0.031 A 
BRANCH  25  39
ATOM     39  C   UNL A   1      39.210  29.476  27.884  1.00  0.00    -0.014 A 
ATOM     40  C   UNL A   1      37.891  29.768  27.484  1.00  0.00     0.009 A 
ATOM     41  C   UNL A   1      39.587  29.903  29.168  1.00  0.00     0.009 A 
ATOM     42  C   UNL A   1      36.988  30.426  28.321  1.00  0.00     0.001 A 
ATOM     43  C   UNL A   1      38.675  30.529  30.024  1.00  0.00     0.001 A 
ATOM     44  C   UNL A   1      37.375  30.786  29.602  1.00  0.00     0.000 A 
ENDBRANCH  25  39
BRANCH  26  45
ATOM     45  C   UNL A   1      44.949  26.640  33.516  1.00  0.00    -0.014 A 
ATOM     46  C   UNL A   1      43.972  25.999  34.298  1.00  0.00     0.009 A 
ATOM     47  C   UNL A   1      45.839  27.514  34.167  1.00  0.00     0.009 A 
ATOM     48  C   UNL A   1      43.841  26.280  35.664  1.00  0.00     0.001 A 
ATOM     49  C   UNL A   1      45.706  27.796  35.534  1.00  0.00     0.001 A 
ATOM     50  C   UNL A   1      44.693  27.195  36.276  1.00  0.00     0.000 A 
ENDBRANCH  26  45
BRANCH  38  51
ATOM     51  C   UNL A   1      45.922  28.259  27.503  1.00  0.00    -0.014 A 
ATOM     52  C   UNL A   1      46.104  26.867  27.475  1.00  0.00     0.009 A 
ATOM     53  C   UNL A   1      47.018  29.073  27.163  1.00  0.00     0.009 A 
ATOM     54  C   UNL A   1      47.338  26.304  27.144  1.00  0.00     0.001 A 
ATOM     55  C   UNL A   1      48.248  28.508  26.802  1.00  0.00     0.001 A 
ATOM     56  C   UNL A   1      48.410  27.125  26.804  1.00  0.00     0.000 A 
ENDBRANCH  38  51
ENDBRANCH  12  13
ENDBRANCH   5   7
ENDBRANCH   2   3
ENDBRANCH   1   2
BRANCH   1  57
ATOM     57  C   UNL A   1      36.869  22.014  23.926  1.00  0.00     0.023 C 
BRANCH  57  58
ATOM     58  C   UNL A   1      36.392  23.338  24.533  1.00  0.00     0.116 C 
BRANCH  58  59
ATOM     59  N   UNL A   1      35.374  24.030  23.756  1.00  0.00    -0.356 N 
ATOM     60  C   UNL A   1      34.358  24.866  24.131  1.00  0.00     0.224 C 
ATOM     61  H   UNL A   1      35.427  23.869  22.786  1.00  0.00     0.163 HD
ATOM     62  O   UNL A   1      33.742  25.458  23.243  1.00  0.00    -0.275 OA
BRANCH  60  63
ATOM     63  C   UNL A   1      34.020  25.053  25.605  1.00  0.00     0.095 C 
ATOM     64  C   UNL A   1      33.667  26.541  25.859  1.00  0.00     0.041 C 
ATOM     65  C   UNL A   1      32.981  24.026  26.123  1.00  0.00     0.092 C 
ATOM     66  C   UNL A   1      32.286  26.842  26.351  1.00  0.00    -0.030 C 
ATOM     67  C   UNL A   1      31.518  24.496  26.094  1.00  0.00     0.041 C 
ATOM     68  C   UNL A   1      31.319  25.927  26.462  1.00  0.00    -0.030 C 
BRANCH  65  69
ATOM     69  C   UNL A   1      33.079  22.675  25.469  1.00  0.00     0.199 A 
ATOM     70  N   UNL A   1      33.708  21.595  25.894  1.00  0.00    -0.213 NA
ATOM     71  O   UNL A   1      32.441  22.520  24.267  1.00  0.00    -0.440 OA
ATOM     72  C   UNL A   1      33.407  20.642  24.959  1.00  0.00     0.111 A 
ATOM     73  C   UNL A   1      32.628  21.201  23.963  1.00  0.00     0.154 A 
ATOM     74  C   UNL A   1      33.738  19.283  24.886  1.00  0.00     0.048 A 
ATOM     75  C   UNL A   1      32.116  20.501  22.877  1.00  0.00     0.050 A 
ATOM     76  C   UNL A   1      33.190  18.537  23.833  1.00  0.00     0.020 A 
ATOM     77  C   UNL A   1      32.377  19.127  22.857  1.00  0.00     0.019 A 
ATOM     78  Br  UNL A   1      33.556  16.683  23.728  1.00  0.00    -0.051 Br
ENDBRANCH  65  69
ENDBRANCH  60  63
ENDBRANCH  58  59
ENDBRANCH  57  58
ENDBRANCH   1  57
TORSDOF 12
ENDMDL
