MODEL 1
REMARK VINA RESULT:     -11.3      0.000      0.000
REMARK SMILES O=C(NCCCCNC(=O)[C@H]1C[N@H+](Cc2ccc(Cl)c(Cl)c2)CC12CCCCC2)c1ccc(-c2c3nc(c(-c4ccccc4)c4ccc([nH]4)c(-c4ccccc4)c4nc(c(-c5ccccc5)c5ccc2[nH]5)C=C4)C=C3)cc1
REMARK SMILES IDX 5 1 4 2 3 3 1 4 2 5 30 7 31 8 77 9 32 10 76 11 33 12 34 13
REMARK SMILES IDX 35 14 70 15 36 16 75 17 69 18 71 19 37 20 74 21 68 22 67 23
REMARK SMILES IDX 38 25 60 26 45 27 59 28 46 29 49 30 58 31 72 32 47 33 48 34
REMARK SMILES IDX 57 36 73 37 50 38 39 39 40 40 44 41 41 42 43 43 42 44 61 45
REMARK SMILES IDX 62 46 66 47 63 48 65 49 64 50 51 51 52 52 56 53 53 54 55 55
REMARK SMILES IDX 54 56 6 57 7 58 8 59 9 60 10 62 11 63 12 64 24 65 13 66
REMARK SMILES IDX 23 67 25 68 29 69 26 71 28 72 27 73 14 74 15 75 16 76 22 77
REMARK SMILES IDX 17 78 20 79 18 80 21 81 19 82
REMARK H PARENT 3 6 71 24 49 35 8 61 13 70
REMARK Flexibility Score: inf
ROOT
ATOM      1  C   UNL A   1      39.053  21.455  25.704  1.00  0.00     0.023 C 
ENDROOT
BRANCH   1   2
ATOM      2  C   UNL A   1      39.483  20.231  26.502  1.00  0.00     0.116 C 
BRANCH   2   3
ATOM      3  N   UNL A   1      40.606  19.521  25.915  1.00  0.00    -0.352 N 
ATOM      4  O   UNL A   1      42.724  19.210  25.200  1.00  0.00    -0.269 OA
ATOM      5  C   UNL A   1      41.931  19.896  25.824  1.00  0.00     0.251 C 
ATOM      6  H   UNL A   1      40.391  18.644  25.526  1.00  0.00     0.163 HD
BRANCH   5   7
ATOM      7  C   UNL A   1      42.374  21.163  26.451  1.00  0.00     0.039 A 
ATOM      8  C   UNL A   1      42.407  21.304  27.839  1.00  0.00     0.014 A 
ATOM      9  C   UNL A   1      42.730  22.236  25.628  1.00  0.00     0.014 A 
ATOM     10  C   UNL A   1      42.609  22.562  28.396  1.00  0.00     0.010 A 
ATOM     11  C   UNL A   1      43.026  23.478  26.198  1.00  0.00     0.010 A 
ATOM     12  C   UNL A   1      42.915  23.666  27.583  1.00  0.00    -0.014 A 
BRANCH  12  13
ATOM     13  C   UNL A   1      43.122  24.996  28.210  1.00  0.00     0.031 A 
ATOM     14  C   UNL A   1      44.498  25.473  28.592  1.00  0.00     0.074 A 
ATOM     15  C   UNL A   1      42.059  25.804  28.391  1.00  0.00     0.049 A 
ATOM     16  N   UNL A   1      44.860  26.627  29.098  1.00  0.00    -0.248 NA
ATOM     17  C   UNL A   1      45.613  24.533  28.391  1.00  0.00     0.031 C 
ATOM     18  C   UNL A   1      40.674  25.463  28.063  1.00  0.00     0.029 A 
ATOM     19  N   UNL A   1      41.982  27.089  28.868  1.00  0.00    -0.354 N 
ATOM     20  C   UNL A   1      46.231  26.542  29.302  1.00  0.00     0.074 A 
ATOM     21  C   UNL A   1      46.638  25.217  28.885  1.00  0.00     0.031 C 
ATOM     22  C   UNL A   1      39.893  26.531  28.285  1.00  0.00     0.029 A 
ATOM     23  C   UNL A   1      40.712  27.609  28.829  1.00  0.00     0.049 A 
ATOM     24  H   UNL A   1      42.760  27.587  29.205  1.00  0.00     0.167 HD
ATOM     25  C   UNL A   1      47.078  27.482  29.789  1.00  0.00     0.031 A 
ATOM     26  C   UNL A   1      40.251  28.820  29.191  1.00  0.00     0.031 A 
ATOM     27  C   UNL A   1      46.681  28.806  30.190  1.00  0.00     0.049 A 
ATOM     28  C   UNL A   1      41.207  29.837  29.736  1.00  0.00     0.074 A 
ATOM     29  C   UNL A   1      47.475  29.841  30.659  1.00  0.00     0.029 A 
ATOM     30  N   UNL A   1      45.379  29.280  30.171  1.00  0.00    -0.354 N 
ATOM     31  N   UNL A   1      42.506  29.749  29.892  1.00  0.00    -0.248 NA
ATOM     32  C   UNL A   1      40.633  31.124  30.152  1.00  0.00     0.031 C 
ATOM     33  C   UNL A   1      46.645  30.925  30.965  1.00  0.00     0.029 A 
ATOM     34  C   UNL A   1      45.342  30.584  30.638  1.00  0.00     0.049 A 
ATOM     35  H   UNL A   1      44.596  28.766  29.869  1.00  0.00     0.167 HD
ATOM     36  C   UNL A   1      42.907  30.975  30.403  1.00  0.00     0.074 A 
ATOM     37  C   UNL A   1      41.717  31.794  30.515  1.00  0.00     0.031 C 
ATOM     38  C   UNL A   1      44.153  31.386  30.746  1.00  0.00     0.031 A 
BRANCH  25  39
ATOM     39  C   UNL A   1      48.524  27.098  29.949  1.00  0.00    -0.014 A 
ATOM     40  C   UNL A   1      49.004  26.522  31.135  1.00  0.00     0.009 A 
ATOM     41  C   UNL A   1      49.412  27.282  28.877  1.00  0.00     0.009 A 
ATOM     42  C   UNL A   1      50.351  26.171  31.257  1.00  0.00     0.001 A 
ATOM     43  C   UNL A   1      50.752  26.906  28.992  1.00  0.00     0.001 A 
ATOM     44  C   UNL A   1      51.222  26.359  30.185  1.00  0.00     0.000 A 
ENDBRANCH  25  39
BRANCH  26  45
ATOM     45  C   UNL A   1      38.808  29.135  29.034  1.00  0.00    -0.014 A 
ATOM     46  C   UNL A   1      37.929  28.998  30.119  1.00  0.00     0.009 A 
ATOM     47  C   UNL A   1      38.307  29.589  27.804  1.00  0.00     0.009 A 
ATOM     48  C   UNL A   1      36.573  29.293  29.969  1.00  0.00     0.001 A 
ATOM     49  C   UNL A   1      36.956  29.910  27.666  1.00  0.00     0.001 A 
ATOM     50  C   UNL A   1      36.089  29.753  28.746  1.00  0.00     0.000 A 
ENDBRANCH  26  45
BRANCH  38  51
ATOM     51  C   UNL A   1      44.291  32.798  31.237  1.00  0.00    -0.014 A 
ATOM     52  C   UNL A   1      44.215  33.106  32.604  1.00  0.00     0.009 A 
ATOM     53  C   UNL A   1      44.517  33.832  30.316  1.00  0.00     0.009 A 
ATOM     54  C   UNL A   1      44.325  34.430  33.036  1.00  0.00     0.001 A 
ATOM     55  C   UNL A   1      44.653  35.151  30.752  1.00  0.00     0.001 A 
ATOM     56  C   UNL A   1      44.546  35.449  32.110  1.00  0.00     0.000 A 
ENDBRANCH  38  51
ENDBRANCH  12  13
ENDBRANCH   5   7
ENDBRANCH   2   3
ENDBRANCH   1   2
BRANCH   1  57
ATOM     57  C   UNL A   1      38.913  22.749  26.500  1.00  0.00     0.023 C 
BRANCH  57  58
ATOM     58  C   UNL A   1      37.950  23.782  25.921  1.00  0.00     0.116 C 
BRANCH  58  59
ATOM     59  N   UNL A   1      37.531  23.489  24.564  1.00  0.00    -0.356 N 
ATOM     60  C   UNL A   1      36.290  23.527  23.989  1.00  0.00     0.229 C 
ATOM     61  H   UNL A   1      38.257  23.218  23.957  1.00  0.00     0.163 HD
ATOM     62  O   UNL A   1      36.248  23.365  22.772  1.00  0.00    -0.275 OA
BRANCH  60  63
ATOM     63  C   UNL A   1      35.069  23.774  24.872  1.00  0.00     0.145 C 
ATOM     64  C   UNL A   1      34.413  25.096  24.469  1.00  0.00     0.276 C 
ATOM     65  C   UNL A   1      33.883  22.748  24.912  1.00  0.00     0.037 C 
ATOM     66  N   UNL A   1      33.052  25.052  24.976  1.00  0.00    -0.330 N 
ATOM     67  C   UNL A   1      32.619  23.664  24.860  1.00  0.00     0.270 C 
ATOM     68  C   UNL A   1      33.833  21.711  23.763  1.00  0.00     0.014 C 
ATOM     69  C   UNL A   1      33.956  21.927  26.228  1.00  0.00     0.014 C 
ATOM     70  H   UNL A   1      32.455  25.646  24.401  1.00  0.00     0.348 HD
ATOM     71  C   UNL A   1      32.670  20.720  23.893  1.00  0.00     0.001 C 
ATOM     72  C   UNL A   1      32.794  20.951  26.408  1.00  0.00     0.001 C 
ATOM     73  C   UNL A   1      32.690  19.989  25.233  1.00  0.00     0.000 C 
BRANCH  66  74
ATOM     74  C   UNL A   1      32.761  25.761  26.223  1.00  0.00     0.299 C 
BRANCH  74  75
ATOM     75  C   UNL A   1      32.491  27.249  26.155  1.00  0.00     0.008 A 
ATOM     76  C   UNL A   1      33.025  28.130  27.105  1.00  0.00     0.011 A 
ATOM     77  C   UNL A   1      31.675  27.776  25.139  1.00  0.00     0.031 A 
ATOM     78  C   UNL A   1      32.670  29.483  27.106  1.00  0.00     0.022 A 
ATOM     79  C   UNL A   1      31.334  29.135  25.122  1.00  0.00     0.060 A 
ATOM     80  C   UNL A   1      31.813  29.985  26.123  1.00  0.00     0.059 A 
ATOM     81  Cl  UNL A   1      30.286  29.685  23.864  1.00  0.00    -0.083 Cl
ATOM     82  Cl  UNL A   1      31.368  31.651  26.222  1.00  0.00    -0.083 Cl
ENDBRANCH  74  75
ENDBRANCH  66  74
ENDBRANCH  60  63
ENDBRANCH  58  59
ENDBRANCH  57  58
ENDBRANCH   1  57
TORSDOF 13
ENDMDL
MODEL 2
REMARK VINA RESULT:     -11.3      1.879      2.509
REMARK SMILES O=C(NCCCCNC(=O)[C@H]1C[N@H+](Cc2ccc(Cl)c(Cl)c2)CC12CCCCC2)c1ccc(-c2c3nc(c(-c4ccccc4)c4ccc([nH]4)c(-c4ccccc4)c4nc(c(-c5ccccc5)c5ccc2[nH]5)C=C4)C=C3)cc1
REMARK SMILES IDX 5 1 4 2 3 3 1 4 2 5 30 7 31 8 77 9 32 10 76 11 33 12 34 13
REMARK SMILES IDX 35 14 70 15 36 16 75 17 69 18 71 19 37 20 74 21 68 22 67 23
REMARK SMILES IDX 38 25 60 26 45 27 59 28 46 29 49 30 58 31 72 32 47 33 48 34
REMARK SMILES IDX 57 36 73 37 50 38 39 39 40 40 44 41 41 42 43 43 42 44 61 45
REMARK SMILES IDX 62 46 66 47 63 48 65 49 64 50 51 51 52 52 56 53 53 54 55 55
REMARK SMILES IDX 54 56 6 57 7 58 8 59 9 60 10 62 11 63 12 64 24 65 13 66
REMARK SMILES IDX 23 67 25 68 29 69 26 71 28 72 27 73 14 74 15 75 16 76 22 77
REMARK SMILES IDX 17 78 20 79 18 80 21 81 19 82
REMARK H PARENT 3 6 71 24 49 35 8 61 13 70
REMARK Flexibility Score: inf
ROOT
ATOM      1  C   UNL A   1      38.016  19.890  24.939  1.00  0.00     0.023 C 
ENDROOT
BRANCH   1   2
ATOM      2  C   UNL A   1      39.224  20.178  25.821  1.00  0.00     0.116 C 
BRANCH   2   3
ATOM      3  N   UNL A   1      40.210  19.111  25.822  1.00  0.00    -0.352 N 
ATOM      4  O   UNL A   1      42.261  18.178  25.939  1.00  0.00    -0.269 OA
ATOM      5  C   UNL A   1      41.563  19.168  26.088  1.00  0.00     0.251 C 
ATOM      6  H   UNL A   1      39.863  18.218  25.600  1.00  0.00     0.163 HD
BRANCH   5   7
ATOM      7  C   UNL A   1      42.170  20.451  26.510  1.00  0.00     0.039 A 
ATOM      8  C   UNL A   1      42.167  20.839  27.851  1.00  0.00     0.014 A 
ATOM      9  C   UNL A   1      42.721  21.291  25.538  1.00  0.00     0.014 A 
ATOM     10  C   UNL A   1      42.537  22.136  28.191  1.00  0.00     0.010 A 
ATOM     11  C   UNL A   1      43.181  22.561  25.899  1.00  0.00     0.010 A 
ATOM     12  C   UNL A   1      43.043  23.015  27.219  1.00  0.00    -0.014 A 
BRANCH  12  13
ATOM     13  C   UNL A   1      43.426  24.394  27.615  1.00  0.00     0.031 A 
ATOM     14  C   UNL A   1      44.855  24.862  27.527  1.00  0.00     0.074 A 
ATOM     15  C   UNL A   1      42.465  25.250  28.012  1.00  0.00     0.049 A 
ATOM     16  N   UNL A   1      45.350  26.049  27.781  1.00  0.00    -0.248 NA
ATOM     17  C   UNL A   1      45.861  23.872  27.109  1.00  0.00     0.031 C 
ATOM     18  C   UNL A   1      41.043  24.923  28.140  1.00  0.00     0.029 A 
ATOM     19  N   UNL A   1      42.532  26.578  28.353  1.00  0.00    -0.354 N 
ATOM     20  C   UNL A   1      46.721  25.941  27.584  1.00  0.00     0.074 A 
ATOM     21  C   UNL A   1      46.986  24.569  27.208  1.00  0.00     0.031 C 
ATOM     22  C   UNL A   1      40.364  26.032  28.467  1.00  0.00     0.029 A 
ATOM     23  C   UNL A   1      41.307  27.132  28.631  1.00  0.00     0.049 A 
ATOM     24  H   UNL A   1      43.376  27.082  28.394  1.00  0.00     0.167 HD
ATOM     25  C   UNL A   1      47.675  26.897  27.701  1.00  0.00     0.031 A 
ATOM     26  C   UNL A   1      40.975  28.387  28.982  1.00  0.00     0.031 A 
ATOM     27  C   UNL A   1      47.415  28.267  28.059  1.00  0.00     0.049 A 
ATOM     28  C   UNL A   1      42.050  29.422  29.115  1.00  0.00     0.074 A 
ATOM     29  C   UNL A   1      48.312  29.317  28.164  1.00  0.00     0.029 A 
ATOM     30  N   UNL A   1      46.165  28.779  28.370  1.00  0.00    -0.354 N 
ATOM     31  N   UNL A   1      43.337  29.309  28.894  1.00  0.00    -0.248 NA
ATOM     32  C   UNL A   1      41.625  30.762  29.543  1.00  0.00     0.031 C 
ATOM     33  C   UNL A   1      47.611  30.453  28.583  1.00  0.00     0.029 A 
ATOM     34  C   UNL A   1      46.269  30.123  28.689  1.00  0.00     0.049 A 
ATOM     35  H   UNL A   1      45.327  28.262  28.366  1.00  0.00     0.167 HD
ATOM     36  C   UNL A   1      43.872  30.566  29.134  1.00  0.00     0.074 A 
ATOM     37  C   UNL A   1      42.769  31.430  29.502  1.00  0.00     0.031 C 
ATOM     38  C   UNL A   1      45.164  30.970  29.054  1.00  0.00     0.031 A 
BRANCH  25  39
ATOM     39  C   UNL A   1      49.103  26.485  27.472  1.00  0.00    -0.014 A 
ATOM     40  C   UNL A   1      49.684  26.527  26.195  1.00  0.00     0.009 A 
ATOM     41  C   UNL A   1      49.892  26.083  28.562  1.00  0.00     0.009 A 
ATOM     42  C   UNL A   1      51.014  26.142  26.009  1.00  0.00     0.001 A 
ATOM     43  C   UNL A   1      51.229  25.723  28.378  1.00  0.00     0.001 A 
ATOM     44  C   UNL A   1      51.786  25.745  27.100  1.00  0.00     0.000 A 
ENDBRANCH  25  39
BRANCH  26  45
ATOM     45  C   UNL A   1      39.550  28.731  29.221  1.00  0.00    -0.014 A 
ATOM     46  C   UNL A   1      38.977  28.548  30.489  1.00  0.00     0.009 A 
ATOM     47  C   UNL A   1      38.760  29.258  28.187  1.00  0.00     0.009 A 
ATOM     48  C   UNL A   1      37.637  28.870  30.711  1.00  0.00     0.001 A 
ATOM     49  C   UNL A   1      37.429  29.606  28.419  1.00  0.00     0.001 A 
ATOM     50  C   UNL A   1      36.866  29.403  29.679  1.00  0.00     0.000 A 
ENDBRANCH  26  45
BRANCH  38  51
ATOM     51  C   UNL A   1      45.442  32.419  29.332  1.00  0.00    -0.014 A 
ATOM     52  C   UNL A   1      45.745  32.868  30.626  1.00  0.00     0.009 A 
ATOM     53  C   UNL A   1      45.415  33.343  28.277  1.00  0.00     0.009 A 
ATOM     54  C   UNL A   1      45.979  34.224  30.864  1.00  0.00     0.001 A 
ATOM     55  C   UNL A   1      45.676  34.694  28.513  1.00  0.00     0.001 A 
ATOM     56  C   UNL A   1      45.947  35.134  29.807  1.00  0.00     0.000 A 
ENDBRANCH  38  51
ENDBRANCH  12  13
ENDBRANCH   5   7
ENDBRANCH   2   3
ENDBRANCH   1   2
BRANCH   1  57
ATOM     57  C   UNL A   1      37.074  21.066  24.701  1.00  0.00     0.023 C 
BRANCH  57  58
ATOM     58  C   UNL A   1      35.802  21.076  25.542  1.00  0.00     0.116 C 
BRANCH  58  59
ATOM     59  N   UNL A   1      34.761  20.203  25.033  1.00  0.00    -0.356 N 
ATOM     60  C   UNL A   1      33.673  20.479  24.253  1.00  0.00     0.229 C 
ATOM     61  H   UNL A   1      34.854  19.257  25.290  1.00  0.00     0.163 HD
ATOM     62  O   UNL A   1      33.031  19.512  23.851  1.00  0.00    -0.275 OA
BRANCH  60  63
ATOM     63  C   UNL A   1      33.338  21.934  23.929  1.00  0.00     0.145 C 
ATOM     64  C   UNL A   1      32.884  22.035  22.472  1.00  0.00     0.276 C 
ATOM     65  C   UNL A   1      32.237  22.706  24.736  1.00  0.00     0.037 C 
ATOM     66  N   UNL A   1      32.150  23.285  22.357  1.00  0.00    -0.330 N 
ATOM     67  C   UNL A   1      31.446  23.462  23.622  1.00  0.00     0.270 C 
ATOM     68  C   UNL A   1      31.269  21.840  25.578  1.00  0.00     0.014 C 
ATOM     69  C   UNL A   1      32.918  23.682  25.734  1.00  0.00     0.014 C 
ATOM     70  H   UNL A   1      31.474  23.214  21.596  1.00  0.00     0.348 HD
ATOM     71  C   UNL A   1      30.248  22.669  26.367  1.00  0.00     0.001 C 
ATOM     72  C   UNL A   1      31.931  24.548  26.515  1.00  0.00     0.001 C 
ATOM     73  C   UNL A   1      30.923  23.696  27.271  1.00  0.00     0.000 C 
BRANCH  66  74
ATOM     74  C   UNL A   1      32.847  24.440  21.790  1.00  0.00     0.299 C 
BRANCH  74  75
ATOM     75  C   UNL A   1      32.670  25.785  22.463  1.00  0.00     0.008 A 
ATOM     76  C   UNL A   1      33.610  26.266  23.386  1.00  0.00     0.011 A 
ATOM     77  C   UNL A   1      31.540  26.573  22.186  1.00  0.00     0.031 A 
ATOM     78  C   UNL A   1      33.376  27.450  24.093  1.00  0.00     0.022 A 
ATOM     79  C   UNL A   1      31.313  27.772  22.876  1.00  0.00     0.060 A 
ATOM     80  C   UNL A   1      32.221  28.197  23.850  1.00  0.00     0.059 A 
ATOM     81  Cl  UNL A   1      29.872  28.650  22.507  1.00  0.00    -0.083 Cl
ATOM     82  Cl  UNL A   1      31.967  29.615  24.803  1.00  0.00    -0.083 Cl
ENDBRANCH  74  75
ENDBRANCH  66  74
ENDBRANCH  60  63
ENDBRANCH  58  59
ENDBRANCH  57  58
ENDBRANCH   1  57
TORSDOF 13
ENDMDL
MODEL 3
REMARK VINA RESULT:     -11.2      3.153      8.107
REMARK SMILES O=C(NCCCCNC(=O)[C@H]1C[N@H+](Cc2ccc(Cl)c(Cl)c2)CC12CCCCC2)c1ccc(-c2c3nc(c(-c4ccccc4)c4ccc([nH]4)c(-c4ccccc4)c4nc(c(-c5ccccc5)c5ccc2[nH]5)C=C4)C=C3)cc1
REMARK SMILES IDX 5 1 4 2 3 3 1 4 2 5 30 7 31 8 77 9 32 10 76 11 33 12 34 13
REMARK SMILES IDX 35 14 70 15 36 16 75 17 69 18 71 19 37 20 74 21 68 22 67 23
REMARK SMILES IDX 38 25 60 26 45 27 59 28 46 29 49 30 58 31 72 32 47 33 48 34
REMARK SMILES IDX 57 36 73 37 50 38 39 39 40 40 44 41 41 42 43 43 42 44 61 45
REMARK SMILES IDX 62 46 66 47 63 48 65 49 64 50 51 51 52 52 56 53 53 54 55 55
REMARK SMILES IDX 54 56 6 57 7 58 8 59 9 60 10 62 11 63 12 64 24 65 13 66
REMARK SMILES IDX 23 67 25 68 29 69 26 71 28 72 27 73 14 74 15 75 16 76 22 77
REMARK SMILES IDX 17 78 20 79 18 80 21 81 19 82
REMARK H PARENT 3 6 71 24 49 35 8 61 13 70
REMARK Flexibility Score: inf
ROOT
ATOM      1  C   UNL A   1      34.136  29.025  27.590  1.00  0.00     0.023 C 
ENDROOT
BRANCH   1   2
ATOM      2  C   UNL A   1      34.471  30.507  27.486  1.00  0.00     0.116 C 
BRANCH   2   3
ATOM      3  N   UNL A   1      34.494  31.189  28.769  1.00  0.00    -0.352 N 
ATOM      4  O   UNL A   1      35.266  31.738  30.817  1.00  0.00    -0.269 OA
ATOM      5  C   UNL A   1      35.465  31.182  29.749  1.00  0.00     0.251 C 
ATOM      6  H   UNL A   1      33.700  31.735  28.969  1.00  0.00     0.163 HD
BRANCH   5   7
ATOM      7  C   UNL A   1      36.734  30.456  29.513  1.00  0.00     0.039 A 
ATOM      8  C   UNL A   1      37.330  29.706  30.528  1.00  0.00     0.014 A 
ATOM      9  C   UNL A   1      37.350  30.560  28.263  1.00  0.00     0.014 A 
ATOM     10  C   UNL A   1      38.623  29.223  30.356  1.00  0.00     0.010 A 
ATOM     11  C   UNL A   1      38.612  29.990  28.062  1.00  0.00     0.010 A 
ATOM     12  C   UNL A   1      39.282  29.364  29.123  1.00  0.00    -0.014 A 
BRANCH  12  13
ATOM     13  C   UNL A   1      40.663  28.839  28.973  1.00  0.00     0.031 A 
ATOM     14  C   UNL A   1      40.915  27.417  28.544  1.00  0.00     0.074 A 
ATOM     15  C   UNL A   1      41.704  29.670  29.178  1.00  0.00     0.049 A 
ATOM     16  N   UNL A   1      42.057  26.816  28.312  1.00  0.00    -0.248 NA
ATOM     17  C   UNL A   1      39.738  26.554  28.359  1.00  0.00     0.031 C 
ATOM     18  C   UNL A   1      41.596  31.070  29.595  1.00  0.00     0.029 A 
ATOM     19  N   UNL A   1      43.053  29.469  29.035  1.00  0.00    -0.354 N 
ATOM     20  C   UNL A   1      41.739  25.504  27.985  1.00  0.00     0.074 A 
ATOM     21  C   UNL A   1      40.299  25.387  28.067  1.00  0.00     0.031 C 
ATOM     22  C   UNL A   1      42.819  31.619  29.611  1.00  0.00     0.029 A 
ATOM     23  C   UNL A   1      43.800  30.597  29.267  1.00  0.00     0.049 A 
ATOM     24  H   UNL A   1      43.446  28.601  28.791  1.00  0.00     0.167 HD
ATOM     25  C   UNL A   1      42.569  24.488  27.645  1.00  0.00     0.031 A 
ATOM     26  C   UNL A   1      45.130  30.792  29.211  1.00  0.00     0.031 A 
ATOM     27  C   UNL A   1      44.001  24.604  27.546  1.00  0.00     0.049 A 
ATOM     28  C   UNL A   1      46.026  29.649  28.842  1.00  0.00     0.074 A 
ATOM     29  C   UNL A   1      44.921  23.640  27.169  1.00  0.00     0.029 A 
ATOM     30  N   UNL A   1      44.721  25.754  27.826  1.00  0.00    -0.354 N 
ATOM     31  N   UNL A   1      45.704  28.423  28.505  1.00  0.00    -0.248 NA
ATOM     32  C   UNL A   1      47.470  29.918  28.841  1.00  0.00     0.031 C 
ATOM     33  C   UNL A   1      46.202  24.194  27.266  1.00  0.00     0.029 A 
ATOM     34  C   UNL A   1      46.075  25.519  27.652  1.00  0.00     0.049 A 
ATOM     35  H   UNL A   1      44.328  26.612  28.108  1.00  0.00     0.167 HD
ATOM     36  C   UNL A   1      46.903  27.781  28.231  1.00  0.00     0.074 A 
ATOM     37  C   UNL A   1      47.957  28.757  28.425  1.00  0.00     0.031 C 
ATOM     38  C   UNL A   1      47.112  26.498  27.850  1.00  0.00     0.031 A 
BRANCH  25  39
ATOM     39  C   UNL A   1      41.948  23.143  27.383  1.00  0.00    -0.014 A 
ATOM     40  C   UNL A   1      41.758  22.210  28.414  1.00  0.00     0.009 A 
ATOM     41  C   UNL A   1      41.513  22.821  26.088  1.00  0.00     0.009 A 
ATOM     42  C   UNL A   1      41.176  20.968  28.146  1.00  0.00     0.001 A 
ATOM     43  C   UNL A   1      40.907  21.589  25.828  1.00  0.00     0.001 A 
ATOM     44  C   UNL A   1      40.747  20.661  26.855  1.00  0.00     0.000 A 
ENDBRANCH  25  39
BRANCH  26  45
ATOM     45  C   UNL A   1      45.689  32.137  29.503  1.00  0.00    -0.014 A 
ATOM     46  C   UNL A   1      45.943  32.529  30.827  1.00  0.00     0.009 A 
ATOM     47  C   UNL A   1      45.985  33.028  28.461  1.00  0.00     0.009 A 
ATOM     48  C   UNL A   1      46.467  33.794  31.100  1.00  0.00     0.001 A 
ATOM     49  C   UNL A   1      46.535  34.281  28.735  1.00  0.00     0.001 A 
ATOM     50  C   UNL A   1      46.767  34.666  30.055  1.00  0.00     0.000 A 
ENDBRANCH  26  45
BRANCH  38  51
ATOM     51  C   UNL A   1      48.532  26.092  27.580  1.00  0.00    -0.014 A 
ATOM     52  C   UNL A   1      49.092  26.205  26.299  1.00  0.00     0.009 A 
ATOM     53  C   UNL A   1      49.324  25.604  28.630  1.00  0.00     0.009 A 
ATOM     54  C   UNL A   1      50.409  25.801  26.067  1.00  0.00     0.001 A 
ATOM     55  C   UNL A   1      50.648  25.226  28.402  1.00  0.00     0.001 A 
ATOM     56  C   UNL A   1      51.185  25.315  27.119  1.00  0.00     0.000 A 
ENDBRANCH  38  51
ENDBRANCH  12  13
ENDBRANCH   5   7
ENDBRANCH   2   3
ENDBRANCH   1   2
BRANCH   1  57
ATOM     57  C   UNL A   1      32.678  28.656  27.334  1.00  0.00     0.023 C 
BRANCH  57  58
ATOM     58  C   UNL A   1      32.446  27.322  26.631  1.00  0.00     0.116 C 
BRANCH  58  59
ATOM     59  N   UNL A   1      31.072  26.862  26.697  1.00  0.00    -0.356 N 
ATOM     60  C   UNL A   1      30.518  25.664  26.339  1.00  0.00     0.229 C 
ATOM     61  H   UNL A   1      30.434  27.519  27.058  1.00  0.00     0.163 HD
ATOM     62  O   UNL A   1      29.338  25.498  26.639  1.00  0.00    -0.275 OA
BRANCH  60  63
ATOM     63  C   UNL A   1      31.380  24.631  25.617  1.00  0.00     0.145 C 
ATOM     64  C   UNL A   1      30.675  23.274  25.648  1.00  0.00     0.276 C 
ATOM     65  C   UNL A   1      31.784  24.826  24.114  1.00  0.00     0.037 C 
ATOM     66  N   UNL A   1      31.268  22.479  24.586  1.00  0.00    -0.330 N 
ATOM     67  C   UNL A   1      31.569  23.407  23.501  1.00  0.00     0.270 C 
ATOM     68  C   UNL A   1      30.972  25.876  23.316  1.00  0.00     0.014 C 
ATOM     69  C   UNL A   1      33.267  25.280  24.034  1.00  0.00     0.014 C 
ATOM     70  H   UNL A   1      30.594  21.784  24.264  1.00  0.00     0.348 HD
ATOM     71  C   UNL A   1      31.451  26.037  21.868  1.00  0.00     0.001 C 
ATOM     72  C   UNL A   1      33.790  25.420  22.604  1.00  0.00     0.001 C 
ATOM     73  C   UNL A   1      32.936  26.383  21.794  1.00  0.00     0.000 C 
BRANCH  66  74
ATOM     74  C   UNL A   1      32.288  21.495  24.953  1.00  0.00     0.299 C 
BRANCH  74  75
ATOM     75  C   UNL A   1      33.699  21.984  25.201  1.00  0.00     0.008 A 
ATOM     76  C   UNL A   1      34.122  22.369  26.480  1.00  0.00     0.011 A 
ATOM     77  C   UNL A   1      34.613  22.081  24.137  1.00  0.00     0.031 A 
ATOM     78  C   UNL A   1      35.385  22.934  26.676  1.00  0.00     0.022 A 
ATOM     79  C   UNL A   1      35.889  22.626  24.332  1.00  0.00     0.060 A 
ATOM     80  C   UNL A   1      36.266  23.077  25.601  1.00  0.00     0.059 A 
ATOM     81  Cl  UNL A   1      36.928  22.753  22.958  1.00  0.00    -0.083 Cl
ATOM     82  Cl  UNL A   1      37.786  23.841  25.903  1.00  0.00    -0.083 Cl
ENDBRANCH  74  75
ENDBRANCH  66  74
ENDBRANCH  60  63
ENDBRANCH  58  59
ENDBRANCH  57  58
ENDBRANCH   1  57
TORSDOF 13
ENDMDL
