MODEL 1
REMARK VINA RESULT:     -11.5      0.000      0.000
REMARK SMILES COCCNC(=O)c1cccc(NC(=O)[C@@H]2CCCC[C@H]2C(=O)NCCCCNC(=O)c2ccc(-c3c4nc(c(-c5ccccc5)c5ccc([nH]5)c(-c5ccccc5)c5nc(c(-c6ccccc6)c6ccc3[nH]6)C=C5)C=C4)cc2)c1
REMARK SMILES IDX 22 1 23 2 24 3 21 5 16 6 17 7 18 8 20 9 19 10 14 11 13 12
REMARK SMILES IDX 15 14 12 15 8 16 9 17 80 18 10 19 11 20 6 21 5 22 7 24 4 25
REMARK SMILES IDX 3 26 2 27 1 28 25 29 26 30 27 31 28 32 29 33 30 34 31 36
REMARK SMILES IDX 32 37 33 38 79 39 34 40 78 41 35 42 36 43 37 44 72 45 38 46
REMARK SMILES IDX 77 47 71 48 73 49 39 50 76 51 70 52 69 53 40 55 62 56 47 57
REMARK SMILES IDX 61 58 48 59 51 60 60 61 74 62 49 63 50 64 59 66 75 67 52 68
REMARK SMILES IDX 41 69 42 70 46 71 43 72 45 73 44 74 63 75 64 76 68 77 65 78
REMARK SMILES IDX 67 79 66 80 53 81 54 82 58 83 55 84 57 85 56 86
REMARK H PARENT 24 4 13 13 5 23 29 35 73 54 51 65
REMARK Flexibility Score: inf
ROOT
ATOM      1  C   UNL A   1      34.618  24.211  24.797  1.00  0.00     0.223 C 
ATOM      2  O   UNL A   1      34.506  25.399  25.102  1.00  0.00    -0.275 OA
ATOM      3  N   UNL A   1      35.877  23.726  24.804  1.00  0.00    -0.356 N 
ATOM      4  H   UNL A   1      36.505  24.234  25.367  1.00  0.00     0.163 HD
ENDROOT
BRANCH   1   5
ATOM      5  C   UNL A   1      33.407  23.343  24.474  1.00  0.00     0.091 C 
ATOM      6  C   UNL A   1      33.361  22.881  23.010  1.00  0.00     0.091 C 
ATOM      7  C   UNL A   1      32.467  21.640  22.776  1.00  0.00     0.014 C 
ATOM      8  C   UNL A   1      32.517  20.609  23.890  1.00  0.00     0.001 C 
ATOM      9  C   UNL A   1      33.186  22.292  25.578  1.00  0.00     0.014 C 
ATOM     10  C   UNL A   1      32.143  21.256  25.206  1.00  0.00     0.001 C 
BRANCH   6  11
ATOM     11  C   UNL A   1      32.996  23.860  21.862  1.00  0.00     0.228 C 
ATOM     12  N   UNL A   1      32.328  25.036  21.918  1.00  0.00    -0.326 N 
ATOM     13  H   UNL A   1      32.414  25.551  21.084  1.00  0.00     0.169 HD
ATOM     14  O   UNL A   1      33.454  23.603  20.733  1.00  0.00    -0.274 OA
BRANCH  12  15
ATOM     15  C   UNL A   1      31.546  25.699  22.866  1.00  0.00     0.041 A 
ATOM     16  C   UNL A   1      31.217  27.712  24.155  1.00  0.00     0.041 A 
ATOM     17  C   UNL A   1      30.258  27.080  24.942  1.00  0.00     0.014 A 
ATOM     18  C   UNL A   1      31.874  27.029  23.128  1.00  0.00     0.040 A 
ATOM     19  C   UNL A   1      29.848  25.796  24.595  1.00  0.00     0.003 A 
ATOM     20  C   UNL A   1      30.449  25.136  23.515  1.00  0.00     0.026 A 
BRANCH  16  21
ATOM     21  C   UNL A   1      31.489  29.142  24.358  1.00  0.00     0.251 C 
ATOM     22  N   UNL A   1      30.681  30.040  23.702  1.00  0.00    -0.350 N 
ATOM     23  H   UNL A   1      30.937  30.988  23.775  1.00  0.00     0.163 HD
ATOM     24  O   UNL A   1      32.384  29.514  25.107  1.00  0.00    -0.269 OA
BRANCH  22  25
ATOM     25  C   UNL A   1      29.488  29.755  22.907  1.00  0.00     0.144 C 
BRANCH  25  26
ATOM     26  C   UNL A   1      28.344  30.749  23.147  1.00  0.00     0.181 C 
BRANCH  26  27
ATOM     27  O   UNL A   1      27.084  30.101  23.346  1.00  0.00    -0.383 OA
ATOM     28  C   UNL A   1      27.137  28.694  23.160  1.00  0.00     0.194 C 
ENDBRANCH  26  27
ENDBRANCH  25  26
ENDBRANCH  22  25
ENDBRANCH  16  21
ENDBRANCH  12  15
ENDBRANCH   6  11
ENDBRANCH   1   5
BRANCH   3  29
ATOM     29  C   UNL A   1      36.462  22.592  24.130  1.00  0.00     0.116 C 
BRANCH  29  30
ATOM     30  C   UNL A   1      36.586  21.409  25.085  1.00  0.00     0.023 C 
BRANCH  30  31
ATOM     31  C   UNL A   1      37.799  20.503  24.855  1.00  0.00     0.023 C 
BRANCH  31  32
ATOM     32  C   UNL A   1      38.987  20.714  25.787  1.00  0.00     0.116 C 
BRANCH  32  33
ATOM     33  N   UNL A   1      39.974  19.650  25.725  1.00  0.00    -0.352 N 
ATOM     34  C   UNL A   1      41.290  19.672  26.108  1.00  0.00     0.251 C 
ATOM     35  H   UNL A   1      39.653  18.794  25.358  1.00  0.00     0.163 HD
ATOM     36  O   UNL A   1      42.001  18.685  25.959  1.00  0.00    -0.269 OA
BRANCH  34  37
ATOM     37  C   UNL A   1      41.855  20.924  26.641  1.00  0.00     0.039 A 
ATOM     38  C   UNL A   1      42.368  21.851  25.730  1.00  0.00     0.014 A 
ATOM     39  C   UNL A   1      41.804  21.211  28.008  1.00  0.00     0.014 A 
ATOM     40  C   UNL A   1      42.756  23.109  26.182  1.00  0.00     0.010 A 
ATOM     41  C   UNL A   1      42.136  22.488  28.448  1.00  0.00     0.010 A 
ATOM     42  C   UNL A   1      42.598  23.450  27.535  1.00  0.00    -0.014 A 
BRANCH  42  43
ATOM     43  C   UNL A   1      42.872  24.827  28.006  1.00  0.00     0.031 A 
ATOM     44  C   UNL A   1      44.263  25.230  28.391  1.00  0.00     0.074 A 
ATOM     45  C   UNL A   1      41.846  25.690  28.144  1.00  0.00     0.049 A 
ATOM     46  N   UNL A   1      44.685  26.368  28.877  1.00  0.00    -0.248 NA
ATOM     47  C   UNL A   1      45.316  24.215  28.227  1.00  0.00     0.031 C 
ATOM     48  C   UNL A   1      40.444  25.398  27.837  1.00  0.00     0.029 A 
ATOM     49  N   UNL A   1      41.825  26.986  28.590  1.00  0.00    -0.354 N 
ATOM     50  C   UNL A   1      46.047  26.203  29.091  1.00  0.00     0.074 A 
ATOM     51  C   UNL A   1      46.373  24.843  28.720  1.00  0.00     0.031 C 
ATOM     52  C   UNL A   1      39.703  26.489  28.086  1.00  0.00     0.029 A 
ATOM     53  C   UNL A   1      40.568  27.541  28.606  1.00  0.00     0.049 A 
ATOM     54  H   UNL A   1      42.633  27.473  28.873  1.00  0.00     0.167 HD
ATOM     55  C   UNL A   1      46.945  27.109  29.543  1.00  0.00     0.031 A 
ATOM     56  C   UNL A   1      40.159  28.759  29.007  1.00  0.00     0.031 A 
ATOM     57  C   UNL A   1      46.616  28.460  29.908  1.00  0.00     0.049 A 
ATOM     58  C   UNL A   1      41.172  29.734  29.531  1.00  0.00     0.074 A 
ATOM     59  C   UNL A   1      47.464  29.474  30.315  1.00  0.00     0.029 A 
ATOM     60  N   UNL A   1      45.332  28.982  29.918  1.00  0.00    -0.354 N 
ATOM     61  N   UNL A   1      42.469  29.588  29.658  1.00  0.00    -0.248 NA
ATOM     62  C   UNL A   1      40.666  31.043  29.968  1.00  0.00     0.031 C 
ATOM     63  C   UNL A   1      46.687  30.597  30.620  1.00  0.00     0.029 A 
ATOM     64  C   UNL A   1      45.360  30.295  30.357  1.00  0.00     0.049 A 
ATOM     65  H   UNL A   1      44.520  28.493  29.654  1.00  0.00     0.167 HD
ATOM     66  C   UNL A   1      42.936  30.788  30.174  1.00  0.00     0.074 A 
ATOM     67  C   UNL A   1      41.786  31.659  30.316  1.00  0.00     0.031 C 
ATOM     68  C   UNL A   1      44.203  31.139  30.505  1.00  0.00     0.031 A 
BRANCH  55  69
ATOM     69  C   UNL A   1      48.371  26.658  29.675  1.00  0.00    -0.014 A 
ATOM     70  C   UNL A   1      48.817  25.984  30.824  1.00  0.00     0.009 A 
ATOM     71  C   UNL A   1      49.275  26.883  28.626  1.00  0.00     0.009 A 
ATOM     72  C   UNL A   1      50.147  25.575  30.933  1.00  0.00     0.001 A 
ATOM     73  C   UNL A   1      50.599  26.450  28.727  1.00  0.00     0.001 A 
ATOM     74  C   UNL A   1      51.035  25.804  29.883  1.00  0.00     0.000 A 
ENDBRANCH  55  69
BRANCH  56  75
ATOM     75  C   UNL A   1      38.720  29.122  28.931  1.00  0.00    -0.014 A 
ATOM     76  C   UNL A   1      37.889  28.974  30.051  1.00  0.00     0.009 A 
ATOM     77  C   UNL A   1      38.171  29.617  27.738  1.00  0.00     0.009 A 
ATOM     78  C   UNL A   1      36.532  29.296  29.972  1.00  0.00     0.001 A 
ATOM     79  C   UNL A   1      36.819  29.962  27.670  1.00  0.00     0.001 A 
ATOM     80  C   UNL A   1      35.999  29.793  28.784  1.00  0.00     0.000 A 
ENDBRANCH  56  75
BRANCH  68  81
ATOM     81  C   UNL A   1      44.407  32.525  31.044  1.00  0.00    -0.014 A 
ATOM     82  C   UNL A   1      44.635  33.608  30.182  1.00  0.00     0.009 A 
ATOM     83  C   UNL A   1      44.334  32.754  32.426  1.00  0.00     0.009 A 
ATOM     84  C   UNL A   1      44.813  34.893  30.699  1.00  0.00     0.001 A 
ATOM     85  C   UNL A   1      44.486  34.043  32.937  1.00  0.00     0.001 A 
ATOM     86  C   UNL A   1      44.734  35.110  32.074  1.00  0.00     0.000 A 
ENDBRANCH  68  81
ENDBRANCH  42  43
ENDBRANCH  34  37
ENDBRANCH  32  33
ENDBRANCH  31  32
ENDBRANCH  30  31
ENDBRANCH  29  30
ENDBRANCH   3  29
TORSDOF 17
ENDMDL
MODEL 2
REMARK VINA RESULT:     -11.3      3.667      9.366
REMARK SMILES COCCNC(=O)c1cccc(NC(=O)[C@@H]2CCCC[C@H]2C(=O)NCCCCNC(=O)c2ccc(-c3c4nc(c(-c5ccccc5)c5ccc([nH]5)c(-c5ccccc5)c5nc(c(-c6ccccc6)c6ccc3[nH]6)C=C5)C=C4)cc2)c1
REMARK SMILES IDX 22 1 23 2 24 3 21 5 16 6 17 7 18 8 20 9 19 10 14 11 13 12
REMARK SMILES IDX 15 14 12 15 8 16 9 17 80 18 10 19 11 20 6 21 5 22 7 24 4 25
REMARK SMILES IDX 3 26 2 27 1 28 25 29 26 30 27 31 28 32 29 33 30 34 31 36
REMARK SMILES IDX 32 37 33 38 79 39 34 40 78 41 35 42 36 43 37 44 72 45 38 46
REMARK SMILES IDX 77 47 71 48 73 49 39 50 76 51 70 52 69 53 40 55 62 56 47 57
REMARK SMILES IDX 61 58 48 59 51 60 60 61 74 62 49 63 50 64 59 66 75 67 52 68
REMARK SMILES IDX 41 69 42 70 46 71 43 72 45 73 44 74 63 75 64 76 68 77 65 78
REMARK SMILES IDX 67 79 66 80 53 81 54 82 58 83 55 84 57 85 56 86
REMARK H PARENT 24 4 13 13 5 23 29 35 73 54 51 65
REMARK Flexibility Score: inf
ROOT
ATOM      1  C   UNL A   1      32.851  26.881  25.838  1.00  0.00     0.223 C 
ATOM      2  O   UNL A   1      33.723  26.061  26.126  1.00  0.00    -0.275 OA
ATOM      3  N   UNL A   1      32.865  28.021  26.559  1.00  0.00    -0.356 N 
ATOM      4  H   UNL A   1      33.733  28.231  26.972  1.00  0.00     0.163 HD
ENDROOT
BRANCH   1   5
ATOM      5  C   UNL A   1      31.853  26.636  24.713  1.00  0.00     0.091 C 
ATOM      6  C   UNL A   1      30.415  26.422  25.208  1.00  0.00     0.091 C 
ATOM      7  C   UNL A   1      29.339  26.666  24.123  1.00  0.00     0.014 C 
ATOM      8  C   UNL A   1      29.647  27.814  23.178  1.00  0.00     0.001 C 
ATOM      9  C   UNL A   1      32.087  27.628  23.557  1.00  0.00     0.014 C 
ATOM     10  C   UNL A   1      30.988  27.587  22.513  1.00  0.00     0.001 C 
BRANCH   6  11
ATOM     11  C   UNL A   1      29.987  25.104  25.908  1.00  0.00     0.228 C 
ATOM     12  N   UNL A   1      30.512  23.862  25.793  1.00  0.00    -0.326 N 
ATOM     13  H   UNL A   1      30.188  23.256  26.497  1.00  0.00     0.169 HD
ATOM     14  O   UNL A   1      29.101  25.189  26.779  1.00  0.00    -0.274 OA
BRANCH  12  15
ATOM     15  C   UNL A   1      31.398  23.227  24.922  1.00  0.00     0.041 A 
ATOM     16  C   UNL A   1      33.384  21.875  24.698  1.00  0.00     0.041 A 
ATOM     17  C   UNL A   1      33.424  22.116  23.327  1.00  0.00     0.014 A 
ATOM     18  C   UNL A   1      32.389  22.436  25.502  1.00  0.00     0.040 A 
ATOM     19  C   UNL A   1      32.365  22.801  22.738  1.00  0.00     0.003 A 
ATOM     20  C   UNL A   1      31.322  23.296  23.531  1.00  0.00     0.026 A 
BRANCH  16  21
ATOM     21  C   UNL A   1      34.363  20.957  25.298  1.00  0.00     0.251 C 
ATOM     22  N   UNL A   1      33.992  19.641  25.441  1.00  0.00    -0.350 N 
ATOM     23  H   UNL A   1      34.622  19.063  25.929  1.00  0.00     0.163 HD
ATOM     24  O   UNL A   1      35.476  21.349  25.629  1.00  0.00    -0.269 OA
BRANCH  22  25
ATOM     25  C   UNL A   1      32.772  18.998  24.955  1.00  0.00     0.144 C 
BRANCH  25  26
ATOM     26  C   UNL A   1      32.522  17.617  25.577  1.00  0.00     0.181 C 
BRANCH  26  27
ATOM     27  O   UNL A   1      32.906  16.546  24.710  1.00  0.00    -0.383 OA
ATOM     28  C   UNL A   1      33.004  15.292  25.369  1.00  0.00     0.194 C 
ENDBRANCH  26  27
ENDBRANCH  25  26
ENDBRANCH  22  25
ENDBRANCH  16  21
ENDBRANCH  12  15
ENDBRANCH   6  11
ENDBRANCH   1   5
BRANCH   3  29
ATOM     29  C   UNL A   1      31.826  28.986  26.832  1.00  0.00     0.116 C 
BRANCH  29  30
ATOM     30  C   UNL A   1      32.091  30.283  26.072  1.00  0.00     0.023 C 
BRANCH  30  31
ATOM     31  C   UNL A   1      31.727  31.568  26.823  1.00  0.00     0.023 C 
BRANCH  31  32
ATOM     32  C   UNL A   1      32.894  32.447  27.260  1.00  0.00     0.116 C 
BRANCH  32  33
ATOM     33  N   UNL A   1      32.498  33.789  27.651  1.00  0.00    -0.352 N 
ATOM     34  C   UNL A   1      33.123  34.655  28.511  1.00  0.00     0.251 C 
ATOM     35  H   UNL A   1      31.666  34.123  27.242  1.00  0.00     0.163 HD
ATOM     36  O   UNL A   1      32.635  35.752  28.757  1.00  0.00    -0.269 OA
BRANCH  34  37
ATOM     37  C   UNL A   1      34.357  34.221  29.187  1.00  0.00     0.039 A 
ATOM     38  C   UNL A   1      34.235  33.557  30.410  1.00  0.00     0.014 A 
ATOM     39  C   UNL A   1      35.606  34.393  28.583  1.00  0.00     0.014 A 
ATOM     40  C   UNL A   1      35.364  32.987  30.993  1.00  0.00     0.010 A 
ATOM     41  C   UNL A   1      36.721  33.773  29.137  1.00  0.00     0.010 A 
ATOM     42  C   UNL A   1      36.603  33.052  30.337  1.00  0.00    -0.014 A 
BRANCH  42  43
ATOM     43  C   UNL A   1      37.781  32.332  30.871  1.00  0.00     0.031 A 
ATOM     44  C   UNL A   1      38.530  32.880  32.049  1.00  0.00     0.074 A 
ATOM     45  C   UNL A   1      38.209  31.217  30.247  1.00  0.00     0.049 A 
ATOM     46  N   UNL A   1      39.615  32.423  32.619  1.00  0.00    -0.248 NA
ATOM     47  C   UNL A   1      38.004  34.115  32.652  1.00  0.00     0.031 C 
ATOM     48  C   UNL A   1      37.583  30.610  29.069  1.00  0.00     0.029 A 
ATOM     49  N   UNL A   1      39.278  30.400  30.512  1.00  0.00    -0.354 N 
ATOM     50  C   UNL A   1      39.908  33.319  33.638  1.00  0.00     0.074 A 
ATOM     51  C   UNL A   1      38.914  34.367  33.581  1.00  0.00     0.031 C 
ATOM     52  C   UNL A   1      38.268  29.509  28.725  1.00  0.00     0.029 A 
ATOM     53  C   UNL A   1      39.401  29.353  29.631  1.00  0.00     0.049 A 
ATOM     54  H   UNL A   1      39.899  30.550  31.261  1.00  0.00     0.167 HD
ATOM     55  C   UNL A   1      40.910  33.263  34.546  1.00  0.00     0.031 A 
ATOM     56  C   UNL A   1      40.331  28.384  29.554  1.00  0.00     0.031 A 
ATOM     57  C   UNL A   1      41.896  32.218  34.600  1.00  0.00     0.049 A 
ATOM     58  C   UNL A   1      41.448  28.363  30.557  1.00  0.00     0.074 A 
ATOM     59  C   UNL A   1      42.912  32.036  35.520  1.00  0.00     0.029 A 
ATOM     60  N   UNL A   1      41.992  31.180  33.685  1.00  0.00    -0.354 N 
ATOM     61  N   UNL A   1      41.671  29.176  31.561  1.00  0.00    -0.248 NA
ATOM     62  C   UNL A   1      42.443  27.290  30.417  1.00  0.00     0.031 C 
ATOM     63  C   UNL A   1      43.656  30.916  35.134  1.00  0.00     0.029 A 
ATOM     64  C   UNL A   1      43.072  30.373  34.001  1.00  0.00     0.049 A 
ATOM     65  H   UNL A   1      41.384  31.038  32.924  1.00  0.00     0.167 HD
ATOM     66  C   UNL A   1      42.820  28.707  32.181  1.00  0.00     0.074 A 
ATOM     67  C   UNL A   1      43.236  27.525  31.452  1.00  0.00     0.031 C 
ATOM     68  C   UNL A   1      43.476  29.210  33.254  1.00  0.00     0.031 A 
BRANCH  55  69
ATOM     69  C   UNL A   1      40.992  34.377  35.551  1.00  0.00    -0.014 A 
ATOM     70  C   UNL A   1      40.257  34.332  36.747  1.00  0.00     0.009 A 
ATOM     71  C   UNL A   1      41.836  35.472  35.312  1.00  0.00     0.009 A 
ATOM     72  C   UNL A   1      40.341  35.378  37.668  1.00  0.00     0.001 A 
ATOM     73  C   UNL A   1      41.938  36.504  36.247  1.00  0.00     0.001 A 
ATOM     74  C   UNL A   1      41.184  36.460  37.419  1.00  0.00     0.000 A 
ENDBRANCH  55  69
BRANCH  56  75
ATOM     75  C   UNL A   1      40.247  27.355  28.487  1.00  0.00    -0.014 A 
ATOM     76  C   UNL A   1      40.874  27.561  27.248  1.00  0.00     0.009 A 
ATOM     77  C   UNL A   1      39.539  26.162  28.699  1.00  0.00     0.009 A 
ATOM     78  C   UNL A   1      40.776  26.602  26.238  1.00  0.00     0.001 A 
ATOM     79  C   UNL A   1      39.464  25.193  27.695  1.00  0.00     0.001 A 
ATOM     80  C   UNL A   1      40.075  25.418  26.463  1.00  0.00     0.000 A 
ENDBRANCH  56  75
BRANCH  68  81
ATOM     81  C   UNL A   1      44.706  28.477  33.706  1.00  0.00    -0.014 A 
ATOM     82  C   UNL A   1      45.977  28.840  33.234  1.00  0.00     0.009 A 
ATOM     83  C   UNL A   1      44.595  27.437  34.641  1.00  0.00     0.009 A 
ATOM     84  C   UNL A   1      47.112  28.155  33.672  1.00  0.00     0.001 A 
ATOM     85  C   UNL A   1      45.734  26.772  35.096  1.00  0.00     0.001 A 
ATOM     86  C   UNL A   1      46.990  27.125  34.604  1.00  0.00     0.000 A 
ENDBRANCH  68  81
ENDBRANCH  42  43
ENDBRANCH  34  37
ENDBRANCH  32  33
ENDBRANCH  31  32
ENDBRANCH  30  31
ENDBRANCH  29  30
ENDBRANCH   3  29
TORSDOF 17
ENDMDL
MODEL 3
REMARK VINA RESULT:     -11.2      4.110      9.282
REMARK SMILES COCCNC(=O)c1cccc(NC(=O)[C@@H]2CCCC[C@H]2C(=O)NCCCCNC(=O)c2ccc(-c3c4nc(c(-c5ccccc5)c5ccc([nH]5)c(-c5ccccc5)c5nc(c(-c6ccccc6)c6ccc3[nH]6)C=C5)C=C4)cc2)c1
REMARK SMILES IDX 22 1 23 2 24 3 21 5 16 6 17 7 18 8 20 9 19 10 14 11 13 12
REMARK SMILES IDX 15 14 12 15 8 16 9 17 80 18 10 19 11 20 6 21 5 22 7 24 4 25
REMARK SMILES IDX 3 26 2 27 1 28 25 29 26 30 27 31 28 32 29 33 30 34 31 36
REMARK SMILES IDX 32 37 33 38 79 39 34 40 78 41 35 42 36 43 37 44 72 45 38 46
REMARK SMILES IDX 77 47 71 48 73 49 39 50 76 51 70 52 69 53 40 55 62 56 47 57
REMARK SMILES IDX 61 58 48 59 51 60 60 61 74 62 49 63 50 64 59 66 75 67 52 68
REMARK SMILES IDX 41 69 42 70 46 71 43 72 45 73 44 74 63 75 64 76 68 77 65 78
REMARK SMILES IDX 67 79 66 80 53 81 54 82 58 83 55 84 57 85 56 86
REMARK H PARENT 24 4 13 13 5 23 29 35 73 54 51 65
REMARK Flexibility Score: inf
ROOT
ATOM      1  C   UNL A   1      33.101  26.732  25.820  1.00  0.00     0.223 C 
ATOM      2  O   UNL A   1      33.976  25.920  26.120  1.00  0.00    -0.275 OA
ATOM      3  N   UNL A   1      33.088  27.867  26.550  1.00  0.00    -0.356 N 
ATOM      4  H   UNL A   1      33.946  28.083  26.981  1.00  0.00     0.163 HD
ENDROOT
BRANCH   1   5
ATOM      5  C   UNL A   1      32.128  26.484  24.674  1.00  0.00     0.091 C 
ATOM      6  C   UNL A   1      30.655  26.486  25.111  1.00  0.00     0.091 C 
ATOM      7  C   UNL A   1      29.660  26.734  23.953  1.00  0.00     0.014 C 
ATOM      8  C   UNL A   1      30.139  27.736  22.916  1.00  0.00     0.001 C 
ATOM      9  C   UNL A   1      32.523  27.318  23.440  1.00  0.00     0.014 C 
ATOM     10  C   UNL A   1      31.470  27.292  22.348  1.00  0.00     0.001 C 
BRANCH   6  11
ATOM     11  C   UNL A   1      30.048  25.305  25.915  1.00  0.00     0.228 C 
ATOM     12  N   UNL A   1      30.307  23.979  25.819  1.00  0.00    -0.326 N 
ATOM     13  H   UNL A   1      29.940  23.475  26.581  1.00  0.00     0.169 HD
ATOM     14  O   UNL A   1      29.284  25.595  26.855  1.00  0.00    -0.274 OA
BRANCH  12  15
ATOM     15  C   UNL A   1      30.963  23.151  24.908  1.00  0.00     0.041 A 
ATOM     16  C   UNL A   1      32.316  21.179  24.588  1.00  0.00     0.041 A 
ATOM     17  C   UNL A   1      32.557  21.529  23.262  1.00  0.00     0.014 A 
ATOM     18  C   UNL A   1      31.536  21.987  25.420  1.00  0.00     0.040 A 
ATOM     19  C   UNL A   1      31.882  22.622  22.726  1.00  0.00     0.003 A 
ATOM     20  C   UNL A   1      31.035  23.389  23.536  1.00  0.00     0.026 A 
BRANCH  16  21
ATOM     21  C   UNL A   1      32.829  19.901  25.103  1.00  0.00     0.251 C 
ATOM     22  N   UNL A   1      34.048  19.918  25.738  1.00  0.00    -0.350 N 
ATOM     23  H   UNL A   1      34.418  19.041  25.991  1.00  0.00     0.163 HD
ATOM     24  O   UNL A   1      32.178  18.870  24.993  1.00  0.00    -0.269 OA
BRANCH  22  25
ATOM     25  C   UNL A   1      34.862  21.083  26.081  1.00  0.00     0.144 C 
BRANCH  25  26
ATOM     26  C   UNL A   1      35.955  21.388  25.049  1.00  0.00     0.181 C 
BRANCH  26  27
ATOM     27  O   UNL A   1      36.385  22.752  25.090  1.00  0.00    -0.383 OA
ATOM     28  C   UNL A   1      37.647  22.928  25.718  1.00  0.00     0.194 C 
ENDBRANCH  26  27
ENDBRANCH  25  26
ENDBRANCH  22  25
ENDBRANCH  16  21
ENDBRANCH  12  15
ENDBRANCH   6  11
ENDBRANCH   1   5
BRANCH   3  29
ATOM     29  C   UNL A   1      32.034  28.819  26.808  1.00  0.00     0.116 C 
BRANCH  29  30
ATOM     30  C   UNL A   1      32.267  30.101  26.016  1.00  0.00     0.023 C 
BRANCH  30  31
ATOM     31  C   UNL A   1      31.804  31.390  26.702  1.00  0.00     0.023 C 
BRANCH  31  32
ATOM     32  C   UNL A   1      32.893  32.242  27.344  1.00  0.00     0.116 C 
BRANCH  32  33
ATOM     33  N   UNL A   1      32.491  33.617  27.585  1.00  0.00    -0.352 N 
ATOM     34  C   UNL A   1      33.066  34.551  28.407  1.00  0.00     0.251 C 
ATOM     35  H   UNL A   1      31.696  33.921  27.088  1.00  0.00     0.163 HD
ATOM     36  O   UNL A   1      32.580  35.670  28.519  1.00  0.00    -0.269 OA
BRANCH  34  37
ATOM     37  C   UNL A   1      34.242  34.168  29.208  1.00  0.00     0.039 A 
ATOM     38  C   UNL A   1      34.026  33.453  30.388  1.00  0.00     0.014 A 
ATOM     39  C   UNL A   1      35.537  34.438  28.757  1.00  0.00     0.014 A 
ATOM     40  C   UNL A   1      35.116  32.931  31.079  1.00  0.00     0.010 A 
ATOM     41  C   UNL A   1      36.620  33.866  29.416  1.00  0.00     0.010 A 
ATOM     42  C   UNL A   1      36.415  33.096  30.572  1.00  0.00    -0.014 A 
BRANCH  42  43
ATOM     43  C   UNL A   1      37.569  32.429  31.217  1.00  0.00     0.031 A 
ATOM     44  C   UNL A   1      38.242  31.269  30.546  1.00  0.00     0.074 A 
ATOM     45  C   UNL A   1      37.964  32.835  32.439  1.00  0.00     0.049 A 
ATOM     46  N   UNL A   1      39.225  30.524  30.981  1.00  0.00    -0.248 NA
ATOM     47  C   UNL A   1      37.728  30.882  29.223  1.00  0.00     0.031 C 
ATOM     48  C   UNL A   1      37.361  33.929  33.206  1.00  0.00     0.029 A 
ATOM     49  N   UNL A   1      38.960  32.367  33.257  1.00  0.00    -0.354 N 
ATOM     50  C   UNL A   1      39.440  29.573  29.993  1.00  0.00     0.074 A 
ATOM     51  C   UNL A   1      38.458  29.808  28.956  1.00  0.00     0.031 C 
ATOM     52  C   UNL A   1      38.013  34.059  34.373  1.00  0.00     0.029 A 
ATOM     53  C   UNL A   1      39.050  33.036  34.453  1.00  0.00     0.049 A 
ATOM     54  H   UNL A   1      39.556  31.622  33.010  1.00  0.00     0.167 HD
ATOM     55  C   UNL A   1      40.379  28.600  29.950  1.00  0.00     0.031 A 
ATOM     56  C   UNL A   1      39.868  32.839  35.503  1.00  0.00     0.031 A 
ATOM     57  C   UNL A   1      41.354  28.372  30.982  1.00  0.00     0.049 A 
ATOM     58  C   UNL A   1      40.882  31.733  35.441  1.00  0.00     0.074 A 
ATOM     59  C   UNL A   1      42.389  27.455  31.003  1.00  0.00     0.029 A 
ATOM     60  N   UNL A   1      41.406  29.064  32.182  1.00  0.00    -0.354 N 
ATOM     61  N   UNL A   1      41.122  30.888  34.467  1.00  0.00    -0.248 NA
ATOM     62  C   UNL A   1      41.739  31.555  36.621  1.00  0.00     0.031 C 
ATOM     63  C   UNL A   1      43.038  27.557  32.238  1.00  0.00     0.029 A 
ATOM     64  C   UNL A   1      42.436  28.572  32.965  1.00  0.00     0.049 A 
ATOM     65  H   UNL A   1      40.802  29.797  32.440  1.00  0.00     0.167 HD
ATOM     66  C   UNL A   1      42.165  30.088  34.910  1.00  0.00     0.074 A 
ATOM     67  C   UNL A   1      42.526  30.562  36.231  1.00  0.00     0.031 C 
ATOM     68  C   UNL A   1      42.769  29.049  34.282  1.00  0.00     0.031 A 
BRANCH  55  69
ATOM     69  C   UNL A   1      40.387  27.703  28.745  1.00  0.00    -0.014 A 
ATOM     70  C   UNL A   1      41.128  28.033  27.598  1.00  0.00     0.009 A 
ATOM     71  C   UNL A   1      39.668  26.499  28.767  1.00  0.00     0.009 A 
ATOM     72  C   UNL A   1      41.121  27.189  26.486  1.00  0.00     0.001 A 
ATOM     73  C   UNL A   1      39.684  25.645  27.663  1.00  0.00     0.001 A 
ATOM     74  C   UNL A   1      40.403  25.995  26.521  1.00  0.00     0.000 A 
ENDBRANCH  55  69
BRANCH  56  75
ATOM     75  C   UNL A   1      39.759  33.705  36.704  1.00  0.00    -0.014 A 
ATOM     76  C   UNL A   1      38.909  33.351  37.763  1.00  0.00     0.009 A 
ATOM     77  C   UNL A   1      40.504  34.891  36.799  1.00  0.00     0.009 A 
ATOM     78  C   UNL A   1      38.791  34.178  38.882  1.00  0.00     0.001 A 
ATOM     79  C   UNL A   1      40.403  35.702  37.932  1.00  0.00     0.001 A 
ATOM     80  C   UNL A   1      39.541  35.350  38.968  1.00  0.00     0.000 A 
ENDBRANCH  56  75
BRANCH  68  81
ATOM     81  C   UNL A   1      43.886  28.366  35.017  1.00  0.00    -0.014 A 
ATOM     82  C   UNL A   1      43.650  27.206  35.772  1.00  0.00     0.009 A 
ATOM     83  C   UNL A   1      45.193  28.866  34.922  1.00  0.00     0.009 A 
ATOM     84  C   UNL A   1      44.701  26.576  36.441  1.00  0.00     0.001 A 
ATOM     85  C   UNL A   1      46.245  28.218  35.571  1.00  0.00     0.001 A 
ATOM     86  C   UNL A   1      45.996  27.080  36.336  1.00  0.00     0.000 A 
ENDBRANCH  68  81
ENDBRANCH  42  43
ENDBRANCH  34  37
ENDBRANCH  32  33
ENDBRANCH  31  32
ENDBRANCH  30  31
ENDBRANCH  29  30
ENDBRANCH   3  29
TORSDOF 17
ENDMDL
