MODEL 1
REMARK VINA RESULT:     -12.6      0.000      0.000
REMARK SMILES Cc1cc(=O)n2cc(-c3ccccc3)nc2n1[C@H](C)C(=O)NCCCCNC(=O)c1ccc(-c2c3nc(c(-c4ccccc4)c4ccc([nH]4)c(-c4ccccc4)c4nc(c(-c5ccccc5)c5ccc2[nH]5)C=C4)C=C3)cc1
REMARK SMILES IDX 24 1 23 2 22 3 20 4 21 5 18 7 19 8 17 9 1 10 2 11 3 12 4 13
REMARK SMILES IDX 16 14 5 15 6 16 15 17 7 18 8 19 9 20 10 21 14 22 11 23 13 24
REMARK SMILES IDX 12 25 25 26 26 27 27 28 28 29 29 31 30 32 31 33 77 34 32 35
REMARK SMILES IDX 76 36 33 37 34 38 35 39 70 40 36 41 75 42 69 43 71 44 37 45
REMARK SMILES IDX 74 46 68 47 67 48 38 50 60 51 45 52 59 53 46 54 49 55 58 56
REMARK SMILES IDX 72 57 47 58 48 59 57 61 73 62 50 63 39 64 40 65 44 66 41 67
REMARK SMILES IDX 43 68 42 69 61 70 62 71 66 72 63 73 65 74 64 75 51 76 52 77
REMARK SMILES IDX 56 78 53 79 55 80 54 81
REMARK H PARENT 22 6 27 30 71 49 49 60
REMARK Flexibility Score: inf
ROOT
ATOM      1  C   UNL A   1      32.075  29.179  25.784  1.00  0.00     0.023 C 
ENDROOT
BRANCH   1   2
ATOM      2  C   UNL A   1      31.984  29.299  24.261  1.00  0.00     0.116 C 
BRANCH   2   3
ATOM      3  N   UNL A   1      33.108  28.781  23.495  1.00  0.00    -0.354 N 
ATOM      4  C   UNL A   1      33.207  27.761  22.577  1.00  0.00     0.242 C 
ATOM      5  O   UNL A   1      34.166  27.877  21.796  1.00  0.00    -0.273 OA
ATOM      6  H   UNL A   1      33.958  29.247  23.666  1.00  0.00     0.163 HD
BRANCH   4   7
ATOM      7  C   UNL A   1      32.284  26.501  22.476  1.00  0.00     0.176 C 
ATOM      8  C   UNL A   1      32.613  25.507  21.364  1.00  0.00     0.042 C 
BRANCH   7   9
ATOM      9  N   UNL A   1      31.881  25.816  23.771  1.00  0.00    -0.303 N 
ATOM     10  C   UNL A   1      29.513  26.724  23.903  1.00  0.00     0.065 C 
ATOM     11  C   UNL A   1      30.638  25.915  24.437  1.00  0.00     0.024 A 
ATOM     12  C   UNL A   1      30.377  25.319  25.616  1.00  0.00     0.093 A 
ATOM     13  C   UNL A   1      31.403  24.535  26.286  1.00  0.00     0.259 A 
ATOM     14  C   UNL A   1      32.885  25.080  24.393  1.00  0.00     0.218 A 
ATOM     15  O   UNL A   1      31.247  23.973  27.369  1.00  0.00    -0.269 OA
ATOM     16  N   UNL A   1      32.605  24.468  25.611  1.00  0.00    -0.251 N 
ATOM     17  N   UNL A   1      34.140  24.832  24.043  1.00  0.00    -0.212 NA
ATOM     18  C   UNL A   1      33.719  23.793  26.013  1.00  0.00     0.127 A 
ATOM     19  C   UNL A   1      34.642  23.994  25.023  1.00  0.00     0.091 A 
BRANCH  19  20
ATOM     20  C   UNL A   1      35.951  23.375  25.089  1.00  0.00     0.002 A 
ATOM     21  C   UNL A   1      36.156  22.135  24.460  1.00  0.00     0.010 A 
ATOM     22  C   UNL A   1      36.959  23.906  25.895  1.00  0.00     0.010 A 
ATOM     23  C   UNL A   1      37.342  21.426  24.651  1.00  0.00     0.001 A 
ATOM     24  C   UNL A   1      38.147  23.190  26.090  1.00  0.00     0.001 A 
ATOM     25  C   UNL A   1      38.334  21.951  25.473  1.00  0.00     0.000 A 
ENDBRANCH  19  20
ENDBRANCH   7   9
ENDBRANCH   4   7
ENDBRANCH   2   3
ENDBRANCH   1   2
BRANCH   1  26
ATOM     26  C   UNL A   1      33.155  28.237  26.345  1.00  0.00     0.023 C 
BRANCH  26  27
ATOM     27  C   UNL A   1      34.495  28.865  26.720  1.00  0.00     0.116 C 
BRANCH  27  28
ATOM     28  N   UNL A   1      34.458  30.306  26.956  1.00  0.00    -0.352 N 
ATOM     29  C   UNL A   1      35.238  31.021  27.851  1.00  0.00     0.251 C 
ATOM     30  H   UNL A   1      33.811  30.824  26.424  1.00  0.00     0.163 HD
ATOM     31  O   UNL A   1      34.946  32.163  28.183  1.00  0.00    -0.269 OA
BRANCH  29  32
ATOM     32  C   UNL A   1      36.450  30.378  28.396  1.00  0.00     0.039 A 
ATOM     33  C   UNL A   1      36.411  29.614  29.567  1.00  0.00     0.014 A 
ATOM     34  C   UNL A   1      37.636  30.523  27.680  1.00  0.00     0.014 A 
ATOM     35  C   UNL A   1      37.559  28.927  29.959  1.00  0.00     0.010 A 
ATOM     36  C   UNL A   1      38.727  29.751  27.998  1.00  0.00     0.010 A 
ATOM     37  C   UNL A   1      38.709  28.983  29.157  1.00  0.00    -0.014 A 
BRANCH  37  38
ATOM     38  C   UNL A   1      39.872  28.153  29.458  1.00  0.00     0.031 A 
ATOM     39  C   UNL A   1      40.269  28.115  30.893  1.00  0.00     0.074 A 
ATOM     40  C   UNL A   1      40.422  27.305  28.563  1.00  0.00     0.049 A 
ATOM     41  N   UNL A   1      41.360  28.564  31.416  1.00  0.00    -0.248 NA
ATOM     42  C   UNL A   1      39.298  27.613  31.880  1.00  0.00     0.031 C 
ATOM     43  C   UNL A   1      39.958  26.984  27.207  1.00  0.00     0.029 A 
ATOM     44  N   UNL A   1      41.461  26.444  28.732  1.00  0.00    -0.354 N 
ATOM     45  C   UNL A   1      41.305  28.244  32.771  1.00  0.00     0.074 A 
ATOM     46  C   UNL A   1      39.958  27.800  33.025  1.00  0.00     0.031 C 
ATOM     47  C   UNL A   1      40.547  25.844  26.786  1.00  0.00     0.029 A 
ATOM     48  C   UNL A   1      41.554  25.459  27.758  1.00  0.00     0.049 A 
ATOM     49  H   UNL A   1      42.095  26.513  29.482  1.00  0.00     0.167 HD
ATOM     50  C   UNL A   1      42.436  28.160  33.527  1.00  0.00     0.031 A 
ATOM     51  C   UNL A   1      42.382  24.386  27.761  1.00  0.00     0.031 A 
ATOM     52  C   UNL A   1      43.570  28.735  32.850  1.00  0.00     0.049 A 
ATOM     53  C   UNL A   1      43.495  24.694  28.687  1.00  0.00     0.074 A 
ATOM     54  C   UNL A   1      43.890  29.989  32.371  1.00  0.00     0.029 A 
ATOM     55  N   UNL A   1      44.427  27.860  32.225  1.00  0.00    -0.354 N 
ATOM     56  N   UNL A   1      44.371  25.632  28.464  1.00  0.00    -0.248 NA
ATOM     57  C   UNL A   1      43.371  24.271  30.072  1.00  0.00     0.031 C 
ATOM     58  C   UNL A   1      44.569  29.746  31.142  1.00  0.00     0.029 A 
ATOM     59  C   UNL A   1      44.690  28.364  30.979  1.00  0.00     0.049 A 
ATOM     60  H   UNL A   1      44.786  27.026  32.604  1.00  0.00     0.167 HD
ATOM     61  C   UNL A   1      44.570  26.226  29.701  1.00  0.00     0.074 A 
ATOM     62  C   UNL A   1      44.013  25.279  30.668  1.00  0.00     0.031 C 
ATOM     63  C   UNL A   1      44.904  27.547  29.804  1.00  0.00     0.031 A 
BRANCH  50  64
ATOM     64  C   UNL A   1      42.621  27.206  34.682  1.00  0.00    -0.014 A 
ATOM     65  C   UNL A   1      42.892  25.853  34.399  1.00  0.00     0.009 A 
ATOM     66  C   UNL A   1      42.252  27.513  36.003  1.00  0.00     0.009 A 
ATOM     67  C   UNL A   1      42.713  24.855  35.363  1.00  0.00     0.001 A 
ATOM     68  C   UNL A   1      42.112  26.523  36.981  1.00  0.00     0.001 A 
ATOM     69  C   UNL A   1      42.313  25.190  36.652  1.00  0.00     0.000 A 
ENDBRANCH  50  64
BRANCH  51  70
ATOM     70  C   UNL A   1      42.124  23.023  27.248  1.00  0.00    -0.014 A 
ATOM     71  C   UNL A   1      42.953  22.450  26.271  1.00  0.00     0.009 A 
ATOM     72  C   UNL A   1      41.226  22.175  27.923  1.00  0.00     0.009 A 
ATOM     73  C   UNL A   1      42.910  21.073  26.008  1.00  0.00     0.001 A 
ATOM     74  C   UNL A   1      41.182  20.802  27.660  1.00  0.00     0.001 A 
ATOM     75  C   UNL A   1      42.036  20.248  26.712  1.00  0.00     0.000 A 
ENDBRANCH  51  70
BRANCH  63  76
ATOM     76  C   UNL A   1      45.274  28.290  28.543  1.00  0.00    -0.014 A 
ATOM     77  C   UNL A   1      44.345  29.019  27.778  1.00  0.00     0.009 A 
ATOM     78  C   UNL A   1      46.635  28.412  28.225  1.00  0.00     0.009 A 
ATOM     79  C   UNL A   1      44.768  29.831  26.720  1.00  0.00     0.001 A 
ATOM     80  C   UNL A   1      47.059  29.239  27.184  1.00  0.00     0.001 A 
ATOM     81  C   UNL A   1      46.126  29.948  26.430  1.00  0.00     0.000 A 
ENDBRANCH  63  76
ENDBRANCH  37  38
ENDBRANCH  29  32
ENDBRANCH  27  28
ENDBRANCH  26  27
ENDBRANCH   1  26
TORSDOF 13
ENDMDL
MODEL 2
REMARK VINA RESULT:     -12.2      1.633      5.846
REMARK SMILES Cc1cc(=O)n2cc(-c3ccccc3)nc2n1[C@H](C)C(=O)NCCCCNC(=O)c1ccc(-c2c3nc(c(-c4ccccc4)c4ccc([nH]4)c(-c4ccccc4)c4nc(c(-c5ccccc5)c5ccc2[nH]5)C=C4)C=C3)cc1
REMARK SMILES IDX 24 1 23 2 22 3 20 4 21 5 18 7 19 8 17 9 1 10 2 11 3 12 4 13
REMARK SMILES IDX 16 14 5 15 6 16 15 17 7 18 8 19 9 20 10 21 14 22 11 23 13 24
REMARK SMILES IDX 12 25 25 26 26 27 27 28 28 29 29 31 30 32 31 33 77 34 32 35
REMARK SMILES IDX 76 36 33 37 34 38 35 39 70 40 36 41 75 42 69 43 71 44 37 45
REMARK SMILES IDX 74 46 68 47 67 48 38 50 60 51 45 52 59 53 46 54 49 55 58 56
REMARK SMILES IDX 72 57 47 58 48 59 57 61 73 62 50 63 39 64 40 65 44 66 41 67
REMARK SMILES IDX 43 68 42 69 61 70 62 71 66 72 63 73 65 74 64 75 51 76 52 77
REMARK SMILES IDX 56 78 53 79 55 80 54 81
REMARK H PARENT 22 6 27 30 71 49 49 60
REMARK Flexibility Score: inf
ROOT
ATOM      1  C   UNL A   1      32.846  29.676  26.122  1.00  0.00     0.023 C 
ENDROOT
BRANCH   1   2
ATOM      2  C   UNL A   1      32.441  29.389  24.674  1.00  0.00     0.116 C 
BRANCH   2   3
ATOM      3  N   UNL A   1      33.492  28.922  23.781  1.00  0.00    -0.354 N 
ATOM      4  C   UNL A   1      33.484  28.023  22.739  1.00  0.00     0.242 C 
ATOM      5  O   UNL A   1      34.403  28.193  21.921  1.00  0.00    -0.273 OA
ATOM      6  H   UNL A   1      34.374  29.323  23.956  1.00  0.00     0.163 HD
BRANCH   4   7
ATOM      7  C   UNL A   1      32.491  26.831  22.540  1.00  0.00     0.176 C 
ATOM      8  C   UNL A   1      32.785  25.891  21.372  1.00  0.00     0.042 C 
BRANCH   7   9
ATOM      9  N   UNL A   1      32.019  26.090  23.780  1.00  0.00    -0.303 N 
ATOM     10  C   UNL A   1      29.663  27.034  23.855  1.00  0.00     0.065 C 
ATOM     11  C   UNL A   1      30.750  26.179  24.395  1.00  0.00     0.024 A 
ATOM     12  C   UNL A   1      30.427  25.530  25.531  1.00  0.00     0.093 A 
ATOM     13  C   UNL A   1      31.410  24.695  26.205  1.00  0.00     0.259 A 
ATOM     14  C   UNL A   1      32.983  25.305  24.408  1.00  0.00     0.218 A 
ATOM     15  O   UNL A   1      31.196  24.084  27.250  1.00  0.00    -0.269 OA
ATOM     16  N   UNL A   1      32.639  24.640  25.580  1.00  0.00    -0.251 N 
ATOM     17  N   UNL A   1      34.248  25.052  24.101  1.00  0.00    -0.212 NA
ATOM     18  C   UNL A   1      33.723  23.925  25.996  1.00  0.00     0.127 A 
ATOM     19  C   UNL A   1      34.693  24.158  25.058  1.00  0.00     0.091 A 
BRANCH  19  20
ATOM     20  C   UNL A   1      35.987  23.512  25.150  1.00  0.00     0.002 A 
ATOM     21  C   UNL A   1      36.150  22.224  24.615  1.00  0.00     0.010 A 
ATOM     22  C   UNL A   1      37.022  24.077  25.897  1.00  0.00     0.010 A 
ATOM     23  C   UNL A   1      37.322  21.501  24.840  1.00  0.00     0.001 A 
ATOM     24  C   UNL A   1      38.196  23.348  26.126  1.00  0.00     0.001 A 
ATOM     25  C   UNL A   1      38.341  22.062  25.603  1.00  0.00     0.000 A 
ENDBRANCH  19  20
ENDBRANCH   7   9
ENDBRANCH   4   7
ENDBRANCH   2   3
ENDBRANCH   1   2
BRANCH   1  26
ATOM     26  C   UNL A   1      33.662  28.590  26.845  1.00  0.00     0.023 C 
BRANCH  26  27
ATOM     27  C   UNL A   1      35.085  28.956  27.260  1.00  0.00     0.116 C 
BRANCH  27  28
ATOM     28  N   UNL A   1      35.182  29.885  28.383  1.00  0.00    -0.352 N 
ATOM     29  C   UNL A   1      36.218  29.974  29.300  1.00  0.00     0.251 C 
ATOM     30  H   UNL A   1      34.434  30.515  28.500  1.00  0.00     0.163 HD
ATOM     31  O   UNL A   1      36.086  30.577  30.357  1.00  0.00    -0.269 OA
BRANCH  29  32
ATOM     32  C   UNL A   1      37.505  29.330  28.970  1.00  0.00     0.039 A 
ATOM     33  C   UNL A   1      38.241  29.700  27.840  1.00  0.00     0.014 A 
ATOM     34  C   UNL A   1      37.987  28.362  29.849  1.00  0.00     0.014 A 
ATOM     35  C   UNL A   1      39.508  29.148  27.653  1.00  0.00     0.010 A 
ATOM     36  C   UNL A   1      39.279  27.912  29.730  1.00  0.00     0.010 A 
ATOM     37  C   UNL A   1      40.031  28.270  28.616  1.00  0.00    -0.014 A 
BRANCH  37  38
ATOM     38  C   UNL A   1      41.409  27.799  28.528  1.00  0.00     0.031 A 
ATOM     39  C   UNL A   1      41.607  26.562  27.722  1.00  0.00     0.074 A 
ATOM     40  C   UNL A   1      42.465  28.529  28.947  1.00  0.00     0.049 A 
ATOM     41  N   UNL A   1      42.004  25.408  28.141  1.00  0.00    -0.248 NA
ATOM     42  C   UNL A   1      41.221  26.578  26.301  1.00  0.00     0.031 C 
ATOM     43  C   UNL A   1      42.472  29.901  29.472  1.00  0.00     0.029 A 
ATOM     44  N   UNL A   1      43.790  28.234  28.872  1.00  0.00    -0.354 N 
ATOM     45  C   UNL A   1      42.095  24.592  27.017  1.00  0.00     0.074 A 
ATOM     46  C   UNL A   1      41.461  25.315  25.943  1.00  0.00     0.031 C 
ATOM     47  C   UNL A   1      43.729  30.395  29.428  1.00  0.00     0.029 A 
ATOM     48  C   UNL A   1      44.632  29.324  29.048  1.00  0.00     0.049 A 
ATOM     49  H   UNL A   1      44.125  27.323  28.707  1.00  0.00     0.167 HD
ATOM     50  C   UNL A   1      42.885  23.481  27.007  1.00  0.00     0.031 A 
ATOM     51  C   UNL A   1      45.975  29.353  28.867  1.00  0.00     0.031 A 
ATOM     52  C   UNL A   1      43.309  23.122  28.336  1.00  0.00     0.049 A 
ATOM     53  C   UNL A   1      46.458  27.957  28.947  1.00  0.00     0.074 A 
ATOM     54  C   UNL A   1      42.667  22.751  29.500  1.00  0.00     0.029 A 
ATOM     55  N   UNL A   1      44.576  23.505  28.707  1.00  0.00    -0.354 N 
ATOM     56  N   UNL A   1      46.410  27.245  30.036  1.00  0.00    -0.248 NA
ATOM     57  C   UNL A   1      46.573  27.200  27.710  1.00  0.00     0.031 C 
ATOM     58  C   UNL A   1      43.403  23.392  30.539  1.00  0.00     0.029 A 
ATOM     59  C   UNL A   1      44.489  24.052  29.959  1.00  0.00     0.049 A 
ATOM     60  H   UNL A   1      45.395  23.406  28.170  1.00  0.00     0.167 HD
ATOM     61  C   UNL A   1      46.032  25.979  29.612  1.00  0.00     0.074 A 
ATOM     62  C   UNL A   1      46.253  25.986  28.165  1.00  0.00     0.031 C 
ATOM     63  C   UNL A   1      45.309  25.151  30.423  1.00  0.00     0.031 A 
BRANCH  50  64
ATOM     64  C   UNL A   1      43.612  22.961  25.791  1.00  0.00    -0.014 A 
ATOM     65  C   UNL A   1      43.615  21.573  25.552  1.00  0.00     0.009 A 
ATOM     66  C   UNL A   1      44.527  23.730  25.051  1.00  0.00     0.009 A 
ATOM     67  C   UNL A   1      44.544  20.982  24.689  1.00  0.00     0.001 A 
ATOM     68  C   UNL A   1      45.429  23.147  24.156  1.00  0.00     0.001 A 
ATOM     69  C   UNL A   1      45.458  21.770  23.999  1.00  0.00     0.000 A 
ENDBRANCH  50  64
BRANCH  51  70
ATOM     70  C   UNL A   1      46.810  30.459  28.352  1.00  0.00    -0.014 A 
ATOM     71  C   UNL A   1      48.197  30.481  28.570  1.00  0.00     0.009 A 
ATOM     72  C   UNL A   1      46.284  31.354  27.400  1.00  0.00     0.009 A 
ATOM     73  C   UNL A   1      49.028  31.340  27.836  1.00  0.00     0.001 A 
ATOM     74  C   UNL A   1      47.112  32.211  26.669  1.00  0.00     0.001 A 
ATOM     75  C   UNL A   1      48.488  32.192  26.876  1.00  0.00     0.000 A 
ENDBRANCH  51  70
BRANCH  63  76
ATOM     76  C   UNL A   1      45.126  25.546  31.868  1.00  0.00    -0.014 A 
ATOM     77  C   UNL A   1      44.178  26.496  32.292  1.00  0.00     0.009 A 
ATOM     78  C   UNL A   1      45.800  24.799  32.846  1.00  0.00     0.009 A 
ATOM     79  C   UNL A   1      43.927  26.698  33.653  1.00  0.00     0.001 A 
ATOM     80  C   UNL A   1      45.533  24.987  34.203  1.00  0.00     0.001 A 
ATOM     81  C   UNL A   1      44.599  25.937  34.608  1.00  0.00     0.000 A 
ENDBRANCH  63  76
ENDBRANCH  37  38
ENDBRANCH  29  32
ENDBRANCH  27  28
ENDBRANCH  26  27
ENDBRANCH   1  26
TORSDOF 13
ENDMDL
MODEL 3
REMARK VINA RESULT:     -12.1      2.751      7.914
REMARK SMILES Cc1cc(=O)n2cc(-c3ccccc3)nc2n1[C@H](C)C(=O)NCCCCNC(=O)c1ccc(-c2c3nc(c(-c4ccccc4)c4ccc([nH]4)c(-c4ccccc4)c4nc(c(-c5ccccc5)c5ccc2[nH]5)C=C4)C=C3)cc1
REMARK SMILES IDX 24 1 23 2 22 3 20 4 21 5 18 7 19 8 17 9 1 10 2 11 3 12 4 13
REMARK SMILES IDX 16 14 5 15 6 16 15 17 7 18 8 19 9 20 10 21 14 22 11 23 13 24
REMARK SMILES IDX 12 25 25 26 26 27 27 28 28 29 29 31 30 32 31 33 77 34 32 35
REMARK SMILES IDX 76 36 33 37 34 38 35 39 70 40 36 41 75 42 69 43 71 44 37 45
REMARK SMILES IDX 74 46 68 47 67 48 38 50 60 51 45 52 59 53 46 54 49 55 58 56
REMARK SMILES IDX 72 57 47 58 48 59 57 61 73 62 50 63 39 64 40 65 44 66 41 67
REMARK SMILES IDX 43 68 42 69 61 70 62 71 66 72 63 73 65 74 64 75 51 76 52 77
REMARK SMILES IDX 56 78 53 79 55 80 54 81
REMARK H PARENT 22 6 27 30 71 49 49 60
REMARK Flexibility Score: inf
ROOT
ATOM      1  C   UNL A   1      36.893  23.415  26.021  1.00  0.00     0.023 C 
ENDROOT
BRANCH   1   2
ATOM      2  C   UNL A   1      35.579  22.630  26.011  1.00  0.00     0.116 C 
BRANCH   2   3
ATOM      3  N   UNL A   1      34.679  22.845  27.135  1.00  0.00    -0.354 N 
ATOM      4  C   UNL A   1      33.320  22.678  27.274  1.00  0.00     0.242 C 
ATOM      5  O   UNL A   1      32.951  22.510  28.448  1.00  0.00    -0.273 OA
ATOM      6  H   UNL A   1      35.126  23.172  27.949  1.00  0.00     0.163 HD
BRANCH   4   7
ATOM      7  C   UNL A   1      32.250  22.732  26.134  1.00  0.00     0.176 C 
ATOM      8  C   UNL A   1      30.809  22.992  26.568  1.00  0.00     0.042 C 
BRANCH   7   9
ATOM      9  N   UNL A   1      32.617  23.469  24.856  1.00  0.00    -0.303 N 
ATOM     10  C   UNL A   1      32.565  21.468  23.293  1.00  0.00     0.065 C 
ATOM     11  C   UNL A   1      32.775  22.912  23.566  1.00  0.00     0.024 A 
ATOM     12  C   UNL A   1      33.159  23.626  22.491  1.00  0.00     0.093 A 
ATOM     13  C   UNL A   1      33.453  25.045  22.618  1.00  0.00     0.259 A 
ATOM     14  C   UNL A   1      32.900  24.823  25.009  1.00  0.00     0.218 A 
ATOM     15  O   UNL A   1      33.822  25.760  21.688  1.00  0.00    -0.269 OA
ATOM     16  N   UNL A   1      33.296  25.551  23.892  1.00  0.00    -0.251 N 
ATOM     17  N   UNL A   1      32.876  25.612  26.075  1.00  0.00    -0.212 NA
ATOM     18  C   UNL A   1      33.494  26.844  24.276  1.00  0.00     0.127 A 
ATOM     19  C   UNL A   1      33.197  26.875  25.612  1.00  0.00     0.091 A 
BRANCH  19  20
ATOM     20  C   UNL A   1      33.250  28.116  26.357  1.00  0.00     0.002 A 
ATOM     21  C   UNL A   1      32.100  28.919  26.438  1.00  0.00     0.010 A 
ATOM     22  C   UNL A   1      34.459  28.605  26.857  1.00  0.00     0.010 A 
ATOM     23  C   UNL A   1      32.159  30.199  26.991  1.00  0.00     0.001 A 
ATOM     24  C   UNL A   1      34.518  29.892  27.407  1.00  0.00     0.001 A 
ATOM     25  C   UNL A   1      33.372  30.687  27.468  1.00  0.00     0.000 A 
ENDBRANCH  19  20
ENDBRANCH   7   9
ENDBRANCH   4   7
ENDBRANCH   2   3
ENDBRANCH   1   2
BRANCH   1  26
ATOM     26  C   UNL A   1      38.189  22.606  25.835  1.00  0.00     0.023 C 
BRANCH  26  27
ATOM     27  C   UNL A   1      39.379  22.996  26.709  1.00  0.00     0.116 C 
BRANCH  27  28
ATOM     28  N   UNL A   1      40.674  22.510  26.241  1.00  0.00    -0.352 N 
ATOM     29  C   UNL A   1      41.792  23.276  25.949  1.00  0.00     0.251 C 
ATOM     30  H   UNL A   1      40.763  21.537  26.122  1.00  0.00     0.163 HD
ATOM     31  O   UNL A   1      42.727  22.821  25.302  1.00  0.00    -0.269 OA
BRANCH  29  32
ATOM     32  C   UNL A   1      41.842  24.664  26.449  1.00  0.00     0.039 A 
ATOM     33  C   UNL A   1      41.277  25.722  25.730  1.00  0.00     0.014 A 
ATOM     34  C   UNL A   1      42.440  24.884  27.688  1.00  0.00     0.014 A 
ATOM     35  C   UNL A   1      41.243  26.989  26.313  1.00  0.00     0.010 A 
ATOM     36  C   UNL A   1      42.297  26.100  28.311  1.00  0.00     0.010 A 
ATOM     37  C   UNL A   1      41.736  27.165  27.615  1.00  0.00    -0.014 A 
BRANCH  37  38
ATOM     38  C   UNL A   1      41.573  28.439  28.309  1.00  0.00     0.031 A 
ATOM     39  C   UNL A   1      42.657  29.433  28.073  1.00  0.00     0.074 A 
ATOM     40  C   UNL A   1      40.433  28.793  28.940  1.00  0.00     0.049 A 
ATOM     41  N   UNL A   1      43.497  29.897  28.937  1.00  0.00    -0.248 NA
ATOM     42  C   UNL A   1      42.906  29.890  26.696  1.00  0.00     0.031 C 
ATOM     43  C   UNL A   1      39.159  28.065  28.995  1.00  0.00     0.029 A 
ATOM     44  N   UNL A   1      40.135  29.960  29.571  1.00  0.00    -0.354 N 
ATOM     45  C   UNL A   1      44.269  30.841  28.265  1.00  0.00     0.074 A 
ATOM     46  C   UNL A   1      43.966  30.686  26.865  1.00  0.00     0.031 C 
ATOM     47  C   UNL A   1      38.177  28.902  29.396  1.00  0.00     0.029 A 
ATOM     48  C   UNL A   1      38.779  30.160  29.796  1.00  0.00     0.049 A 
ATOM     49  H   UNL A   1      40.822  30.609  29.845  1.00  0.00     0.167 HD
ATOM     50  C   UNL A   1      44.931  31.826  28.936  1.00  0.00     0.031 A 
ATOM     51  C   UNL A   1      38.188  31.290  30.254  1.00  0.00     0.031 A 
ATOM     52  C   UNL A   1      44.980  31.561  30.351  1.00  0.00     0.049 A 
ATOM     53  C   UNL A   1      39.231  32.084  30.940  1.00  0.00     0.074 A 
ATOM     54  C   UNL A   1      45.510  30.561  31.140  1.00  0.00     0.029 A 
ATOM     55  N   UNL A   1      44.065  32.220  31.137  1.00  0.00    -0.354 N 
ATOM     56  N   UNL A   1      39.818  31.697  32.037  1.00  0.00    -0.248 NA
ATOM     57  C   UNL A   1      39.948  33.086  30.168  1.00  0.00     0.031 C 
ATOM     58  C   UNL A   1      44.545  30.363  32.171  1.00  0.00     0.029 A 
ATOM     59  C   UNL A   1      43.524  31.301  31.995  1.00  0.00     0.049 A 
ATOM     60  H   UNL A   1      43.839  33.177  31.091  1.00  0.00     0.167 HD
ATOM     61  C   UNL A   1      41.149  32.049  31.865  1.00  0.00     0.074 A 
ATOM     62  C   UNL A   1      41.148  32.994  30.748  1.00  0.00     0.031 C 
ATOM     63  C   UNL A   1      42.150  31.326  32.450  1.00  0.00     0.031 A 
BRANCH  50  64
ATOM     64  C   UNL A   1      45.170  33.214  28.395  1.00  0.00    -0.014 A 
ATOM     65  C   UNL A   1      44.058  33.981  27.995  1.00  0.00     0.009 A 
ATOM     66  C   UNL A   1      46.434  33.679  27.991  1.00  0.00     0.009 A 
ATOM     67  C   UNL A   1      44.199  35.095  27.161  1.00  0.00     0.001 A 
ATOM     68  C   UNL A   1      46.583  34.816  27.191  1.00  0.00     0.001 A 
ATOM     69  C   UNL A   1      45.463  35.506  26.751  1.00  0.00     0.000 A 
ENDBRANCH  50  64
BRANCH  51  70
ATOM     70  C   UNL A   1      36.868  31.851  29.890  1.00  0.00    -0.014 A 
ATOM     71  C   UNL A   1      35.802  31.840  30.803  1.00  0.00     0.009 A 
ATOM     72  C   UNL A   1      36.736  32.652  28.741  1.00  0.00     0.009 A 
ATOM     73  C   UNL A   1      34.664  32.631  30.590  1.00  0.00     0.001 A 
ATOM     74  C   UNL A   1      35.602  33.440  28.527  1.00  0.00     0.001 A 
ATOM     75  C   UNL A   1      34.570  33.442  29.461  1.00  0.00     0.000 A 
ENDBRANCH  51  70
BRANCH  63  76
ATOM     76  C   UNL A   1      41.774  30.278  33.469  1.00  0.00    -0.014 A 
ATOM     77  C   UNL A   1      41.506  28.938  33.133  1.00  0.00     0.009 A 
ATOM     78  C   UNL A   1      41.877  30.613  34.828  1.00  0.00     0.009 A 
ATOM     79  C   UNL A   1      41.334  27.970  34.128  1.00  0.00     0.001 A 
ATOM     80  C   UNL A   1      41.727  29.643  35.820  1.00  0.00     0.001 A 
ATOM     81  C   UNL A   1      41.454  28.322  35.472  1.00  0.00     0.000 A 
ENDBRANCH  63  76
ENDBRANCH  37  38
ENDBRANCH  29  32
ENDBRANCH  27  28
ENDBRANCH  26  27
ENDBRANCH   1  26
TORSDOF 13
ENDMDL
