MODEL 1
REMARK VINA RESULT:     -11.3      0.000      0.000
REMARK SMILES COc1cccc(-c2cc(OCC(=O)NCCCCNC(=O)c3ccc(-c4c5nc(c(-c6ccccc6)c6ccc([nH]6)c(-c6ccccc6)c6nc(c(-c7ccccc7)c7ccc4[nH]7)C=C6)C=C5)cc3)nc(Nc3ccccc3Br)n2)c1
REMARK SMILES IDX 16 1 15 2 13 3 14 4 12 6 11 7 10 8 8 9 9 10 81 11 72 12
REMARK SMILES IDX 71 13 7 14 3 15 4 16 82 17 5 18 6 19 2 20 1 21 73 22 74 24
REMARK SMILES IDX 75 25 79 26 76 27 78 28 80 29 77 30 17 31 18 32 19 33 20 34
REMARK SMILES IDX 21 35 22 37 23 38 24 39 70 40 25 41 69 42 26 43 27 44 28 45
REMARK SMILES IDX 63 46 29 47 68 48 62 49 64 50 30 51 67 52 61 53 60 54 31 56
REMARK SMILES IDX 53 57 38 58 52 59 39 60 42 61 51 62 65 63 40 64 41 65 50 67
REMARK SMILES IDX 66 68 43 69 32 70 33 71 37 72 34 73 36 74 35 75 54 76 55 77
REMARK SMILES IDX 59 78 56 79 58 80 57 81 44 82 45 83 49 84 46 85 48 86 47 87
REMARK H PARENT 15 5 73 23 20 36 64 55 42 66
REMARK Flexibility Score: inf
ROOT
ATOM      1  C   UNL A   1      30.937  26.914  24.242  1.00  0.00     0.116 C 
ENDROOT
BRANCH   1   2
ATOM      2  N   UNL A   1      30.891  26.347  25.575  1.00  0.00    -0.353 N 
ATOM      3  C   UNL A   1      31.573  25.271  26.059  1.00  0.00     0.258 C 
ATOM      4  O   UNL A   1      31.401  24.944  27.236  1.00  0.00    -0.271 OA
ATOM      5  H   UNL A   1      30.291  26.797  26.213  1.00  0.00     0.163 HD
BRANCH   3   6
ATOM      6  C   UNL A   1      32.540  24.504  25.148  1.00  0.00     0.331 C 
BRANCH   6   7
ATOM      7  O   UNL A   1      33.856  24.307  25.638  1.00  0.00    -0.467 OA
BRANCH   7   8
ATOM      8  C   UNL A   1      34.467  23.114  25.370  1.00  0.00     0.219 A 
ATOM      9  C   UNL A   1      34.601  20.843  24.851  1.00  0.00     0.080 A 
ATOM     10  C   UNL A   1      33.816  21.920  25.192  1.00  0.00     0.097 A 
ATOM     11  N   UNL A   1      35.934  20.932  24.748  1.00  0.00    -0.212 NA
ATOM     12  C   UNL A   1      36.497  22.131  24.947  1.00  0.00     0.231 A 
ATOM     13  N   UNL A   1      35.803  23.230  25.272  1.00  0.00    -0.177 NA
BRANCH   9  14
ATOM     14  C   UNL A   1      34.013  19.539  24.543  1.00  0.00     0.004 A 
ATOM     15  C   UNL A   1      34.263  17.127  24.287  1.00  0.00     0.119 A 
ATOM     16  C   UNL A   1      32.950  17.045  23.825  1.00  0.00     0.046 A 
ATOM     17  C   UNL A   1      34.795  18.370  24.628  1.00  0.00     0.056 A 
ATOM     18  C   UNL A   1      32.154  18.188  23.759  1.00  0.00     0.005 A 
ATOM     19  C   UNL A   1      32.679  19.426  24.128  1.00  0.00     0.010 A 
BRANCH  15  20
ATOM     20  O   UNL A   1      34.956  15.947  24.317  1.00  0.00    -0.497 OA
ATOM     21  C   UNL A   1      35.882  15.815  25.391  1.00  0.00     0.278 C 
ENDBRANCH  15  20
ENDBRANCH   9  14
BRANCH  12  22
ATOM     22  N   UNL A   1      37.880  22.263  24.857  1.00  0.00    -0.323 N 
ATOM     23  H   UNL A   1      38.221  22.739  24.064  1.00  0.00     0.170 HD
BRANCH  22  24
ATOM     24  C   UNL A   1      38.844  21.800  25.760  1.00  0.00     0.055 A 
ATOM     25  C   UNL A   1      39.269  20.465  25.651  1.00  0.00     0.027 A 
ATOM     26  C   UNL A   1      39.487  22.622  26.707  1.00  0.00     0.041 A 
ATOM     27  C   UNL A   1      40.321  19.975  26.431  1.00  0.00     0.002 A 
ATOM     28  C   UNL A   1      40.539  22.129  27.490  1.00  0.00     0.018 A 
ATOM     29  Br  UNL A   1      38.904  24.398  27.079  1.00  0.00    -0.049 Br
ATOM     30  C   UNL A   1      40.962  20.810  27.343  1.00  0.00     0.001 A 
ENDBRANCH  22  24
ENDBRANCH  12  22
ENDBRANCH   7   8
ENDBRANCH   6   7
ENDBRANCH   3   6
ENDBRANCH   1   2
BRANCH   1  31
ATOM     31  C   UNL A   1      30.975  28.440  24.263  1.00  0.00     0.023 C 
BRANCH  31  32
ATOM     32  C   UNL A   1      32.377  29.059  24.268  1.00  0.00     0.023 C 
BRANCH  32  33
ATOM     33  C   UNL A   1      32.993  29.312  25.642  1.00  0.00     0.116 C 
BRANCH  33  34
ATOM     34  N   UNL A   1      32.587  30.579  26.231  1.00  0.00    -0.352 N 
ATOM     35  C   UNL A   1      33.227  31.360  27.163  1.00  0.00     0.251 C 
ATOM     36  H   UNL A   1      31.724  30.931  25.914  1.00  0.00     0.163 HD
ATOM     37  O   UNL A   1      32.671  32.356  27.618  1.00  0.00    -0.269 OA
BRANCH  35  38
ATOM     38  C   UNL A   1      34.571  30.982  27.655  1.00  0.00     0.039 A 
ATOM     39  C   UNL A   1      35.535  31.983  27.800  1.00  0.00     0.014 A 
ATOM     40  C   UNL A   1      34.874  29.661  27.993  1.00  0.00     0.014 A 
ATOM     41  C   UNL A   1      36.771  31.678  28.375  1.00  0.00     0.010 A 
ATOM     42  C   UNL A   1      36.083  29.369  28.623  1.00  0.00     0.010 A 
ATOM     43  C   UNL A   1      37.032  30.380  28.842  1.00  0.00    -0.014 A 
BRANCH  43  44
ATOM     44  C   UNL A   1      38.254  30.079  29.632  1.00  0.00     0.031 A 
ATOM     45  C   UNL A   1      39.348  29.222  29.066  1.00  0.00     0.074 A 
ATOM     46  C   UNL A   1      38.329  30.507  30.909  1.00  0.00     0.049 A 
ATOM     47  N   UNL A   1      40.441  28.793  29.645  1.00  0.00    -0.248 NA
ATOM     48  C   UNL A   1      39.184  28.770  27.676  1.00  0.00     0.031 C 
ATOM     49  C   UNL A   1      37.312  31.307  31.595  1.00  0.00     0.029 A 
ATOM     50  N   UNL A   1      39.296  30.311  31.863  1.00  0.00    -0.354 N 
ATOM     51  C   UNL A   1      41.086  28.007  28.700  1.00  0.00     0.074 A 
ATOM     52  C   UNL A   1      40.245  27.989  27.522  1.00  0.00     0.031 C 
ATOM     53  C   UNL A   1      37.712  31.542  32.854  1.00  0.00     0.029 A 
ATOM     54  C   UNL A   1      38.991  30.874  33.078  1.00  0.00     0.049 A 
ATOM     55  H   UNL A   1      40.129  29.815  31.692  1.00  0.00     0.167 HD
ATOM     56  C   UNL A   1      42.275  27.365  28.801  1.00  0.00     0.031 A 
ATOM     57  C   UNL A   1      39.649  30.843  34.251  1.00  0.00     0.031 A 
ATOM     58  C   UNL A   1      43.112  27.383  29.972  1.00  0.00     0.049 A 
ATOM     59  C   UNL A   1      40.954  30.105  34.345  1.00  0.00     0.074 A 
ATOM     60  C   UNL A   1      44.371  26.831  30.140  1.00  0.00     0.029 A 
ATOM     61  N   UNL A   1      42.770  27.969  31.181  1.00  0.00    -0.354 N 
ATOM     62  N   UNL A   1      41.595  29.443  33.413  1.00  0.00    -0.248 NA
ATOM     63  C   UNL A   1      41.629  30.116  35.650  1.00  0.00     0.031 C 
ATOM     64  C   UNL A   1      44.762  27.028  31.468  1.00  0.00     0.029 A 
ATOM     65  C   UNL A   1      43.773  27.753  32.111  1.00  0.00     0.049 A 
ATOM     66  H   UNL A   1      41.937  28.465  31.352  1.00  0.00     0.167 HD
ATOM     67  C   UNL A   1      42.752  28.967  34.015  1.00  0.00     0.074 A 
ATOM     68  C   UNL A   1      42.737  29.436  35.385  1.00  0.00     0.031 C 
ATOM     69  C   UNL A   1      43.738  28.207  33.479  1.00  0.00     0.031 A 
BRANCH  56  70
ATOM     70  C   UNL A   1      42.735  26.566  27.613  1.00  0.00    -0.014 A 
ATOM     71  C   UNL A   1      42.590  25.170  27.569  1.00  0.00     0.009 A 
ATOM     72  C   UNL A   1      43.286  27.225  26.503  1.00  0.00     0.009 A 
ATOM     73  C   UNL A   1      43.023  24.448  26.456  1.00  0.00     0.001 A 
ATOM     74  C   UNL A   1      43.692  26.503  25.379  1.00  0.00     0.001 A 
ATOM     75  C   UNL A   1      43.570  25.115  25.359  1.00  0.00     0.000 A 
ENDBRANCH  56  70
BRANCH  57  76
ATOM     76  C   UNL A   1      39.072  31.524  35.439  1.00  0.00    -0.014 A 
ATOM     77  C   UNL A   1      38.235  30.829  36.324  1.00  0.00     0.009 A 
ATOM     78  C   UNL A   1      39.371  32.870  35.702  1.00  0.00     0.009 A 
ATOM     79  C   UNL A   1      37.696  31.474  37.440  1.00  0.00     0.001 A 
ATOM     80  C   UNL A   1      38.853  33.504  36.832  1.00  0.00     0.001 A 
ATOM     81  C   UNL A   1      38.010  32.808  37.696  1.00  0.00     0.000 A 
ENDBRANCH  57  76
BRANCH  69  82
ATOM     82  C   UNL A   1      44.885  27.838  34.375  1.00  0.00    -0.014 A 
ATOM     83  C   UNL A   1      44.876  26.641  35.109  1.00  0.00     0.009 A 
ATOM     84  C   UNL A   1      46.007  28.676  34.457  1.00  0.00     0.009 A 
ATOM     85  C   UNL A   1      45.956  26.305  35.926  1.00  0.00     0.001 A 
ATOM     86  C   UNL A   1      47.099  28.324  35.254  1.00  0.00     0.001 A 
ATOM     87  C   UNL A   1      47.068  27.143  35.994  1.00  0.00     0.000 A 
ENDBRANCH  69  82
ENDBRANCH  43  44
ENDBRANCH  35  38
ENDBRANCH  33  34
ENDBRANCH  32  33
ENDBRANCH  31  32
ENDBRANCH   1  31
TORSDOF 17
ENDMDL
MODEL 2
REMARK VINA RESULT:     -11.0      0.834      5.728
REMARK SMILES COc1cccc(-c2cc(OCC(=O)NCCCCNC(=O)c3ccc(-c4c5nc(c(-c6ccccc6)c6ccc([nH]6)c(-c6ccccc6)c6nc(c(-c7ccccc7)c7ccc4[nH]7)C=C6)C=C5)cc3)nc(Nc3ccccc3Br)n2)c1
REMARK SMILES IDX 16 1 15 2 13 3 14 4 12 6 11 7 10 8 8 9 9 10 81 11 72 12
REMARK SMILES IDX 71 13 7 14 3 15 4 16 82 17 5 18 6 19 2 20 1 21 73 22 74 24
REMARK SMILES IDX 75 25 79 26 76 27 78 28 80 29 77 30 17 31 18 32 19 33 20 34
REMARK SMILES IDX 21 35 22 37 23 38 24 39 70 40 25 41 69 42 26 43 27 44 28 45
REMARK SMILES IDX 63 46 29 47 68 48 62 49 64 50 30 51 67 52 61 53 60 54 31 56
REMARK SMILES IDX 53 57 38 58 52 59 39 60 42 61 51 62 65 63 40 64 41 65 50 67
REMARK SMILES IDX 66 68 43 69 32 70 33 71 37 72 34 73 36 74 35 75 54 76 55 77
REMARK SMILES IDX 59 78 56 79 58 80 57 81 44 82 45 83 49 84 46 85 48 86 47 87
REMARK H PARENT 15 5 73 23 20 36 64 55 42 66
REMARK Flexibility Score: inf
ROOT
ATOM      1  C   UNL A   1      31.618  27.283  24.368  1.00  0.00     0.116 C 
ENDROOT
BRANCH   1   2
ATOM      2  N   UNL A   1      31.036  26.404  25.362  1.00  0.00    -0.353 N 
ATOM      3  C   UNL A   1      31.624  25.367  26.021  1.00  0.00     0.258 C 
ATOM      4  O   UNL A   1      30.957  24.735  26.843  1.00  0.00    -0.271 OA
ATOM      5  H   UNL A   1      30.094  26.579  25.590  1.00  0.00     0.163 HD
BRANCH   3   6
ATOM      6  C   UNL A   1      33.092  25.016  25.743  1.00  0.00     0.331 C 
BRANCH   6   7
ATOM      7  O   UNL A   1      33.691  24.056  26.598  1.00  0.00    -0.467 OA
BRANCH   7   8
ATOM      8  C   UNL A   1      34.320  22.988  26.021  1.00  0.00     0.219 A 
ATOM      9  C   UNL A   1      34.492  20.892  25.014  1.00  0.00     0.080 A 
ATOM     10  C   UNL A   1      33.704  21.819  25.653  1.00  0.00     0.097 A 
ATOM     11  N   UNL A   1      35.802  21.085  24.806  1.00  0.00    -0.212 NA
ATOM     12  C   UNL A   1      36.332  22.249  25.205  1.00  0.00     0.231 A 
ATOM     13  N   UNL A   1      35.631  23.208  25.824  1.00  0.00    -0.177 NA
BRANCH   9  14
ATOM     14  C   UNL A   1      33.931  19.646  24.489  1.00  0.00     0.004 A 
ATOM     15  C   UNL A   1      34.149  17.255  24.066  1.00  0.00     0.119 A 
ATOM     16  C   UNL A   1      32.941  17.274  23.369  1.00  0.00     0.046 A 
ATOM     17  C   UNL A   1      34.647  18.439  24.608  1.00  0.00     0.056 A 
ATOM     18  C   UNL A   1      32.207  18.454  23.263  1.00  0.00     0.005 A 
ATOM     19  C   UNL A   1      32.693  19.631  23.831  1.00  0.00     0.010 A 
BRANCH  15  20
ATOM     20  O   UNL A   1      34.787  16.045  24.115  1.00  0.00    -0.497 OA
ATOM     21  C   UNL A   1      35.448  15.757  25.343  1.00  0.00     0.278 C 
ENDBRANCH  15  20
ENDBRANCH   9  14
BRANCH  12  22
ATOM     22  N   UNL A   1      37.690  22.486  25.013  1.00  0.00    -0.323 N 
ATOM     23  H   UNL A   1      38.027  22.370  24.095  1.00  0.00     0.170 HD
BRANCH  22  24
ATOM     24  C   UNL A   1      38.635  22.871  25.972  1.00  0.00     0.055 A 
ATOM     25  C   UNL A   1      38.569  24.179  26.481  1.00  0.00     0.027 A 
ATOM     26  C   UNL A   1      39.585  21.992  26.532  1.00  0.00     0.041 A 
ATOM     27  C   UNL A   1      39.394  24.588  27.533  1.00  0.00     0.002 A 
ATOM     28  C   UNL A   1      40.412  22.404  27.584  1.00  0.00     0.018 A 
ATOM     29  Br  UNL A   1      39.898  20.248  25.829  1.00  0.00    -0.049 Br
ATOM     30  C   UNL A   1      40.308  23.698  28.090  1.00  0.00     0.001 A 
ENDBRANCH  22  24
ENDBRANCH  12  22
ENDBRANCH   7   8
ENDBRANCH   6   7
ENDBRANCH   3   6
ENDBRANCH   1   2
BRANCH   1  31
ATOM     31  C   UNL A   1      31.453  28.757  24.730  1.00  0.00     0.023 C 
BRANCH  31  32
ATOM     32  C   UNL A   1      32.691  29.424  25.339  1.00  0.00     0.023 C 
BRANCH  32  33
ATOM     33  C   UNL A   1      32.566  29.863  26.796  1.00  0.00     0.116 C 
BRANCH  33  34
ATOM     34  N   UNL A   1      32.588  31.307  26.967  1.00  0.00    -0.352 N 
ATOM     35  C   UNL A   1      33.553  32.112  27.525  1.00  0.00     0.251 C 
ATOM     36  H   UNL A   1      31.793  31.781  26.632  1.00  0.00     0.163 HD
ATOM     37  O   UNL A   1      33.342  33.312  27.674  1.00  0.00    -0.269 OA
BRANCH  35  38
ATOM     38  C   UNL A   1      34.831  31.529  27.990  1.00  0.00     0.039 A 
ATOM     39  C   UNL A   1      35.924  32.380  28.179  1.00  0.00     0.014 A 
ATOM     40  C   UNL A   1      34.950  30.164  28.261  1.00  0.00     0.014 A 
ATOM     41  C   UNL A   1      37.105  31.881  28.731  1.00  0.00     0.010 A 
ATOM     42  C   UNL A   1      36.107  29.679  28.869  1.00  0.00     0.010 A 
ATOM     43  C   UNL A   1      37.185  30.537  29.132  1.00  0.00    -0.014 A 
BRANCH  43  44
ATOM     44  C   UNL A   1      38.354  30.034  29.899  1.00  0.00     0.031 A 
ATOM     45  C   UNL A   1      38.534  30.382  31.348  1.00  0.00     0.074 A 
ATOM     46  C   UNL A   1      39.309  29.336  29.252  1.00  0.00     0.049 A 
ATOM     47  N   UNL A   1      39.534  30.098  32.144  1.00  0.00    -0.248 NA
ATOM     48  C   UNL A   1      37.464  31.169  31.979  1.00  0.00     0.031 C 
ATOM     49  C   UNL A   1      39.278  28.972  27.834  1.00  0.00     0.029 A 
ATOM     50  N   UNL A   1      40.502  28.824  29.700  1.00  0.00    -0.354 N 
ATOM     51  C   UNL A   1      39.224  30.685  33.363  1.00  0.00     0.074 A 
ATOM     52  C   UNL A   1      37.961  31.371  33.192  1.00  0.00     0.031 C 
ATOM     53  C   UNL A   1      40.393  28.289  27.530  1.00  0.00     0.029 A 
ATOM     54  C   UNL A   1      41.236  28.204  28.719  1.00  0.00     0.049 A 
ATOM     55  H   UNL A   1      40.802  28.895  30.635  1.00  0.00     0.167 HD
ATOM     56  C   UNL A   1      39.924  30.649  34.523  1.00  0.00     0.031 A 
ATOM     57  C   UNL A   1      42.461  27.647  28.757  1.00  0.00     0.031 A 
ATOM     58  C   UNL A   1      41.180  29.966  34.695  1.00  0.00     0.049 A 
ATOM     59  C   UNL A   1      43.227  27.640  30.048  1.00  0.00     0.074 A 
ATOM     60  C   UNL A   1      41.922  29.805  35.853  1.00  0.00     0.029 A 
ATOM     61  N   UNL A   1      41.888  29.346  33.677  1.00  0.00    -0.354 N 
ATOM     62  N   UNL A   1      42.878  28.121  31.217  1.00  0.00    -0.248 NA
ATOM     63  C   UNL A   1      44.554  27.009  30.028  1.00  0.00     0.031 C 
ATOM     64  C   UNL A   1      43.109  29.142  35.523  1.00  0.00     0.029 A 
ATOM     65  C   UNL A   1      43.080  28.840  34.172  1.00  0.00     0.049 A 
ATOM     66  H   UNL A   1      41.589  29.275  32.742  1.00  0.00     0.167 HD
ATOM     67  C   UNL A   1      43.935  27.841  32.072  1.00  0.00     0.074 A 
ATOM     68  C   UNL A   1      44.928  27.128  31.295  1.00  0.00     0.031 C 
ATOM     69  C   UNL A   1      44.070  28.151  33.385  1.00  0.00     0.031 A 
BRANCH  56  70
ATOM     70  C   UNL A   1      39.354  31.391  35.701  1.00  0.00    -0.014 A 
ATOM     71  C   UNL A   1      39.881  32.625  36.113  1.00  0.00     0.009 A 
ATOM     72  C   UNL A   1      38.246  30.865  36.384  1.00  0.00     0.009 A 
ATOM     73  C   UNL A   1      39.336  33.297  37.208  1.00  0.00     0.001 A 
ATOM     74  C   UNL A   1      37.685  31.553  37.460  1.00  0.00     0.001 A 
ATOM     75  C   UNL A   1      38.235  32.763  37.879  1.00  0.00     0.000 A 
ENDBRANCH  56  70
BRANCH  57  76
ATOM     76  C   UNL A   1      43.043  27.061  27.522  1.00  0.00    -0.014 A 
ATOM     77  C   UNL A   1      42.848  25.707  27.214  1.00  0.00     0.009 A 
ATOM     78  C   UNL A   1      43.784  27.860  26.636  1.00  0.00     0.009 A 
ATOM     79  C   UNL A   1      43.398  25.161  26.051  1.00  0.00     0.001 A 
ATOM     80  C   UNL A   1      44.308  27.318  25.462  1.00  0.00     0.001 A 
ATOM     81  C   UNL A   1      44.121  25.968  25.174  1.00  0.00     0.000 A 
ENDBRANCH  57  76
BRANCH  69  82
ATOM     82  C   UNL A   1      45.336  27.715  34.066  1.00  0.00    -0.014 A 
ATOM     83  C   UNL A   1      45.439  26.448  34.662  1.00  0.00     0.009 A 
ATOM     84  C   UNL A   1      46.453  28.564  34.076  1.00  0.00     0.009 A 
ATOM     85  C   UNL A   1      46.628  26.052  35.278  1.00  0.00     0.001 A 
ATOM     86  C   UNL A   1      47.650  28.154  34.668  1.00  0.00     0.001 A 
ATOM     87  C   UNL A   1      47.733  26.903  35.276  1.00  0.00     0.000 A 
ENDBRANCH  69  82
ENDBRANCH  43  44
ENDBRANCH  35  38
ENDBRANCH  33  34
ENDBRANCH  32  33
ENDBRANCH  31  32
ENDBRANCH   1  31
TORSDOF 17
ENDMDL
MODEL 3
REMARK VINA RESULT:     -10.8      6.477     11.086
REMARK SMILES COc1cccc(-c2cc(OCC(=O)NCCCCNC(=O)c3ccc(-c4c5nc(c(-c6ccccc6)c6ccc([nH]6)c(-c6ccccc6)c6nc(c(-c7ccccc7)c7ccc4[nH]7)C=C6)C=C5)cc3)nc(Nc3ccccc3Br)n2)c1
REMARK SMILES IDX 16 1 15 2 13 3 14 4 12 6 11 7 10 8 8 9 9 10 81 11 72 12
REMARK SMILES IDX 71 13 7 14 3 15 4 16 82 17 5 18 6 19 2 20 1 21 73 22 74 24
REMARK SMILES IDX 75 25 79 26 76 27 78 28 80 29 77 30 17 31 18 32 19 33 20 34
REMARK SMILES IDX 21 35 22 37 23 38 24 39 70 40 25 41 69 42 26 43 27 44 28 45
REMARK SMILES IDX 63 46 29 47 68 48 62 49 64 50 30 51 67 52 61 53 60 54 31 56
REMARK SMILES IDX 53 57 38 58 52 59 39 60 42 61 51 62 65 63 40 64 41 65 50 67
REMARK SMILES IDX 66 68 43 69 32 70 33 71 37 72 34 73 36 74 35 75 54 76 55 77
REMARK SMILES IDX 59 78 56 79 58 80 57 81 44 82 45 83 49 84 46 85 48 86 47 87
REMARK H PARENT 15 5 73 23 20 36 64 55 42 66
REMARK Flexibility Score: inf
ROOT
ATOM      1  C   UNL A   1      36.939  31.884  38.402  1.00  0.00     0.116 C 
ENDROOT
BRANCH   1   2
ATOM      2  N   UNL A   1      37.744  30.859  37.768  1.00  0.00    -0.353 N 
ATOM      3  C   UNL A   1      38.314  30.877  36.531  1.00  0.00     0.258 C 
ATOM      4  O   UNL A   1      38.974  29.900  36.170  1.00  0.00    -0.271 OA
ATOM      5  H   UNL A   1      37.898  30.046  38.300  1.00  0.00     0.163 HD
BRANCH   3   6
ATOM      6  C   UNL A   1      38.138  32.103  35.624  1.00  0.00     0.331 C 
BRANCH   6   7
ATOM      7  O   UNL A   1      36.959  32.152  34.839  1.00  0.00    -0.467 OA
BRANCH   7   8
ATOM      8  C   UNL A   1      37.092  32.102  33.479  1.00  0.00     0.219 A 
ATOM      9  C   UNL A   1      36.559  32.565  31.256  1.00  0.00     0.080 A 
ATOM     10  C   UNL A   1      36.210  32.649  32.583  1.00  0.00     0.097 A 
ATOM     11  N   UNL A   1      37.670  31.938  30.845  1.00  0.00    -0.212 NA
ATOM     12  C   UNL A   1      38.476  31.419  31.781  1.00  0.00     0.231 A 
ATOM     13  N   UNL A   1      38.213  31.469  33.094  1.00  0.00    -0.177 NA
BRANCH   9  14
ATOM     14  C   UNL A   1      35.747  33.192  30.212  1.00  0.00     0.004 A 
ATOM     15  C   UNL A   1      33.760  34.446  29.562  1.00  0.00     0.119 A 
ATOM     16  C   UNL A   1      34.102  34.282  28.220  1.00  0.00     0.046 A 
ATOM     17  C   UNL A   1      34.571  33.889  30.550  1.00  0.00     0.056 A 
ATOM     18  C   UNL A   1      35.275  33.616  27.868  1.00  0.00     0.005 A 
ATOM     19  C   UNL A   1      36.100  33.085  28.860  1.00  0.00     0.010 A 
BRANCH  15  20
ATOM     20  O   UNL A   1      32.591  35.118  29.798  1.00  0.00    -0.497 OA
ATOM     21  C   UNL A   1      32.705  36.249  30.657  1.00  0.00     0.278 C 
ENDBRANCH  15  20
ENDBRANCH   9  14
BRANCH  12  22
ATOM     22  N   UNL A   1      39.636  30.753  31.396  1.00  0.00    -0.323 N 
ATOM     23  H   UNL A   1      40.463  31.015  31.862  1.00  0.00     0.170 HD
BRANCH  22  24
ATOM     24  C   UNL A   1      39.766  29.754  30.423  1.00  0.00     0.055 A 
ATOM     25  C   UNL A   1      40.273  30.116  29.164  1.00  0.00     0.027 A 
ATOM     26  C   UNL A   1      39.513  28.389  30.666  1.00  0.00     0.041 A 
ATOM     27  C   UNL A   1      40.552  29.150  28.192  1.00  0.00     0.002 A 
ATOM     28  C   UNL A   1      39.791  27.423  29.691  1.00  0.00     0.018 A 
ATOM     29  Br  UNL A   1      38.671  27.776  32.262  1.00  0.00    -0.049 Br
ATOM     30  C   UNL A   1      40.321  27.803  28.460  1.00  0.00     0.001 A 
ENDBRANCH  22  24
ENDBRANCH  12  22
ENDBRANCH   7   8
ENDBRANCH   6   7
ENDBRANCH   3   6
ENDBRANCH   1   2
BRANCH   1  31
ATOM     31  C   UNL A   1      37.691  32.604  39.519  1.00  0.00     0.023 C 
BRANCH  31  32
ATOM     32  C   UNL A   1      38.376  33.912  39.109  1.00  0.00     0.023 C 
BRANCH  32  33
ATOM     33  C   UNL A   1      39.804  34.107  39.613  1.00  0.00     0.116 C 
BRANCH  33  34
ATOM     34  N   UNL A   1      40.212  35.502  39.663  1.00  0.00    -0.352 N 
ATOM     35  C   UNL A   1      40.890  36.254  38.733  1.00  0.00     0.251 C 
ATOM     36  H   UNL A   1      39.965  35.981  40.487  1.00  0.00     0.163 HD
ATOM     37  O   UNL A   1      41.237  37.400  39.003  1.00  0.00    -0.269 OA
BRANCH  35  38
ATOM     38  C   UNL A   1      41.243  35.671  37.420  1.00  0.00     0.039 A 
ATOM     39  C   UNL A   1      42.557  35.244  37.210  1.00  0.00     0.014 A 
ATOM     40  C   UNL A   1      40.288  35.525  36.411  1.00  0.00     0.014 A 
ATOM     41  C   UNL A   1      42.891  34.582  36.027  1.00  0.00     0.010 A 
ATOM     42  C   UNL A   1      40.606  34.809  35.257  1.00  0.00     0.010 A 
ATOM     43  C   UNL A   1      41.903  34.310  35.066  1.00  0.00    -0.014 A 
BRANCH  43  44
ATOM     44  C   UNL A   1      42.189  33.438  33.897  1.00  0.00     0.031 A 
ATOM     45  C   UNL A   1      42.274  31.947  34.049  1.00  0.00     0.074 A 
ATOM     46  C   UNL A   1      42.469  34.008  32.708  1.00  0.00     0.049 A 
ATOM     47  N   UNL A   1      42.595  31.046  33.155  1.00  0.00    -0.248 NA
ATOM     48  C   UNL A   1      41.982  31.398  35.382  1.00  0.00     0.031 C 
ATOM     49  C   UNL A   1      42.469  35.448  32.439  1.00  0.00     0.029 A 
ATOM     50  N   UNL A   1      42.828  33.447  31.508  1.00  0.00    -0.354 N 
ATOM     51  C   UNL A   1      42.562  29.827  33.819  1.00  0.00     0.074 A 
ATOM     52  C   UNL A   1      42.225  30.107  35.198  1.00  0.00     0.031 C 
ATOM     53  C   UNL A   1      42.800  35.656  31.155  1.00  0.00     0.029 A 
ATOM     54  C   UNL A   1      43.079  34.371  30.523  1.00  0.00     0.049 A 
ATOM     55  H   UNL A   1      42.899  32.475  31.367  1.00  0.00     0.167 HD
ATOM     56  C   UNL A   1      42.783  28.586  33.322  1.00  0.00     0.031 A 
ATOM     57  C   UNL A   1      43.508  34.211  29.257  1.00  0.00     0.031 A 
ATOM     58  C   UNL A   1      43.118  28.306  31.950  1.00  0.00     0.049 A 
ATOM     59  C   UNL A   1      43.769  32.827  28.736  1.00  0.00     0.074 A 
ATOM     60  C   UNL A   1      43.280  27.075  31.337  1.00  0.00     0.029 A 
ATOM     61  N   UNL A   1      43.358  29.269  30.982  1.00  0.00    -0.354 N 
ATOM     62  N   UNL A   1      43.644  31.677  29.354  1.00  0.00    -0.248 NA
ATOM     63  C   UNL A   1      44.226  32.718  27.344  1.00  0.00     0.031 C 
ATOM     64  C   UNL A   1      43.680  27.294  30.015  1.00  0.00     0.029 A 
ATOM     65  C   UNL A   1      43.711  28.660  29.789  1.00  0.00     0.049 A 
ATOM     66  H   UNL A   1      43.288  30.240  31.123  1.00  0.00     0.167 HD
ATOM     67  C   UNL A   1      43.995  30.708  28.423  1.00  0.00     0.074 A 
ATOM     68  C   UNL A   1      44.315  31.403  27.193  1.00  0.00     0.031 C 
ATOM     69  C   UNL A   1      44.048  29.362  28.577  1.00  0.00     0.031 A 
BRANCH  56  70
ATOM     70  C   UNL A   1      42.692  27.429  34.280  1.00  0.00    -0.014 A 
ATOM     71  C   UNL A   1      41.459  26.836  34.595  1.00  0.00     0.009 A 
ATOM     72  C   UNL A   1      43.863  26.901  34.846  1.00  0.00     0.009 A 
ATOM     73  C   UNL A   1      41.397  25.764  35.486  1.00  0.00     0.001 A 
ATOM     74  C   UNL A   1      43.800  25.810  35.715  1.00  0.00     0.001 A 
ATOM     75  C   UNL A   1      42.568  25.248  36.043  1.00  0.00     0.000 A 
ENDBRANCH  56  70
BRANCH  57  76
ATOM     76  C   UNL A   1      43.729  35.402  28.397  1.00  0.00    -0.014 A 
ATOM     77  C   UNL A   1      42.688  35.923  27.615  1.00  0.00     0.009 A 
ATOM     78  C   UNL A   1      44.982  36.035  28.369  1.00  0.00     0.009 A 
ATOM     79  C   UNL A   1      42.902  37.044  26.810  1.00  0.00     0.001 A 
ATOM     80  C   UNL A   1      45.185  37.171  27.584  1.00  0.00     0.001 A 
ATOM     81  C   UNL A   1      44.147  37.670  26.800  1.00  0.00     0.000 A 
ENDBRANCH  57  76
BRANCH  69  82
ATOM     82  C   UNL A   1      44.465  28.551  27.383  1.00  0.00    -0.014 A 
ATOM     83  C   UNL A   1      45.810  28.204  27.177  1.00  0.00     0.009 A 
ATOM     84  C   UNL A   1      43.499  28.093  26.475  1.00  0.00     0.009 A 
ATOM     85  C   UNL A   1      46.180  27.437  26.071  1.00  0.00     0.001 A 
ATOM     86  C   UNL A   1      43.868  27.303  25.385  1.00  0.00     0.001 A 
ATOM     87  C   UNL A   1      45.209  26.982  25.180  1.00  0.00     0.000 A 
ENDBRANCH  69  82
ENDBRANCH  43  44
ENDBRANCH  35  38
ENDBRANCH  33  34
ENDBRANCH  32  33
ENDBRANCH  31  32
ENDBRANCH   1  31
TORSDOF 17
ENDMDL
