MODEL 1
REMARK VINA RESULT:     -11.5      0.000      0.000
REMARK SMILES CCCn1cc(Br)cc1C(=O)NC[C@H]1CC[C@@H](C(=O)NCCCCNC(=O)c2ccc(-c3c4nc(c(-c5ccccc5)c5ccc([nH]5)c(-c5ccccc5)c5nc(c(-c6ccccc6)c6ccc3[nH]6)C=C5)C=C4)cc2)O1
REMARK SMILES IDX 21 1 20 2 18 3 19 4 17 6 14 7 15 8 76 9 16 10 13 11 12 12
REMARK SMILES IDX 10 13 11 14 9 16 4 17 5 18 6 19 8 20 7 21 3 22 2 23 1 24
REMARK SMILES IDX 22 25 23 26 24 27 25 28 26 29 27 31 28 32 29 33 75 34 30 35
REMARK SMILES IDX 74 36 31 37 32 38 33 39 68 40 34 41 73 42 67 43 69 44 35 45
REMARK SMILES IDX 72 46 66 47 65 48 36 50 58 51 43 52 57 53 44 54 47 55 56 56
REMARK SMILES IDX 70 57 45 58 46 59 55 61 71 62 48 63 37 64 38 65 42 66 39 67
REMARK SMILES IDX 41 68 40 69 59 70 60 71 64 72 61 73 63 74 62 75 49 76 50 77
REMARK SMILES IDX 54 78 51 79 53 80 52 81
REMARK H PARENT 20 5 12 15 25 30 69 49 47 60
REMARK Flexibility Score: inf
ROOT
ATOM      1  C   UNL A   1      36.800  22.348  24.717  1.00  0.00     0.116 C 
ENDROOT
BRANCH   1   2
ATOM      2  N   UNL A   1      36.098  22.797  23.528  1.00  0.00    -0.354 N 
ATOM      3  C   UNL A   1      34.787  23.169  23.390  1.00  0.00     0.249 C 
ATOM      4  O   UNL A   1      34.434  23.691  22.331  1.00  0.00    -0.272 OA
ATOM      5  H   UNL A   1      36.640  22.841  22.707  1.00  0.00     0.163 HD
BRANCH   3   6
ATOM      6  C   UNL A   1      33.810  22.922  24.545  1.00  0.00     0.207 C 
ATOM      7  C   UNL A   1      31.569  23.564  24.845  1.00  0.00     0.138 C 
ATOM      8  C   UNL A   1      31.706  22.068  25.081  1.00  0.00     0.037 C 
ATOM      9  O   UNL A   1      32.929  24.042  24.778  1.00  0.00    -0.363 OA
ATOM     10  C   UNL A   1      32.924  21.713  24.272  1.00  0.00     0.045 C 
BRANCH   7  11
ATOM     11  C   UNL A   1      30.802  24.064  23.591  1.00  0.00     0.148 C 
BRANCH  11  12
ATOM     12  N   UNL A   1      29.707  24.981  23.875  1.00  0.00    -0.348 N 
ATOM     13  C   UNL A   1      29.453  26.308  24.055  1.00  0.00     0.268 C 
ATOM     14  O   UNL A   1      28.252  26.576  23.920  1.00  0.00    -0.268 OA
ATOM     15  H   UNL A   1      28.869  24.472  23.969  1.00  0.00     0.163 HD
BRANCH  13  16
ATOM     16  C   UNL A   1      30.377  27.386  24.424  1.00  0.00     0.108 A 
ATOM     17  N   UNL A   1      30.681  28.653  23.933  1.00  0.00    -0.342 N 
ATOM     18  C   UNL A   1      31.676  29.236  24.687  1.00  0.00     0.102 A 
ATOM     19  C   UNL A   1      32.090  28.326  25.613  1.00  0.00     0.036 A 
ATOM     20  C   UNL A   1      31.283  27.196  25.480  1.00  0.00     0.049 A 
ATOM     21  Br  UNL A   1      33.482  28.510  26.844  1.00  0.00    -0.049 Br
BRANCH  17  22
ATOM     22  C   UNL A   1      30.085  29.312  22.798  1.00  0.00     0.122 C 
BRANCH  22  23
ATOM     23  C   UNL A   1      29.020  30.392  23.012  1.00  0.00     0.018 C 
ATOM     24  C   UNL A   1      27.591  29.882  22.887  1.00  0.00     0.006 C 
ENDBRANCH  22  23
ENDBRANCH  17  22
ENDBRANCH  13  16
ENDBRANCH  11  12
ENDBRANCH   7  11
ENDBRANCH   3   6
ENDBRANCH   1   2
BRANCH   1  25
ATOM     25  C   UNL A   1      36.583  20.866  25.023  1.00  0.00     0.023 C 
BRANCH  25  26
ATOM     26  C   UNL A   1      37.808  19.952  24.891  1.00  0.00     0.023 C 
BRANCH  26  27
ATOM     27  C   UNL A   1      39.004  20.349  25.748  1.00  0.00     0.116 C 
BRANCH  27  28
ATOM     28  N   UNL A   1      40.066  19.348  25.749  1.00  0.00    -0.352 N 
ATOM     29  C   UNL A   1      41.424  19.558  25.901  1.00  0.00     0.251 C 
ATOM     30  H   UNL A   1      39.781  18.413  25.628  1.00  0.00     0.163 HD
ATOM     31  O   UNL A   1      42.234  18.736  25.505  1.00  0.00    -0.269 OA
BRANCH  29  32
ATOM     32  C   UNL A   1      41.883  20.801  26.551  1.00  0.00     0.039 A 
ATOM     33  C   UNL A   1      42.332  21.882  25.788  1.00  0.00     0.014 A 
ATOM     34  C   UNL A   1      41.846  20.879  27.943  1.00  0.00     0.014 A 
ATOM     35  C   UNL A   1      42.656  23.074  26.432  1.00  0.00     0.010 A 
ATOM     36  C   UNL A   1      42.057  22.088  28.568  1.00  0.00     0.010 A 
ATOM     37  C   UNL A   1      42.487  23.183  27.823  1.00  0.00    -0.014 A 
BRANCH  37  38
ATOM     38  C   UNL A   1      42.561  24.496  28.467  1.00  0.00     0.031 A 
ATOM     39  C   UNL A   1      41.440  25.402  28.088  1.00  0.00     0.074 A 
ATOM     40  C   UNL A   1      43.400  24.789  29.487  1.00  0.00     0.049 A 
ATOM     41  N   UNL A   1      41.512  26.505  27.421  1.00  0.00    -0.248 NA
ATOM     42  C   UNL A   1      40.059  24.952  28.347  1.00  0.00     0.031 C 
ATOM     43  C   UNL A   1      44.325  23.867  30.156  1.00  0.00     0.029 A 
ATOM     44  N   UNL A   1      43.513  25.924  30.240  1.00  0.00    -0.354 N 
ATOM     45  C   UNL A   1      40.215  27.009  27.388  1.00  0.00     0.074 A 
ATOM     46  C   UNL A   1      39.348  25.928  27.778  1.00  0.00     0.031 C 
ATOM     47  C   UNL A   1      44.693  24.381  31.350  1.00  0.00     0.029 A 
ATOM     48  C   UNL A   1      44.172  25.732  31.454  1.00  0.00     0.049 A 
ATOM     49  H   UNL A   1      43.163  26.798  29.952  1.00  0.00     0.167 HD
ATOM     50  C   UNL A   1      39.996  28.354  27.386  1.00  0.00     0.031 A 
ATOM     51  C   UNL A   1      44.262  26.600  32.492  1.00  0.00     0.031 A 
ATOM     52  C   UNL A   1      41.209  29.073  27.088  1.00  0.00     0.049 A 
ATOM     53  C   UNL A   1      43.988  27.952  31.969  1.00  0.00     0.074 A 
ATOM     54  C   UNL A   1      42.041  29.248  26.006  1.00  0.00     0.029 A 
ATOM     55  N   UNL A   1      41.911  29.429  28.209  1.00  0.00    -0.354 N 
ATOM     56  N   UNL A   1      44.788  28.578  31.156  1.00  0.00    -0.248 NA
ATOM     57  C   UNL A   1      42.646  28.505  32.078  1.00  0.00     0.031 C 
ATOM     58  C   UNL A   1      43.338  29.497  26.552  1.00  0.00     0.029 A 
ATOM     59  C   UNL A   1      43.247  29.526  27.944  1.00  0.00     0.049 A 
ATOM     60  H   UNL A   1      41.506  29.595  29.090  1.00  0.00     0.167 HD
ATOM     61  C   UNL A   1      43.937  29.277  30.321  1.00  0.00     0.074 A 
ATOM     62  C   UNL A   1      42.675  29.356  31.048  1.00  0.00     0.031 C 
ATOM     63  C   UNL A   1      44.236  29.425  28.997  1.00  0.00     0.031 A 
BRANCH  50  64
ATOM     64  C   UNL A   1      38.907  29.019  28.214  1.00  0.00    -0.014 A 
ATOM     65  C   UNL A   1      38.824  28.697  29.583  1.00  0.00     0.009 A 
ATOM     66  C   UNL A   1      37.785  29.660  27.653  1.00  0.00     0.009 A 
ATOM     67  C   UNL A   1      37.655  28.932  30.322  1.00  0.00     0.001 A 
ATOM     68  C   UNL A   1      36.631  29.929  28.397  1.00  0.00     0.001 A 
ATOM     69  C   UNL A   1      36.555  29.540  29.726  1.00  0.00     0.000 A 
ENDBRANCH  50  64
BRANCH  51  70
ATOM     70  C   UNL A   1      44.390  26.345  33.944  1.00  0.00    -0.014 A 
ATOM     71  C   UNL A   1      43.281  25.919  34.696  1.00  0.00     0.009 A 
ATOM     72  C   UNL A   1      45.661  26.236  34.536  1.00  0.00     0.009 A 
ATOM     73  C   UNL A   1      43.445  25.351  35.967  1.00  0.00     0.001 A 
ATOM     74  C   UNL A   1      45.823  25.674  35.808  1.00  0.00     0.001 A 
ATOM     75  C   UNL A   1      44.717  25.213  36.514  1.00  0.00     0.000 A 
ENDBRANCH  51  70
BRANCH  63  76
ATOM     76  C   UNL A   1      45.680  29.302  28.594  1.00  0.00    -0.014 A 
ATOM     77  C   UNL A   1      46.596  30.368  28.599  1.00  0.00     0.009 A 
ATOM     78  C   UNL A   1      46.144  28.026  28.243  1.00  0.00     0.009 A 
ATOM     79  C   UNL A   1      47.926  30.166  28.214  1.00  0.00     0.001 A 
ATOM     80  C   UNL A   1      47.476  27.818  27.886  1.00  0.00     0.001 A 
ATOM     81  C   UNL A   1      48.364  28.891  27.859  1.00  0.00     0.000 A 
ENDBRANCH  63  76
ENDBRANCH  37  38
ENDBRANCH  29  32
ENDBRANCH  27  28
ENDBRANCH  26  27
ENDBRANCH  25  26
ENDBRANCH   1  25
TORSDOF 16
ENDMDL
MODEL 2
REMARK VINA RESULT:     -11.3      4.761      9.755
REMARK SMILES CCCn1cc(Br)cc1C(=O)NC[C@H]1CC[C@@H](C(=O)NCCCCNC(=O)c2ccc(-c3c4nc(c(-c5ccccc5)c5ccc([nH]5)c(-c5ccccc5)c5nc(c(-c6ccccc6)c6ccc3[nH]6)C=C5)C=C4)cc2)O1
REMARK SMILES IDX 21 1 20 2 18 3 19 4 17 6 14 7 15 8 76 9 16 10 13 11 12 12
REMARK SMILES IDX 10 13 11 14 9 16 4 17 5 18 6 19 8 20 7 21 3 22 2 23 1 24
REMARK SMILES IDX 22 25 23 26 24 27 25 28 26 29 27 31 28 32 29 33 75 34 30 35
REMARK SMILES IDX 74 36 31 37 32 38 33 39 68 40 34 41 73 42 67 43 69 44 35 45
REMARK SMILES IDX 72 46 66 47 65 48 36 50 58 51 43 52 57 53 44 54 47 55 56 56
REMARK SMILES IDX 70 57 45 58 46 59 55 61 71 62 48 63 37 64 38 65 42 66 39 67
REMARK SMILES IDX 41 68 40 69 59 70 60 71 64 72 61 73 63 74 62 75 49 76 50 77
REMARK SMILES IDX 54 78 51 79 53 80 52 81
REMARK H PARENT 20 5 12 15 25 30 69 49 47 60
REMARK Flexibility Score: inf
ROOT
ATOM      1  C   UNL A   1      33.416  32.801  27.761  1.00  0.00     0.116 C 
ENDROOT
BRANCH   1   2
ATOM      2  N   UNL A   1      34.298  31.659  27.920  1.00  0.00    -0.354 N 
ATOM      3  C   UNL A   1      34.207  30.415  27.355  1.00  0.00     0.249 C 
ATOM      4  O   UNL A   1      35.160  29.643  27.479  1.00  0.00    -0.272 OA
ATOM      5  H   UNL A   1      35.069  31.798  28.517  1.00  0.00     0.163 HD
BRANCH   3   6
ATOM      6  C   UNL A   1      32.933  30.025  26.596  1.00  0.00     0.207 C 
ATOM      7  C   UNL A   1      32.518  28.317  25.037  1.00  0.00     0.138 C 
ATOM      8  C   UNL A   1      31.478  28.258  26.144  1.00  0.00     0.037 C 
ATOM      9  O   UNL A   1      33.202  29.569  25.254  1.00  0.00    -0.363 OA
ATOM     10  C   UNL A   1      32.191  28.899  27.305  1.00  0.00     0.045 C 
BRANCH   7  11
ATOM     11  C   UNL A   1      33.574  27.184  24.930  1.00  0.00     0.148 C 
BRANCH  11  12
ATOM     12  N   UNL A   1      33.778  26.669  23.583  1.00  0.00    -0.348 N 
ATOM     13  C   UNL A   1      33.800  25.497  22.887  1.00  0.00     0.268 C 
ATOM     14  O   UNL A   1      33.672  25.675  21.668  1.00  0.00    -0.268 OA
ATOM     15  H   UNL A   1      33.961  27.417  22.970  1.00  0.00     0.163 HD
BRANCH  13  16
ATOM     16  C   UNL A   1      34.002  24.131  23.380  1.00  0.00     0.108 A 
ATOM     17  N   UNL A   1      33.181  23.062  23.728  1.00  0.00    -0.342 N 
ATOM     18  C   UNL A   1      33.936  21.992  24.157  1.00  0.00     0.102 A 
ATOM     19  C   UNL A   1      35.242  22.381  24.177  1.00  0.00     0.036 A 
ATOM     20  C   UNL A   1      35.300  23.682  23.678  1.00  0.00     0.049 A 
ATOM     21  Br  UNL A   1      36.713  21.393  24.767  1.00  0.00    -0.049 Br
BRANCH  17  22
ATOM     22  C   UNL A   1      31.740  23.022  23.682  1.00  0.00     0.122 C 
BRANCH  22  23
ATOM     23  C   UNL A   1      30.921  23.570  24.854  1.00  0.00     0.018 C 
ATOM     24  C   UNL A   1      30.541  25.037  24.707  1.00  0.00     0.006 C 
ENDBRANCH  22  23
ENDBRANCH  17  22
ENDBRANCH  13  16
ENDBRANCH  11  12
ENDBRANCH   7  11
ENDBRANCH   3   6
ENDBRANCH   1   2
BRANCH   1  25
ATOM     25  C   UNL A   1      33.843  34.016  28.585  1.00  0.00     0.023 C 
BRANCH  25  26
ATOM     26  C   UNL A   1      32.802  35.130  28.755  1.00  0.00     0.023 C 
BRANCH  26  27
ATOM     27  C   UNL A   1      33.214  36.260  29.691  1.00  0.00     0.116 C 
BRANCH  27  28
ATOM     28  N   UNL A   1      32.453  36.277  30.937  1.00  0.00    -0.352 N 
ATOM     29  C   UNL A   1      32.607  35.444  32.030  1.00  0.00     0.251 C 
ATOM     30  H   UNL A   1      31.749  36.961  31.007  1.00  0.00     0.163 HD
ATOM     31  O   UNL A   1      31.698  35.284  32.828  1.00  0.00    -0.269 OA
BRANCH  29  32
ATOM     32  C   UNL A   1      33.893  34.745  32.218  1.00  0.00     0.039 A 
ATOM     33  C   UNL A   1      33.993  33.367  32.013  1.00  0.00     0.014 A 
ATOM     34  C   UNL A   1      35.010  35.492  32.591  1.00  0.00     0.014 A 
ATOM     35  C   UNL A   1      35.245  32.761  32.095  1.00  0.00     0.010 A 
ATOM     36  C   UNL A   1      36.261  34.917  32.561  1.00  0.00     0.010 A 
ATOM     37  C   UNL A   1      36.384  33.547  32.340  1.00  0.00    -0.014 A 
BRANCH  37  38
ATOM     38  C   UNL A   1      37.720  32.974  32.160  1.00  0.00     0.031 A 
ATOM     39  C   UNL A   1      38.500  32.890  33.426  1.00  0.00     0.074 A 
ATOM     40  C   UNL A   1      38.127  32.354  31.029  1.00  0.00     0.049 A 
ATOM     41  N   UNL A   1      39.581  33.529  33.727  1.00  0.00    -0.248 NA
ATOM     42  C   UNL A   1      37.930  32.123  34.549  1.00  0.00     0.031 C 
ATOM     43  C   UNL A   1      37.322  32.096  29.829  1.00  0.00     0.029 A 
ATOM     44  N   UNL A   1      39.294  31.697  30.752  1.00  0.00    -0.354 N 
ATOM     45  C   UNL A   1      39.958  33.058  34.982  1.00  0.00     0.074 A 
ATOM     46  C   UNL A   1      38.813  32.371  35.519  1.00  0.00     0.031 C 
ATOM     47  C   UNL A   1      37.910  31.133  29.087  1.00  0.00     0.029 A 
ATOM     48  C   UNL A   1      39.207  30.831  29.663  1.00  0.00     0.049 A 
ATOM     49  H   UNL A   1      40.119  31.825  31.273  1.00  0.00     0.167 HD
ATOM     50  C   UNL A   1      41.274  32.971  35.321  1.00  0.00     0.031 A 
ATOM     51  C   UNL A   1      40.116  29.903  29.272  1.00  0.00     0.031 A 
ATOM     52  C   UNL A   1      42.095  33.709  34.393  1.00  0.00     0.049 A 
ATOM     53  C   UNL A   1      41.417  30.275  29.860  1.00  0.00     0.074 A 
ATOM     54  C   UNL A   1      42.311  35.026  34.061  1.00  0.00     0.029 A 
ATOM     55  N   UNL A   1      42.556  32.942  33.357  1.00  0.00    -0.354 N 
ATOM     56  N   UNL A   1      42.088  31.330  29.501  1.00  0.00    -0.248 NA
ATOM     57  C   UNL A   1      41.843  29.656  31.108  1.00  0.00     0.031 C 
ATOM     58  C   UNL A   1      42.702  35.020  32.687  1.00  0.00     0.029 A 
ATOM     59  C   UNL A   1      42.771  33.700  32.241  1.00  0.00     0.049 A 
ATOM     60  H   UNL A   1      42.713  31.972  33.409  1.00  0.00     0.167 HD
ATOM     61  C   UNL A   1      42.672  31.771  30.673  1.00  0.00     0.074 A 
ATOM     62  C   UNL A   1      42.656  30.614  31.561  1.00  0.00     0.031 C 
ATOM     63  C   UNL A   1      42.802  33.108  30.920  1.00  0.00     0.031 A 
BRANCH  50  64
ATOM     64  C   UNL A   1      41.861  31.786  36.072  1.00  0.00    -0.014 A 
ATOM     65  C   UNL A   1      42.734  32.047  37.147  1.00  0.00     0.009 A 
ATOM     66  C   UNL A   1      41.866  30.470  35.569  1.00  0.00     0.009 A 
ATOM     67  C   UNL A   1      43.614  31.069  37.632  1.00  0.00     0.001 A 
ATOM     68  C   UNL A   1      42.716  29.481  36.075  1.00  0.00     0.001 A 
ATOM     69  C   UNL A   1      43.611  29.788  37.090  1.00  0.00     0.000 A 
ENDBRANCH  50  64
BRANCH  51  70
ATOM     70  C   UNL A   1      39.926  28.613  28.573  1.00  0.00    -0.014 A 
ATOM     71  C   UNL A   1      40.531  28.378  27.325  1.00  0.00     0.009 A 
ATOM     72  C   UNL A   1      39.393  27.507  29.258  1.00  0.00     0.009 A 
ATOM     73  C   UNL A   1      40.651  27.080  26.813  1.00  0.00     0.001 A 
ATOM     74  C   UNL A   1      39.508  26.210  28.743  1.00  0.00     0.001 A 
ATOM     75  C   UNL A   1      40.156  25.995  27.531  1.00  0.00     0.000 A 
ENDBRANCH  51  70
BRANCH  63  76
ATOM     76  C   UNL A   1      42.804  34.035  29.735  1.00  0.00    -0.014 A 
ATOM     77  C   UNL A   1      43.879  34.174  28.841  1.00  0.00     0.009 A 
ATOM     78  C   UNL A   1      41.631  34.763  29.486  1.00  0.00     0.009 A 
ATOM     79  C   UNL A   1      43.795  35.058  27.759  1.00  0.00     0.001 A 
ATOM     80  C   UNL A   1      41.537  35.623  28.393  1.00  0.00     0.001 A 
ATOM     81  C   UNL A   1      42.624  35.779  27.536  1.00  0.00     0.000 A 
ENDBRANCH  63  76
ENDBRANCH  37  38
ENDBRANCH  29  32
ENDBRANCH  27  28
ENDBRANCH  26  27
ENDBRANCH  25  26
ENDBRANCH   1  25
TORSDOF 16
ENDMDL
MODEL 3
REMARK VINA RESULT:     -11.2      2.070      5.397
REMARK SMILES CCCn1cc(Br)cc1C(=O)NC[C@H]1CC[C@@H](C(=O)NCCCCNC(=O)c2ccc(-c3c4nc(c(-c5ccccc5)c5ccc([nH]5)c(-c5ccccc5)c5nc(c(-c6ccccc6)c6ccc3[nH]6)C=C5)C=C4)cc2)O1
REMARK SMILES IDX 21 1 20 2 18 3 19 4 17 6 14 7 15 8 76 9 16 10 13 11 12 12
REMARK SMILES IDX 10 13 11 14 9 16 4 17 5 18 6 19 8 20 7 21 3 22 2 23 1 24
REMARK SMILES IDX 22 25 23 26 24 27 25 28 26 29 27 31 28 32 29 33 75 34 30 35
REMARK SMILES IDX 74 36 31 37 32 38 33 39 68 40 34 41 73 42 67 43 69 44 35 45
REMARK SMILES IDX 72 46 66 47 65 48 36 50 58 51 43 52 57 53 44 54 47 55 56 56
REMARK SMILES IDX 70 57 45 58 46 59 55 61 71 62 48 63 37 64 38 65 42 66 39 67
REMARK SMILES IDX 41 68 40 69 59 70 60 71 64 72 61 73 63 74 62 75 49 76 50 77
REMARK SMILES IDX 54 78 51 79 53 80 52 81
REMARK H PARENT 20 5 12 15 25 30 69 49 47 60
REMARK Flexibility Score: inf
ROOT
ATOM      1  C   UNL A   1      39.494  22.314  26.556  1.00  0.00     0.116 C 
ENDROOT
BRANCH   1   2
ATOM      2  N   UNL A   1      38.672  21.541  25.642  1.00  0.00    -0.354 N 
ATOM      3  C   UNL A   1      37.409  21.807  25.185  1.00  0.00     0.249 C 
ATOM      4  O   UNL A   1      36.957  21.113  24.272  1.00  0.00    -0.272 OA
ATOM      5  H   UNL A   1      39.078  20.710  25.304  1.00  0.00     0.163 HD
BRANCH   3   6
ATOM      6  C   UNL A   1      36.603  22.947  25.819  1.00  0.00     0.207 C 
ATOM      7  C   UNL A   1      34.826  24.241  24.988  1.00  0.00     0.138 C 
ATOM      8  C   UNL A   1      34.446  23.664  26.342  1.00  0.00     0.037 C 
ATOM      9  O   UNL A   1      36.238  23.968  24.867  1.00  0.00    -0.363 OA
ATOM     10  C   UNL A   1      35.308  22.433  26.434  1.00  0.00     0.045 C 
BRANCH   7  11
ATOM     11  C   UNL A   1      34.107  23.720  23.715  1.00  0.00     0.148 C 
BRANCH  11  12
ATOM     12  N   UNL A   1      33.836  24.740  22.710  1.00  0.00    -0.348 N 
ATOM     13  C   UNL A   1      33.511  26.059  22.598  1.00  0.00     0.268 C 
ATOM     14  O   UNL A   1      33.753  26.505  21.468  1.00  0.00    -0.268 OA
ATOM     15  H   UNL A   1      33.914  24.344  21.812  1.00  0.00     0.163 HD
BRANCH  13  16
ATOM     16  C   UNL A   1      32.891  26.947  23.586  1.00  0.00     0.108 A 
ATOM     17  N   UNL A   1      31.680  27.625  23.701  1.00  0.00    -0.342 N 
ATOM     18  C   UNL A   1      31.642  28.350  24.872  1.00  0.00     0.102 A 
ATOM     19  C   UNL A   1      32.853  28.225  25.484  1.00  0.00     0.036 A 
ATOM     20  C   UNL A   1      33.621  27.346  24.719  1.00  0.00     0.049 A 
ATOM     21  Br  UNL A   1      33.428  29.065  27.049  1.00  0.00    -0.049 Br
BRANCH  17  22
ATOM     22  C   UNL A   1      30.588  27.619  22.759  1.00  0.00     0.122 C 
BRANCH  22  23
ATOM     23  C   UNL A   1      29.152  27.823  23.252  1.00  0.00     0.018 C 
ATOM     24  C   UNL A   1      28.453  29.025  22.630  1.00  0.00     0.006 C 
ENDBRANCH  22  23
ENDBRANCH  17  22
ENDBRANCH  13  16
ENDBRANCH  11  12
ENDBRANCH   7  11
ENDBRANCH   3   6
ENDBRANCH   1   2
BRANCH   1  25
ATOM     25  C   UNL A   1      40.626  21.502  27.185  1.00  0.00     0.023 C 
BRANCH  25  26
ATOM     26  C   UNL A   1      41.215  20.372  26.331  1.00  0.00     0.023 C 
BRANCH  26  27
ATOM     27  C   UNL A   1      42.551  19.824  26.819  1.00  0.00     0.116 C 
BRANCH  27  28
ATOM     28  N   UNL A   1      43.520  19.637  25.745  1.00  0.00    -0.352 N 
ATOM     29  C   UNL A   1      44.081  20.609  24.936  1.00  0.00     0.251 C 
ATOM     30  H   UNL A   1      43.810  18.711  25.577  1.00  0.00     0.163 HD
ATOM     31  O   UNL A   1      44.557  20.322  23.850  1.00  0.00    -0.269 OA
BRANCH  29  32
ATOM     32  C   UNL A   1      44.092  22.008  25.406  1.00  0.00     0.039 A 
ATOM     33  C   UNL A   1      43.175  22.936  24.906  1.00  0.00     0.014 A 
ATOM     34  C   UNL A   1      45.028  22.380  26.371  1.00  0.00     0.014 A 
ATOM     35  C   UNL A   1      43.148  24.218  25.452  1.00  0.00     0.010 A 
ATOM     36  C   UNL A   1      44.926  23.606  26.988  1.00  0.00     0.010 A 
ATOM     37  C   UNL A   1      44.006  24.540  26.517  1.00  0.00    -0.014 A 
BRANCH  37  38
ATOM     38  C   UNL A   1      43.801  25.778  27.272  1.00  0.00     0.031 A 
ATOM     39  C   UNL A   1      44.733  26.871  26.876  1.00  0.00     0.074 A 
ATOM     40  C   UNL A   1      42.730  26.008  28.067  1.00  0.00     0.049 A 
ATOM     41  N   UNL A   1      45.659  27.413  27.594  1.00  0.00    -0.248 NA
ATOM     42  C   UNL A   1      44.740  27.308  25.467  1.00  0.00     0.031 C 
ATOM     43  C   UNL A   1      41.583  25.116  28.274  1.00  0.00     0.029 A 
ATOM     44  N   UNL A   1      42.361  27.133  28.749  1.00  0.00    -0.354 N 
ATOM     45  C   UNL A   1      46.201  28.425  26.805  1.00  0.00     0.074 A 
ATOM     46  C   UNL A   1      45.753  28.177  25.460  1.00  0.00     0.031 C 
ATOM     47  C   UNL A   1      40.552  25.818  28.792  1.00  0.00     0.029 A 
ATOM     48  C   UNL A   1      41.015  27.156  29.111  1.00  0.00     0.049 A 
ATOM     49  H   UNL A   1      42.988  27.860  28.966  1.00  0.00     0.167 HD
ATOM     50  C   UNL A   1      46.675  29.567  27.377  1.00  0.00     0.031 A 
ATOM     51  C   UNL A   1      40.310  28.203  29.607  1.00  0.00     0.031 A 
ATOM     52  C   UNL A   1      46.833  29.404  28.801  1.00  0.00     0.049 A 
ATOM     53  C   UNL A   1      41.276  29.165  30.169  1.00  0.00     0.074 A 
ATOM     54  C   UNL A   1      47.643  28.690  29.653  1.00  0.00     0.029 A 
ATOM     55  N   UNL A   1      45.728  29.791  29.511  1.00  0.00    -0.354 N 
ATOM     56  N   UNL A   1      41.989  28.924  31.231  1.00  0.00    -0.248 NA
ATOM     57  C   UNL A   1      41.716  30.295  29.362  1.00  0.00     0.031 C 
ATOM     58  C   UNL A   1      46.865  28.468  30.830  1.00  0.00     0.029 A 
ATOM     59  C   UNL A   1      45.631  29.101  30.686  1.00  0.00     0.049 A 
ATOM     60  H   UNL A   1      45.087  30.476  29.214  1.00  0.00     0.167 HD
ATOM     61  C   UNL A   1      43.198  29.540  30.969  1.00  0.00     0.074 A 
ATOM     62  C   UNL A   1      42.907  30.516  29.926  1.00  0.00     0.031 C 
ATOM     63  C   UNL A   1      44.368  28.967  31.382  1.00  0.00     0.031 A 
BRANCH  50  64
ATOM     64  C   UNL A   1      46.425  30.951  26.798  1.00  0.00    -0.014 A 
ATOM     65  C   UNL A   1      47.472  31.893  26.851  1.00  0.00     0.009 A 
ATOM     66  C   UNL A   1      45.141  31.461  26.525  1.00  0.00     0.009 A 
ATOM     67  C   UNL A   1      47.230  33.268  26.719  1.00  0.00     0.001 A 
ATOM     68  C   UNL A   1      44.901  32.828  26.355  1.00  0.00     0.001 A 
ATOM     69  C   UNL A   1      45.943  33.736  26.479  1.00  0.00     0.000 A 
ENDBRANCH  50  64
BRANCH  51  70
ATOM     70  C   UNL A   1      38.874  28.535  29.480  1.00  0.00    -0.014 A 
ATOM     71  C   UNL A   1      38.100  28.813  30.621  1.00  0.00     0.009 A 
ATOM     72  C   UNL A   1      38.330  28.866  28.227  1.00  0.00     0.009 A 
ATOM     73  C   UNL A   1      36.858  29.451  30.514  1.00  0.00     0.001 A 
ATOM     74  C   UNL A   1      37.086  29.498  28.119  1.00  0.00     0.001 A 
ATOM     75  C   UNL A   1      36.359  29.810  29.264  1.00  0.00     0.000 A 
ENDBRANCH  51  70
BRANCH  63  76
ATOM     76  C   UNL A   1      44.299  28.000  32.532  1.00  0.00    -0.014 A 
ATOM     77  C   UNL A   1      44.349  28.375  33.885  1.00  0.00     0.009 A 
ATOM     78  C   UNL A   1      44.121  26.643  32.222  1.00  0.00     0.009 A 
ATOM     79  C   UNL A   1      44.273  27.409  34.894  1.00  0.00     0.001 A 
ATOM     80  C   UNL A   1      44.018  25.684  33.228  1.00  0.00     0.001 A 
ATOM     81  C   UNL A   1      44.107  26.066  34.564  1.00  0.00     0.000 A 
ENDBRANCH  63  76
ENDBRANCH  37  38
ENDBRANCH  29  32
ENDBRANCH  27  28
ENDBRANCH  26  27
ENDBRANCH  25  26
ENDBRANCH   1  25
TORSDOF 16
ENDMDL
