MODEL 1
REMARK VINA RESULT:     -11.0      0.000      0.000
REMARK SMILES C[C@@](NC(=O)[C@H]1COc2ccccc21)(C(=O)NCCCCNC(=O)c1ccc(-c2c3nc(c(-c4ccccc4)c4ccc([nH]4)c(-c4ccccc4)c4nc(c(-c5ccccc5)c5ccc2[nH]5)C=C4)C=C3)cc1)C(F)(F)F
REMARK SMILES IDX 19 1 18 2 17 3 15 4 16 5 2 7 1 8 3 9 4 10 5 12 6 13 7 14
REMARK SMILES IDX 14 15 8 16 9 17 13 18 10 19 12 20 11 21 73 22 74 23 75 24
REMARK SMILES IDX 76 25 20 26 21 27 22 28 23 29 24 31 25 32 26 33 72 34 27 35
REMARK SMILES IDX 71 36 28 37 29 38 30 39 65 40 31 41 70 42 64 43 66 44 32 45
REMARK SMILES IDX 69 46 63 47 62 48 33 50 55 51 40 52 54 53 41 54 44 55 53 56
REMARK SMILES IDX 67 57 42 58 43 59 52 61 68 62 45 63 34 64 35 65 39 66 36 67
REMARK SMILES IDX 38 68 37 69 56 70 57 71 61 72 58 73 60 74 59 75 46 76 47 77
REMARK SMILES IDX 51 78 48 79 50 80 49 81
REMARK H PARENT 17 6 3 11 22 30 66 49 44 60
REMARK Flexibility Score: inf
ROOT
ATOM      1  C   UNL A   1      33.000  29.056  24.790  1.00  0.00     0.023 C 
ENDROOT
BRANCH   1   2
ATOM      2  C   UNL A   1      32.826  28.077  23.631  1.00  0.00     0.116 C 
BRANCH   2   3
ATOM      3  N   UNL A   1      31.453  27.603  23.528  1.00  0.00    -0.354 N 
ATOM      4  C   UNL A   1      30.861  26.427  23.920  1.00  0.00     0.254 C 
ATOM      5  O   UNL A   1      29.695  26.261  23.556  1.00  0.00    -0.272 OA
ATOM      6  H   UNL A   1      30.838  28.241  23.100  1.00  0.00     0.163 HD
BRANCH   4   7
ATOM      7  C   UNL A   1      31.683  25.304  24.563  1.00  0.00     0.212 C 
ATOM      8  C   UNL A   1      30.760  24.053  24.488  1.00  0.00     0.056 C 
BRANCH   7   9
ATOM      9  N   UNL A   1      32.955  25.016  23.818  1.00  0.00    -0.334 N 
ATOM     10  C   UNL A   1      33.917  24.064  23.873  1.00  0.00     0.232 C 
ATOM     11  H   UNL A   1      33.133  25.683  23.115  1.00  0.00     0.164 HD
ATOM     12  O   UNL A   1      34.583  23.998  22.824  1.00  0.00    -0.274 OA
BRANCH  10  13
ATOM     13  C   UNL A   1      34.402  23.206  25.038  1.00  0.00     0.150 C 
ATOM     14  C   UNL A   1      33.864  21.774  24.894  1.00  0.00     0.248 C 
ATOM     15  C   UNL A   1      35.821  22.877  25.288  1.00  0.00     0.010 A 
ATOM     16  O   UNL A   1      34.950  20.894  24.498  1.00  0.00    -0.492 OA
ATOM     17  C   UNL A   1      36.065  21.556  24.941  1.00  0.00     0.123 A 
ATOM     18  C   UNL A   1      36.815  23.628  25.890  1.00  0.00     0.008 A 
ATOM     19  C   UNL A   1      37.321  20.992  25.032  1.00  0.00     0.047 A 
ATOM     20  C   UNL A   1      38.097  23.086  25.987  1.00  0.00     0.001 A 
ATOM     21  C   UNL A   1      38.354  21.782  25.541  1.00  0.00     0.004 A 
ENDBRANCH  10  13
ENDBRANCH   7   9
BRANCH   7  22
ATOM     22  C   UNL A   1      31.895  25.519  26.083  1.00  0.00     0.420 C 
ATOM     23  F   UNL A   1      31.155  26.517  26.606  1.00  0.00    -0.168 F 
ATOM     24  F   UNL A   1      31.519  24.388  26.751  1.00  0.00    -0.168 F 
ATOM     25  F   UNL A   1      33.176  25.713  26.432  1.00  0.00    -0.168 F 
ENDBRANCH   7  22
ENDBRANCH   4   7
ENDBRANCH   2   3
ENDBRANCH   1   2
BRANCH   1  26
ATOM     26  C   UNL A   1      34.050  28.632  25.822  1.00  0.00     0.023 C 
BRANCH  26  27
ATOM     27  C   UNL A   1      33.629  28.797  27.281  1.00  0.00     0.116 C 
BRANCH  27  28
ATOM     28  N   UNL A   1      33.638  30.184  27.718  1.00  0.00    -0.352 N 
ATOM     29  C   UNL A   1      34.620  30.898  28.358  1.00  0.00     0.251 C 
ATOM     30  H   UNL A   1      32.814  30.689  27.526  1.00  0.00     0.163 HD
ATOM     31  O   UNL A   1      34.385  32.025  28.780  1.00  0.00    -0.269 OA
BRANCH  29  32
ATOM     32  C   UNL A   1      35.958  30.303  28.565  1.00  0.00     0.039 A 
ATOM     33  C   UNL A   1      36.875  30.338  27.511  1.00  0.00     0.014 A 
ATOM     34  C   UNL A   1      36.304  29.702  29.778  1.00  0.00     0.014 A 
ATOM     35  C   UNL A   1      38.161  29.825  27.695  1.00  0.00     0.010 A 
ATOM     36  C   UNL A   1      37.607  29.248  29.981  1.00  0.00     0.010 A 
ATOM     37  C   UNL A   1      38.548  29.306  28.941  1.00  0.00    -0.014 A 
BRANCH  37  38
ATOM     38  C   UNL A   1      39.937  28.834  29.169  1.00  0.00     0.031 A 
ATOM     39  C   UNL A   1      40.958  29.739  29.802  1.00  0.00     0.074 A 
ATOM     40  C   UNL A   1      40.293  27.598  28.767  1.00  0.00     0.049 A 
ATOM     41  N   UNL A   1      42.219  29.505  30.063  1.00  0.00    -0.248 NA
ATOM     42  C   UNL A   1      40.508  31.090  30.174  1.00  0.00     0.031 C 
ATOM     43  C   UNL A   1      39.409  26.632  28.112  1.00  0.00     0.029 A 
ATOM     44  N   UNL A   1      41.497  26.943  28.849  1.00  0.00    -0.354 N 
ATOM     45  C   UNL A   1      42.716  30.677  30.618  1.00  0.00     0.074 A 
ATOM     46  C   UNL A   1      41.633  31.638  30.613  1.00  0.00     0.031 C 
ATOM     47  C   UNL A   1      40.090  25.498  27.882  1.00  0.00     0.029 A 
ATOM     48  C   UNL A   1      41.467  25.670  28.333  1.00  0.00     0.049 A 
ATOM     49  H   UNL A   1      42.304  27.347  29.242  1.00  0.00     0.167 HD
ATOM     50  C   UNL A   1      43.955  30.929  31.101  1.00  0.00     0.031 A 
ATOM     51  C   UNL A   1      42.441  24.745  28.228  1.00  0.00     0.031 A 
ATOM     52  C   UNL A   1      45.033  29.975  31.110  1.00  0.00     0.049 A 
ATOM     53  C   UNL A   1      43.816  25.062  28.745  1.00  0.00     0.074 A 
ATOM     54  C   UNL A   1      46.307  30.120  31.631  1.00  0.00     0.029 A 
ATOM     55  N   UNL A   1      44.966  28.702  30.565  1.00  0.00    -0.354 N 
ATOM     56  N   UNL A   1      44.248  26.150  29.335  1.00  0.00    -0.248 NA
ATOM     57  C   UNL A   1      44.837  24.015  28.592  1.00  0.00     0.031 C 
ATOM     58  C   UNL A   1      47.030  28.956  31.349  1.00  0.00     0.029 A 
ATOM     59  C   UNL A   1      46.185  28.062  30.710  1.00  0.00     0.049 A 
ATOM     60  H   UNL A   1      44.169  28.310  30.140  1.00  0.00     0.167 HD
ATOM     61  C   UNL A   1      45.579  25.908  29.650  1.00  0.00     0.074 A 
ATOM     62  C   UNL A   1      45.878  24.564  29.201  1.00  0.00     0.031 C 
ATOM     63  C   UNL A   1      46.472  26.725  30.259  1.00  0.00     0.031 A 
BRANCH  50  64
ATOM     64  C   UNL A   1      44.220  32.302  31.654  1.00  0.00    -0.014 A 
ATOM     65  C   UNL A   1      44.676  33.345  30.832  1.00  0.00     0.009 A 
ATOM     66  C   UNL A   1      43.966  32.570  33.009  1.00  0.00     0.009 A 
ATOM     67  C   UNL A   1      44.904  34.616  31.362  1.00  0.00     0.001 A 
ATOM     68  C   UNL A   1      44.167  33.848  33.530  1.00  0.00     0.001 A 
ATOM     69  C   UNL A   1      44.644  34.868  32.709  1.00  0.00     0.000 A 
ENDBRANCH  50  64
BRANCH  51  70
ATOM     70  C   UNL A   1      42.151  23.422  27.616  1.00  0.00    -0.014 A 
ATOM     71  C   UNL A   1      42.455  23.179  26.268  1.00  0.00     0.009 A 
ATOM     72  C   UNL A   1      41.550  22.401  28.370  1.00  0.00     0.009 A 
ATOM     73  C   UNL A   1      42.138  21.952  25.680  1.00  0.00     0.001 A 
ATOM     74  C   UNL A   1      41.262  21.165  27.787  1.00  0.00     0.001 A 
ATOM     75  C   UNL A   1      41.546  20.945  26.441  1.00  0.00     0.000 A 
ENDBRANCH  51  70
BRANCH  63  76
ATOM     76  C   UNL A   1      47.848  26.174  30.511  1.00  0.00    -0.014 A 
ATOM     77  C   UNL A   1      48.821  26.143  29.501  1.00  0.00     0.009 A 
ATOM     78  C   UNL A   1      48.186  25.715  31.795  1.00  0.00     0.009 A 
ATOM     79  C   UNL A   1      50.094  25.631  29.761  1.00  0.00     0.001 A 
ATOM     80  C   UNL A   1      49.468  25.233  32.061  1.00  0.00     0.001 A 
ATOM     81  C   UNL A   1      50.418  25.182  31.041  1.00  0.00     0.000 A 
ENDBRANCH  63  76
ENDBRANCH  37  38
ENDBRANCH  29  32
ENDBRANCH  27  28
ENDBRANCH  26  27
ENDBRANCH   1  26
TORSDOF 14
ENDMDL
MODEL 2
REMARK VINA RESULT:     -11.0      2.083      7.578
REMARK SMILES C[C@@](NC(=O)[C@H]1COc2ccccc21)(C(=O)NCCCCNC(=O)c1ccc(-c2c3nc(c(-c4ccccc4)c4ccc([nH]4)c(-c4ccccc4)c4nc(c(-c5ccccc5)c5ccc2[nH]5)C=C4)C=C3)cc1)C(F)(F)F
REMARK SMILES IDX 19 1 18 2 17 3 15 4 16 5 2 7 1 8 3 9 4 10 5 12 6 13 7 14
REMARK SMILES IDX 14 15 8 16 9 17 13 18 10 19 12 20 11 21 73 22 74 23 75 24
REMARK SMILES IDX 76 25 20 26 21 27 22 28 23 29 24 31 25 32 26 33 72 34 27 35
REMARK SMILES IDX 71 36 28 37 29 38 30 39 65 40 31 41 70 42 64 43 66 44 32 45
REMARK SMILES IDX 69 46 63 47 62 48 33 50 55 51 40 52 54 53 41 54 44 55 53 56
REMARK SMILES IDX 67 57 42 58 43 59 52 61 68 62 45 63 34 64 35 65 39 66 36 67
REMARK SMILES IDX 38 68 37 69 56 70 57 71 61 72 58 73 60 74 59 75 46 76 47 77
REMARK SMILES IDX 51 78 48 79 50 80 49 81
REMARK H PARENT 17 6 3 11 22 30 66 49 44 60
REMARK Flexibility Score: inf
ROOT
ATOM      1  C   UNL A   1      36.946  21.143  24.674  1.00  0.00     0.023 C 
ENDROOT
BRANCH   1   2
ATOM      2  C   UNL A   1      35.657  21.121  25.496  1.00  0.00     0.116 C 
BRANCH   2   3
ATOM      3  N   UNL A   1      34.579  20.447  24.788  1.00  0.00    -0.354 N 
ATOM      4  C   UNL A   1      33.437  20.926  24.192  1.00  0.00     0.254 C 
ATOM      5  O   UNL A   1      32.636  20.076  23.797  1.00  0.00    -0.272 OA
ATOM      6  H   UNL A   1      34.687  19.470  24.724  1.00  0.00     0.163 HD
BRANCH   4   7
ATOM      7  C   UNL A   1      33.089  22.418  24.236  1.00  0.00     0.212 C 
ATOM      8  C   UNL A   1      31.799  22.544  23.374  1.00  0.00     0.056 C 
BRANCH   7   9
ATOM      9  N   UNL A   1      32.794  22.904  25.627  1.00  0.00    -0.334 N 
ATOM     10  C   UNL A   1      32.118  23.947  26.167  1.00  0.00     0.232 C 
ATOM     11  H   UNL A   1      33.189  22.321  26.316  1.00  0.00     0.164 HD
ATOM     12  O   UNL A   1      31.808  23.749  27.356  1.00  0.00    -0.274 OA
BRANCH  10  13
ATOM     13  C   UNL A   1      31.835  25.341  25.616  1.00  0.00     0.150 C 
ATOM     14  C   UNL A   1      30.387  25.746  25.932  1.00  0.00     0.248 C 
ATOM     15  C   UNL A   1      32.507  26.570  26.089  1.00  0.00     0.010 A 
ATOM     16  O   UNL A   1      30.389  26.749  26.983  1.00  0.00    -0.492 OA
ATOM     17  C   UNL A   1      31.636  27.310  26.874  1.00  0.00     0.123 A 
ATOM     18  C   UNL A   1      33.752  27.082  25.768  1.00  0.00     0.008 A 
ATOM     19  C   UNL A   1      32.016  28.488  27.484  1.00  0.00     0.047 A 
ATOM     20  C   UNL A   1      34.166  28.266  26.378  1.00  0.00     0.001 A 
ATOM     21  C   UNL A   1      33.310  28.956  27.248  1.00  0.00     0.004 A 
ENDBRANCH  10  13
ENDBRANCH   7   9
BRANCH   7  22
ATOM     22  C   UNL A   1      34.125  23.293  23.486  1.00  0.00     0.420 C 
ATOM     23  F   UNL A   1      34.919  22.602  22.643  1.00  0.00    -0.168 F 
ATOM     24  F   UNL A   1      33.464  24.203  22.711  1.00  0.00    -0.168 F 
ATOM     25  F   UNL A   1      34.903  24.030  24.293  1.00  0.00    -0.168 F 
ENDBRANCH   7  22
ENDBRANCH   4   7
ENDBRANCH   2   3
ENDBRANCH   1   2
BRANCH   1  26
ATOM     26  C   UNL A   1      37.876  19.953  24.930  1.00  0.00     0.023 C 
BRANCH  26  27
ATOM     27  C   UNL A   1      38.937  20.180  26.006  1.00  0.00     0.116 C 
BRANCH  27  28
ATOM     28  N   UNL A   1      40.086  19.300  25.860  1.00  0.00    -0.352 N 
ATOM     29  C   UNL A   1      41.423  19.567  26.017  1.00  0.00     0.251 C 
ATOM     30  H   UNL A   1      39.873  18.372  25.610  1.00  0.00     0.163 HD
ATOM     31  O   UNL A   1      42.259  18.726  25.703  1.00  0.00    -0.269 OA
BRANCH  29  32
ATOM     32  C   UNL A   1      41.865  20.878  26.540  1.00  0.00     0.039 A 
ATOM     33  C   UNL A   1      42.252  21.864  25.629  1.00  0.00     0.014 A 
ATOM     34  C   UNL A   1      41.914  21.131  27.913  1.00  0.00     0.014 A 
ATOM     35  C   UNL A   1      42.629  23.126  26.093  1.00  0.00     0.010 A 
ATOM     36  C   UNL A   1      42.229  22.409  28.372  1.00  0.00     0.010 A 
ATOM     37  C   UNL A   1      42.589  23.419  27.466  1.00  0.00    -0.014 A 
BRANCH  37  38
ATOM     38  C   UNL A   1      42.909  24.782  27.961  1.00  0.00     0.031 A 
ATOM     39  C   UNL A   1      44.333  25.180  28.239  1.00  0.00     0.074 A 
ATOM     40  C   UNL A   1      41.909  25.653  28.202  1.00  0.00     0.049 A 
ATOM     41  N   UNL A   1      44.798  26.317  28.690  1.00  0.00    -0.248 NA
ATOM     42  C   UNL A   1      45.367  24.161  27.997  1.00  0.00     0.031 C 
ATOM     43  C   UNL A   1      40.483  25.384  28.003  1.00  0.00     0.029 A 
ATOM     44  N   UNL A   1      41.941  26.945  28.666  1.00  0.00    -0.354 N 
ATOM     45  C   UNL A   1      46.172  26.149  28.796  1.00  0.00     0.074 A 
ATOM     46  C   UNL A   1      46.462  24.786  28.406  1.00  0.00     0.031 C 
ATOM     47  C   UNL A   1      39.781  26.485  28.314  1.00  0.00     0.029 A 
ATOM     48  C   UNL A   1      40.698  27.523  28.771  1.00  0.00     0.049 A 
ATOM     49  H   UNL A   1      42.774  27.413  28.901  1.00  0.00     0.167 HD
ATOM     50  C   UNL A   1      47.112  27.051  29.167  1.00  0.00     0.031 A 
ATOM     51  C   UNL A   1      40.336  28.749  29.193  1.00  0.00     0.031 A 
ATOM     52  C   UNL A   1      46.827  28.409  29.552  1.00  0.00     0.049 A 
ATOM     53  C   UNL A   1      41.398  29.720  29.630  1.00  0.00     0.074 A 
ATOM     54  C   UNL A   1      47.719  29.413  29.890  1.00  0.00     0.029 A 
ATOM     55  N   UNL A   1      45.556  28.950  29.658  1.00  0.00    -0.354 N 
ATOM     56  N   UNL A   1      42.700  29.569  29.652  1.00  0.00    -0.248 NA
ATOM     57  C   UNL A   1      40.937  31.039  30.089  1.00  0.00     0.031 C 
ATOM     58  C   UNL A   1      46.983  30.544  30.257  1.00  0.00     0.029 A 
ATOM     59  C   UNL A   1      45.637  30.265  30.085  1.00  0.00     0.049 A 
ATOM     60  H   UNL A   1      44.719  28.472  29.457  1.00  0.00     0.167 HD
ATOM     61  C   UNL A   1      43.215  30.780  30.097  1.00  0.00     0.074 A 
ATOM     62  C   UNL A   1      42.086  31.659  30.317  1.00  0.00     0.031 C 
ATOM     63  C   UNL A   1      44.507  31.131  30.302  1.00  0.00     0.031 A 
BRANCH  50  64
ATOM     64  C   UNL A   1      48.544  26.594  29.189  1.00  0.00    -0.014 A 
ATOM     65  C   UNL A   1      49.403  26.833  28.104  1.00  0.00     0.009 A 
ATOM     66  C   UNL A   1      49.055  25.954  30.329  1.00  0.00     0.009 A 
ATOM     67  C   UNL A   1      50.733  26.410  28.148  1.00  0.00     0.001 A 
ATOM     68  C   UNL A   1      50.393  25.559  30.383  1.00  0.00     0.001 A 
ATOM     69  C   UNL A   1      51.228  25.779  29.289  1.00  0.00     0.000 A 
ENDBRANCH  50  64
BRANCH  51  70
ATOM     70  C   UNL A   1      38.902  29.138  29.216  1.00  0.00    -0.014 A 
ATOM     71  C   UNL A   1      38.132  28.953  30.374  1.00  0.00     0.009 A 
ATOM     72  C   UNL A   1      38.289  29.678  28.074  1.00  0.00     0.009 A 
ATOM     73  C   UNL A   1      36.772  29.273  30.380  1.00  0.00     0.001 A 
ATOM     74  C   UNL A   1      36.937  30.025  28.092  1.00  0.00     0.001 A 
ATOM     75  C   UNL A   1      36.177  29.813  29.241  1.00  0.00     0.000 A 
ENDBRANCH  51  70
BRANCH  63  76
ATOM     76  C   UNL A   1      44.774  32.540  30.753  1.00  0.00    -0.014 A 
ATOM     77  C   UNL A   1      44.867  32.869  32.113  1.00  0.00     0.009 A 
ATOM     78  C   UNL A   1      44.975  33.548  29.795  1.00  0.00     0.009 A 
ATOM     79  C   UNL A   1      45.121  34.184  32.507  1.00  0.00     0.001 A 
ATOM     80  C   UNL A   1      45.259  34.855  30.190  1.00  0.00     0.001 A 
ATOM     81  C   UNL A   1      45.322  35.175  31.546  1.00  0.00     0.000 A 
ENDBRANCH  63  76
ENDBRANCH  37  38
ENDBRANCH  29  32
ENDBRANCH  27  28
ENDBRANCH  26  27
ENDBRANCH   1  26
TORSDOF 14
ENDMDL
MODEL 3
REMARK VINA RESULT:     -11.0      2.184      7.450
REMARK SMILES C[C@@](NC(=O)[C@H]1COc2ccccc21)(C(=O)NCCCCNC(=O)c1ccc(-c2c3nc(c(-c4ccccc4)c4ccc([nH]4)c(-c4ccccc4)c4nc(c(-c5ccccc5)c5ccc2[nH]5)C=C4)C=C3)cc1)C(F)(F)F
REMARK SMILES IDX 19 1 18 2 17 3 15 4 16 5 2 7 1 8 3 9 4 10 5 12 6 13 7 14
REMARK SMILES IDX 14 15 8 16 9 17 13 18 10 19 12 20 11 21 73 22 74 23 75 24
REMARK SMILES IDX 76 25 20 26 21 27 22 28 23 29 24 31 25 32 26 33 72 34 27 35
REMARK SMILES IDX 71 36 28 37 29 38 30 39 65 40 31 41 70 42 64 43 66 44 32 45
REMARK SMILES IDX 69 46 63 47 62 48 33 50 55 51 40 52 54 53 41 54 44 55 53 56
REMARK SMILES IDX 67 57 42 58 43 59 52 61 68 62 45 63 34 64 35 65 39 66 36 67
REMARK SMILES IDX 38 68 37 69 56 70 57 71 61 72 58 73 60 74 59 75 46 76 47 77
REMARK SMILES IDX 51 78 48 79 50 80 49 81
REMARK H PARENT 17 6 3 11 22 30 66 49 44 60
REMARK Flexibility Score: inf
ROOT
ATOM      1  C   UNL A   1      36.823  21.141  24.661  1.00  0.00     0.023 C 
ENDROOT
BRANCH   1   2
ATOM      2  C   UNL A   1      35.529  21.113  25.473  1.00  0.00     0.116 C 
BRANCH   2   3
ATOM      3  N   UNL A   1      34.450  20.464  24.743  1.00  0.00    -0.354 N 
ATOM      4  C   UNL A   1      33.321  20.967  24.142  1.00  0.00     0.254 C 
ATOM      5  O   UNL A   1      32.513  20.135  23.725  1.00  0.00    -0.272 OA
ATOM      6  H   UNL A   1      34.546  19.487  24.665  1.00  0.00     0.163 HD
BRANCH   4   7
ATOM      7  C   UNL A   1      32.993  22.463  24.205  1.00  0.00     0.212 C 
ATOM      8  C   UNL A   1      31.709  22.618  23.338  1.00  0.00     0.056 C 
BRANCH   7   9
ATOM      9  N   UNL A   1      32.697  22.934  25.601  1.00  0.00    -0.334 N 
ATOM     10  C   UNL A   1      32.037  23.981  26.152  1.00  0.00     0.232 C 
ATOM     11  H   UNL A   1      33.077  22.333  26.283  1.00  0.00     0.164 HD
ATOM     12  O   UNL A   1      31.715  23.771  27.335  1.00  0.00    -0.274 OA
BRANCH  10  13
ATOM     13  C   UNL A   1      31.784  25.388  25.620  1.00  0.00     0.150 C 
ATOM     14  C   UNL A   1      30.345  25.820  25.944  1.00  0.00     0.248 C 
ATOM     15  C   UNL A   1      32.483  26.595  26.108  1.00  0.00     0.010 A 
ATOM     16  O   UNL A   1      30.371  26.809  27.008  1.00  0.00    -0.492 OA
ATOM     17  C   UNL A   1      31.629  27.344  26.904  1.00  0.00     0.123 A 
ATOM     18  C   UNL A   1      33.738  27.084  25.791  1.00  0.00     0.008 A 
ATOM     19  C   UNL A   1      32.036  28.505  27.529  1.00  0.00     0.047 A 
ATOM     20  C   UNL A   1      34.178  28.251  26.416  1.00  0.00     0.001 A 
ATOM     21  C   UNL A   1      33.339  28.948  27.296  1.00  0.00     0.004 A 
ENDBRANCH  10  13
ENDBRANCH   7   9
BRANCH   7  22
ATOM     22  C   UNL A   1      34.044  23.334  23.471  1.00  0.00     0.420 C 
ATOM     23  F   UNL A   1      34.775  22.661  22.560  1.00  0.00    -0.168 F 
ATOM     24  F   UNL A   1      33.402  24.321  22.777  1.00  0.00    -0.168 F 
ATOM     25  F   UNL A   1      34.883  23.983  24.293  1.00  0.00    -0.168 F 
ENDBRANCH   7  22
ENDBRANCH   4   7
ENDBRANCH   2   3
ENDBRANCH   1   2
BRANCH   1  26
ATOM     26  C   UNL A   1      37.802  20.011  24.996  1.00  0.00     0.023 C 
BRANCH  26  27
ATOM     27  C   UNL A   1      38.984  20.416  25.875  1.00  0.00     0.116 C 
BRANCH  27  28
ATOM     28  N   UNL A   1      40.059  19.437  25.863  1.00  0.00    -0.352 N 
ATOM     29  C   UNL A   1      41.401  19.601  26.100  1.00  0.00     0.251 C 
ATOM     30  H   UNL A   1      39.783  18.515  25.652  1.00  0.00     0.163 HD
ATOM     31  O   UNL A   1      42.179  18.675  25.896  1.00  0.00    -0.269 OA
BRANCH  29  32
ATOM     32  C   UNL A   1      41.919  20.902  26.576  1.00  0.00     0.039 A 
ATOM     33  C   UNL A   1      42.200  21.894  25.634  1.00  0.00     0.014 A 
ATOM     34  C   UNL A   1      42.143  21.138  27.935  1.00  0.00     0.014 A 
ATOM     35  C   UNL A   1      42.647  23.147  26.060  1.00  0.00     0.010 A 
ATOM     36  C   UNL A   1      42.528  22.408  28.364  1.00  0.00     0.010 A 
ATOM     37  C   UNL A   1      42.783  23.425  27.430  1.00  0.00    -0.014 A 
BRANCH  37  38
ATOM     38  C   UNL A   1      43.178  24.778  27.895  1.00  0.00     0.031 A 
ATOM     39  C   UNL A   1      42.135  25.824  28.180  1.00  0.00     0.074 A 
ATOM     40  C   UNL A   1      44.485  25.082  28.022  1.00  0.00     0.049 A 
ATOM     41  N   UNL A   1      42.295  27.061  28.576  1.00  0.00    -0.248 NA
ATOM     42  C   UNL A   1      40.731  25.434  27.975  1.00  0.00     0.031 C 
ATOM     43  C   UNL A   1      45.598  24.169  27.749  1.00  0.00     0.029 A 
ATOM     44  N   UNL A   1      45.099  26.245  28.414  1.00  0.00    -0.354 N 
ATOM     45  C   UNL A   1      41.018  27.600  28.658  1.00  0.00     0.074 A 
ATOM     46  C   UNL A   1      40.096  26.571  28.225  1.00  0.00     0.031 C 
ATOM     47  C   UNL A   1      46.755  24.797  28.011  1.00  0.00     0.029 A 
ATOM     48  C   UNL A   1      46.471  26.165  28.431  1.00  0.00     0.049 A 
ATOM     49  H   UNL A   1      44.604  27.059  28.661  1.00  0.00     0.167 HD
ATOM     50  C   UNL A   1      40.642  28.835  29.070  1.00  0.00     0.031 A 
ATOM     51  C   UNL A   1      47.398  27.091  28.743  1.00  0.00     0.031 A 
ATOM     52  C   UNL A   1      41.555  29.859  29.504  1.00  0.00     0.049 A 
ATOM     53  C   UNL A   1      46.954  28.463  29.168  1.00  0.00     0.074 A 
ATOM     54  C   UNL A   1      41.264  31.121  29.993  1.00  0.00     0.029 A 
ATOM     55  N   UNL A   1      42.937  29.743  29.492  1.00  0.00    -0.354 N 
ATOM     56  N   UNL A   1      45.738  28.932  29.311  1.00  0.00    -0.248 NA
ATOM     57  C   UNL A   1      48.014  29.431  29.486  1.00  0.00     0.031 C 
ATOM     58  C   UNL A   1      42.471  31.789  30.222  1.00  0.00     0.029 A 
ATOM     59  C   UNL A   1      43.513  30.921  29.937  1.00  0.00     0.049 A 
ATOM     60  H   UNL A   1      43.434  28.940  29.212  1.00  0.00     0.167 HD
ATOM     61  C   UNL A   1      45.886  30.237  29.764  1.00  0.00     0.074 A 
ATOM     62  C   UNL A   1      47.309  30.479  29.887  1.00  0.00     0.031 C 
ATOM     63  C   UNL A   1      44.929  31.151  30.054  1.00  0.00     0.031 A 
BRANCH  50  64
ATOM     64  C   UNL A   1      39.172  29.153  29.060  1.00  0.00    -0.014 A 
ATOM     65  C   UNL A   1      38.535  29.624  27.901  1.00  0.00     0.009 A 
ATOM     66  C   UNL A   1      38.404  28.936  30.215  1.00  0.00     0.009 A 
ATOM     67  C   UNL A   1      37.167  29.903  27.909  1.00  0.00     0.001 A 
ATOM     68  C   UNL A   1      37.031  29.187  30.212  1.00  0.00     0.001 A 
ATOM     69  C   UNL A   1      36.415  29.679  29.062  1.00  0.00     0.000 A 
ENDBRANCH  50  64
BRANCH  51  70
ATOM     70  C   UNL A   1      48.843  26.752  28.678  1.00  0.00    -0.014 A 
ATOM     71  C   UNL A   1      49.566  26.943  27.491  1.00  0.00     0.009 A 
ATOM     72  C   UNL A   1      49.504  26.217  29.795  1.00  0.00     0.009 A 
ATOM     73  C   UNL A   1      50.913  26.578  27.415  1.00  0.00     0.001 A 
ATOM     74  C   UNL A   1      50.858  25.882  29.725  1.00  0.00     0.001 A 
ATOM     75  C   UNL A   1      51.558  26.053  28.533  1.00  0.00     0.000 A 
ENDBRANCH  51  70
BRANCH  63  76
ATOM     76  C   UNL A   1      45.387  32.487  30.572  1.00  0.00    -0.014 A 
ATOM     77  C   UNL A   1      45.629  33.563  29.705  1.00  0.00     0.009 A 
ATOM     78  C   UNL A   1      45.540  32.679  31.955  1.00  0.00     0.009 A 
ATOM     79  C   UNL A   1      46.050  34.796  30.210  1.00  0.00     0.001 A 
ATOM     80  C   UNL A   1      45.929  33.920  32.459  1.00  0.00     0.001 A 
ATOM     81  C   UNL A   1      46.194  34.975  31.586  1.00  0.00     0.000 A 
ENDBRANCH  63  76
ENDBRANCH  37  38
ENDBRANCH  29  32
ENDBRANCH  27  28
ENDBRANCH  26  27
ENDBRANCH   1  26
TORSDOF 14
ENDMDL
