MODEL 1
REMARK VINA RESULT:     -11.9      0.000      0.000
REMARK SMILES COc1ccccc1C(=O)N/C(=C/c1ccc2c(c1)OCO2)C(=O)Nc1ccc(C(=O)NCCCCNC(=O)c2ccc(-c3c4nc(c(-c5ccccc5)c5ccc([nH]5)c(-c5ccccc5)c5nc(c(-c6ccccc6)c6ccc3[nH]6)C=C5)C=C4)cc2)cc1
REMARK SMILES IDX 33 1 32 2 30 3 31 4 29 6 26 7 27 8 89 9 28 10 88 11 25 12
REMARK SMILES IDX 23 13 24 14 12 16 13 17 11 18 9 19 10 20 8 22 3 23 4 24 5 25
REMARK SMILES IDX 7 26 6 27 2 28 1 29 14 30 15 31 19 32 16 33 18 34 17 35
REMARK SMILES IDX 20 36 22 37 21 38 34 39 35 40 36 41 37 42 38 43 39 45 40 46
REMARK SMILES IDX 41 47 87 48 42 49 86 50 43 51 44 52 45 53 80 54 46 55 85 56
REMARK SMILES IDX 79 57 81 58 47 59 84 60 78 61 77 62 48 64 70 65 55 66 69 67
REMARK SMILES IDX 56 68 59 69 68 70 82 71 57 72 58 73 67 75 83 76 60 77 49 78
REMARK SMILES IDX 50 79 54 80 51 81 53 82 52 83 71 84 72 85 76 86 73 87 75 88
REMARK SMILES IDX 74 89 61 90 62 91 66 92 63 93 65 94 64 95
REMARK H PARENT 32 5 25 15 11 21 37 44 81 63 59 74
REMARK Flexibility Score: inf
ROOT
ATOM      1  C   UNL A   1      38.491  23.906  26.381  1.00  0.00     0.116 C 
ENDROOT
BRANCH   1   2
ATOM      2  N   UNL A   1      38.238  22.537  25.942  1.00  0.00    -0.352 N 
ATOM      3  C   UNL A   1      37.124  21.910  25.397  1.00  0.00     0.251 C 
ATOM      4  O   UNL A   1      37.200  20.724  25.085  1.00  0.00    -0.269 OA
ATOM      5  H   UNL A   1      39.011  21.937  26.056  1.00  0.00     0.163 HD
BRANCH   3   6
ATOM      6  C   UNL A   1      35.817  22.578  25.232  1.00  0.00     0.039 A 
ATOM      7  C   UNL A   1      32.137  23.724  24.693  1.00  0.00     0.041 A 
ATOM      8  C   UNL A   1      33.282  23.947  23.633  1.00  0.00     0.027 A 
ATOM      9  C   UNL A   1      32.691  22.944  25.794  1.00  0.00     0.027 A 
ATOM     10  C   UNL A   1      35.273  23.396  23.842  1.00  0.00     0.016 A 
ATOM     11  C   UNL A   1      34.561  22.416  26.238  1.00  0.00     0.016 A 
BRANCH   7  12
ATOM     12  N   UNL A   1      31.085  24.573  25.119  1.00  0.00    -0.321 N 
ATOM     13  C   UNL A   1      31.420  25.808  25.680  1.00  0.00     0.272 C 
ATOM     14  O   UNL A   1      31.507  25.752  26.905  1.00  0.00    -0.267 OA
ATOM     15  H   UNL A   1      30.145  24.299  25.025  1.00  0.00     0.170 HD
BRANCH  13  16
ATOM     16  C   UNL A   1      31.951  27.126  24.891  1.00  0.00     0.108 C 
ATOM     17  C   UNL A   1      32.399  28.344  25.366  1.00  0.00     0.040 C 
BRANCH  16  18
ATOM     18  N   UNL A   1      31.819  27.187  23.499  1.00  0.00    -0.317 N 
ATOM     19  C   UNL A   1      30.867  27.414  22.539  1.00  0.00     0.259 C 
ATOM     20  O   UNL A   1      31.229  27.273  21.365  1.00  0.00    -0.269 OA
ATOM     21  H   UNL A   1      32.689  27.010  23.073  1.00  0.00     0.170 HD
BRANCH  19  22
ATOM     22  C   UNL A   1      29.463  27.747  22.784  1.00  0.00     0.082 A 
ATOM     23  C   UNL A   1      28.774  28.896  22.394  1.00  0.00     0.131 A 
ATOM     24  C   UNL A   1      27.553  29.158  23.043  1.00  0.00     0.047 A 
ATOM     25  C   UNL A   1      26.946  28.229  23.886  1.00  0.00     0.004 A 
ATOM     26  C   UNL A   1      28.773  26.739  23.495  1.00  0.00     0.018 A 
ATOM     27  C   UNL A   1      27.511  26.973  24.030  1.00  0.00     0.001 A 
BRANCH  23  28
ATOM     28  O   UNL A   1      29.076  29.884  21.502  1.00  0.00    -0.496 OA
ATOM     29  C   UNL A   1      28.953  31.258  21.805  1.00  0.00     0.278 C 
ENDBRANCH  23  28
ENDBRANCH  19  22
ENDBRANCH  16  18
BRANCH  17  30
ATOM     30  C   UNL A   1      32.636  28.816  26.787  1.00  0.00    -0.019 A 
ATOM     31  C   UNL A   1      34.387  28.618  27.402  1.00  0.00     0.012 A 
ATOM     32  C   UNL A   1      31.685  30.360  26.882  1.00  0.00     0.058 A 
ATOM     33  C   UNL A   1      35.403  30.054  27.940  1.00  0.00     0.051 A 
ATOM     34  C   UNL A   1      32.563  31.750  27.426  1.00  0.00     0.166 A 
ATOM     35  C   UNL A   1      34.577  31.634  27.930  1.00  0.00     0.165 A 
ATOM     36  O   UNL A   1      32.157  33.557  27.356  1.00  0.00    -0.454 OA
ATOM     37  O   UNL A   1      35.178  33.332  28.143  1.00  0.00    -0.454 OA
ATOM     38  C   UNL A   1      33.770  34.563  27.747  1.00  0.00     0.468 C 
ENDBRANCH  17  30
ENDBRANCH  13  16
ENDBRANCH   7  12
ENDBRANCH   3   6
ENDBRANCH   1   2
BRANCH   1  39
ATOM     39  C   UNL A   1      39.942  24.300  26.613  1.00  0.00     0.023 C 
BRANCH  39  40
ATOM     40  C   UNL A   1      40.454  24.112  28.026  1.00  0.00     0.023 C 
BRANCH  40  41
ATOM     41  C   UNL A   1      41.591  23.111  28.172  1.00  0.00     0.116 C 
BRANCH  41  42
ATOM     42  N   UNL A   1      41.987  22.462  26.927  1.00  0.00    -0.352 N 
ATOM     43  C   UNL A   1      42.819  22.954  25.944  1.00  0.00     0.251 C 
ATOM     44  H   UNL A   1      41.615  21.563  26.771  1.00  0.00     0.163 HD
ATOM     45  O   UNL A   1      43.006  22.335  24.903  1.00  0.00    -0.269 OA
BRANCH  43  46
ATOM     46  C   UNL A   1      43.441  24.278  26.148  1.00  0.00     0.039 A 
ATOM     47  C   UNL A   1      44.229  24.485  27.282  1.00  0.00     0.014 A 
ATOM     48  C   UNL A   1      43.350  25.256  25.154  1.00  0.00     0.014 A 
ATOM     49  C   UNL A   1      45.017  25.634  27.364  1.00  0.00     0.010 A 
ATOM     50  C   UNL A   1      44.202  26.354  25.198  1.00  0.00     0.010 A 
ATOM     51  C   UNL A   1      45.059  26.543  26.293  1.00  0.00    -0.014 A 
BRANCH  51  52
ATOM     52  C   UNL A   1      46.034  27.663  26.273  1.00  0.00     0.031 A 
ATOM     53  C   UNL A   1      47.503  27.391  26.122  1.00  0.00     0.074 A 
ATOM     54  C   UNL A   1      45.598  28.924  26.469  1.00  0.00     0.049 A 
ATOM     55  N   UNL A   1      48.503  28.234  26.137  1.00  0.00    -0.248 NA
ATOM     56  C   UNL A   1      47.904  25.985  25.953  1.00  0.00     0.031 C 
ATOM     57  C   UNL A   1      44.201  29.319  26.672  1.00  0.00     0.029 A 
ATOM     58  N   UNL A   1      46.288  30.110  26.535  1.00  0.00    -0.354 N 
ATOM     59  C   UNL A   1      49.648  27.464  25.988  1.00  0.00     0.074 A 
ATOM     60  C   UNL A   1      49.225  26.081  25.940  1.00  0.00     0.031 C 
ATOM     61  C   UNL A   1      44.135  30.652  26.806  1.00  0.00     0.029 A 
ATOM     62  C   UNL A   1      45.484  31.204  26.753  1.00  0.00     0.049 A 
ATOM     63  H   UNL A   1      47.265  30.171  26.436  1.00  0.00     0.167 HD
ATOM     64  C   UNL A   1      50.936  27.871  25.883  1.00  0.00     0.031 A 
ATOM     65  C   UNL A   1      45.798  32.504  26.907  1.00  0.00     0.031 A 
ATOM     66  C   UNL A   1      51.357  29.246  25.942  1.00  0.00     0.049 A 
ATOM     67  C   UNL A   1      47.240  32.923  26.836  1.00  0.00     0.074 A 
ATOM     68  C   UNL A   1      52.632  29.762  25.793  1.00  0.00     0.029 A 
ATOM     69  N   UNL A   1      50.515  30.321  26.180  1.00  0.00    -0.354 N 
ATOM     70  N   UNL A   1      48.304  32.190  26.612  1.00  0.00    -0.248 NA
ATOM     71  C   UNL A   1      47.524  34.352  27.033  1.00  0.00     0.031 C 
ATOM     72  C   UNL A   1      52.573  31.142  26.014  1.00  0.00     0.029 A 
ATOM     73  C   UNL A   1      51.250  31.495  26.226  1.00  0.00     0.049 A 
ATOM     74  H   UNL A   1      49.540  30.261  26.300  1.00  0.00     0.167 HD
ATOM     75  C   UNL A   1      49.378  33.070  26.621  1.00  0.00     0.074 A 
ATOM     76  C   UNL A   1      48.835  34.393  26.844  1.00  0.00     0.031 C 
ATOM     77  C   UNL A   1      50.698  32.804  26.461  1.00  0.00     0.031 A 
BRANCH  64  78
ATOM     78  C   UNL A   1      51.987  26.809  25.709  1.00  0.00    -0.014 A 
ATOM     79  C   UNL A   1      52.396  26.386  24.433  1.00  0.00     0.009 A 
ATOM     80  C   UNL A   1      52.610  26.251  26.837  1.00  0.00     0.009 A 
ATOM     81  C   UNL A   1      53.376  25.402  24.292  1.00  0.00     0.001 A 
ATOM     82  C   UNL A   1      53.613  25.292  26.693  1.00  0.00     0.001 A 
ATOM     83  C   UNL A   1      53.989  24.861  25.422  1.00  0.00     0.000 A 
ENDBRANCH  64  78
BRANCH  65  84
ATOM     84  C   UNL A   1      44.727  33.509  27.152  1.00  0.00    -0.014 A 
ATOM     85  C   UNL A   1      44.131  34.194  26.081  1.00  0.00     0.009 A 
ATOM     86  C   UNL A   1      44.306  33.801  28.459  1.00  0.00     0.009 A 
ATOM     87  C   UNL A   1      43.158  35.168  26.317  1.00  0.00     0.001 A 
ATOM     88  C   UNL A   1      43.308  34.750  28.689  1.00  0.00     0.001 A 
ATOM     89  C   UNL A   1      42.744  35.442  27.619  1.00  0.00     0.000 A 
ENDBRANCH  65  84
BRANCH  77  90
ATOM     90  C   UNL A   1      51.645  33.973  26.503  1.00  0.00    -0.014 A 
ATOM     91  C   UNL A   1      52.200  34.419  27.713  1.00  0.00     0.009 A 
ATOM     92  C   UNL A   1      52.015  34.613  25.310  1.00  0.00     0.009 A 
ATOM     93  C   UNL A   1      53.077  35.507  27.730  1.00  0.00     0.001 A 
ATOM     94  C   UNL A   1      52.919  35.677  25.326  1.00  0.00     0.001 A 
ATOM     95  C   UNL A   1      53.441  36.129  26.536  1.00  0.00     0.000 A 
ENDBRANCH  77  90
ENDBRANCH  51  52
ENDBRANCH  43  46
ENDBRANCH  41  42
ENDBRANCH  40  41
ENDBRANCH  39  40
ENDBRANCH   1  39
TORSDOF 17
ENDMDL
MODEL 2
REMARK VINA RESULT:     -11.8      6.879     11.548
REMARK SMILES COc1ccccc1C(=O)N/C(=C/c1ccc2c(c1)OCO2)C(=O)Nc1ccc(C(=O)NCCCCNC(=O)c2ccc(-c3c4nc(c(-c5ccccc5)c5ccc([nH]5)c(-c5ccccc5)c5nc(c(-c6ccccc6)c6ccc3[nH]6)C=C5)C=C4)cc2)cc1
REMARK SMILES IDX 33 1 32 2 30 3 31 4 29 6 26 7 27 8 89 9 28 10 88 11 25 12
REMARK SMILES IDX 23 13 24 14 12 16 13 17 11 18 9 19 10 20 8 22 3 23 4 24 5 25
REMARK SMILES IDX 7 26 6 27 2 28 1 29 14 30 15 31 19 32 16 33 18 34 17 35
REMARK SMILES IDX 20 36 22 37 21 38 34 39 35 40 36 41 37 42 38 43 39 45 40 46
REMARK SMILES IDX 41 47 87 48 42 49 86 50 43 51 44 52 45 53 80 54 46 55 85 56
REMARK SMILES IDX 79 57 81 58 47 59 84 60 78 61 77 62 48 64 70 65 55 66 69 67
REMARK SMILES IDX 56 68 59 69 68 70 82 71 57 72 58 73 67 75 83 76 60 77 49 78
REMARK SMILES IDX 50 79 54 80 51 81 53 82 52 83 71 84 72 85 76 86 73 87 75 88
REMARK SMILES IDX 74 89 61 90 62 91 66 92 63 93 65 94 64 95
REMARK H PARENT 32 5 25 15 11 21 37 44 81 63 59 74
REMARK Flexibility Score: inf
ROOT
ATOM      1  C   UNL A   1      34.311  31.057  27.981  1.00  0.00     0.116 C 
ENDROOT
BRANCH   1   2
ATOM      2  N   UNL A   1      33.130  31.323  27.166  1.00  0.00    -0.352 N 
ATOM      3  C   UNL A   1      32.256  30.495  26.472  1.00  0.00     0.251 C 
ATOM      4  O   UNL A   1      31.304  30.996  25.878  1.00  0.00    -0.269 OA
ATOM      5  H   UNL A   1      32.908  32.280  27.093  1.00  0.00     0.163 HD
BRANCH   3   6
ATOM      6  C   UNL A   1      32.446  29.035  26.349  1.00  0.00     0.039 A 
ATOM      7  C   UNL A   1      33.055  25.205  26.681  1.00  0.00     0.041 A 
ATOM      8  C   UNL A   1      34.092  26.199  26.033  1.00  0.00     0.027 A 
ATOM      9  C   UNL A   1      31.942  25.995  27.200  1.00  0.00     0.027 A 
ATOM     10  C   UNL A   1      33.846  28.246  25.789  1.00  0.00     0.016 A 
ATOM     11  C   UNL A   1      31.463  27.917  26.982  1.00  0.00     0.016 A 
BRANCH   7  12
ATOM     12  N   UNL A   1      32.648  23.904  26.298  1.00  0.00    -0.321 N 
ATOM     13  C   UNL A   1      31.550  23.779  25.443  1.00  0.00     0.272 C 
ATOM     14  O   UNL A   1      30.497  23.632  26.060  1.00  0.00    -0.267 OA
ATOM     15  H   UNL A   1      33.126  23.108  26.625  1.00  0.00     0.170 HD
BRANCH  13  16
ATOM     16  C   UNL A   1      31.515  24.088  23.848  1.00  0.00     0.108 C 
ATOM     17  C   UNL A   1      31.416  25.283  23.161  1.00  0.00     0.040 C 
BRANCH  16  18
ATOM     18  N   UNL A   1      31.402  23.022  22.949  1.00  0.00    -0.317 N 
ATOM     19  C   UNL A   1      31.978  21.807  22.675  1.00  0.00     0.259 C 
ATOM     20  O   UNL A   1      31.567  21.222  21.667  1.00  0.00    -0.269 OA
ATOM     21  H   UNL A   1      30.676  23.200  22.308  1.00  0.00     0.170 HD
BRANCH  19  22
ATOM     22  C   UNL A   1      33.063  21.182  23.433  1.00  0.00     0.082 A 
ATOM     23  C   UNL A   1      33.097  19.900  23.981  1.00  0.00     0.131 A 
ATOM     24  C   UNL A   1      34.078  19.651  24.959  1.00  0.00     0.047 A 
ATOM     25  C   UNL A   1      35.100  20.558  25.234  1.00  0.00     0.004 A 
ATOM     26  C   UNL A   1      34.188  22.025  23.582  1.00  0.00     0.018 A 
ATOM     27  C   UNL A   1      35.212  21.706  24.467  1.00  0.00     0.001 A 
BRANCH  23  28
ATOM     28  O   UNL A   1      32.313  18.800  23.784  1.00  0.00    -0.496 OA
ATOM     29  C   UNL A   1      32.496  17.908  22.705  1.00  0.00     0.278 C 
ENDBRANCH  23  28
ENDBRANCH  19  22
ENDBRANCH  16  18
BRANCH  17  30
ATOM     30  C   UNL A   1      31.408  26.711  23.672  1.00  0.00    -0.019 A 
ATOM     31  C   UNL A   1      32.642  27.848  22.855  1.00  0.00     0.012 A 
ATOM     32  C   UNL A   1      29.640  27.082  23.857  1.00  0.00     0.058 A 
ATOM     33  C   UNL A   1      32.125  29.354  21.935  1.00  0.00     0.051 A 
ATOM     34  C   UNL A   1      29.085  28.513  23.056  1.00  0.00     0.166 A 
ATOM     35  C   UNL A   1      30.378  29.711  21.954  1.00  0.00     0.165 A 
ATOM     36  O   UNL A   1      27.375  29.105  22.657  1.00  0.00    -0.454 OA
ATOM     37  O   UNL A   1      29.361  30.905  21.042  1.00  0.00    -0.454 OA
ATOM     38  C   UNL A   1      27.512  30.554  21.374  1.00  0.00     0.468 C 
ENDBRANCH  17  30
ENDBRANCH  13  16
ENDBRANCH   7  12
ENDBRANCH   3   6
ENDBRANCH   1   2
BRANCH   1  39
ATOM     39  C   UNL A   1      34.970  32.253  28.653  1.00  0.00     0.023 C 
BRANCH  39  40
ATOM     40  C   UNL A   1      34.113  32.994  29.658  1.00  0.00     0.023 C 
BRANCH  40  41
ATOM     41  C   UNL A   1      33.997  34.494  29.424  1.00  0.00     0.116 C 
BRANCH  41  42
ATOM     42  N   UNL A   1      33.069  35.173  30.320  1.00  0.00    -0.352 N 
ATOM     43  C   UNL A   1      33.153  35.298  31.690  1.00  0.00     0.251 C 
ATOM     44  H   UNL A   1      32.286  35.594  29.894  1.00  0.00     0.163 HD
ATOM     45  O   UNL A   1      32.258  35.829  32.336  1.00  0.00    -0.269 OA
BRANCH  43  46
ATOM     46  C   UNL A   1      34.330  34.725  32.376  1.00  0.00     0.039 A 
ATOM     47  C   UNL A   1      34.189  33.519  33.063  1.00  0.00     0.014 A 
ATOM     48  C   UNL A   1      35.588  35.313  32.219  1.00  0.00     0.014 A 
ATOM     49  C   UNL A   1      35.331  32.844  33.499  1.00  0.00     0.010 A 
ATOM     50  C   UNL A   1      36.726  34.597  32.575  1.00  0.00     0.010 A 
ATOM     51  C   UNL A   1      36.608  33.346  33.200  1.00  0.00    -0.014 A 
BRANCH  51  52
ATOM     52  C   UNL A   1      37.831  32.551  33.478  1.00  0.00     0.031 A 
ATOM     53  C   UNL A   1      38.638  32.805  34.719  1.00  0.00     0.074 A 
ATOM     54  C   UNL A   1      38.255  31.649  32.570  1.00  0.00     0.049 A 
ATOM     55  N   UNL A   1      39.761  32.250  35.100  1.00  0.00    -0.248 NA
ATOM     56  C   UNL A   1      38.133  33.834  35.641  1.00  0.00     0.031 C 
ATOM     57  C   UNL A   1      37.586  31.338  31.304  1.00  0.00     0.029 A 
ATOM     58  N   UNL A   1      39.358  30.830  32.569  1.00  0.00    -0.354 N 
ATOM     59  C   UNL A   1      40.097  32.863  36.299  1.00  0.00     0.074 A 
ATOM     60  C   UNL A   1      39.092  33.872  36.554  1.00  0.00     0.031 C 
ATOM     61  C   UNL A   1      38.270  30.375  30.667  1.00  0.00     0.029 A 
ATOM     62  C   UNL A   1      39.455  30.037  31.449  1.00  0.00     0.049 A 
ATOM     63  H   UNL A   1      40.015  30.811  33.300  1.00  0.00     0.167 HD
ATOM     64  C   UNL A   1      41.139  32.600  37.122  1.00  0.00     0.031 A 
ATOM     65  C   UNL A   1      40.398  29.148  31.085  1.00  0.00     0.031 A 
ATOM     66  C   UNL A   1      42.144  31.603  36.861  1.00  0.00     0.049 A 
ATOM     67  C   UNL A   1      41.571  28.911  31.994  1.00  0.00     0.074 A 
ATOM     68  C   UNL A   1      43.210  31.227  37.660  1.00  0.00     0.029 A 
ATOM     69  N   UNL A   1      42.216  30.835  35.710  1.00  0.00    -0.354 N 
ATOM     70  N   UNL A   1      41.830  29.441  33.164  1.00  0.00    -0.248 NA
ATOM     71  C   UNL A   1      42.580  27.945  31.533  1.00  0.00     0.031 C 
ATOM     72  C   UNL A   1      43.968  30.282  36.961  1.00  0.00     0.029 A 
ATOM     73  C   UNL A   1      43.334  30.016  35.758  1.00  0.00     0.049 A 
ATOM     74  H   UNL A   1      41.571  30.866  34.968  1.00  0.00     0.167 HD
ATOM     75  C   UNL A   1      43.019  28.861  33.589  1.00  0.00     0.074 A 
ATOM     76  C   UNL A   1      43.413  27.917  32.564  1.00  0.00     0.031 C 
ATOM     77  C   UNL A   1      43.721  29.091  34.725  1.00  0.00     0.031 A 
BRANCH  64  78
ATOM     78  C   UNL A   1      41.253  33.418  38.380  1.00  0.00    -0.014 A 
ATOM     79  C   UNL A   1      41.996  34.610  38.412  1.00  0.00     0.009 A 
ATOM     80  C   UNL A   1      40.574  33.013  39.540  1.00  0.00     0.009 A 
ATOM     81  C   UNL A   1      42.087  35.357  39.588  1.00  0.00     0.001 A 
ATOM     82  C   UNL A   1      40.639  33.779  40.705  1.00  0.00     0.001 A 
ATOM     83  C   UNL A   1      41.403  34.945  40.731  1.00  0.00     0.000 A 
ENDBRANCH  64  78
BRANCH  65  84
ATOM     84  C   UNL A   1      40.279  28.417  29.793  1.00  0.00    -0.014 A 
ATOM     85  C   UNL A   1      39.622  27.179  29.730  1.00  0.00     0.009 A 
ATOM     86  C   UNL A   1      40.836  28.948  28.618  1.00  0.00     0.009 A 
ATOM     87  C   UNL A   1      39.551  26.475  28.525  1.00  0.00     0.001 A 
ATOM     88  C   UNL A   1      40.732  28.258  27.408  1.00  0.00     0.001 A 
ATOM     89  C   UNL A   1      40.101  27.017  27.365  1.00  0.00     0.000 A 
ENDBRANCH  65  84
BRANCH  77  90
ATOM     90  C   UNL A   1      44.981  28.293  34.928  1.00  0.00    -0.014 A 
ATOM     91  C   UNL A   1      46.235  28.802  34.554  1.00  0.00     0.009 A 
ATOM     92  C   UNL A   1      44.915  27.030  35.536  1.00  0.00     0.009 A 
ATOM     93  C   UNL A   1      47.392  28.044  34.751  1.00  0.00     0.001 A 
ATOM     94  C   UNL A   1      46.077  26.290  35.764  1.00  0.00     0.001 A 
ATOM     95  C   UNL A   1      47.313  26.794  35.362  1.00  0.00     0.000 A 
ENDBRANCH  77  90
ENDBRANCH  51  52
ENDBRANCH  43  46
ENDBRANCH  41  42
ENDBRANCH  40  41
ENDBRANCH  39  40
ENDBRANCH   1  39
TORSDOF 17
ENDMDL
MODEL 3
REMARK VINA RESULT:     -11.6      9.210     13.032
REMARK SMILES COc1ccccc1C(=O)N/C(=C/c1ccc2c(c1)OCO2)C(=O)Nc1ccc(C(=O)NCCCCNC(=O)c2ccc(-c3c4nc(c(-c5ccccc5)c5ccc([nH]5)c(-c5ccccc5)c5nc(c(-c6ccccc6)c6ccc3[nH]6)C=C5)C=C4)cc2)cc1
REMARK SMILES IDX 33 1 32 2 30 3 31 4 29 6 26 7 27 8 89 9 28 10 88 11 25 12
REMARK SMILES IDX 23 13 24 14 12 16 13 17 11 18 9 19 10 20 8 22 3 23 4 24 5 25
REMARK SMILES IDX 7 26 6 27 2 28 1 29 14 30 15 31 19 32 16 33 18 34 17 35
REMARK SMILES IDX 20 36 22 37 21 38 34 39 35 40 36 41 37 42 38 43 39 45 40 46
REMARK SMILES IDX 41 47 87 48 42 49 86 50 43 51 44 52 45 53 80 54 46 55 85 56
REMARK SMILES IDX 79 57 81 58 47 59 84 60 78 61 77 62 48 64 70 65 55 66 69 67
REMARK SMILES IDX 56 68 59 69 68 70 82 71 57 72 58 73 67 75 83 76 60 77 49 78
REMARK SMILES IDX 50 79 54 80 51 81 53 82 52 83 71 84 72 85 76 86 73 87 75 88
REMARK SMILES IDX 74 89 61 90 62 91 66 92 63 93 65 94 64 95
REMARK H PARENT 32 5 25 15 11 21 37 44 81 63 59 74
REMARK Flexibility Score: inf
ROOT
ATOM      1  C   UNL A   1      33.226  35.391  30.869  1.00  0.00     0.116 C 
ENDROOT
BRANCH   1   2
ATOM      2  N   UNL A   1      33.885  35.750  29.617  1.00  0.00    -0.352 N 
ATOM      3  C   UNL A   1      34.118  35.051  28.438  1.00  0.00     0.251 C 
ATOM      4  O   UNL A   1      34.684  35.621  27.509  1.00  0.00    -0.269 OA
ATOM      5  H   UNL A   1      34.234  36.670  29.604  1.00  0.00     0.163 HD
BRANCH   3   6
ATOM      6  C   UNL A   1      33.780  33.624  28.261  1.00  0.00     0.039 A 
ATOM      7  C   UNL A   1      33.354  29.873  27.314  1.00  0.00     0.041 A 
ATOM      8  C   UNL A   1      32.305  30.989  26.943  1.00  0.00     0.027 A 
ATOM      9  C   UNL A   1      34.498  30.524  27.943  1.00  0.00     0.027 A 
ATOM     10  C   UNL A   1      32.433  33.004  27.426  1.00  0.00     0.016 A 
ATOM     11  C   UNL A   1      34.774  32.390  28.587  1.00  0.00     0.016 A 
BRANCH   7  12
ATOM     12  N   UNL A   1      33.176  28.546  27.778  1.00  0.00    -0.321 N 
ATOM     13  C   UNL A   1      32.251  27.733  27.118  1.00  0.00     0.272 C 
ATOM     14  O   UNL A   1      31.140  27.777  27.642  1.00  0.00    -0.267 OA
ATOM     15  H   UNL A   1      33.689  28.206  28.546  1.00  0.00     0.170 HD
BRANCH  13  16
ATOM     16  C   UNL A   1      32.431  27.032  25.663  1.00  0.00     0.108 C 
ATOM     17  C   UNL A   1      32.622  25.708  25.316  1.00  0.00     0.040 C 
BRANCH  16  18
ATOM     18  N   UNL A   1      32.591  27.840  24.532  1.00  0.00    -0.317 N 
ATOM     19  C   UNL A   1      31.863  28.341  23.483  1.00  0.00     0.259 C 
ATOM     20  O   UNL A   1      32.495  28.981  22.635  1.00  0.00    -0.269 OA
ATOM     21  H   UNL A   1      33.524  28.146  24.469  1.00  0.00     0.170 HD
BRANCH  19  22
ATOM     22  C   UNL A   1      30.432  28.135  23.255  1.00  0.00     0.082 A 
ATOM     23  C   UNL A   1      29.542  28.974  22.582  1.00  0.00     0.131 A 
ATOM     24  C   UNL A   1      28.170  28.751  22.799  1.00  0.00     0.047 A 
ATOM     25  C   UNL A   1      27.697  27.632  23.484  1.00  0.00     0.004 A 
ATOM     26  C   UNL A   1      29.957  26.918  23.795  1.00  0.00     0.018 A 
ATOM     27  C   UNL A   1      28.594  26.660  23.893  1.00  0.00     0.001 A 
BRANCH  23  28
ATOM     28  O   UNL A   1      29.740  30.039  21.752  1.00  0.00    -0.496 OA
ATOM     29  C   UNL A   1      28.810  31.093  21.619  1.00  0.00     0.278 C 
ENDBRANCH  23  28
ENDBRANCH  19  22
ENDBRANCH  16  18
BRANCH  17  30
ATOM     30  C   UNL A   1      32.627  24.459  26.176  1.00  0.00    -0.019 A 
ATOM     31  C   UNL A   1      31.362  23.171  25.703  1.00  0.00     0.012 A 
ATOM     32  C   UNL A   1      34.395  24.119  26.414  1.00  0.00     0.058 A 
ATOM     33  C   UNL A   1      31.841  21.472  25.189  1.00  0.00     0.051 A 
ATOM     34  C   UNL A   1      34.915  22.521  25.995  1.00  0.00     0.166 A 
ATOM     35  C   UNL A   1      33.583  21.102  25.265  1.00  0.00     0.165 A 
ATOM     36  O   UNL A   1      36.609  21.818  25.728  1.00  0.00    -0.454 OA
ATOM     37  O   UNL A   1      34.565  19.698  24.669  1.00  0.00    -0.454 OA
ATOM     38  C   UNL A   1      36.426  20.091  24.863  1.00  0.00     0.468 C 
ENDBRANCH  17  30
ENDBRANCH  13  16
ENDBRANCH   7  12
ENDBRANCH   3   6
ENDBRANCH   1   2
BRANCH   1  39
ATOM     39  C   UNL A   1      33.792  35.997  32.145  1.00  0.00     0.023 C 
BRANCH  39  40
ATOM     40  C   UNL A   1      34.391  35.013  33.128  1.00  0.00     0.023 C 
BRANCH  40  41
ATOM     41  C   UNL A   1      35.902  34.850  33.038  1.00  0.00     0.116 C 
BRANCH  41  42
ATOM     42  N   UNL A   1      36.397  34.547  31.701  1.00  0.00    -0.352 N 
ATOM     43  C   UNL A   1      37.628  34.034  31.350  1.00  0.00     0.251 C 
ATOM     44  H   UNL A   1      35.777  34.730  30.957  1.00  0.00     0.163 HD
ATOM     45  O   UNL A   1      37.950  33.900  30.176  1.00  0.00    -0.269 OA
BRANCH  43  46
ATOM     46  C   UNL A   1      38.580  33.697  32.429  1.00  0.00     0.039 A 
ATOM     47  C   UNL A   1      39.243  34.731  33.091  1.00  0.00     0.014 A 
ATOM     48  C   UNL A   1      38.706  32.375  32.866  1.00  0.00     0.014 A 
ATOM     49  C   UNL A   1      39.947  34.451  34.263  1.00  0.00     0.010 A 
ATOM     50  C   UNL A   1      39.332  32.114  34.080  1.00  0.00     0.010 A 
ATOM     51  C   UNL A   1      39.941  33.153  34.801  1.00  0.00    -0.014 A 
BRANCH  51  52
ATOM     52  C   UNL A   1      40.513  32.874  36.142  1.00  0.00     0.031 A 
ATOM     53  C   UNL A   1      41.970  32.545  36.295  1.00  0.00     0.074 A 
ATOM     54  C   UNL A   1      39.697  32.843  37.216  1.00  0.00     0.049 A 
ATOM     55  N   UNL A   1      42.632  32.220  37.376  1.00  0.00    -0.248 NA
ATOM     56  C   UNL A   1      42.786  32.559  35.071  1.00  0.00     0.031 C 
ATOM     57  C   UNL A   1      38.255  33.102  37.196  1.00  0.00     0.029 A 
ATOM     58  N   UNL A   1      39.965  32.574  38.536  1.00  0.00    -0.354 N 
ATOM     59  C   UNL A   1      43.937  31.986  36.963  1.00  0.00     0.074 A 
ATOM     60  C   UNL A   1      43.961  32.151  35.525  1.00  0.00     0.031 C 
ATOM     61  C   UNL A   1      37.774  33.013  38.446  1.00  0.00     0.029 A 
ATOM     62  C   UNL A   1      38.857  32.638  39.348  1.00  0.00     0.049 A 
ATOM     63  H   UNL A   1      40.865  32.357  38.869  1.00  0.00     0.167 HD
ATOM     64  C   UNL A   1      45.021  31.679  37.713  1.00  0.00     0.031 A 
ATOM     65  C   UNL A   1      38.724  32.407  40.667  1.00  0.00     0.031 A 
ATOM     66  C   UNL A   1      44.993  31.506  39.142  1.00  0.00     0.049 A 
ATOM     67  C   UNL A   1      39.935  32.019  41.469  1.00  0.00     0.074 A 
ATOM     68  C   UNL A   1      46.050  31.245  39.998  1.00  0.00     0.029 A 
ATOM     69  N   UNL A   1      43.850  31.561  39.923  1.00  0.00    -0.354 N 
ATOM     70  N   UNL A   1      41.178  31.882  41.075  1.00  0.00    -0.248 NA
ATOM     71  C   UNL A   1      39.724  31.759  42.901  1.00  0.00     0.031 C 
ATOM     72  C   UNL A   1      45.535  31.071  41.286  1.00  0.00     0.029 A 
ATOM     73  C   UNL A   1      44.168  31.297  41.246  1.00  0.00     0.049 A 
ATOM     74  H   UNL A   1      42.946  31.759  39.589  1.00  0.00     0.167 HD
ATOM     75  C   UNL A   1      41.899  31.541  42.212  1.00  0.00     0.074 A 
ATOM     76  C   UNL A   1      40.960  31.519  43.313  1.00  0.00     0.031 C 
ATOM     77  C   UNL A   1      43.222  31.267  42.331  1.00  0.00     0.031 A 
BRANCH  64  78
ATOM     78  C   UNL A   1      46.331  31.494  36.997  1.00  0.00    -0.014 A 
ATOM     79  C   UNL A   1      47.211  32.571  36.793  1.00  0.00     0.009 A 
ATOM     80  C   UNL A   1      46.712  30.218  36.556  1.00  0.00     0.009 A 
ATOM     81  C   UNL A   1      48.424  32.379  36.130  1.00  0.00     0.001 A 
ATOM     82  C   UNL A   1      47.941  30.022  35.922  1.00  0.00     0.001 A 
ATOM     83  C   UNL A   1      48.791  31.104  35.701  1.00  0.00     0.000 A 
ENDBRANCH  64  78
BRANCH  65  84
ATOM     84  C   UNL A   1      37.390  32.530  41.318  1.00  0.00    -0.014 A 
ATOM     85  C   UNL A   1      36.981  33.747  41.886  1.00  0.00     0.009 A 
ATOM     86  C   UNL A   1      36.525  31.426  41.389  1.00  0.00     0.009 A 
ATOM     87  C   UNL A   1      35.748  33.846  42.535  1.00  0.00     0.001 A 
ATOM     88  C   UNL A   1      35.278  31.539  42.007  1.00  0.00     0.001 A 
ATOM     89  C   UNL A   1      34.896  32.745  42.591  1.00  0.00     0.000 A 
ENDBRANCH  65  84
BRANCH  77  90
ATOM     90  C   UNL A   1      43.735  30.939  43.707  1.00  0.00    -0.014 A 
ATOM     91  C   UNL A   1      43.774  29.615  44.174  1.00  0.00     0.009 A 
ATOM     92  C   UNL A   1      44.219  31.965  44.533  1.00  0.00     0.009 A 
ATOM     93  C   UNL A   1      44.255  29.332  45.455  1.00  0.00     0.001 A 
ATOM     94  C   UNL A   1      44.731  31.675  45.799  1.00  0.00     0.001 A 
ATOM     95  C   UNL A   1      44.739  30.361  46.263  1.00  0.00     0.000 A 
ENDBRANCH  77  90
ENDBRANCH  51  52
ENDBRANCH  43  46
ENDBRANCH  41  42
ENDBRANCH  40  41
ENDBRANCH  39  40
ENDBRANCH   1  39
TORSDOF 17
ENDMDL
