MODEL 1
REMARK VINA RESULT:     -12.0      0.000      0.000
REMARK SMILES Cc1nc(-c2ccccc2F)sc1C(=O)NCc1ccc(C(=O)NCCCCNC(=O)c2ccc(-c3c4nc(c(-c5ccccc5)c5ccc([nH]5)c(-c5ccccc5)c5nc(c(-c6ccccc6)c6ccc3[nH]6)C=C5)C=C4)cc2)cc1
REMARK SMILES IDX 25 1 24 2 22 3 23 4 21 6 18 7 19 8 81 9 20 10 80 11 17 12
REMARK SMILES IDX 16 13 14 14 15 15 13 17 1 18 2 19 3 20 4 21 12 22 5 23 6 24
REMARK SMILES IDX 10 25 7 26 9 27 11 28 8 29 26 30 27 31 28 32 29 33 30 34
REMARK SMILES IDX 31 36 32 37 33 38 79 39 34 40 78 41 35 42 36 43 37 44 72 45
REMARK SMILES IDX 38 46 77 47 71 48 73 49 39 50 76 51 70 52 69 53 40 55 62 56
REMARK SMILES IDX 47 57 61 58 48 59 51 60 60 61 74 62 49 63 50 64 59 66 75 67
REMARK SMILES IDX 52 68 41 69 42 70 46 71 43 72 45 73 44 74 63 75 64 76 68 77
REMARK SMILES IDX 65 78 67 79 66 80 53 81 54 82 58 83 55 84 57 85 56 86
REMARK H PARENT 24 5 16 16 29 35 73 54 51 65
REMARK Flexibility Score: inf
ROOT
ATOM      1  C   UNL A   1      38.152  23.689  26.024  1.00  0.00     0.116 C 
ENDROOT
BRANCH   1   2
ATOM      2  N   UNL A   1      37.764  23.203  24.716  1.00  0.00    -0.352 N 
ATOM      3  C   UNL A   1      36.582  23.342  24.031  1.00  0.00     0.251 C 
ATOM      4  O   UNL A   1      36.512  22.898  22.887  1.00  0.00    -0.269 OA
ATOM      5  H   UNL A   1      38.459  22.691  24.242  1.00  0.00     0.163 HD
BRANCH   3   6
ATOM      6  C   UNL A   1      35.410  24.056  24.607  1.00  0.00     0.039 A 
ATOM      7  C   UNL A   1      33.190  25.319  25.830  1.00  0.00    -0.029 A 
ATOM      8  C   UNL A   1      33.970  24.390  26.532  1.00  0.00     0.006 A 
ATOM      9  C   UNL A   1      33.545  25.613  24.510  1.00  0.00     0.006 A 
ATOM     10  C   UNL A   1      35.077  23.777  25.934  1.00  0.00     0.014 A 
ATOM     11  C   UNL A   1      34.652  25.003  23.916  1.00  0.00     0.014 A 
BRANCH   7  12
ATOM     12  C   UNL A   1      31.951  25.947  26.414  1.00  0.00     0.152 C 
BRANCH  12  13
ATOM     13  N   UNL A   1      31.064  24.929  26.896  1.00  0.00    -0.347 N 
ATOM     14  C   UNL A   1      30.737  23.651  26.562  1.00  0.00     0.263 C 
ATOM     15  O   UNL A   1      29.896  23.198  27.356  1.00  0.00    -0.268 OA
ATOM     16  H   UNL A   1      30.556  25.238  27.680  1.00  0.00     0.164 HD
BRANCH  14  17
ATOM     17  C   UNL A   1      31.267  22.852  25.457  1.00  0.00     0.115 A 
ATOM     18  C   UNL A   1      30.797  23.680  22.964  1.00  0.00     0.068 C 
ATOM     19  C   UNL A   1      31.328  22.834  24.062  1.00  0.00     0.062 A 
ATOM     20  N   UNL A   1      31.999  21.739  23.521  1.00  0.00    -0.240 NA
ATOM     21  C   UNL A   1      32.370  20.881  24.434  1.00  0.00     0.127 A 
ATOM     22  S   UNL A   1      32.073  21.382  26.024  1.00  0.00    -0.108 S 
BRANCH  21  23
ATOM     23  C   UNL A   1      33.047  19.630  24.111  1.00  0.00     0.046 A 
ATOM     24  C   UNL A   1      32.342  18.653  23.391  1.00  0.00     0.014 A 
ATOM     25  C   UNL A   1      34.327  19.320  24.577  1.00  0.00     0.133 A 
ATOM     26  C   UNL A   1      32.905  17.400  23.145  1.00  0.00     0.001 A 
ATOM     27  C   UNL A   1      34.893  18.068  24.340  1.00  0.00     0.040 A 
ATOM     28  F   UNL A   1      35.026  20.201  25.308  1.00  0.00    -0.206 F 
ATOM     29  C   UNL A   1      34.180  17.105  23.625  1.00  0.00     0.003 A 
ENDBRANCH  21  23
ENDBRANCH  14  17
ENDBRANCH  12  13
ENDBRANCH   7  12
ENDBRANCH   3   6
ENDBRANCH   1   2
BRANCH   1  30
ATOM     30  C   UNL A   1      39.373  22.931  26.548  1.00  0.00     0.023 C 
BRANCH  30  31
ATOM     31  C   UNL A   1      39.497  21.494  26.051  1.00  0.00     0.023 C 
BRANCH  31  32
ATOM     32  C   UNL A   1      40.428  20.619  26.872  1.00  0.00     0.116 C 
BRANCH  32  33
ATOM     33  N   UNL A   1      41.502  20.022  26.094  1.00  0.00    -0.352 N 
ATOM     34  C   UNL A   1      42.714  20.584  25.755  1.00  0.00     0.251 C 
ATOM     35  H   UNL A   1      41.344  19.106  25.769  1.00  0.00     0.163 HD
ATOM     36  O   UNL A   1      43.493  20.008  25.019  1.00  0.00    -0.269 OA
BRANCH  34  37
ATOM     37  C   UNL A   1      43.021  21.933  26.272  1.00  0.00     0.039 A 
ATOM     38  C   UNL A   1      43.095  22.995  25.371  1.00  0.00     0.014 A 
ATOM     39  C   UNL A   1      43.145  22.148  27.647  1.00  0.00     0.014 A 
ATOM     40  C   UNL A   1      43.222  24.296  25.858  1.00  0.00     0.010 A 
ATOM     41  C   UNL A   1      43.195  23.448  28.132  1.00  0.00     0.010 A 
ATOM     42  C   UNL A   1      43.233  24.532  27.242  1.00  0.00    -0.014 A 
BRANCH  42  43
ATOM     43  C   UNL A   1      43.286  25.909  27.788  1.00  0.00     0.031 A 
ATOM     44  C   UNL A   1      44.605  26.503  28.188  1.00  0.00     0.074 A 
ATOM     45  C   UNL A   1      42.142  26.591  27.990  1.00  0.00     0.049 A 
ATOM     46  N   UNL A   1      44.852  27.658  28.750  1.00  0.00    -0.248 NA
ATOM     47  C   UNL A   1      45.801  25.678  27.954  1.00  0.00     0.031 C 
ATOM     48  C   UNL A   1      40.794  26.103  27.684  1.00  0.00     0.029 A 
ATOM     49  N   UNL A   1      41.931  27.842  28.512  1.00  0.00    -0.354 N 
ATOM     50  C   UNL A   1      46.226  27.688  28.955  1.00  0.00     0.074 A 
ATOM     51  C   UNL A   1      46.752  26.419  28.503  1.00  0.00     0.031 C 
ATOM     52  C   UNL A   1      39.901  27.055  28.000  1.00  0.00     0.029 A 
ATOM     53  C   UNL A   1      40.607  28.201  28.564  1.00  0.00     0.049 A 
ATOM     54  H   UNL A   1      42.661  28.426  28.821  1.00  0.00     0.167 HD
ATOM     55  C   UNL A   1      46.983  28.691  29.455  1.00  0.00     0.031 A 
ATOM     56  C   UNL A   1      40.027  29.328  29.017  1.00  0.00     0.031 A 
ATOM     57  C   UNL A   1      46.463  29.959  29.887  1.00  0.00     0.049 A 
ATOM     58  C   UNL A   1      40.892  30.427  29.567  1.00  0.00     0.074 A 
ATOM     59  C   UNL A   1      47.155  31.062  30.352  1.00  0.00     0.029 A 
ATOM     60  N   UNL A   1      45.117  30.291  29.905  1.00  0.00    -0.354 N 
ATOM     61  N   UNL A   1      42.197  30.468  29.691  1.00  0.00    -0.248 NA
ATOM     62  C   UNL A   1      40.203  31.640  30.031  1.00  0.00     0.031 C 
ATOM     63  C   UNL A   1      46.225  32.050  30.691  1.00  0.00     0.029 A 
ATOM     64  C   UNL A   1      44.957  31.576  30.392  1.00  0.00     0.049 A 
ATOM     65  H   UNL A   1      44.385  29.700  29.616  1.00  0.00     0.167 HD
ATOM     66  C   UNL A   1      42.487  31.717  30.220  1.00  0.00     0.074 A 
ATOM     67  C   UNL A   1      41.224  32.409  30.383  1.00  0.00     0.031 C 
ATOM     68  C   UNL A   1      43.692  32.247  30.543  1.00  0.00     0.031 A 
BRANCH  55  69
ATOM     69  C   UNL A   1      48.463  28.447  29.563  1.00  0.00    -0.014 A 
ATOM     70  C   UNL A   1      49.021  27.866  30.713  1.00  0.00     0.009 A 
ATOM     71  C   UNL A   1      49.305  28.780  28.492  1.00  0.00     0.009 A 
ATOM     72  C   UNL A   1      50.399  27.660  30.804  1.00  0.00     0.001 A 
ATOM     73  C   UNL A   1      50.680  28.547  28.574  1.00  0.00     0.001 A 
ATOM     74  C   UNL A   1      51.226  27.997  29.733  1.00  0.00     0.000 A 
ENDBRANCH  55  69
BRANCH  56  75
ATOM     75  C   UNL A   1      38.552  29.485  28.952  1.00  0.00    -0.014 A 
ATOM     76  C   UNL A   1      37.932  29.873  27.753  1.00  0.00     0.009 A 
ATOM     77  C   UNL A   1      37.756  29.253  30.084  1.00  0.00     0.009 A 
ATOM     78  C   UNL A   1      36.548  30.052  27.698  1.00  0.00     0.001 A 
ATOM     79  C   UNL A   1      36.369  29.408  30.017  1.00  0.00     0.001 A 
ATOM     80  C   UNL A   1      35.767  29.815  28.828  1.00  0.00     0.000 A 
ENDBRANCH  56  75
BRANCH  68  81
ATOM     81  C   UNL A   1      43.705  33.653  31.071  1.00  0.00    -0.014 A 
ATOM     82  C   UNL A   1      43.610  33.914  32.445  1.00  0.00     0.009 A 
ATOM     83  C   UNL A   1      43.860  34.725  30.180  1.00  0.00     0.009 A 
ATOM     84  C   UNL A   1      43.643  35.228  32.916  1.00  0.00     0.001 A 
ATOM     85  C   UNL A   1      43.919  36.036  30.655  1.00  0.00     0.001 A 
ATOM     86  C   UNL A   1      43.803  36.286  32.022  1.00  0.00     0.000 A 
ENDBRANCH  68  81
ENDBRANCH  42  43
ENDBRANCH  34  37
ENDBRANCH  32  33
ENDBRANCH  31  32
ENDBRANCH  30  31
ENDBRANCH   1  30
TORSDOF 15
ENDMDL
MODEL 2
REMARK VINA RESULT:     -11.8      5.517     11.012
REMARK SMILES Cc1nc(-c2ccccc2F)sc1C(=O)NCc1ccc(C(=O)NCCCCNC(=O)c2ccc(-c3c4nc(c(-c5ccccc5)c5ccc([nH]5)c(-c5ccccc5)c5nc(c(-c6ccccc6)c6ccc3[nH]6)C=C5)C=C4)cc2)cc1
REMARK SMILES IDX 25 1 24 2 22 3 23 4 21 6 18 7 19 8 81 9 20 10 80 11 17 12
REMARK SMILES IDX 16 13 14 14 15 15 13 17 1 18 2 19 3 20 4 21 12 22 5 23 6 24
REMARK SMILES IDX 10 25 7 26 9 27 11 28 8 29 26 30 27 31 28 32 29 33 30 34
REMARK SMILES IDX 31 36 32 37 33 38 79 39 34 40 78 41 35 42 36 43 37 44 72 45
REMARK SMILES IDX 38 46 77 47 71 48 73 49 39 50 76 51 70 52 69 53 40 55 62 56
REMARK SMILES IDX 47 57 61 58 48 59 51 60 60 61 74 62 49 63 50 64 59 66 75 67
REMARK SMILES IDX 52 68 41 69 42 70 46 71 43 72 45 73 44 74 63 75 64 76 68 77
REMARK SMILES IDX 65 78 67 79 66 80 53 81 54 82 58 83 55 84 57 85 56 86
REMARK H PARENT 24 5 16 16 29 35 73 54 51 65
REMARK Flexibility Score: inf
ROOT
ATOM      1  C   UNL A   1      37.851  33.545  31.543  1.00  0.00     0.116 C 
ENDROOT
BRANCH   1   2
ATOM      2  N   UNL A   1      37.173  33.431  32.818  1.00  0.00    -0.352 N 
ATOM      3  C   UNL A   1      37.391  32.573  33.867  1.00  0.00     0.251 C 
ATOM      4  O   UNL A   1      36.725  32.717  34.891  1.00  0.00    -0.269 OA
ATOM      5  H   UNL A   1      36.436  34.071  32.953  1.00  0.00     0.163 HD
BRANCH   3   6
ATOM      6  C   UNL A   1      38.440  31.518  33.825  1.00  0.00     0.039 A 
ATOM      7  C   UNL A   1      40.324  29.407  33.694  1.00  0.00    -0.029 A 
ATOM      8  C   UNL A   1      39.028  29.253  33.182  1.00  0.00     0.006 A 
ATOM      9  C   UNL A   1      40.664  30.637  34.264  1.00  0.00     0.006 A 
ATOM     10  C   UNL A   1      38.102  30.300  33.231  1.00  0.00     0.014 A 
ATOM     11  C   UNL A   1      39.739  31.683  34.309  1.00  0.00     0.014 A 
BRANCH   7  12
ATOM     12  C   UNL A   1      41.326  28.282  33.724  1.00  0.00     0.152 C 
BRANCH  12  13
ATOM     13  N   UNL A   1      40.837  27.209  34.538  1.00  0.00    -0.347 N 
ATOM     14  C   UNL A   1      41.352  26.113  35.159  1.00  0.00     0.263 C 
ATOM     15  O   UNL A   1      40.462  25.508  35.779  1.00  0.00    -0.268 OA
ATOM     16  H   UNL A   1      39.868  27.286  34.688  1.00  0.00     0.164 HD
BRANCH  14  17
ATOM     17  C   UNL A   1      42.742  25.657  35.161  1.00  0.00     0.115 A 
ATOM     18  C   UNL A   1      44.647  27.417  34.536  1.00  0.00     0.068 C 
ATOM     19  C   UNL A   1      44.039  26.127  34.944  1.00  0.00     0.062 A 
ATOM     20  N   UNL A   1      45.039  25.166  35.083  1.00  0.00    -0.240 NA
ATOM     21  C   UNL A   1      44.555  23.972  35.305  1.00  0.00     0.127 A 
ATOM     22  S   UNL A   1      42.875  23.926  35.507  1.00  0.00    -0.108 S 
BRANCH  21  23
ATOM     23  C   UNL A   1      45.402  22.791  35.438  1.00  0.00     0.046 A 
ATOM     24  C   UNL A   1      45.789  22.110  34.272  1.00  0.00     0.014 A 
ATOM     25  C   UNL A   1      45.755  22.249  36.675  1.00  0.00     0.133 A 
ATOM     26  C   UNL A   1      46.511  20.918  34.348  1.00  0.00     0.001 A 
ATOM     27  C   UNL A   1      46.472  21.055  36.757  1.00  0.00     0.040 A 
ATOM     28  F   UNL A   1      45.373  22.835  37.819  1.00  0.00    -0.206 F 
ATOM     29  C   UNL A   1      46.848  20.387  35.591  1.00  0.00     0.003 A 
ENDBRANCH  21  23
ENDBRANCH  14  17
ENDBRANCH  12  13
ENDBRANCH   7  12
ENDBRANCH   3   6
ENDBRANCH   1   2
BRANCH   1  30
ATOM     30  C   UNL A   1      37.097  32.781  30.454  1.00  0.00     0.023 C 
BRANCH  30  31
ATOM     31  C   UNL A   1      36.052  33.600  29.702  1.00  0.00     0.023 C 
BRANCH  31  32
ATOM     32  C   UNL A   1      35.857  33.197  28.250  1.00  0.00     0.116 C 
BRANCH  32  33
ATOM     33  N   UNL A   1      34.715  32.321  28.039  1.00  0.00    -0.352 N 
ATOM     34  C   UNL A   1      34.704  30.944  27.990  1.00  0.00     0.251 C 
ATOM     35  H   UNL A   1      33.846  32.765  27.915  1.00  0.00     0.163 HD
ATOM     36  O   UNL A   1      33.690  30.330  27.715  1.00  0.00    -0.269 OA
BRANCH  34  37
ATOM     37  C   UNL A   1      35.975  30.231  28.231  1.00  0.00     0.039 A 
ATOM     38  C   UNL A   1      36.977  30.301  27.263  1.00  0.00     0.014 A 
ATOM     39  C   UNL A   1      36.195  29.578  29.446  1.00  0.00     0.014 A 
ATOM     40  C   UNL A   1      38.237  29.773  27.545  1.00  0.00     0.010 A 
ATOM     41  C   UNL A   1      37.469  29.120  29.754  1.00  0.00     0.010 A 
ATOM     42  C   UNL A   1      38.500  29.215  28.806  1.00  0.00    -0.014 A 
BRANCH  42  43
ATOM     43  C   UNL A   1      39.851  28.719  29.161  1.00  0.00     0.031 A 
ATOM     44  C   UNL A   1      40.806  29.616  29.894  1.00  0.00     0.074 A 
ATOM     45  C   UNL A   1      40.239  27.494  28.759  1.00  0.00     0.049 A 
ATOM     46  N   UNL A   1      42.051  29.396  30.229  1.00  0.00    -0.248 NA
ATOM     47  C   UNL A   1      40.306  30.948  30.273  1.00  0.00     0.031 C 
ATOM     48  C   UNL A   1      39.418  26.546  28.001  1.00  0.00     0.029 A 
ATOM     49  N   UNL A   1      41.432  26.838  28.926  1.00  0.00    -0.354 N 
ATOM     50  C   UNL A   1      42.487  30.566  30.838  1.00  0.00     0.074 A 
ATOM     51  C   UNL A   1      41.393  31.509  30.783  1.00  0.00     0.031 C 
ATOM     52  C   UNL A   1      40.123  25.422  27.793  1.00  0.00     0.029 A 
ATOM     53  C   UNL A   1      41.455  25.584  28.367  1.00  0.00     0.049 A 
ATOM     54  H   UNL A   1      42.200  27.230  29.402  1.00  0.00     0.167 HD
ATOM     55  C   UNL A   1      43.685  30.824  31.410  1.00  0.00     0.031 A 
ATOM     56  C   UNL A   1      42.440  24.669  28.320  1.00  0.00     0.031 A 
ATOM     57  C   UNL A   1      44.767  29.881  31.482  1.00  0.00     0.049 A 
ATOM     58  C   UNL A   1      43.762  24.980  28.965  1.00  0.00     0.074 A 
ATOM     59  C   UNL A   1      45.999  30.025  32.094  1.00  0.00     0.029 A 
ATOM     60  N   UNL A   1      44.743  28.614  30.920  1.00  0.00    -0.354 N 
ATOM     61  N   UNL A   1      44.136  26.066  29.598  1.00  0.00    -0.248 NA
ATOM     62  C   UNL A   1      44.794  23.935  28.897  1.00  0.00     0.031 C 
ATOM     63  C   UNL A   1      46.738  28.860  31.868  1.00  0.00     0.029 A 
ATOM     64  C   UNL A   1      45.947  27.973  31.155  1.00  0.00     0.049 A 
ATOM     65  H   UNL A   1      43.984  28.228  30.427  1.00  0.00     0.167 HD
ATOM     66  C   UNL A   1      45.434  25.826  30.026  1.00  0.00     0.074 A 
ATOM     67  C   UNL A   1      45.778  24.486  29.592  1.00  0.00     0.031 C 
ATOM     68  C   UNL A   1      46.268  26.639  30.718  1.00  0.00     0.031 A 
BRANCH  55  69
ATOM     69  C   UNL A   1      43.883  32.191  32.003  1.00  0.00    -0.014 A 
ATOM     70  C   UNL A   1      43.544  32.459  33.339  1.00  0.00     0.009 A 
ATOM     71  C   UNL A   1      44.436  33.217  31.223  1.00  0.00     0.009 A 
ATOM     72  C   UNL A   1      43.720  33.738  33.871  1.00  0.00     0.001 A 
ATOM     73  C   UNL A   1      44.637  34.489  31.766  1.00  0.00     0.001 A 
ATOM     74  C   UNL A   1      44.270  34.750  33.085  1.00  0.00     0.000 A 
ENDBRANCH  55  69
BRANCH  56  75
ATOM     75  C   UNL A   1      42.211  23.360  27.657  1.00  0.00    -0.014 A 
ATOM     76  C   UNL A   1      42.587  23.167  26.319  1.00  0.00     0.009 A 
ATOM     77  C   UNL A   1      41.613  22.299  28.354  1.00  0.00     0.009 A 
ATOM     78  C   UNL A   1      42.344  21.947  25.684  1.00  0.00     0.001 A 
ATOM     79  C   UNL A   1      41.395  21.071  27.724  1.00  0.00     0.001 A 
ATOM     80  C   UNL A   1      41.753  20.899  26.388  1.00  0.00     0.000 A 
ENDBRANCH  56  75
BRANCH  68  81
ATOM     81  C   UNL A   1      47.619  26.092  31.078  1.00  0.00    -0.014 A 
ATOM     82  C   UNL A   1      47.872  25.561  32.351  1.00  0.00     0.009 A 
ATOM     83  C   UNL A   1      48.636  26.065  30.111  1.00  0.00     0.009 A 
ATOM     84  C   UNL A   1      49.131  25.039  32.659  1.00  0.00     0.001 A 
ATOM     85  C   UNL A   1      49.884  25.520  30.413  1.00  0.00     0.001 A 
ATOM     86  C   UNL A   1      50.132  25.014  31.689  1.00  0.00     0.000 A 
ENDBRANCH  68  81
ENDBRANCH  42  43
ENDBRANCH  34  37
ENDBRANCH  32  33
ENDBRANCH  31  32
ENDBRANCH  30  31
ENDBRANCH   1  30
TORSDOF 15
ENDMDL
MODEL 3
REMARK VINA RESULT:     -11.6      5.433      8.915
REMARK SMILES Cc1nc(-c2ccccc2F)sc1C(=O)NCc1ccc(C(=O)NCCCCNC(=O)c2ccc(-c3c4nc(c(-c5ccccc5)c5ccc([nH]5)c(-c5ccccc5)c5nc(c(-c6ccccc6)c6ccc3[nH]6)C=C5)C=C4)cc2)cc1
REMARK SMILES IDX 25 1 24 2 22 3 23 4 21 6 18 7 19 8 81 9 20 10 80 11 17 12
REMARK SMILES IDX 16 13 14 14 15 15 13 17 1 18 2 19 3 20 4 21 12 22 5 23 6 24
REMARK SMILES IDX 10 25 7 26 9 27 11 28 8 29 26 30 27 31 28 32 29 33 30 34
REMARK SMILES IDX 31 36 32 37 33 38 79 39 34 40 78 41 35 42 36 43 37 44 72 45
REMARK SMILES IDX 38 46 77 47 71 48 73 49 39 50 76 51 70 52 69 53 40 55 62 56
REMARK SMILES IDX 47 57 61 58 48 59 51 60 60 61 74 62 49 63 50 64 59 66 75 67
REMARK SMILES IDX 52 68 41 69 42 70 46 71 43 72 45 73 44 74 63 75 64 76 68 77
REMARK SMILES IDX 65 78 67 79 66 80 53 81 54 82 58 83 55 84 57 85 56 86
REMARK H PARENT 24 5 16 16 29 35 73 54 51 65
REMARK Flexibility Score: inf
ROOT
ATOM      1  C   UNL A   1      43.775  23.330  24.476  1.00  0.00     0.116 C 
ENDROOT
BRANCH   1   2
ATOM      2  N   UNL A   1      42.991  22.237  25.013  1.00  0.00    -0.352 N 
ATOM      3  C   UNL A   1      42.093  22.215  26.051  1.00  0.00     0.251 C 
ATOM      4  O   UNL A   1      41.486  21.170  26.280  1.00  0.00    -0.269 OA
ATOM      5  H   UNL A   1      43.125  21.372  24.563  1.00  0.00     0.163 HD
BRANCH   3   6
ATOM      6  C   UNL A   1      41.792  23.423  26.866  1.00  0.00     0.039 A 
ATOM      7  C   UNL A   1      41.106  25.761  28.310  1.00  0.00    -0.029 A 
ATOM      8  C   UNL A   1      40.328  25.326  27.229  1.00  0.00     0.006 A 
ATOM      9  C   UNL A   1      42.227  25.004  28.662  1.00  0.00     0.006 A 
ATOM     10  C   UNL A   1      40.656  24.162  26.525  1.00  0.00     0.014 A 
ATOM     11  C   UNL A   1      42.551  23.840  27.961  1.00  0.00     0.014 A 
BRANCH   7  12
ATOM     12  C   UNL A   1      40.826  27.045  29.048  1.00  0.00     0.152 C 
BRANCH  12  13
ATOM     13  N   UNL A   1      39.665  27.682  28.503  1.00  0.00    -0.347 N 
ATOM     14  C   UNL A   1      38.740  28.593  28.914  1.00  0.00     0.263 C 
ATOM     15  O   UNL A   1      37.927  28.825  28.005  1.00  0.00    -0.268 OA
ATOM     16  H   UNL A   1      39.488  27.380  27.583  1.00  0.00     0.164 HD
BRANCH  14  17
ATOM     17  C   UNL A   1      38.659  29.262  30.212  1.00  0.00     0.115 A 
ATOM     18  C   UNL A   1      39.462  27.919  32.374  1.00  0.00     0.068 C 
ATOM     19  C   UNL A   1      38.941  29.047  31.564  1.00  0.00     0.062 A 
ATOM     20  N   UNL A   1      38.617  30.111  32.404  1.00  0.00    -0.240 NA
ATOM     21  C   UNL A   1      38.021  31.085  31.767  1.00  0.00     0.127 A 
ATOM     22  S   UNL A   1      37.928  30.869  30.090  1.00  0.00    -0.108 S 
BRANCH  21  23
ATOM     23  C   UNL A   1      37.542  32.288  32.439  1.00  0.00     0.046 A 
ATOM     24  C   UNL A   1      36.601  32.149  33.471  1.00  0.00     0.014 A 
ATOM     25  C   UNL A   1      37.898  33.575  32.030  1.00  0.00     0.133 A 
ATOM     26  C   UNL A   1      36.033  33.271  34.076  1.00  0.00     0.001 A 
ATOM     27  C   UNL A   1      37.329  34.700  32.627  1.00  0.00     0.040 A 
ATOM     28  F   UNL A   1      38.759  33.764  31.019  1.00  0.00    -0.206 F 
ATOM     29  C   UNL A   1      36.393  34.548  33.650  1.00  0.00     0.003 A 
ENDBRANCH  21  23
ENDBRANCH  14  17
ENDBRANCH  12  13
ENDBRANCH   7  12
ENDBRANCH   3   6
ENDBRANCH   1   2
BRANCH   1  30
ATOM     30  C   UNL A   1      45.270  23.088  24.693  1.00  0.00     0.023 C 
BRANCH  30  31
ATOM     31  C   UNL A   1      45.791  23.490  26.070  1.00  0.00     0.023 C 
BRANCH  31  32
ATOM     32  C   UNL A   1      47.076  24.300  26.048  1.00  0.00     0.116 C 
BRANCH  32  33
ATOM     33  N   UNL A   1      47.144  25.254  24.953  1.00  0.00    -0.352 N 
ATOM     34  C   UNL A   1      46.678  26.550  24.930  1.00  0.00     0.251 C 
ATOM     35  H   UNL A   1      47.575  24.934  24.127  1.00  0.00     0.163 HD
ATOM     36  O   UNL A   1      46.717  27.217  23.913  1.00  0.00    -0.269 OA
BRANCH  34  37
ATOM     37  C   UNL A   1      46.079  27.093  26.167  1.00  0.00     0.039 A 
ATOM     38  C   UNL A   1      46.915  27.698  27.106  1.00  0.00     0.014 A 
ATOM     39  C   UNL A   1      44.694  27.076  26.343  1.00  0.00     0.014 A 
ATOM     40  C   UNL A   1      46.350  28.357  28.198  1.00  0.00     0.010 A 
ATOM     41  C   UNL A   1      44.131  27.796  27.388  1.00  0.00     0.010 A 
ATOM     42  C   UNL A   1      44.954  28.443  28.323  1.00  0.00    -0.014 A 
BRANCH  42  43
ATOM     43  C   UNL A   1      44.326  29.205  29.428  1.00  0.00     0.031 A 
ATOM     44  C   UNL A   1      43.971  28.506  30.709  1.00  0.00     0.074 A 
ATOM     45  C   UNL A   1      44.011  30.502  29.250  1.00  0.00     0.049 A 
ATOM     46  N   UNL A   1      43.353  28.977  31.761  1.00  0.00    -0.248 NA
ATOM     47  C   UNL A   1      44.330  27.082  30.808  1.00  0.00     0.031 C 
ATOM     48  C   UNL A   1      44.264  31.280  28.035  1.00  0.00     0.029 A 
ATOM     49  N   UNL A   1      43.398  31.394  30.093  1.00  0.00    -0.354 N 
ATOM     50  C   UNL A   1      43.231  27.905  32.635  1.00  0.00     0.074 A 
ATOM     51  C   UNL A   1      43.795  26.749  31.973  1.00  0.00     0.031 C 
ATOM     52  C   UNL A   1      43.833  32.539  28.222  1.00  0.00     0.029 A 
ATOM     53  C   UNL A   1      43.242  32.646  29.552  1.00  0.00     0.049 A 
ATOM     54  H   UNL A   1      43.099  31.158  31.001  1.00  0.00     0.167 HD
ATOM     55  C   UNL A   1      42.716  27.888  33.886  1.00  0.00     0.031 A 
ATOM     56  C   UNL A   1      42.683  33.755  30.069  1.00  0.00     0.031 A 
ATOM     57  C   UNL A   1      42.173  29.041  34.551  1.00  0.00     0.049 A 
ATOM     58  C   UNL A   1      42.119  33.711  31.461  1.00  0.00     0.074 A 
ATOM     59  C   UNL A   1      41.683  29.141  35.840  1.00  0.00     0.029 A 
ATOM     60  N   UNL A   1      42.051  30.296  33.975  1.00  0.00    -0.354 N 
ATOM     61  N   UNL A   1      42.074  32.706  32.303  1.00  0.00    -0.248 NA
ATOM     62  C   UNL A   1      41.537  34.958  31.979  1.00  0.00     0.031 C 
ATOM     63  C   UNL A   1      41.225  30.449  36.033  1.00  0.00     0.029 A 
ATOM     64  C   UNL A   1      41.475  31.173  34.878  1.00  0.00     0.049 A 
ATOM     65  H   UNL A   1      42.332  30.528  33.061  1.00  0.00     0.167 HD
ATOM     66  C   UNL A   1      41.484  33.204  33.456  1.00  0.00     0.074 A 
ATOM     67  C   UNL A   1      41.201  34.605  33.212  1.00  0.00     0.031 C 
ATOM     68  C   UNL A   1      41.204  32.562  34.616  1.00  0.00     0.031 A 
BRANCH  55  69
ATOM     69  C   UNL A   1      42.716  26.573  34.612  1.00  0.00    -0.014 A 
ATOM     70  C   UNL A   1      41.520  25.876  34.852  1.00  0.00     0.009 A 
ATOM     71  C   UNL A   1      43.927  26.012  35.042  1.00  0.00     0.009 A 
ATOM     72  C   UNL A   1      41.535  24.662  35.541  1.00  0.00     0.001 A 
ATOM     73  C   UNL A   1      43.942  24.784  35.708  1.00  0.00     0.001 A 
ATOM     74  C   UNL A   1      42.746  24.116  35.965  1.00  0.00     0.000 A 
ENDBRANCH  55  69
BRANCH  56  75
ATOM     75  C   UNL A   1      42.647  35.011  29.277  1.00  0.00    -0.014 A 
ATOM     76  C   UNL A   1      41.551  35.295  28.448  1.00  0.00     0.009 A 
ATOM     77  C   UNL A   1      43.707  35.929  29.341  1.00  0.00     0.009 A 
ATOM     78  C   UNL A   1      41.529  36.460  27.678  1.00  0.00     0.001 A 
ATOM     79  C   UNL A   1      43.669  37.106  28.589  1.00  0.00     0.001 A 
ATOM     80  C   UNL A   1      42.585  37.367  27.753  1.00  0.00     0.000 A 
ENDBRANCH  56  75
BRANCH  68  81
ATOM     81  C   UNL A   1      40.589  33.375  35.719  1.00  0.00    -0.014 A 
ATOM     82  C   UNL A   1      39.198  33.500  35.841  1.00  0.00     0.009 A 
ATOM     83  C   UNL A   1      41.417  33.983  36.675  1.00  0.00     0.009 A 
ATOM     84  C   UNL A   1      38.648  34.245  36.886  1.00  0.00     0.001 A 
ATOM     85  C   UNL A   1      40.864  34.705  37.732  1.00  0.00     0.001 A 
ATOM     86  C   UNL A   1      39.480  34.841  37.833  1.00  0.00     0.000 A 
ENDBRANCH  68  81
ENDBRANCH  42  43
ENDBRANCH  34  37
ENDBRANCH  32  33
ENDBRANCH  31  32
ENDBRANCH  30  31
ENDBRANCH   1  30
TORSDOF 15
ENDMDL
