MODEL 1
REMARK VINA RESULT:     -11.6      0.000      0.000
REMARK SMILES Cc1ccc(Cl)c(Nc2ccccc2C(=O)NCC(=O)NCCCCNC(=O)c2ccc(-c3c4nc(c(-c5ccccc5)c5ccc([nH]5)c(-c5ccccc5)c5nc(c(-c6ccccc6)c6ccc3[nH]6)C=C5)C=C4)cc2)c1Cl
REMARK SMILES IDX 22 1 21 2 19 3 20 4 18 6 17 7 15 8 16 9 14 11 9 12 10 13
REMARK SMILES IDX 11 14 13 15 12 16 8 17 7 19 1 20 2 21 3 22 77 23 4 24 78 25
REMARK SMILES IDX 5 26 6 27 23 28 24 29 25 30 26 31 27 32 28 34 29 35 30 36
REMARK SMILES IDX 76 37 31 38 75 39 32 40 33 41 34 42 69 43 35 44 74 45 68 46
REMARK SMILES IDX 70 47 36 48 73 49 67 50 66 51 37 53 59 54 44 55 58 56 45 57
REMARK SMILES IDX 48 58 57 59 71 60 46 61 47 62 56 64 72 65 49 66 38 67 39 68
REMARK SMILES IDX 43 69 40 70 42 71 41 72 60 73 61 74 65 75 62 76 64 77 63 78
REMARK SMILES IDX 50 79 51 80 55 81 52 82 54 83 53 84
REMARK H PARENT 21 5 17 10 8 18 26 33 70 52 48 63
REMARK Flexibility Score: inf
ROOT
ATOM      1  C   UNL A   1      31.392  29.160  24.929  1.00  0.00     0.116 C 
ENDROOT
BRANCH   1   2
ATOM      2  N   UNL A   1      30.741  29.735  23.778  1.00  0.00    -0.355 N 
ATOM      3  C   UNL A   1      30.635  29.168  22.544  1.00  0.00     0.239 C 
ATOM      4  O   UNL A   1      30.194  29.854  21.620  1.00  0.00    -0.273 OA
ATOM      5  H   UNL A   1      30.335  30.624  23.895  1.00  0.00     0.163 HD
BRANCH   3   6
ATOM      6  C   UNL A   1      30.786  27.654  22.410  1.00  0.00     0.216 C 
BRANCH   6   7
ATOM      7  N   UNL A   1      32.046  26.958  22.260  1.00  0.00    -0.343 N 
ATOM      8  C   UNL A   1      32.465  25.701  22.629  1.00  0.00     0.253 C 
ATOM      9  O   UNL A   1      33.416  25.263  21.971  1.00  0.00    -0.269 OA
ATOM     10  H   UNL A   1      32.740  27.489  21.805  1.00  0.00     0.164 HD
BRANCH   8  11
ATOM     11  C   UNL A   1      32.035  24.923  23.849  1.00  0.00     0.063 A 
ATOM     12  C   UNL A   1      32.396  23.639  24.321  1.00  0.00     0.051 A 
ATOM     13  C   UNL A   1      31.717  23.134  25.463  1.00  0.00     0.027 A 
ATOM     14  C   UNL A   1      30.775  23.876  26.174  1.00  0.00     0.002 A 
ATOM     15  C   UNL A   1      31.082  25.661  24.606  1.00  0.00     0.016 A 
ATOM     16  C   UNL A   1      30.472  25.157  25.756  1.00  0.00     0.001 A 
BRANCH  12  17
ATOM     17  N   UNL A   1      33.455  22.809  23.896  1.00  0.00    -0.352 N 
ATOM     18  H   UNL A   1      33.483  22.685  22.920  1.00  0.00     0.167 HD
BRANCH  17  19
ATOM     19  C   UNL A   1      34.487  22.115  24.575  1.00  0.00     0.077 A 
ATOM     20  C   UNL A   1      38.098  22.604  25.743  1.00  0.00     0.046 C 
ATOM     21  C   UNL A   1      36.794  21.953  25.370  1.00  0.00    -0.030 A 
ATOM     22  C   UNL A   1      36.725  20.555  25.281  1.00  0.00     0.006 A 
ATOM     23  C   UNL A   1      35.658  22.725  25.059  1.00  0.00     0.069 A 
ATOM     24  C   UNL A   1      35.534  19.927  24.932  1.00  0.00     0.023 A 
ATOM     25  Cl  UNL A   1      35.691  24.433  25.392  1.00  0.00    -0.082 Cl
ATOM     26  C   UNL A   1      34.425  20.698  24.595  1.00  0.00     0.066 A 
ATOM     27  Cl  UNL A   1      32.998  19.867  24.060  1.00  0.00    -0.082 Cl
ENDBRANCH  17  19
ENDBRANCH  12  17
ENDBRANCH   8  11
ENDBRANCH   6   7
ENDBRANCH   3   6
ENDBRANCH   1   2
BRANCH   1  28
ATOM     28  C   UNL A   1      32.882  29.486  24.895  1.00  0.00     0.023 C 
BRANCH  28  29
ATOM     29  C   UNL A   1      33.711  28.521  25.743  1.00  0.00     0.023 C 
BRANCH  29  30
ATOM     30  C   UNL A   1      33.528  28.709  27.241  1.00  0.00     0.116 C 
BRANCH  30  31
ATOM     31  N   UNL A   1      33.508  30.113  27.618  1.00  0.00    -0.352 N 
ATOM     32  C   UNL A   1      34.500  30.834  28.237  1.00  0.00     0.251 C 
ATOM     33  H   UNL A   1      32.684  30.607  27.403  1.00  0.00     0.163 HD
ATOM     34  O   UNL A   1      34.299  31.963  28.651  1.00  0.00    -0.269 OA
BRANCH  32  35
ATOM     35  C   UNL A   1      35.813  30.186  28.415  1.00  0.00     0.039 A 
ATOM     36  C   UNL A   1      36.718  30.193  27.354  1.00  0.00     0.014 A 
ATOM     37  C   UNL A   1      36.161  29.643  29.655  1.00  0.00     0.014 A 
ATOM     38  C   UNL A   1      38.004  29.694  27.555  1.00  0.00     0.010 A 
ATOM     39  C   UNL A   1      37.464  29.216  29.872  1.00  0.00     0.010 A 
ATOM     40  C   UNL A   1      38.396  29.231  28.822  1.00  0.00    -0.014 A 
BRANCH  40  41
ATOM     41  C   UNL A   1      39.774  28.747  29.068  1.00  0.00     0.031 A 
ATOM     42  C   UNL A   1      40.789  29.665  29.693  1.00  0.00     0.074 A 
ATOM     43  C   UNL A   1      40.128  27.507  28.673  1.00  0.00     0.049 A 
ATOM     44  N   UNL A   1      42.054  29.446  29.943  1.00  0.00    -0.248 NA
ATOM     45  C   UNL A   1      40.329  31.014  30.064  1.00  0.00     0.031 C 
ATOM     46  C   UNL A   1      39.247  26.540  28.014  1.00  0.00     0.029 A 
ATOM     47  N   UNL A   1      41.329  26.851  28.766  1.00  0.00    -0.354 N 
ATOM     48  C   UNL A   1      42.543  30.632  30.473  1.00  0.00     0.074 A 
ATOM     49  C   UNL A   1      41.455  31.582  30.472  1.00  0.00     0.031 C 
ATOM     50  C   UNL A   1      39.931  25.406  27.786  1.00  0.00     0.029 A 
ATOM     51  C   UNL A   1      41.305  25.579  28.246  1.00  0.00     0.049 A 
ATOM     52  H   UNL A   1      42.133  27.254  29.167  1.00  0.00     0.167 HD
ATOM     53  C   UNL A   1      43.786  30.900  30.936  1.00  0.00     0.031 A 
ATOM     54  C   UNL A   1      42.283  24.660  28.146  1.00  0.00     0.031 A 
ATOM     55  C   UNL A   1      44.859  29.945  30.968  1.00  0.00     0.049 A 
ATOM     56  C   UNL A   1      43.654  24.989  28.673  1.00  0.00     0.074 A 
ATOM     57  C   UNL A   1      46.129  30.097  31.495  1.00  0.00     0.029 A 
ATOM     58  N   UNL A   1      44.788  28.662  30.451  1.00  0.00    -0.354 N 
ATOM     59  N   UNL A   1      44.073  26.085  29.257  1.00  0.00    -0.248 NA
ATOM     60  C   UNL A   1      44.682  23.948  28.536  1.00  0.00     0.031 C 
ATOM     61  C   UNL A   1      46.846  28.923  31.248  1.00  0.00     0.029 A 
ATOM     62  C   UNL A   1      46.003  28.021  30.619  1.00  0.00     0.049 A 
ATOM     63  H   UNL A   1      43.993  28.266  30.027  1.00  0.00     0.167 HD
ATOM     64  C   UNL A   1      45.401  25.850  29.589  1.00  0.00     0.074 A 
ATOM     65  C   UNL A   1      45.711  24.504  29.158  1.00  0.00     0.031 C 
ATOM     66  C   UNL A   1      46.287  26.676  30.197  1.00  0.00     0.031 A 
BRANCH  53  67
ATOM     67  C   UNL A   1      44.060  32.285  31.450  1.00  0.00    -0.014 A 
ATOM     68  C   UNL A   1      43.888  32.609  32.804  1.00  0.00     0.009 A 
ATOM     69  C   UNL A   1      44.567  33.261  30.577  1.00  0.00     0.009 A 
ATOM     70  C   UNL A   1      44.198  33.888  33.270  1.00  0.00     0.001 A 
ATOM     71  C   UNL A   1      44.902  34.530  31.051  1.00  0.00     0.001 A 
ATOM     72  C   UNL A   1      44.712  34.845  32.395  1.00  0.00     0.000 A 
ENDBRANCH  53  67
BRANCH  54  73
ATOM     73  C   UNL A   1      42.017  23.335  27.525  1.00  0.00    -0.014 A 
ATOM     74  C   UNL A   1      41.412  22.308  28.268  1.00  0.00     0.009 A 
ATOM     75  C   UNL A   1      42.410  23.072  26.203  1.00  0.00     0.009 A 
ATOM     76  C   UNL A   1      41.248  21.035  27.715  1.00  0.00     0.001 A 
ATOM     77  C   UNL A   1      42.215  21.808  25.643  1.00  0.00     0.001 A 
ATOM     78  C   UNL A   1      41.648  20.787  26.404  1.00  0.00     0.000 A 
ENDBRANCH  54  73
BRANCH  66  79
ATOM     79  C   UNL A   1      47.659  26.130  30.473  1.00  0.00    -0.014 A 
ATOM     80  C   UNL A   1      48.639  26.071  29.471  1.00  0.00     0.009 A 
ATOM     81  C   UNL A   1      47.986  25.709  31.773  1.00  0.00     0.009 A 
ATOM     82  C   UNL A   1      49.909  25.566  29.757  1.00  0.00     0.001 A 
ATOM     83  C   UNL A   1      49.266  25.236  32.062  1.00  0.00     0.001 A 
ATOM     84  C   UNL A   1      50.223  25.156  31.052  1.00  0.00     0.000 A 
ENDBRANCH  66  79
ENDBRANCH  40  41
ENDBRANCH  32  35
ENDBRANCH  30  31
ENDBRANCH  29  30
ENDBRANCH  28  29
ENDBRANCH   1  28
TORSDOF 15
ENDMDL
MODEL 2
REMARK VINA RESULT:     -11.5      2.300      3.771
REMARK SMILES Cc1ccc(Cl)c(Nc2ccccc2C(=O)NCC(=O)NCCCCNC(=O)c2ccc(-c3c4nc(c(-c5ccccc5)c5ccc([nH]5)c(-c5ccccc5)c5nc(c(-c6ccccc6)c6ccc3[nH]6)C=C5)C=C4)cc2)c1Cl
REMARK SMILES IDX 22 1 21 2 19 3 20 4 18 6 17 7 15 8 16 9 14 11 9 12 10 13
REMARK SMILES IDX 11 14 13 15 12 16 8 17 7 19 1 20 2 21 3 22 77 23 4 24 78 25
REMARK SMILES IDX 5 26 6 27 23 28 24 29 25 30 26 31 27 32 28 34 29 35 30 36
REMARK SMILES IDX 76 37 31 38 75 39 32 40 33 41 34 42 69 43 35 44 74 45 68 46
REMARK SMILES IDX 70 47 36 48 73 49 67 50 66 51 37 53 59 54 44 55 58 56 45 57
REMARK SMILES IDX 48 58 57 59 71 60 46 61 47 62 56 64 72 65 49 66 38 67 39 68
REMARK SMILES IDX 43 69 40 70 42 71 41 72 60 73 61 74 65 75 62 76 64 77 63 78
REMARK SMILES IDX 50 79 51 80 55 81 52 82 54 83 53 84
REMARK H PARENT 21 5 17 10 8 18 26 33 70 52 48 63
REMARK Flexibility Score: inf
ROOT
ATOM      1  C   UNL A   1      30.688  30.062  24.627  1.00  0.00     0.116 C 
ENDROOT
BRANCH   1   2
ATOM      2  N   UNL A   1      29.935  30.348  23.431  1.00  0.00    -0.355 N 
ATOM      3  C   UNL A   1      29.918  29.604  22.290  1.00  0.00     0.239 C 
ATOM      4  O   UNL A   1      29.354  30.067  21.297  1.00  0.00    -0.273 OA
ATOM      5  H   UNL A   1      29.380  31.161  23.440  1.00  0.00     0.163 HD
BRANCH   3   6
ATOM      6  C   UNL A   1      30.332  28.136  22.360  1.00  0.00     0.216 C 
BRANCH   6   7
ATOM      7  N   UNL A   1      31.628  27.622  21.972  1.00  0.00    -0.343 N 
ATOM      8  C   UNL A   1      32.624  26.982  22.674  1.00  0.00     0.253 C 
ATOM      9  O   UNL A   1      33.378  26.291  21.980  1.00  0.00    -0.269 OA
ATOM     10  H   UNL A   1      31.840  27.758  21.020  1.00  0.00     0.164 HD
BRANCH   8  11
ATOM     11  C   UNL A   1      33.001  27.203  24.119  1.00  0.00     0.063 A 
ATOM     12  C   UNL A   1      32.653  26.504  25.298  1.00  0.00     0.051 A 
ATOM     13  C   UNL A   1      33.086  27.039  26.542  1.00  0.00     0.027 A 
ATOM     14  C   UNL A   1      33.897  28.169  26.639  1.00  0.00     0.002 A 
ATOM     15  C   UNL A   1      33.841  28.344  24.251  1.00  0.00     0.016 A 
ATOM     16  C   UNL A   1      34.296  28.812  25.485  1.00  0.00     0.001 A 
BRANCH  12  17
ATOM     17  N   UNL A   1      32.032  25.243  25.426  1.00  0.00    -0.352 N 
ATOM     18  H   UNL A   1      31.229  25.263  25.996  1.00  0.00     0.167 HD
BRANCH  17  19
ATOM     19  C   UNL A   1      32.318  23.955  24.911  1.00  0.00     0.077 A 
ATOM     20  C   UNL A   1      35.122  21.350  24.869  1.00  0.00     0.046 C 
ATOM     21  C   UNL A   1      33.864  22.100  24.523  1.00  0.00    -0.030 A 
ATOM     22  C   UNL A   1      33.158  21.756  23.361  1.00  0.00     0.006 A 
ATOM     23  C   UNL A   1      33.413  23.171  25.318  1.00  0.00     0.069 A 
ATOM     24  C   UNL A   1      31.995  22.436  23.013  1.00  0.00     0.023 A 
ATOM     25  Cl  UNL A   1      34.161  23.437  26.867  1.00  0.00    -0.082 Cl
ATOM     26  C   UNL A   1      31.574  23.515  23.787  1.00  0.00     0.066 A 
ATOM     27  Cl  UNL A   1      30.180  24.398  23.248  1.00  0.00    -0.082 Cl
ENDBRANCH  17  19
ENDBRANCH  12  17
ENDBRANCH   8  11
ENDBRANCH   6   7
ENDBRANCH   3   6
ENDBRANCH   1   2
BRANCH   1  28
ATOM     28  C   UNL A   1      30.850  31.335  25.450  1.00  0.00     0.023 C 
BRANCH  28  29
ATOM     29  C   UNL A   1      31.577  31.086  26.773  1.00  0.00     0.023 C 
BRANCH  29  30
ATOM     30  C   UNL A   1      32.809  31.957  26.969  1.00  0.00     0.116 C 
BRANCH  30  31
ATOM     31  N   UNL A   1      32.463  33.311  27.375  1.00  0.00    -0.352 N 
ATOM     32  C   UNL A   1      33.118  34.112  28.278  1.00  0.00     0.251 C 
ATOM     33  H   UNL A   1      31.665  33.699  26.951  1.00  0.00     0.163 HD
ATOM     34  O   UNL A   1      32.635  35.165  28.657  1.00  0.00    -0.269 OA
BRANCH  32  35
ATOM     35  C   UNL A   1      34.415  33.643  28.802  1.00  0.00     0.039 A 
ATOM     36  C   UNL A   1      34.436  32.896  29.979  1.00  0.00     0.014 A 
ATOM     37  C   UNL A   1      35.588  33.889  28.083  1.00  0.00     0.014 A 
ATOM     38  C   UNL A   1      35.641  32.346  30.413  1.00  0.00     0.010 A 
ATOM     39  C   UNL A   1      36.771  33.278  28.478  1.00  0.00     0.010 A 
ATOM     40  C   UNL A   1      36.810  32.507  29.650  1.00  0.00    -0.014 A 
BRANCH  40  41
ATOM     41  C   UNL A   1      38.088  31.885  30.068  1.00  0.00     0.031 A 
ATOM     42  C   UNL A   1      39.003  32.616  31.011  1.00  0.00     0.074 A 
ATOM     43  C   UNL A   1      38.452  30.694  29.551  1.00  0.00     0.049 A 
ATOM     44  N   UNL A   1      40.183  32.263  31.454  1.00  0.00    -0.248 NA
ATOM     45  C   UNL A   1      38.546  33.927  31.503  1.00  0.00     0.031 C 
ATOM     46  C   UNL A   1      37.672  29.908  28.591  1.00  0.00     0.029 A 
ATOM     47  N   UNL A   1      39.578  29.938  29.758  1.00  0.00    -0.354 N 
ATOM     48  C   UNL A   1      40.615  33.315  32.250  1.00  0.00     0.074 A 
ATOM     49  C   UNL A   1      39.595  34.337  32.200  1.00  0.00     0.031 C 
ATOM     50  C   UNL A   1      38.332  28.771  28.315  1.00  0.00     0.029 A 
ATOM     51  C   UNL A   1      39.595  28.764  29.044  1.00  0.00     0.049 A 
ATOM     52  H   UNL A   1      40.306  30.212  30.362  1.00  0.00     0.167 HD
ATOM     53  C   UNL A   1      41.754  33.412  32.974  1.00  0.00     0.031 A 
ATOM     54  C   UNL A   1      40.528  27.796  28.981  1.00  0.00     0.031 A 
ATOM     55  C   UNL A   1      42.753  32.381  33.050  1.00  0.00     0.049 A 
ATOM     56  C   UNL A   1      41.782  27.934  29.801  1.00  0.00     0.074 A 
ATOM     57  C   UNL A   1      43.900  32.352  33.822  1.00  0.00     0.029 A 
ATOM     58  N   UNL A   1      42.722  31.200  32.329  1.00  0.00    -0.354 N 
ATOM     59  N   UNL A   1      42.132  28.894  30.622  1.00  0.00    -0.248 NA
ATOM     60  C   UNL A   1      42.765  26.847  29.692  1.00  0.00     0.031 C 
ATOM     61  C   UNL A   1      44.594  31.176  33.527  1.00  0.00     0.029 A 
ATOM     62  C   UNL A   1      43.847  30.446  32.615  1.00  0.00     0.049 A 
ATOM     63  H   UNL A   1      42.007  30.935  31.706  1.00  0.00     0.167 HD
ATOM     64  C   UNL A   1      43.356  28.508  31.153  1.00  0.00     0.074 A 
ATOM     65  C   UNL A   1      43.678  27.222  30.575  1.00  0.00     0.031 C 
ATOM     66  C   UNL A   1      44.144  29.162  32.041  1.00  0.00     0.031 A 
BRANCH  53  67
ATOM     67  C   UNL A   1      41.989  34.679  33.747  1.00  0.00    -0.014 A 
ATOM     68  C   UNL A   1      42.701  35.752  33.190  1.00  0.00     0.009 A 
ATOM     69  C   UNL A   1      41.426  34.826  35.025  1.00  0.00     0.009 A 
ATOM     70  C   UNL A   1      42.863  36.939  33.906  1.00  0.00     0.001 A 
ATOM     71  C   UNL A   1      41.568  36.024  35.727  1.00  0.00     0.001 A 
ATOM     72  C   UNL A   1      42.291  37.078  35.170  1.00  0.00     0.000 A 
ENDBRANCH  53  67
BRANCH  54  73
ATOM     73  C   UNL A   1      40.325  26.604  28.116  1.00  0.00    -0.014 A 
ATOM     74  C   UNL A   1      40.801  26.592  26.794  1.00  0.00     0.009 A 
ATOM     75  C   UNL A   1      39.613  25.490  28.588  1.00  0.00     0.009 A 
ATOM     76  C   UNL A   1      40.529  25.511  25.952  1.00  0.00     0.001 A 
ATOM     77  C   UNL A   1      39.370  24.397  27.753  1.00  0.00     0.001 A 
ATOM     78  C   UNL A   1      39.816  24.414  26.433  1.00  0.00     0.000 A 
ENDBRANCH  54  73
BRANCH  66  79
ATOM     79  C   UNL A   1      45.406  28.474  32.476  1.00  0.00    -0.014 A 
ATOM     80  C   UNL A   1      45.419  27.589  33.565  1.00  0.00     0.009 A 
ATOM     81  C   UNL A   1      46.592  28.684  31.754  1.00  0.00     0.009 A 
ATOM     82  C   UNL A   1      46.604  26.956  33.945  1.00  0.00     0.001 A 
ATOM     83  C   UNL A   1      47.767  28.024  32.116  1.00  0.00     0.001 A 
ATOM     84  C   UNL A   1      47.774  27.169  33.217  1.00  0.00     0.000 A 
ENDBRANCH  66  79
ENDBRANCH  40  41
ENDBRANCH  32  35
ENDBRANCH  30  31
ENDBRANCH  29  30
ENDBRANCH  28  29
ENDBRANCH   1  28
TORSDOF 15
ENDMDL
MODEL 3
REMARK VINA RESULT:     -11.4      3.672      8.092
REMARK SMILES Cc1ccc(Cl)c(Nc2ccccc2C(=O)NCC(=O)NCCCCNC(=O)c2ccc(-c3c4nc(c(-c5ccccc5)c5ccc([nH]5)c(-c5ccccc5)c5nc(c(-c6ccccc6)c6ccc3[nH]6)C=C5)C=C4)cc2)c1Cl
REMARK SMILES IDX 22 1 21 2 19 3 20 4 18 6 17 7 15 8 16 9 14 11 9 12 10 13
REMARK SMILES IDX 11 14 13 15 12 16 8 17 7 19 1 20 2 21 3 22 77 23 4 24 78 25
REMARK SMILES IDX 5 26 6 27 23 28 24 29 25 30 26 31 27 32 28 34 29 35 30 36
REMARK SMILES IDX 76 37 31 38 75 39 32 40 33 41 34 42 69 43 35 44 74 45 68 46
REMARK SMILES IDX 70 47 36 48 73 49 67 50 66 51 37 53 59 54 44 55 58 56 45 57
REMARK SMILES IDX 48 58 57 59 71 60 46 61 47 62 56 64 72 65 49 66 38 67 39 68
REMARK SMILES IDX 43 69 40 70 42 71 41 72 60 73 61 74 65 75 62 76 64 77 63 78
REMARK SMILES IDX 50 79 51 80 55 81 52 82 54 83 53 84
REMARK H PARENT 21 5 17 10 8 18 26 33 70 52 48 63
REMARK Flexibility Score: inf
ROOT
ATOM      1  C   UNL A   1      33.197  30.232  26.627  1.00  0.00     0.116 C 
ENDROOT
BRANCH   1   2
ATOM      2  N   UNL A   1      33.634  29.144  25.788  1.00  0.00    -0.355 N 
ATOM      3  C   UNL A   1      33.521  27.815  26.066  1.00  0.00     0.239 C 
ATOM      4  O   UNL A   1      34.091  27.011  25.325  1.00  0.00    -0.273 OA
ATOM      5  H   UNL A   1      34.056  29.384  24.932  1.00  0.00     0.163 HD
BRANCH   3   6
ATOM      6  C   UNL A   1      32.481  27.359  27.087  1.00  0.00     0.216 C 
BRANCH   6   7
ATOM      7  N   UNL A   1      31.236  26.697  26.760  1.00  0.00    -0.343 N 
ATOM      8  C   UNL A   1      30.951  25.465  26.218  1.00  0.00     0.253 C 
ATOM      9  O   UNL A   1      29.822  25.035  26.486  1.00  0.00    -0.269 OA
ATOM     10  H   UNL A   1      30.436  27.234  26.966  1.00  0.00     0.164 HD
BRANCH   8  11
ATOM     11  C   UNL A   1      31.766  24.714  25.195  1.00  0.00     0.063 A 
ATOM     12  C   UNL A   1      31.726  24.707  23.781  1.00  0.00     0.051 A 
ATOM     13  C   UNL A   1      32.565  23.788  23.094  1.00  0.00     0.027 A 
ATOM     14  C   UNL A   1      33.471  22.955  23.749  1.00  0.00     0.002 A 
ATOM     15  C   UNL A   1      32.713  23.863  25.831  1.00  0.00     0.016 A 
ATOM     16  C   UNL A   1      33.562  23.009  25.125  1.00  0.00     0.001 A 
BRANCH  12  17
ATOM     17  N   UNL A   1      31.056  25.596  22.913  1.00  0.00    -0.352 N 
ATOM     18  H   UNL A   1      30.774  25.175  22.069  1.00  0.00     0.167 HD
BRANCH  17  19
ATOM     19  C   UNL A   1      30.702  26.966  22.997  1.00  0.00     0.077 A 
ATOM     20  C   UNL A   1      27.606  29.215  23.051  1.00  0.00     0.046 C 
ATOM     21  C   UNL A   1      29.033  28.753  22.937  1.00  0.00    -0.030 A 
ATOM     22  C   UNL A   1      30.009  29.646  22.472  1.00  0.00     0.006 A 
ATOM     23  C   UNL A   1      29.395  27.426  23.241  1.00  0.00     0.069 A 
ATOM     24  C   UNL A   1      31.336  29.244  22.351  1.00  0.00     0.023 A 
ATOM     25  Cl  UNL A   1      28.231  26.401  24.029  1.00  0.00    -0.082 Cl
ATOM     26  C   UNL A   1      31.679  27.922  22.622  1.00  0.00     0.066 A 
ATOM     27  Cl  UNL A   1      33.326  27.445  22.349  1.00  0.00    -0.082 Cl
ENDBRANCH  17  19
ENDBRANCH  12  17
ENDBRANCH   8  11
ENDBRANCH   6   7
ENDBRANCH   3   6
ENDBRANCH   1   2
BRANCH   1  28
ATOM     28  C   UNL A   1      31.821  30.710  26.175  1.00  0.00     0.023 C 
BRANCH  28  29
ATOM     29  C   UNL A   1      31.442  32.060  26.785  1.00  0.00     0.023 C 
BRANCH  29  30
ATOM     30  C   UNL A   1      32.619  32.814  27.385  1.00  0.00     0.116 C 
BRANCH  30  31
ATOM     31  N   UNL A   1      32.314  34.218  27.607  1.00  0.00    -0.352 N 
ATOM     32  C   UNL A   1      32.908  35.078  28.499  1.00  0.00     0.251 C 
ATOM     33  H   UNL A   1      31.597  34.599  27.052  1.00  0.00     0.163 HD
ATOM     34  O   UNL A   1      32.451  36.189  28.708  1.00  0.00    -0.269 OA
BRANCH  32  35
ATOM     35  C   UNL A   1      34.103  34.604  29.222  1.00  0.00     0.039 A 
ATOM     36  C   UNL A   1      33.949  34.063  30.497  1.00  0.00     0.014 A 
ATOM     37  C   UNL A   1      35.354  34.636  28.599  1.00  0.00     0.014 A 
ATOM     38  C   UNL A   1      35.053  33.501  31.135  1.00  0.00     0.010 A 
ATOM     39  C   UNL A   1      36.434  34.010  29.205  1.00  0.00     0.010 A 
ATOM     40  C   UNL A   1      36.296  33.443  30.482  1.00  0.00    -0.014 A 
BRANCH  40  41
ATOM     41  C   UNL A   1      37.468  32.802  31.123  1.00  0.00     0.031 A 
ATOM     42  C   UNL A   1      38.113  31.606  30.476  1.00  0.00     0.074 A 
ATOM     43  C   UNL A   1      37.911  33.255  32.312  1.00  0.00     0.049 A 
ATOM     44  N   UNL A   1      39.112  30.877  30.903  1.00  0.00    -0.248 NA
ATOM     45  C   UNL A   1      37.546  31.154  29.194  1.00  0.00     0.031 C 
ATOM     46  C   UNL A   1      37.342  34.378  33.062  1.00  0.00     0.029 A 
ATOM     47  N   UNL A   1      38.945  32.821  33.103  1.00  0.00    -0.354 N 
ATOM     48  C   UNL A   1      39.274  29.872  29.960  1.00  0.00     0.074 A 
ATOM     49  C   UNL A   1      38.248  30.054  28.959  1.00  0.00     0.031 C 
ATOM     50  C   UNL A   1      38.049  34.558  34.189  1.00  0.00     0.029 A 
ATOM     51  C   UNL A   1      39.095  33.545  34.262  1.00  0.00     0.049 A 
ATOM     52  H   UNL A   1      39.525  32.062  32.863  1.00  0.00     0.167 HD
ATOM     53  C   UNL A   1      40.207  28.893  29.922  1.00  0.00     0.031 A 
ATOM     54  C   UNL A   1      39.974  33.400  35.271  1.00  0.00     0.031 A 
ATOM     55  C   UNL A   1      41.247  28.731  30.900  1.00  0.00     0.049 A 
ATOM     56  C   UNL A   1      41.000  32.302  35.197  1.00  0.00     0.074 A 
ATOM     57  C   UNL A   1      42.290  27.821  30.903  1.00  0.00     0.029 A 
ATOM     58  N   UNL A   1      41.377  29.497  32.046  1.00  0.00    -0.354 N 
ATOM     59  N   UNL A   1      41.197  31.418  34.250  1.00  0.00    -0.248 NA
ATOM     60  C   UNL A   1      41.933  32.193  36.328  1.00  0.00     0.031 C 
ATOM     61  C   UNL A   1      43.020  28.000  32.081  1.00  0.00     0.029 A 
ATOM     62  C   UNL A   1      42.465  29.060  32.782  1.00  0.00     0.049 A 
ATOM     63  H   UNL A   1      40.784  30.240  32.301  1.00  0.00     0.167 HD
ATOM     64  C   UNL A   1      42.297  30.672  34.654  1.00  0.00     0.074 A 
ATOM     65  C   UNL A   1      42.733  31.218  35.921  1.00  0.00     0.031 C 
ATOM     66  C   UNL A   1      42.893  29.625  34.032  1.00  0.00     0.031 A 
BRANCH  53  67
ATOM     67  C   UNL A   1      40.150  27.912  28.785  1.00  0.00    -0.014 A 
ATOM     68  C   UNL A   1      40.803  28.165  27.570  1.00  0.00     0.009 A 
ATOM     69  C   UNL A   1      39.491  26.684  28.960  1.00  0.00     0.009 A 
ATOM     70  C   UNL A   1      40.781  27.217  26.545  1.00  0.00     0.001 A 
ATOM     71  C   UNL A   1      39.494  25.728  27.944  1.00  0.00     0.001 A 
ATOM     72  C   UNL A   1      40.134  25.997  26.735  1.00  0.00     0.000 A 
ENDBRANCH  53  67
BRANCH  54  73
ATOM     73  C   UNL A   1      39.935  34.312  36.446  1.00  0.00    -0.014 A 
ATOM     74  C   UNL A   1      39.176  33.982  37.580  1.00  0.00     0.009 A 
ATOM     75  C   UNL A   1      40.617  35.539  36.421  1.00  0.00     0.009 A 
ATOM     76  C   UNL A   1      39.064  34.881  38.644  1.00  0.00     0.001 A 
ATOM     77  C   UNL A   1      40.529  36.421  37.500  1.00  0.00     0.001 A 
ATOM     78  C   UNL A   1      39.742  36.098  38.603  1.00  0.00     0.000 A 
ENDBRANCH  54  73
BRANCH  66  79
ATOM     79  C   UNL A   1      44.108  29.036  34.689  1.00  0.00    -0.014 A 
ATOM     80  C   UNL A   1      44.008  27.961  35.585  1.00  0.00     0.009 A 
ATOM     81  C   UNL A   1      45.380  29.541  34.370  1.00  0.00     0.009 A 
ATOM     82  C   UNL A   1      45.154  27.426  36.175  1.00  0.00     0.001 A 
ATOM     83  C   UNL A   1      46.526  28.983  34.937  1.00  0.00     0.001 A 
ATOM     84  C   UNL A   1      46.411  27.933  35.847  1.00  0.00     0.000 A 
ENDBRANCH  66  79
ENDBRANCH  40  41
ENDBRANCH  32  35
ENDBRANCH  30  31
ENDBRANCH  29  30
ENDBRANCH  28  29
ENDBRANCH   1  28
TORSDOF 15
ENDMDL
