MODEL 1
REMARK VINA RESULT:     -10.7      0.000      0.000
REMARK SMILES Cc1cc(OCCc2nc(CC(=O)NCCCCNC(=O)c3ccc(-c4c5nc(c(-c6ccccc6)c6ccc([nH]6)c(-c6ccccc6)c6nc(c(-c7ccccc7)c7ccc4[nH]7)C=C6)C=C5)cc3)cs2)ccc1Cl
REMARK SMILES IDX 15 1 14 2 12 3 13 4 11 6 10 7 8 8 9 9 71 10 70 11 7 12 6 13
REMARK SMILES IDX 5 14 4 15 1 16 2 17 3 18 74 19 73 20 75 21 72 22 16 23 17 24
REMARK SMILES IDX 18 25 19 26 20 27 21 29 22 30 23 31 69 32 24 33 68 34 25 35
REMARK SMILES IDX 26 36 27 37 62 38 28 39 67 40 61 41 63 42 29 43 66 44 60 45
REMARK SMILES IDX 59 46 30 48 52 49 37 50 51 51 38 52 41 53 50 54 64 55 39 56
REMARK SMILES IDX 40 57 49 59 65 60 42 61 31 62 32 63 36 64 33 65 35 66 34 67
REMARK SMILES IDX 53 68 54 69 58 70 55 71 57 72 56 73 43 74 44 75 48 76 45 77
REMARK SMILES IDX 47 78 46 79
REMARK H PARENT 14 5 19 28 63 47 41 58
REMARK Flexibility Score: inf
ROOT
ATOM      1  C   UNL A   1      32.551  29.296  24.345  1.00  0.00     0.116 C 
ENDROOT
BRANCH   1   2
ATOM      2  N   UNL A   1      31.513  29.310  23.260  1.00  0.00    -0.356 N 
ATOM      3  C   UNL A   1      30.403  28.697  22.746  1.00  0.00     0.226 C 
ATOM      4  O   UNL A   1      30.016  29.250  21.698  1.00  0.00    -0.275 OA
ATOM      5  H   UNL A   1      31.714  30.077  22.678  1.00  0.00     0.163 HD
BRANCH   3   6
ATOM      6  C   UNL A   1      29.546  27.511  23.255  1.00  0.00     0.157 C 
BRANCH   6   7
ATOM      7  C   UNL A   1      30.288  26.331  23.897  1.00  0.00     0.061 A 
ATOM      8  C   UNL A   1      31.968  24.789  23.978  1.00  0.00     0.096 A 
ATOM      9  N   UNL A   1      31.527  25.882  23.368  1.00  0.00    -0.246 NA
ATOM     10  S   UNL A   1      31.000  24.332  25.339  1.00  0.00    -0.127 S 
ATOM     11  C   UNL A   1      29.921  25.637  25.035  1.00  0.00     0.091 A 
BRANCH   8  12
ATOM     12  C   UNL A   1      33.252  24.007  23.670  1.00  0.00     0.109 C 
BRANCH  12  13
ATOM     13  C   UNL A   1      34.602  24.655  24.064  1.00  0.00     0.237 C 
BRANCH  13  14
ATOM     14  O   UNL A   1      34.892  24.638  25.494  1.00  0.00    -0.493 OA
BRANCH  14  15
ATOM     15  C   UNL A   1      35.663  23.560  25.830  1.00  0.00     0.119 A 
ATOM     16  C   UNL A   1      34.684  20.286  24.949  1.00  0.00     0.046 C 
ATOM     17  C   UNL A   1      35.691  21.232  25.533  1.00  0.00    -0.029 A 
ATOM     18  C   UNL A   1      35.049  22.346  26.032  1.00  0.00     0.051 A 
ATOM     19  C   UNL A   1      37.089  21.283  25.367  1.00  0.00     0.044 A 
ATOM     20  C   UNL A   1      37.768  22.492  25.530  1.00  0.00     0.024 A 
ATOM     21  Cl  UNL A   1      38.109  19.973  24.953  1.00  0.00    -0.084 Cl
ATOM     22  C   UNL A   1      37.040  23.657  25.702  1.00  0.00     0.048 A 
ENDBRANCH  14  15
ENDBRANCH  13  14
ENDBRANCH  12  13
ENDBRANCH   8  12
ENDBRANCH   6   7
ENDBRANCH   3   6
ENDBRANCH   1   2
BRANCH   1  23
ATOM     23  C   UNL A   1      31.968  29.184  25.771  1.00  0.00     0.023 C 
BRANCH  23  24
ATOM     24  C   UNL A   1      32.175  30.267  26.823  1.00  0.00     0.023 C 
BRANCH  24  25
ATOM     25  C   UNL A   1      33.626  30.506  27.237  1.00  0.00     0.116 C 
BRANCH  25  26
ATOM     26  N   UNL A   1      33.843  31.399  28.385  1.00  0.00    -0.352 N 
ATOM     27  C   UNL A   1      34.938  31.465  29.236  1.00  0.00     0.251 C 
ATOM     28  H   UNL A   1      33.116  32.036  28.575  1.00  0.00     0.163 HD
ATOM     29  O   UNL A   1      34.990  32.277  30.158  1.00  0.00    -0.269 OA
BRANCH  27  30
ATOM     30  C   UNL A   1      36.030  30.483  29.062  1.00  0.00     0.039 A 
ATOM     31  C   UNL A   1      36.776  30.480  27.881  1.00  0.00     0.014 A 
ATOM     32  C   UNL A   1      36.431  29.716  30.153  1.00  0.00     0.014 A 
ATOM     33  C   UNL A   1      38.020  29.844  27.859  1.00  0.00     0.010 A 
ATOM     34  C   UNL A   1      37.722  29.211  30.175  1.00  0.00     0.010 A 
ATOM     35  C   UNL A   1      38.543  29.283  29.036  1.00  0.00    -0.014 A 
BRANCH  35  36
ATOM     36  C   UNL A   1      39.937  28.773  29.123  1.00  0.00     0.031 A 
ATOM     37  C   UNL A   1      41.038  29.702  29.560  1.00  0.00     0.074 A 
ATOM     38  C   UNL A   1      40.239  27.526  28.703  1.00  0.00     0.049 A 
ATOM     39  N   UNL A   1      42.333  29.510  29.563  1.00  0.00    -0.248 NA
ATOM     40  C   UNL A   1      40.630  31.049  29.999  1.00  0.00     0.031 C 
ATOM     41  C   UNL A   1      39.286  26.540  28.185  1.00  0.00     0.029 A 
ATOM     42  N   UNL A   1      41.448  26.875  28.638  1.00  0.00    -0.354 N 
ATOM     43  C   UNL A   1      42.886  30.720  29.961  1.00  0.00     0.074 A 
ATOM     44  C   UNL A   1      41.798  31.658  30.118  1.00  0.00     0.031 C 
ATOM     45  C   UNL A   1      39.939  25.401  27.896  1.00  0.00     0.029 A 
ATOM     46  C   UNL A   1      41.360  25.585  28.167  1.00  0.00     0.049 A 
ATOM     47  H   UNL A   1      42.298  27.293  28.903  1.00  0.00     0.167 HD
ATOM     48  C   UNL A   1      44.181  31.022  30.212  1.00  0.00     0.031 A 
ATOM     49  C   UNL A   1      42.318  24.657  27.977  1.00  0.00     0.031 A 
ATOM     50  C   UNL A   1      45.260  30.080  30.112  1.00  0.00     0.049 A 
ATOM     51  C   UNL A   1      43.746  24.999  28.305  1.00  0.00     0.074 A 
ATOM     52  C   UNL A   1      46.595  30.260  30.420  1.00  0.00     0.029 A 
ATOM     53  N   UNL A   1      45.117  28.769  29.684  1.00  0.00    -0.354 N 
ATOM     54  N   UNL A   1      44.243  26.127  28.749  1.00  0.00    -0.248 NA
ATOM     55  C   UNL A   1      44.741  23.933  28.118  1.00  0.00     0.031 C 
ATOM     56  C   UNL A   1      47.269  29.065  30.150  1.00  0.00     0.029 A 
ATOM     57  C   UNL A   1      46.343  28.130  29.712  1.00  0.00     0.049 A 
ATOM     58  H   UNL A   1      44.270  28.354  29.403  1.00  0.00     0.167 HD
ATOM     59  C   UNL A   1      45.602  25.900  28.920  1.00  0.00     0.074 A 
ATOM     60  C   UNL A   1      45.849  24.523  28.546  1.00  0.00     0.031 C 
ATOM     61  C   UNL A   1      46.563  26.755  29.347  1.00  0.00     0.031 A 
BRANCH  48  62
ATOM     62  C   UNL A   1      44.486  32.430  30.639  1.00  0.00    -0.014 A 
ATOM     63  C   UNL A   1      44.195  32.871  31.942  1.00  0.00     0.009 A 
ATOM     64  C   UNL A   1      45.064  33.329  29.731  1.00  0.00     0.009 A 
ATOM     65  C   UNL A   1      44.432  34.196  32.309  1.00  0.00     0.001 A 
ATOM     66  C   UNL A   1      45.330  34.645  30.112  1.00  0.00     0.001 A 
ATOM     67  C   UNL A   1      45.002  35.081  31.395  1.00  0.00     0.000 A 
ENDBRANCH  48  62
BRANCH  49  68
ATOM     68  C   UNL A   1      41.963  23.298  27.485  1.00  0.00    -0.014 A 
ATOM     69  C   UNL A   1      41.461  22.332  28.372  1.00  0.00     0.009 A 
ATOM     70  C   UNL A   1      42.137  22.952  26.136  1.00  0.00     0.009 A 
ATOM     71  C   UNL A   1      41.171  21.041  27.925  1.00  0.00     0.001 A 
ATOM     72  C   UNL A   1      41.821  21.666  25.687  1.00  0.00     0.001 A 
ATOM     73  C   UNL A   1      41.347  20.710  26.584  1.00  0.00     0.000 A 
ENDBRANCH  49  68
BRANCH  61  74
ATOM     74  C   UNL A   1      47.958  26.218  29.472  1.00  0.00    -0.014 A 
ATOM     75  C   UNL A   1      48.462  25.784  30.707  1.00  0.00     0.009 A 
ATOM     76  C   UNL A   1      48.756  26.090  28.324  1.00  0.00     0.009 A 
ATOM     77  C   UNL A   1      49.751  25.255  30.793  1.00  0.00     0.001 A 
ATOM     78  C   UNL A   1      50.034  25.538  28.410  1.00  0.00     0.001 A 
ATOM     79  C   UNL A   1      50.533  25.128  29.645  1.00  0.00     0.000 A 
ENDBRANCH  61  74
ENDBRANCH  35  36
ENDBRANCH  27  30
ENDBRANCH  25  26
ENDBRANCH  24  25
ENDBRANCH  23  24
ENDBRANCH   1  23
TORSDOF 16
ENDMDL
MODEL 2
REMARK VINA RESULT:     -10.6      3.406      5.774
REMARK SMILES Cc1cc(OCCc2nc(CC(=O)NCCCCNC(=O)c3ccc(-c4c5nc(c(-c6ccccc6)c6ccc([nH]6)c(-c6ccccc6)c6nc(c(-c7ccccc7)c7ccc4[nH]7)C=C6)C=C5)cc3)cs2)ccc1Cl
REMARK SMILES IDX 15 1 14 2 12 3 13 4 11 6 10 7 8 8 9 9 71 10 70 11 7 12 6 13
REMARK SMILES IDX 5 14 4 15 1 16 2 17 3 18 74 19 73 20 75 21 72 22 16 23 17 24
REMARK SMILES IDX 18 25 19 26 20 27 21 29 22 30 23 31 69 32 24 33 68 34 25 35
REMARK SMILES IDX 26 36 27 37 62 38 28 39 67 40 61 41 63 42 29 43 66 44 60 45
REMARK SMILES IDX 59 46 30 48 52 49 37 50 51 51 38 52 41 53 50 54 64 55 39 56
REMARK SMILES IDX 40 57 49 59 65 60 42 61 31 62 32 63 36 64 33 65 35 66 34 67
REMARK SMILES IDX 53 68 54 69 58 70 55 71 57 72 56 73 43 74 44 75 48 76 45 77
REMARK SMILES IDX 47 78 46 79
REMARK H PARENT 14 5 19 28 63 47 41 58
REMARK Flexibility Score: inf
ROOT
ATOM      1  C   UNL A   1      34.849  33.770  28.041  1.00  0.00     0.116 C 
ENDROOT
BRANCH   1   2
ATOM      2  N   UNL A   1      35.465  32.420  27.806  1.00  0.00    -0.356 N 
ATOM      3  C   UNL A   1      35.241  31.075  27.708  1.00  0.00     0.226 C 
ATOM      4  O   UNL A   1      36.299  30.444  27.519  1.00  0.00    -0.275 OA
ATOM      5  H   UNL A   1      36.428  32.563  27.664  1.00  0.00     0.163 HD
BRANCH   3   6
ATOM      6  C   UNL A   1      33.938  30.236  27.738  1.00  0.00     0.157 C 
BRANCH   6   7
ATOM      7  C   UNL A   1      33.662  29.323  26.535  1.00  0.00     0.061 A 
ATOM      8  C   UNL A   1      32.896  28.919  24.424  1.00  0.00     0.096 A 
ATOM      9  N   UNL A   1      33.181  29.863  25.313  1.00  0.00    -0.246 NA
ATOM     10  S   UNL A   1      33.350  27.333  24.947  1.00  0.00    -0.127 S 
ATOM     11  C   UNL A   1      33.892  27.962  26.454  1.00  0.00     0.091 A 
BRANCH   8  12
ATOM     12  C   UNL A   1      32.337  29.115  23.008  1.00  0.00     0.109 C 
BRANCH  12  13
ATOM     13  C   UNL A   1      30.851  28.752  22.765  1.00  0.00     0.237 C 
BRANCH  13  14
ATOM     14  O   UNL A   1      29.921  29.308  23.742  1.00  0.00    -0.493 OA
BRANCH  14  15
ATOM     15  C   UNL A   1      28.974  30.086  23.135  1.00  0.00     0.119 A 
ATOM     16  C   UNL A   1      29.149  33.607  23.287  1.00  0.00     0.046 C 
ATOM     17  C   UNL A   1      28.505  32.356  22.767  1.00  0.00    -0.029 A 
ATOM     18  C   UNL A   1      28.698  31.325  23.663  1.00  0.00     0.051 A 
ATOM     19  C   UNL A   1      28.055  32.040  21.470  1.00  0.00     0.044 A 
ATOM     20  C   UNL A   1      27.990  30.707  21.059  1.00  0.00     0.024 A 
ATOM     21  Cl  UNL A   1      27.566  33.154  20.268  1.00  0.00    -0.084 Cl
ATOM     22  C   UNL A   1      28.514  29.722  21.879  1.00  0.00     0.048 A 
ENDBRANCH  14  15
ENDBRANCH  13  14
ENDBRANCH  12  13
ENDBRANCH   8  12
ENDBRANCH   6   7
ENDBRANCH   3   6
ENDBRANCH   1   2
BRANCH   1  23
ATOM     23  C   UNL A   1      33.968  33.846  29.308  1.00  0.00     0.023 C 
BRANCH  23  24
ATOM     24  C   UNL A   1      34.560  33.990  30.704  1.00  0.00     0.023 C 
BRANCH  24  25
ATOM     25  C   UNL A   1      34.647  32.697  31.513  1.00  0.00     0.116 C 
BRANCH  25  26
ATOM     26  N   UNL A   1      35.202  32.806  32.871  1.00  0.00    -0.352 N 
ATOM     27  C   UNL A   1      36.351  32.222  33.386  1.00  0.00     0.251 C 
ATOM     28  H   UNL A   1      34.692  33.370  33.497  1.00  0.00     0.163 HD
ATOM     29  O   UNL A   1      36.704  32.411  34.548  1.00  0.00    -0.269 OA
BRANCH  27  30
ATOM     30  C   UNL A   1      37.120  31.295  32.528  1.00  0.00     0.039 A 
ATOM     31  C   UNL A   1      37.037  31.410  31.138  1.00  0.00     0.014 A 
ATOM     32  C   UNL A   1      38.070  30.462  33.112  1.00  0.00     0.014 A 
ATOM     33  C   UNL A   1      38.024  30.823  30.342  1.00  0.00     0.010 A 
ATOM     34  C   UNL A   1      39.123  30.003  32.335  1.00  0.00     0.010 A 
ATOM     35  C   UNL A   1      39.126  30.192  30.942  1.00  0.00    -0.014 A 
BRANCH  35  36
ATOM     36  C   UNL A   1      40.302  29.727  30.158  1.00  0.00     0.031 A 
ATOM     37  C   UNL A   1      41.426  30.686  29.873  1.00  0.00     0.074 A 
ATOM     38  C   UNL A   1      40.313  28.496  29.603  1.00  0.00     0.049 A 
ATOM     39  N   UNL A   1      42.465  30.537  29.092  1.00  0.00    -0.248 NA
ATOM     40  C   UNL A   1      41.340  32.012  30.510  1.00  0.00     0.031 C 
ATOM     41  C   UNL A   1      39.258  27.486  29.733  1.00  0.00     0.029 A 
ATOM     42  N   UNL A   1      41.250  27.887  28.804  1.00  0.00    -0.354 N 
ATOM     43  C   UNL A   1      43.125  31.759  29.113  1.00  0.00     0.074 A 
ATOM     44  C   UNL A   1      42.333  32.658  29.921  1.00  0.00     0.031 C 
ATOM     45  C   UNL A   1      39.626  26.374  29.074  1.00  0.00     0.029 A 
ATOM     46  C   UNL A   1      40.921  26.601  28.442  1.00  0.00     0.049 A 
ATOM     47  H   UNL A   1      42.081  28.329  28.518  1.00  0.00     0.167 HD
ATOM     48  C   UNL A   1      44.304  32.100  28.544  1.00  0.00     0.031 A 
ATOM     49  C   UNL A   1      41.587  25.707  27.686  1.00  0.00     0.031 A 
ATOM     50  C   UNL A   1      45.122  31.195  27.787  1.00  0.00     0.049 A 
ATOM     51  C   UNL A   1      42.919  26.091  27.100  1.00  0.00     0.074 A 
ATOM     52  C   UNL A   1      46.370  31.415  27.236  1.00  0.00     0.029 A 
ATOM     53  N   UNL A   1      44.774  29.886  27.492  1.00  0.00    -0.354 N 
ATOM     54  N   UNL A   1      43.562  27.230  27.190  1.00  0.00    -0.248 NA
ATOM     55  C   UNL A   1      43.620  25.062  26.320  1.00  0.00     0.031 C 
ATOM     56  C   UNL A   1      46.767  30.247  26.578  1.00  0.00     0.029 A 
ATOM     57  C   UNL A   1      45.782  29.288  26.757  1.00  0.00     0.049 A 
ATOM     58  H   UNL A   1      43.936  29.448  27.764  1.00  0.00     0.167 HD
ATOM     59  C   UNL A   1      44.755  27.045  26.502  1.00  0.00     0.074 A 
ATOM     60  C   UNL A   1      44.752  25.682  26.013  1.00  0.00     0.031 C 
ATOM     61  C   UNL A   1      45.763  27.926  26.292  1.00  0.00     0.031 A 
BRANCH  48  62
ATOM     62  C   UNL A   1      44.778  33.512  28.745  1.00  0.00    -0.014 A 
ATOM     63  C   UNL A   1      44.430  34.529  27.840  1.00  0.00     0.009 A 
ATOM     64  C   UNL A   1      45.586  33.829  29.847  1.00  0.00     0.009 A 
ATOM     65  C   UNL A   1      44.922  35.824  28.008  1.00  0.00     0.001 A 
ATOM     66  C   UNL A   1      46.049  35.134  30.030  1.00  0.00     0.001 A 
ATOM     67  C   UNL A   1      45.729  36.125  29.104  1.00  0.00     0.000 A 
ENDBRANCH  48  62
BRANCH  49  68
ATOM     68  C   UNL A   1      41.032  24.344  27.466  1.00  0.00    -0.014 A 
ATOM     69  C   UNL A   1      41.560  23.244  28.160  1.00  0.00     0.009 A 
ATOM     70  C   UNL A   1      39.990  24.130  26.551  1.00  0.00     0.009 A 
ATOM     71  C   UNL A   1      41.075  21.956  27.922  1.00  0.00     0.001 A 
ATOM     72  C   UNL A   1      39.490  22.843  26.334  1.00  0.00     0.001 A 
ATOM     73  C   UNL A   1      40.039  21.757  27.013  1.00  0.00     0.000 A 
ENDBRANCH  49  68
BRANCH  61  74
ATOM     74  C   UNL A   1      46.961  27.433  25.536  1.00  0.00    -0.014 A 
ATOM     75  C   UNL A   1      47.088  27.648  24.155  1.00  0.00     0.009 A 
ATOM     76  C   UNL A   1      48.004  26.797  26.228  1.00  0.00     0.009 A 
ATOM     77  C   UNL A   1      48.229  27.212  23.478  1.00  0.00     0.001 A 
ATOM     78  C   UNL A   1      49.153  26.386  25.553  1.00  0.00     0.001 A 
ATOM     79  C   UNL A   1      49.260  26.586  24.178  1.00  0.00     0.000 A 
ENDBRANCH  61  74
ENDBRANCH  35  36
ENDBRANCH  27  30
ENDBRANCH  25  26
ENDBRANCH  24  25
ENDBRANCH  23  24
ENDBRANCH   1  23
TORSDOF 16
ENDMDL
MODEL 3
REMARK VINA RESULT:     -10.5      2.538      7.869
REMARK SMILES Cc1cc(OCCc2nc(CC(=O)NCCCCNC(=O)c3ccc(-c4c5nc(c(-c6ccccc6)c6ccc([nH]6)c(-c6ccccc6)c6nc(c(-c7ccccc7)c7ccc4[nH]7)C=C6)C=C5)cc3)cs2)ccc1Cl
REMARK SMILES IDX 15 1 14 2 12 3 13 4 11 6 10 7 8 8 9 9 71 10 70 11 7 12 6 13
REMARK SMILES IDX 5 14 4 15 1 16 2 17 3 18 74 19 73 20 75 21 72 22 16 23 17 24
REMARK SMILES IDX 18 25 19 26 20 27 21 29 22 30 23 31 69 32 24 33 68 34 25 35
REMARK SMILES IDX 26 36 27 37 62 38 28 39 67 40 61 41 63 42 29 43 66 44 60 45
REMARK SMILES IDX 59 46 30 48 52 49 37 50 51 51 38 52 41 53 50 54 64 55 39 56
REMARK SMILES IDX 40 57 49 59 65 60 42 61 31 62 32 63 36 64 33 65 35 66 34 67
REMARK SMILES IDX 53 68 54 69 58 70 55 71 57 72 56 73 43 74 44 75 48 76 45 77
REMARK SMILES IDX 47 78 46 79
REMARK H PARENT 14 5 19 28 63 47 41 58
REMARK Flexibility Score: inf
ROOT
ATOM      1  C   UNL A   1      35.271  21.554  26.136  1.00  0.00     0.116 C 
ENDROOT
BRANCH   1   2
ATOM      2  N   UNL A   1      34.944  20.288  25.398  1.00  0.00    -0.356 N 
ATOM      3  C   UNL A   1      34.003  19.609  24.674  1.00  0.00     0.226 C 
ATOM      4  O   UNL A   1      34.398  18.469  24.359  1.00  0.00    -0.275 OA
ATOM      5  H   UNL A   1      35.734  19.704  25.462  1.00  0.00     0.163 HD
BRANCH   3   6
ATOM      6  C   UNL A   1      32.604  20.020  24.151  1.00  0.00     0.157 C 
BRANCH   6   7
ATOM      7  C   UNL A   1      32.319  21.522  24.010  1.00  0.00     0.061 A 
ATOM      8  C   UNL A   1      32.475  23.528  22.933  1.00  0.00     0.096 A 
ATOM      9  N   UNL A   1      32.700  22.223  22.836  1.00  0.00    -0.246 NA
ATOM     10  S   UNL A   1      31.635  23.966  24.382  1.00  0.00    -0.127 S 
ATOM     11  C   UNL A   1      31.640  22.327  24.906  1.00  0.00     0.091 A 
BRANCH   8  12
ATOM     12  C   UNL A   1      32.776  24.604  21.881  1.00  0.00     0.109 C 
BRANCH  12  13
ATOM     13  C   UNL A   1      32.711  26.085  22.328  1.00  0.00     0.237 C 
BRANCH  13  14
ATOM     14  O   UNL A   1      33.952  26.607  22.890  1.00  0.00    -0.493 OA
BRANCH  14  15
ATOM     15  C   UNL A   1      33.715  27.331  24.027  1.00  0.00     0.119 A 
ATOM     16  C   UNL A   1      30.814  29.315  24.342  1.00  0.00     0.046 C 
ATOM     17  C   UNL A   1      32.064  28.731  24.932  1.00  0.00    -0.029 A 
ATOM     18  C   UNL A   1      32.982  28.491  23.932  1.00  0.00     0.051 A 
ATOM     19  C   UNL A   1      32.284  28.153  26.197  1.00  0.00     0.044 A 
ATOM     20  C   UNL A   1      33.304  27.215  26.368  1.00  0.00     0.024 A 
ATOM     21  Cl  UNL A   1      31.395  28.467  27.624  1.00  0.00    -0.084 Cl
ATOM     22  C   UNL A   1      33.988  26.751  25.256  1.00  0.00     0.048 A 
ENDBRANCH  14  15
ENDBRANCH  13  14
ENDBRANCH  12  13
ENDBRANCH   8  12
ENDBRANCH   6   7
ENDBRANCH   3   6
ENDBRANCH   1   2
BRANCH   1  23
ATOM     23  C   UNL A   1      36.582  22.229  25.676  1.00  0.00     0.023 C 
BRANCH  23  24
ATOM     24  C   UNL A   1      37.722  21.443  25.041  1.00  0.00     0.023 C 
BRANCH  24  25
ATOM     25  C   UNL A   1      38.994  21.343  25.882  1.00  0.00     0.116 C 
BRANCH  25  26
ATOM     26  N   UNL A   1      39.798  20.122  25.715  1.00  0.00    -0.352 N 
ATOM     27  C   UNL A   1      41.132  19.913  26.037  1.00  0.00     0.251 C 
ATOM     28  H   UNL A   1      39.328  19.351  25.323  1.00  0.00     0.163 HD
ATOM     29  O   UNL A   1      41.678  18.828  25.851  1.00  0.00    -0.269 OA
BRANCH  27  30
ATOM     30  C   UNL A   1      41.923  21.053  26.551  1.00  0.00     0.039 A 
ATOM     31  C   UNL A   1      42.438  21.996  25.657  1.00  0.00     0.014 A 
ATOM     32  C   UNL A   1      41.969  21.281  27.923  1.00  0.00     0.014 A 
ATOM     33  C   UNL A   1      42.839  23.245  26.137  1.00  0.00     0.010 A 
ATOM     34  C   UNL A   1      42.230  22.565  28.377  1.00  0.00     0.010 A 
ATOM     35  C   UNL A   1      42.651  23.571  27.491  1.00  0.00    -0.014 A 
BRANCH  35  36
ATOM     36  C   UNL A   1      42.869  24.945  28.017  1.00  0.00     0.031 A 
ATOM     37  C   UNL A   1      44.244  25.350  28.477  1.00  0.00     0.074 A 
ATOM     38  C   UNL A   1      41.828  25.785  28.194  1.00  0.00     0.049 A 
ATOM     39  N   UNL A   1      44.623  26.436  29.101  1.00  0.00    -0.248 NA
ATOM     40  C   UNL A   1      45.328  24.377  28.255  1.00  0.00     0.031 C 
ATOM     41  C   UNL A   1      40.428  25.501  27.862  1.00  0.00     0.029 A 
ATOM     42  N   UNL A   1      41.787  27.058  28.710  1.00  0.00    -0.354 N 
ATOM     43  C   UNL A   1      45.971  26.253  29.380  1.00  0.00     0.074 A 
ATOM     44  C   UNL A   1      46.326  24.928  28.926  1.00  0.00     0.031 C 
ATOM     45  C   UNL A   1      39.677  26.579  28.144  1.00  0.00     0.029 A 
ATOM     46  C   UNL A   1      40.529  27.617  28.714  1.00  0.00     0.049 A 
ATOM     47  H   UNL A   1      42.584  27.528  29.047  1.00  0.00     0.167 HD
ATOM     48  C   UNL A   1      46.852  27.121  29.931  1.00  0.00     0.031 A 
ATOM     49  C   UNL A   1      40.112  28.829  29.129  1.00  0.00     0.031 A 
ATOM     50  C   UNL A   1      46.518  28.458  30.332  1.00  0.00     0.049 A 
ATOM     51  C   UNL A   1      41.116  29.795  29.697  1.00  0.00     0.074 A 
ATOM     52  C   UNL A   1      47.351  29.444  30.826  1.00  0.00     0.029 A 
ATOM     53  N   UNL A   1      45.244  29.000  30.266  1.00  0.00    -0.354 N 
ATOM     54  N   UNL A   1      42.402  29.632  29.888  1.00  0.00    -0.248 NA
ATOM     55  C   UNL A   1      40.610  31.117  30.094  1.00  0.00     0.031 C 
ATOM     56  C   UNL A   1      46.574  30.577  31.090  1.00  0.00     0.029 A 
ATOM     57  C   UNL A   1      45.266  30.306  30.719  1.00  0.00     0.049 A 
ATOM     58  H   UNL A   1      44.443  28.526  29.945  1.00  0.00     0.167 HD
ATOM     59  C   UNL A   1      42.864  30.836  30.401  1.00  0.00     0.074 A 
ATOM     60  C   UNL A   1      41.724  31.726  30.477  1.00  0.00     0.031 C 
ATOM     61  C   UNL A   1      44.121  31.177  30.776  1.00  0.00     0.031 A 
BRANCH  48  62
ATOM     62  C   UNL A   1      48.265  26.642  30.106  1.00  0.00    -0.014 A 
ATOM     63  C   UNL A   1      48.665  25.976  31.278  1.00  0.00     0.009 A 
ATOM     64  C   UNL A   1      49.210  26.862  29.094  1.00  0.00     0.009 A 
ATOM     65  C   UNL A   1      49.993  25.586  31.451  1.00  0.00     0.001 A 
ATOM     66  C   UNL A   1      50.532  26.440  29.257  1.00  0.00     0.001 A 
ATOM     67  C   UNL A   1      50.924  25.816  30.440  1.00  0.00     0.000 A 
ENDBRANCH  48  62
BRANCH  49  68
ATOM     68  C   UNL A   1      38.683  29.221  28.993  1.00  0.00    -0.014 A 
ATOM     69  C   UNL A   1      37.806  29.094  30.082  1.00  0.00     0.009 A 
ATOM     70  C   UNL A   1      38.181  29.704  27.775  1.00  0.00     0.009 A 
ATOM     71  C   UNL A   1      36.454  29.415  29.947  1.00  0.00     0.001 A 
ATOM     72  C   UNL A   1      36.833  30.050  27.650  1.00  0.00     0.001 A 
ATOM     73  C   UNL A   1      35.969  29.896  28.732  1.00  0.00     0.000 A 
ENDBRANCH  49  68
BRANCH  61  74
ATOM     74  C   UNL A   1      44.338  32.578  31.265  1.00  0.00    -0.014 A 
ATOM     75  C   UNL A   1      44.636  33.621  30.375  1.00  0.00     0.009 A 
ATOM     76  C   UNL A   1      44.182  32.868  32.630  1.00  0.00     0.009 A 
ATOM     77  C   UNL A   1      44.799  34.924  30.848  1.00  0.00     0.001 A 
ATOM     78  C   UNL A   1      44.321  34.175  33.096  1.00  0.00     0.001 A 
ATOM     79  C   UNL A   1      44.637  35.200  32.205  1.00  0.00     0.000 A 
ENDBRANCH  61  74
ENDBRANCH  35  36
ENDBRANCH  27  30
ENDBRANCH  25  26
ENDBRANCH  24  25
ENDBRANCH  23  24
ENDBRANCH   1  23
TORSDOF 16
ENDMDL
