MODEL 1
REMARK VINA RESULT:     -10.9      0.000      0.000
REMARK SMILES CC(=O)N[C@@H](Cc1cc(Br)c(O)c(Br)c1)C(=O)NCCCCNC(=O)c1ccc(-c2c3nc(c(-c4ccccc4)c4ccc([nH]4)c(-c4ccccc4)c4nc(c(-c5ccccc5)c5ccc2[nH]5)C=C4)C=C3)cc1
REMARK SMILES IDX 20 1 19 2 18 3 16 4 17 5 5 7 4 8 1 9 2 10 3 11 6 13 7 14
REMARK SMILES IDX 8 15 15 16 9 17 13 18 10 19 11 20 14 21 12 22 21 24 22 25
REMARK SMILES IDX 23 26 24 27 25 29 26 30 27 31 73 32 28 33 72 34 29 35 30 36
REMARK SMILES IDX 31 37 66 38 32 39 71 40 65 41 67 42 33 43 70 44 64 45 63 46
REMARK SMILES IDX 34 48 56 49 41 50 55 51 42 52 45 53 54 54 68 55 43 56 44 57
REMARK SMILES IDX 53 59 69 60 46 61 35 62 36 63 40 64 37 65 39 66 38 67 57 68
REMARK SMILES IDX 58 69 62 70 59 71 61 72 60 73 47 74 48 75 52 76 49 77 51 78
REMARK SMILES IDX 50 79
REMARK H PARENT 18 6 4 12 12 23 23 28 67 47 45 58
REMARK Flexibility Score: inf
ROOT
ATOM      1  C   UNL A   1      31.856  28.260  26.356  1.00  0.00     0.023 C 
ENDROOT
BRANCH   1   2
ATOM      2  C   UNL A   1      32.376  26.830  26.458  1.00  0.00     0.116 C 
BRANCH   2   3
ATOM      3  N   UNL A   1      31.410  25.836  26.882  1.00  0.00    -0.354 N 
ATOM      4  C   UNL A   1      31.176  24.571  26.415  1.00  0.00     0.242 C 
ATOM      5  O   UNL A   1      30.714  23.769  27.238  1.00  0.00    -0.273 OA
ATOM      6  H   UNL A   1      30.829  26.115  27.625  1.00  0.00     0.163 HD
BRANCH   4   7
ATOM      7  C   UNL A   1      31.509  24.067  24.978  1.00  0.00     0.175 C 
BRANCH   7   8
ATOM      8  N   UNL A   1      31.842  22.652  24.848  1.00  0.00    -0.344 N 
ATOM      9  C   UNL A   1      33.910  23.000  23.532  1.00  0.00     0.114 C 
ATOM     10  C   UNL A   1      32.973  22.110  24.307  1.00  0.00     0.217 C 
ATOM     11  O   UNL A   1      33.185  20.907  24.442  1.00  0.00    -0.275 OA
ATOM     12  H   UNL A   1      31.174  22.015  25.190  1.00  0.00     0.164 HD
ENDBRANCH   7   8
BRANCH   7  13
ATOM     13  C   UNL A   1      30.597  24.613  23.843  1.00  0.00     0.070 C 
BRANCH  13  14
ATOM     14  C   UNL A   1      30.770  26.035  23.351  1.00  0.00    -0.043 A 
ATOM     15  C   UNL A   1      32.040  26.540  23.018  1.00  0.00     0.023 A 
ATOM     16  C   UNL A   1      29.697  26.918  23.311  1.00  0.00     0.023 A 
ATOM     17  C   UNL A   1      32.204  27.868  22.590  1.00  0.00     0.061 A 
ATOM     18  C   UNL A   1      29.845  28.209  22.802  1.00  0.00     0.061 A 
ATOM     19  Br  UNL A   1      33.953  28.506  22.235  1.00  0.00    -0.047 Br
ATOM     20  C   UNL A   1      31.097  28.697  22.448  1.00  0.00     0.143 A 
ATOM     21  Br  UNL A   1      28.324  29.299  22.596  1.00  0.00    -0.047 Br
BRANCH  20  22
ATOM     22  O   UNL A   1      31.241  29.980  21.991  1.00  0.00    -0.506 OA
ATOM     23  H   UNL A   1      32.007  30.472  22.211  1.00  0.00     0.293 HD
ENDBRANCH  20  22
ENDBRANCH  13  14
ENDBRANCH   7  13
ENDBRANCH   4   7
ENDBRANCH   2   3
ENDBRANCH   1   2
BRANCH   1  24
ATOM     24  C   UNL A   1      32.458  29.269  27.346  1.00  0.00     0.023 C 
BRANCH  24  25
ATOM     25  C   UNL A   1      33.166  30.500  26.771  1.00  0.00     0.116 C 
BRANCH  25  26
ATOM     26  N   UNL A   1      32.457  31.755  26.958  1.00  0.00    -0.352 N 
ATOM     27  C   UNL A   1      32.869  32.914  27.589  1.00  0.00     0.251 C 
ATOM     28  H   UNL A   1      31.549  31.785  26.579  1.00  0.00     0.163 HD
ATOM     29  O   UNL A   1      32.150  33.898  27.614  1.00  0.00    -0.269 OA
BRANCH  27  30
ATOM     30  C   UNL A   1      34.155  32.934  28.315  1.00  0.00     0.039 A 
ATOM     31  C   UNL A   1      34.159  32.397  29.605  1.00  0.00     0.014 A 
ATOM     32  C   UNL A   1      35.341  33.367  27.720  1.00  0.00     0.014 A 
ATOM     33  C   UNL A   1      35.370  32.144  30.238  1.00  0.00     0.010 A 
ATOM     34  C   UNL A   1      36.555  33.055  28.325  1.00  0.00     0.010 A 
ATOM     35  C   UNL A   1      36.573  32.394  29.563  1.00  0.00    -0.014 A 
BRANCH  35  36
ATOM     36  C   UNL A   1      37.848  31.874  30.104  1.00  0.00     0.031 A 
ATOM     37  C   UNL A   1      38.438  30.608  29.570  1.00  0.00     0.074 A 
ATOM     38  C   UNL A   1      38.430  32.528  31.128  1.00  0.00     0.049 A 
ATOM     39  N   UNL A   1      39.522  29.985  29.950  1.00  0.00    -0.248 NA
ATOM     40  C   UNL A   1      37.704  29.941  28.484  1.00  0.00     0.031 C 
ATOM     41  C   UNL A   1      37.916  33.750  31.757  1.00  0.00     0.029 A 
ATOM     42  N   UNL A   1      39.582  32.261  31.822  1.00  0.00    -0.354 N 
ATOM     43  C   UNL A   1      39.596  28.847  29.158  1.00  0.00     0.074 A 
ATOM     44  C   UNL A   1      38.423  28.842  28.310  1.00  0.00     0.031 C 
ATOM     45  C   UNL A   1      38.766  34.141  32.720  1.00  0.00     0.029 A 
ATOM     46  C   UNL A   1      39.859  33.182  32.803  1.00  0.00     0.049 A 
ATOM     47  H   UNL A   1      40.155  31.482  31.635  1.00  0.00     0.167 HD
ATOM     48  C   UNL A   1      40.564  27.903  29.132  1.00  0.00     0.031 A 
ATOM     49  C   UNL A   1      40.884  33.244  33.672  1.00  0.00     0.031 A 
ATOM     50  C   UNL A   1      41.727  27.917  29.976  1.00  0.00     0.049 A 
ATOM     51  C   UNL A   1      41.941  32.179  33.623  1.00  0.00     0.074 A 
ATOM     52  C   UNL A   1      42.789  27.031  29.998  1.00  0.00     0.029 A 
ATOM     53  N   UNL A   1      41.981  28.871  30.951  1.00  0.00    -0.354 N 
ATOM     54  N   UNL A   1      42.029  31.142  32.825  1.00  0.00    -0.248 NA
ATOM     55  C   UNL A   1      43.044  32.298  34.586  1.00  0.00     0.031 C 
ATOM     56  C   UNL A   1      43.666  27.426  31.014  1.00  0.00     0.029 A 
ATOM     57  C   UNL A   1      43.173  28.585  31.592  1.00  0.00     0.049 A 
ATOM     58  H   UNL A   1      41.398  29.638  31.156  1.00  0.00     0.167 HD
ATOM     59  C   UNL A   1      43.210  30.500  33.172  1.00  0.00     0.074 A 
ATOM     60  C   UNL A   1      43.810  31.272  34.240  1.00  0.00     0.031 C 
ATOM     61  C   UNL A   1      43.749  29.370  32.652  1.00  0.00     0.031 A 
BRANCH  48  62
ATOM     62  C   UNL A   1      40.392  26.774  28.157  1.00  0.00    -0.014 A 
ATOM     63  C   UNL A   1      40.996  26.813  26.890  1.00  0.00     0.009 A 
ATOM     64  C   UNL A   1      39.632  25.650  28.514  1.00  0.00     0.009 A 
ATOM     65  C   UNL A   1      40.810  25.765  25.986  1.00  0.00     0.001 A 
ATOM     66  C   UNL A   1      39.471  24.592  27.618  1.00  0.00     0.001 A 
ATOM     67  C   UNL A   1      40.052  24.655  26.352  1.00  0.00     0.000 A 
ENDBRANCH  48  62
BRANCH  49  68
ATOM     68  C   UNL A   1      40.973  34.361  34.646  1.00  0.00    -0.014 A 
ATOM     69  C   UNL A   1      40.350  34.262  35.900  1.00  0.00     0.009 A 
ATOM     70  C   UNL A   1      41.674  35.536  34.328  1.00  0.00     0.009 A 
ATOM     71  C   UNL A   1      40.402  35.327  36.803  1.00  0.00     0.001 A 
ATOM     72  C   UNL A   1      41.747  36.588  35.244  1.00  0.00     0.001 A 
ATOM     73  C   UNL A   1      41.102  36.486  36.476  1.00  0.00     0.000 A 
ENDBRANCH  49  68
BRANCH  61  74
ATOM     74  C   UNL A   1      45.070  28.928  33.212  1.00  0.00    -0.014 A 
ATOM     75  C   UNL A   1      45.139  28.033  34.290  1.00  0.00     0.009 A 
ATOM     76  C   UNL A   1      46.259  29.383  32.624  1.00  0.00     0.009 A 
ATOM     77  C   UNL A   1      46.378  27.627  34.788  1.00  0.00     0.001 A 
ATOM     78  C   UNL A   1      47.496  28.954  33.107  1.00  0.00     0.001 A 
ATOM     79  C   UNL A   1      47.554  28.084  34.194  1.00  0.00     0.000 A 
ENDBRANCH  61  74
ENDBRANCH  35  36
ENDBRANCH  27  30
ENDBRANCH  25  26
ENDBRANCH  24  25
ENDBRANCH   1  24
TORSDOF 15
ENDMDL
MODEL 2
REMARK VINA RESULT:     -10.9      3.978      6.059
REMARK SMILES CC(=O)N[C@@H](Cc1cc(Br)c(O)c(Br)c1)C(=O)NCCCCNC(=O)c1ccc(-c2c3nc(c(-c4ccccc4)c4ccc([nH]4)c(-c4ccccc4)c4nc(c(-c5ccccc5)c5ccc2[nH]5)C=C4)C=C3)cc1
REMARK SMILES IDX 20 1 19 2 18 3 16 4 17 5 5 7 4 8 1 9 2 10 3 11 6 13 7 14
REMARK SMILES IDX 8 15 15 16 9 17 13 18 10 19 11 20 14 21 12 22 21 24 22 25
REMARK SMILES IDX 23 26 24 27 25 29 26 30 27 31 73 32 28 33 72 34 29 35 30 36
REMARK SMILES IDX 31 37 66 38 32 39 71 40 65 41 67 42 33 43 70 44 64 45 63 46
REMARK SMILES IDX 34 48 56 49 41 50 55 51 42 52 45 53 54 54 68 55 43 56 44 57
REMARK SMILES IDX 53 59 69 60 46 61 35 62 36 63 40 64 37 65 39 66 38 67 57 68
REMARK SMILES IDX 58 69 62 70 59 71 61 72 60 73 47 74 48 75 52 76 49 77 51 78
REMARK SMILES IDX 50 79
REMARK H PARENT 18 6 4 12 12 23 23 28 67 47 45 58
REMARK Flexibility Score: inf
ROOT
ATOM      1  C   UNL A   1      32.124  30.281  26.581  1.00  0.00     0.023 C 
ENDROOT
BRANCH   1   2
ATOM      2  C   UNL A   1      32.018  29.683  25.182  1.00  0.00     0.116 C 
BRANCH   2   3
ATOM      3  N   UNL A   1      33.261  29.578  24.443  1.00  0.00    -0.354 N 
ATOM      4  C   UNL A   1      33.752  28.559  23.675  1.00  0.00     0.242 C 
ATOM      5  O   UNL A   1      34.519  28.893  22.762  1.00  0.00    -0.273 OA
ATOM      6  H   UNL A   1      33.846  30.367  24.504  1.00  0.00     0.163 HD
BRANCH   4   7
ATOM      7  C   UNL A   1      33.367  27.055  23.822  1.00  0.00     0.175 C 
BRANCH   7   8
ATOM      8  N   UNL A   1      33.674  26.193  22.686  1.00  0.00    -0.344 N 
ATOM      9  C   UNL A   1      31.373  26.156  21.771  1.00  0.00     0.114 C 
ATOM     10  C   UNL A   1      32.843  25.844  21.658  1.00  0.00     0.217 C 
ATOM     11  O   UNL A   1      33.310  25.262  20.681  1.00  0.00    -0.275 OA
ATOM     12  H   UNL A   1      34.584  25.820  22.655  1.00  0.00     0.164 HD
ENDBRANCH   7   8
BRANCH   7  13
ATOM     13  C   UNL A   1      33.668  26.413  25.206  1.00  0.00     0.070 C 
BRANCH  13  14
ATOM     14  C   UNL A   1      34.091  24.962  25.291  1.00  0.00    -0.043 A 
ATOM     15  C   UNL A   1      33.150  23.922  25.189  1.00  0.00     0.023 A 
ATOM     16  C   UNL A   1      35.407  24.611  25.574  1.00  0.00     0.023 A 
ATOM     17  C   UNL A   1      33.538  22.576  25.296  1.00  0.00     0.061 A 
ATOM     18  C   UNL A   1      35.808  23.274  25.593  1.00  0.00     0.061 A 
ATOM     19  Br  UNL A   1      32.205  21.230  25.230  1.00  0.00    -0.047 Br
ATOM     20  C   UNL A   1      34.879  22.248  25.464  1.00  0.00     0.143 A 
ATOM     21  Br  UNL A   1      37.633  22.862  25.795  1.00  0.00    -0.047 Br
BRANCH  20  22
ATOM     22  O   UNL A   1      35.274  20.938  25.528  1.00  0.00    -0.506 OA
ATOM     23  H   UNL A   1      35.358  20.515  26.359  1.00  0.00     0.293 HD
ENDBRANCH  20  22
ENDBRANCH  13  14
ENDBRANCH   7  13
ENDBRANCH   4   7
ENDBRANCH   2   3
ENDBRANCH   1   2
BRANCH   1  24
ATOM     24  C   UNL A   1      33.334  29.834  27.416  1.00  0.00     0.023 C 
BRANCH  24  25
ATOM     25  C   UNL A   1      34.454  30.851  27.653  1.00  0.00     0.116 C 
BRANCH  25  26
ATOM     26  N   UNL A   1      34.585  31.308  29.027  1.00  0.00    -0.352 N 
ATOM     27  C   UNL A   1      35.602  31.086  29.936  1.00  0.00     0.251 C 
ATOM     28  H   UNL A   1      33.839  31.857  29.359  1.00  0.00     0.163 HD
ATOM     29  O   UNL A   1      35.564  31.589  31.046  1.00  0.00    -0.269 OA
BRANCH  27  30
ATOM     30  C   UNL A   1      36.701  30.161  29.594  1.00  0.00     0.039 A 
ATOM     31  C   UNL A   1      37.208  30.238  28.294  1.00  0.00     0.014 A 
ATOM     32  C   UNL A   1      37.288  29.318  30.539  1.00  0.00     0.014 A 
ATOM     33  C   UNL A   1      38.400  29.594  27.985  1.00  0.00     0.010 A 
ATOM     34  C   UNL A   1      38.513  28.726  30.250  1.00  0.00     0.010 A 
ATOM     35  C   UNL A   1      39.099  28.907  28.987  1.00  0.00    -0.014 A 
BRANCH  35  36
ATOM     36  C   UNL A   1      40.490  28.462  28.749  1.00  0.00     0.031 A 
ATOM     37  C   UNL A   1      40.780  27.044  28.373  1.00  0.00     0.074 A 
ATOM     38  C   UNL A   1      41.491  29.343  28.943  1.00  0.00     0.049 A 
ATOM     39  N   UNL A   1      41.936  26.470  28.167  1.00  0.00    -0.248 NA
ATOM     40  C   UNL A   1      39.622  26.147  28.232  1.00  0.00     0.031 C 
ATOM     41  C   UNL A   1      41.326  30.741  29.355  1.00  0.00     0.029 A 
ATOM     42  N   UNL A   1      42.849  29.196  28.818  1.00  0.00    -0.354 N 
ATOM     43  C   UNL A   1      41.648  25.143  27.882  1.00  0.00     0.074 A 
ATOM     44  C   UNL A   1      40.213  24.986  27.988  1.00  0.00     0.031 C 
ATOM     45  C   UNL A   1      42.531  31.329  29.417  1.00  0.00     0.029 A 
ATOM     46  C   UNL A   1      43.554  30.344  29.087  1.00  0.00     0.049 A 
ATOM     47  H   UNL A   1      43.278  28.348  28.559  1.00  0.00     0.167 HD
ATOM     48  C   UNL A   1      42.503  24.150  27.546  1.00  0.00     0.031 A 
ATOM     49  C   UNL A   1      44.879  30.575  29.071  1.00  0.00     0.031 A 
ATOM     50  C   UNL A   1      43.927  24.315  27.440  1.00  0.00     0.049 A 
ATOM     51  C   UNL A   1      45.805  29.453  28.700  1.00  0.00     0.074 A 
ATOM     52  C   UNL A   1      44.879  23.384  27.065  1.00  0.00     0.029 A 
ATOM     53  N   UNL A   1      44.605  25.495  27.710  1.00  0.00    -0.354 N 
ATOM     54  N   UNL A   1      45.512  28.218  28.372  1.00  0.00    -0.248 NA
ATOM     55  C   UNL A   1      47.242  29.760  28.686  1.00  0.00     0.031 C 
ATOM     56  C   UNL A   1      46.137  23.990  27.147  1.00  0.00     0.029 A 
ATOM     57  C   UNL A   1      45.964  25.311  27.527  1.00  0.00     0.049 A 
ATOM     58  H   UNL A   1      44.181  26.339  27.992  1.00  0.00     0.167 HD
ATOM     59  C   UNL A   1      46.726  27.607  28.087  1.00  0.00     0.074 A 
ATOM     60  C   UNL A   1      47.755  28.611  28.266  1.00  0.00     0.031 C 
ATOM     61  C   UNL A   1      46.967  26.327  27.711  1.00  0.00     0.031 A 
BRANCH  48  62
ATOM     62  C   UNL A   1      41.911  22.797  27.278  1.00  0.00    -0.014 A 
ATOM     63  C   UNL A   1      41.748  21.860  28.311  1.00  0.00     0.009 A 
ATOM     64  C   UNL A   1      41.494  22.460  25.981  1.00  0.00     0.009 A 
ATOM     65  C   UNL A   1      41.215  20.598  28.042  1.00  0.00     0.001 A 
ATOM     66  C   UNL A   1      40.935  21.207  25.722  1.00  0.00     0.001 A 
ATOM     67  C   UNL A   1      40.805  20.275  26.750  1.00  0.00     0.000 A 
ENDBRANCH  48  62
BRANCH  49  68
ATOM     68  C   UNL A   1      45.408  31.925  29.394  1.00  0.00    -0.014 A 
ATOM     69  C   UNL A   1      45.516  32.903  28.394  1.00  0.00     0.009 A 
ATOM     70  C   UNL A   1      45.814  32.242  30.700  1.00  0.00     0.009 A 
ATOM     71  C   UNL A   1      46.048  34.161  28.688  1.00  0.00     0.001 A 
ATOM     72  C   UNL A   1      46.320  33.510  30.997  1.00  0.00     0.001 A 
ATOM     73  C   UNL A   1      46.446  34.464  29.989  1.00  0.00     0.000 A 
ENDBRANCH  49  68
BRANCH  61  74
ATOM     74  C   UNL A   1      48.396  25.958  27.436  1.00  0.00    -0.014 A 
ATOM     75  C   UNL A   1      49.196  25.363  28.424  1.00  0.00     0.009 A 
ATOM     76  C   UNL A   1      48.933  26.171  26.158  1.00  0.00     0.009 A 
ATOM     77  C   UNL A   1      50.519  25.018  28.144  1.00  0.00     0.001 A 
ATOM     78  C   UNL A   1      50.248  25.801  25.874  1.00  0.00     0.001 A 
ATOM     79  C   UNL A   1      51.042  25.233  26.869  1.00  0.00     0.000 A 
ENDBRANCH  61  74
ENDBRANCH  35  36
ENDBRANCH  27  30
ENDBRANCH  25  26
ENDBRANCH  24  25
ENDBRANCH   1  24
TORSDOF 15
ENDMDL
MODEL 3
REMARK VINA RESULT:     -10.8      0.327      6.025
REMARK SMILES CC(=O)N[C@@H](Cc1cc(Br)c(O)c(Br)c1)C(=O)NCCCCNC(=O)c1ccc(-c2c3nc(c(-c4ccccc4)c4ccc([nH]4)c(-c4ccccc4)c4nc(c(-c5ccccc5)c5ccc2[nH]5)C=C4)C=C3)cc1
REMARK SMILES IDX 20 1 19 2 18 3 16 4 17 5 5 7 4 8 1 9 2 10 3 11 6 13 7 14
REMARK SMILES IDX 8 15 15 16 9 17 13 18 10 19 11 20 14 21 12 22 21 24 22 25
REMARK SMILES IDX 23 26 24 27 25 29 26 30 27 31 73 32 28 33 72 34 29 35 30 36
REMARK SMILES IDX 31 37 66 38 32 39 71 40 65 41 67 42 33 43 70 44 64 45 63 46
REMARK SMILES IDX 34 48 56 49 41 50 55 51 42 52 45 53 54 54 68 55 43 56 44 57
REMARK SMILES IDX 53 59 69 60 46 61 35 62 36 63 40 64 37 65 39 66 38 67 57 68
REMARK SMILES IDX 58 69 62 70 59 71 61 72 60 73 47 74 48 75 52 76 49 77 51 78
REMARK SMILES IDX 50 79
REMARK H PARENT 18 6 4 12 12 23 23 28 67 47 45 58
REMARK Flexibility Score: inf
ROOT
ATOM      1  C   UNL A   1      32.029  28.232  27.362  1.00  0.00     0.023 C 
ENDROOT
BRANCH   1   2
ATOM      2  C   UNL A   1      32.089  26.969  26.509  1.00  0.00     0.116 C 
BRANCH   2   3
ATOM      3  N   UNL A   1      31.235  25.878  26.936  1.00  0.00    -0.354 N 
ATOM      4  C   UNL A   1      31.125  24.600  26.461  1.00  0.00     0.242 C 
ATOM      5  O   UNL A   1      30.757  23.749  27.282  1.00  0.00    -0.273 OA
ATOM      6  H   UNL A   1      30.637  26.091  27.688  1.00  0.00     0.163 HD
BRANCH   4   7
ATOM      7  C   UNL A   1      31.491  24.143  25.015  1.00  0.00     0.175 C 
BRANCH   7   8
ATOM      8  N   UNL A   1      31.888  22.748  24.858  1.00  0.00    -0.344 N 
ATOM      9  C   UNL A   1      33.906  23.213  23.501  1.00  0.00     0.114 C 
ATOM     10  C   UNL A   1      33.031  22.268  24.283  1.00  0.00     0.217 C 
ATOM     11  O   UNL A   1      33.304  21.074  24.396  1.00  0.00    -0.275 OA
ATOM     12  H   UNL A   1      31.259  22.075  25.206  1.00  0.00     0.164 HD
ENDBRANCH   7   8
BRANCH   7  13
ATOM     13  C   UNL A   1      30.563  24.672  23.886  1.00  0.00     0.070 C 
BRANCH  13  14
ATOM     14  C   UNL A   1      30.725  26.088  23.375  1.00  0.00    -0.043 A 
ATOM     15  C   UNL A   1      31.990  26.595  23.024  1.00  0.00     0.023 A 
ATOM     16  C   UNL A   1      29.648  26.966  23.332  1.00  0.00     0.023 A 
ATOM     17  C   UNL A   1      32.144  27.918  22.578  1.00  0.00     0.061 A 
ATOM     18  C   UNL A   1      29.786  28.252  22.806  1.00  0.00     0.061 A 
ATOM     19  Br  UNL A   1      33.888  28.559  22.201  1.00  0.00    -0.047 Br
ATOM     20  C   UNL A   1      31.033  28.741  22.434  1.00  0.00     0.143 A 
ATOM     21  Br  UNL A   1      28.258  29.331  22.599  1.00  0.00    -0.047 Br
BRANCH  20  22
ATOM     22  O   UNL A   1      31.167  30.018  21.960  1.00  0.00    -0.506 OA
ATOM     23  H   UNL A   1      31.146  30.179  21.038  1.00  0.00     0.293 HD
ENDBRANCH  20  22
ENDBRANCH  13  14
ENDBRANCH   7  13
ENDBRANCH   4   7
ENDBRANCH   2   3
ENDBRANCH   1   2
BRANCH   1  24
ATOM     24  C   UNL A   1      31.990  29.563  26.594  1.00  0.00     0.023 C 
BRANCH  24  25
ATOM     25  C   UNL A   1      32.950  30.672  27.037  1.00  0.00     0.116 C 
BRANCH  25  26
ATOM     26  N   UNL A   1      32.341  31.982  27.193  1.00  0.00    -0.352 N 
ATOM     27  C   UNL A   1      32.855  33.130  27.765  1.00  0.00     0.251 C 
ATOM     28  H   UNL A   1      31.427  32.065  26.838  1.00  0.00     0.163 HD
ATOM     29  O   UNL A   1      32.210  34.165  27.770  1.00  0.00    -0.269 OA
BRANCH  27  30
ATOM     30  C   UNL A   1      34.160  33.083  28.455  1.00  0.00     0.039 A 
ATOM     31  C   UNL A   1      34.164  32.591  29.763  1.00  0.00     0.014 A 
ATOM     32  C   UNL A   1      35.356  33.409  27.813  1.00  0.00     0.014 A 
ATOM     33  C   UNL A   1      35.372  32.273  30.372  1.00  0.00     0.010 A 
ATOM     34  C   UNL A   1      36.561  33.031  28.396  1.00  0.00     0.010 A 
ATOM     35  C   UNL A   1      36.569  32.413  29.656  1.00  0.00    -0.014 A 
BRANCH  35  36
ATOM     36  C   UNL A   1      37.820  31.822  30.180  1.00  0.00     0.031 A 
ATOM     37  C   UNL A   1      38.590  32.509  31.261  1.00  0.00     0.074 A 
ATOM     38  C   UNL A   1      38.282  30.688  29.618  1.00  0.00     0.049 A 
ATOM     39  N   UNL A   1      39.723  32.159  31.811  1.00  0.00    -0.248 NA
ATOM     40  C   UNL A   1      38.028  33.767  31.778  1.00  0.00     0.031 C 
ATOM     41  C   UNL A   1      37.634  29.956  28.524  1.00  0.00     0.029 A 
ATOM     42  N   UNL A   1      39.405  29.949  29.887  1.00  0.00    -0.354 N 
ATOM     43  C   UNL A   1      40.016  33.156  32.731  1.00  0.00     0.074 A 
ATOM     44  C   UNL A   1      38.967  34.149  32.631  1.00  0.00     0.031 C 
ATOM     45  C   UNL A   1      38.353  28.858  28.240  1.00  0.00     0.029 A 
ATOM     46  C   UNL A   1      39.529  28.829  29.101  1.00  0.00     0.049 A 
ATOM     47  H   UNL A   1      40.061  30.197  30.579  1.00  0.00     0.167 HD
ATOM     48  C   UNL A   1      41.058  33.228  33.590  1.00  0.00     0.031 A 
ATOM     49  C   UNL A   1      40.486  27.884  29.078  1.00  0.00     0.031 A 
ATOM     50  C   UNL A   1      42.094  32.236  33.684  1.00  0.00     0.049 A 
ATOM     51  C   UNL A   1      41.633  27.991  30.040  1.00  0.00     0.074 A 
ATOM     52  C   UNL A   1      43.171  32.191  34.552  1.00  0.00     0.029 A 
ATOM     53  N   UNL A   1      42.181  31.109  32.879  1.00  0.00    -0.354 N 
ATOM     54  N   UNL A   1      41.864  28.909  30.948  1.00  0.00    -0.248 NA
ATOM     55  C   UNL A   1      42.645  26.928  29.982  1.00  0.00     0.031 C 
ATOM     56  C   UNL A   1      43.932  31.059  34.244  1.00  0.00     0.029 A 
ATOM     57  C   UNL A   1      43.302  30.373  33.218  1.00  0.00     0.049 A 
ATOM     58  H   UNL A   1      41.540  30.870  32.171  1.00  0.00     0.167 HD
ATOM     59  C   UNL A   1      43.033  28.521  31.587  1.00  0.00     0.074 A 
ATOM     60  C   UNL A   1      43.454  27.277  30.974  1.00  0.00     0.031 C 
ATOM     61  C   UNL A   1      43.699  29.139  32.593  1.00  0.00     0.031 A 
BRANCH  48  62
ATOM     62  C   UNL A   1      41.122  34.428  34.490  1.00  0.00    -0.014 A 
ATOM     63  C   UNL A   1      40.464  34.438  35.731  1.00  0.00     0.009 A 
ATOM     64  C   UNL A   1      41.861  35.555  34.102  1.00  0.00     0.009 A 
ATOM     65  C   UNL A   1      40.515  35.569  36.549  1.00  0.00     0.001 A 
ATOM     66  C   UNL A   1      41.932  36.674  34.935  1.00  0.00     0.001 A 
ATOM     67  C   UNL A   1      41.252  36.683  36.151  1.00  0.00     0.000 A 
ENDBRANCH  48  62
BRANCH  49  68
ATOM     68  C   UNL A   1      40.391  26.744  28.130  1.00  0.00    -0.014 A 
ATOM     69  C   UNL A   1      40.978  26.827  26.859  1.00  0.00     0.009 A 
ATOM     70  C   UNL A   1      39.707  25.571  28.485  1.00  0.00     0.009 A 
ATOM     71  C   UNL A   1      40.859  25.772  25.952  1.00  0.00     0.001 A 
ATOM     72  C   UNL A   1      39.612  24.505  27.587  1.00  0.00     0.001 A 
ATOM     73  C   UNL A   1      40.179  24.611  26.318  1.00  0.00     0.000 A 
ENDBRANCH  49  68
BRANCH  61  74
ATOM     74  C   UNL A   1      44.932  28.456  33.111  1.00  0.00    -0.014 A 
ATOM     75  C   UNL A   1      44.858  27.505  34.140  1.00  0.00     0.009 A 
ATOM     76  C   UNL A   1      46.177  28.742  32.532  1.00  0.00     0.009 A 
ATOM     77  C   UNL A   1      46.015  26.875  34.599  1.00  0.00     0.001 A 
ATOM     78  C   UNL A   1      47.329  28.091  32.976  1.00  0.00     0.001 A 
ATOM     79  C   UNL A   1      47.248  27.165  34.014  1.00  0.00     0.000 A 
ENDBRANCH  61  74
ENDBRANCH  35  36
ENDBRANCH  27  30
ENDBRANCH  25  26
ENDBRANCH  24  25
ENDBRANCH   1  24
TORSDOF 15
ENDMDL
