MODEL 1
REMARK VINA RESULT:     -12.1      0.000      0.000
REMARK SMILES O=C(NCCCCNC(=O)[C@@H](Cc1c[nH]c2ccccc12)NC(=O)c1ccc(F)cc1F)c1ccc(-c2c3nc(c(-c4ccccc4)c4ccc([nH]4)c(-c4ccccc4)c4nc(c(-c5ccccc5)c5ccc2[nH]5)C=C4)C=C3)cc1
REMARK SMILES IDX 5 1 4 2 3 3 1 4 2 5 33 7 34 8 80 9 35 10 79 11 36 12 37 13
REMARK SMILES IDX 38 14 73 15 39 16 78 17 72 18 74 19 40 20 77 21 71 22 70 23
REMARK SMILES IDX 41 25 63 26 48 27 62 28 49 29 52 30 61 31 75 32 50 33 51 34
REMARK SMILES IDX 60 36 76 37 53 38 42 39 43 40 47 41 44 42 46 43 45 44 64 45
REMARK SMILES IDX 65 46 69 47 66 48 68 49 67 50 54 51 55 52 59 53 56 54 58 55
REMARK SMILES IDX 57 56 6 57 7 58 8 59 9 60 10 62 11 63 12 64 13 65 14 66
REMARK SMILES IDX 21 67 15 68 16 69 20 70 17 72 19 73 18 74 22 75 23 76 24 78
REMARK SMILES IDX 25 79 26 80 31 81 27 82 30 83 32 84 28 85 29 86
REMARK H PARENT 3 6 74 24 52 35 8 61 15 71 22 77
REMARK Flexibility Score: inf
ROOT
ATOM      1  C   UNL A   1      37.763  20.769  24.960  1.00  0.00     0.023 C 
ENDROOT
BRANCH   1   2
ATOM      2  C   UNL A   1      38.967  20.873  25.878  1.00  0.00     0.116 C 
BRANCH   2   3
ATOM      3  N   UNL A   1      39.876  19.731  25.818  1.00  0.00    -0.352 N 
ATOM      4  O   UNL A   1      41.871  18.664  25.966  1.00  0.00    -0.269 OA
ATOM      5  C   UNL A   1      41.219  19.692  26.115  1.00  0.00     0.251 C 
ATOM      6  H   UNL A   1      39.476  18.879  25.528  1.00  0.00     0.163 HD
BRANCH   5   7
ATOM      7  C   UNL A   1      41.870  20.939  26.559  1.00  0.00     0.039 A 
ATOM      8  C   UNL A   1      41.950  21.230  27.920  1.00  0.00     0.014 A 
ATOM      9  C   UNL A   1      42.277  21.873  25.604  1.00  0.00     0.014 A 
ATOM     10  C   UNL A   1      42.235  22.524  28.320  1.00  0.00     0.010 A 
ATOM     11  C   UNL A   1      42.678  23.145  26.018  1.00  0.00     0.010 A 
ATOM     12  C   UNL A   1      42.609  23.495  27.375  1.00  0.00    -0.014 A 
BRANCH  12  13
ATOM     13  C   UNL A   1      42.958  24.853  27.851  1.00  0.00     0.031 A 
ATOM     14  C   UNL A   1      41.899  25.856  28.215  1.00  0.00     0.074 A 
ATOM     15  C   UNL A   1      44.261  25.156  28.008  1.00  0.00     0.049 A 
ATOM     16  N   UNL A   1      42.047  27.079  28.661  1.00  0.00    -0.248 NA
ATOM     17  C   UNL A   1      40.495  25.445  28.051  1.00  0.00     0.031 C 
ATOM     18  C   UNL A   1      45.377  24.259  27.689  1.00  0.00     0.029 A 
ATOM     19  N   UNL A   1      44.869  26.278  28.504  1.00  0.00    -0.354 N 
ATOM     20  C   UNL A   1      40.764  27.596  28.790  1.00  0.00     0.074 A 
ATOM     21  C   UNL A   1      39.847  26.556  28.373  1.00  0.00     0.031 C 
ATOM     22  C   UNL A   1      46.525  24.836  28.061  1.00  0.00     0.029 A 
ATOM     23  C   UNL A   1      46.236  26.171  28.568  1.00  0.00     0.049 A 
ATOM     24  H   UNL A   1      44.374  27.081  28.785  1.00  0.00     0.167 HD
ATOM     25  C   UNL A   1      40.389  28.827  29.214  1.00  0.00     0.031 A 
ATOM     26  C   UNL A   1      47.164  27.057  28.969  1.00  0.00     0.031 A 
ATOM     27  C   UNL A   1      41.306  29.848  29.648  1.00  0.00     0.049 A 
ATOM     28  C   UNL A   1      46.721  28.408  29.434  1.00  0.00     0.074 A 
ATOM     29  C   UNL A   1      41.022  31.116  30.127  1.00  0.00     0.029 A 
ATOM     30  N   UNL A   1      42.686  29.715  29.661  1.00  0.00    -0.354 N 
ATOM     31  N   UNL A   1      45.504  28.878  29.551  1.00  0.00    -0.248 NA
ATOM     32  C   UNL A   1      47.778  29.354  29.811  1.00  0.00     0.031 C 
ATOM     33  C   UNL A   1      42.234  31.765  30.390  1.00  0.00     0.029 A 
ATOM     34  C   UNL A   1      43.269  30.887  30.116  1.00  0.00     0.049 A 
ATOM     35  H   UNL A   1      43.178  28.909  29.386  1.00  0.00     0.167 HD
ATOM     36  C   UNL A   1      45.645  30.178  30.008  1.00  0.00     0.074 A 
ATOM     37  C   UNL A   1      47.067  30.410  30.178  1.00  0.00     0.031 C 
ATOM     38  C   UNL A   1      44.685  31.102  30.258  1.00  0.00     0.031 A 
BRANCH  25  39
ATOM     39  C   UNL A   1      38.922  29.154  29.192  1.00  0.00    -0.014 A 
ATOM     40  C   UNL A   1      38.112  28.978  30.324  1.00  0.00     0.009 A 
ATOM     41  C   UNL A   1      38.351  29.691  28.026  1.00  0.00     0.009 A 
ATOM     42  C   UNL A   1      36.754  29.308  30.279  1.00  0.00     0.001 A 
ATOM     43  C   UNL A   1      37.000  30.040  27.992  1.00  0.00     0.001 A 
ATOM     44  C   UNL A   1      36.201  29.842  29.116  1.00  0.00     0.000 A 
ENDBRANCH  25  39
BRANCH  26  45
ATOM     45  C   UNL A   1      48.598  26.683  28.905  1.00  0.00    -0.014 A 
ATOM     46  C   UNL A   1      49.210  26.011  29.972  1.00  0.00     0.009 A 
ATOM     47  C   UNL A   1      49.344  26.945  27.744  1.00  0.00     0.009 A 
ATOM     48  C   UNL A   1      50.544  25.612  29.879  1.00  0.00     0.001 A 
ATOM     49  C   UNL A   1      50.669  26.520  27.643  1.00  0.00     0.001 A 
ATOM     50  C   UNL A   1      51.269  25.858  28.713  1.00  0.00     0.000 A 
ENDBRANCH  26  45
BRANCH  38  51
ATOM     51  C   UNL A   1      45.154  32.441  30.738  1.00  0.00    -0.014 A 
ATOM     52  C   UNL A   1      45.427  33.476  29.830  1.00  0.00     0.009 A 
ATOM     53  C   UNL A   1      45.310  32.676  32.112  1.00  0.00     0.009 A 
ATOM     54  C   UNL A   1      45.880  34.713  30.289  1.00  0.00     0.001 A 
ATOM     55  C   UNL A   1      45.743  33.921  32.569  1.00  0.00     0.001 A 
ATOM     56  C   UNL A   1      46.035  34.935  31.657  1.00  0.00     0.000 A 
ENDBRANCH  38  51
ENDBRANCH  12  13
ENDBRANCH   5   7
ENDBRANCH   2   3
ENDBRANCH   1   2
BRANCH   1  57
ATOM     57  C   UNL A   1      36.600  21.656  25.363  1.00  0.00     0.023 C 
BRANCH  57  58
ATOM     58  C   UNL A   1      35.817  22.303  24.228  1.00  0.00     0.116 C 
BRANCH  58  59
ATOM     59  N   UNL A   1      34.453  21.830  24.242  1.00  0.00    -0.354 N 
ATOM     60  C   UNL A   1      33.287  22.527  24.287  1.00  0.00     0.242 C 
ATOM     61  H   UNL A   1      34.351  20.851  24.215  1.00  0.00     0.163 HD
ATOM     62  O   UNL A   1      32.297  21.908  24.698  1.00  0.00    -0.273 OA
BRANCH  60  63
ATOM     63  C   UNL A   1      33.154  24.028  23.929  1.00  0.00     0.176 C 
BRANCH  63  64
ATOM     64  C   UNL A   1      33.723  25.028  24.957  1.00  0.00     0.072 C 
BRANCH  64  65
ATOM     65  C   UNL A   1      32.783  25.863  25.783  1.00  0.00    -0.020 A 
ATOM     66  C   UNL A   1      31.586  25.480  26.364  1.00  0.00     0.087 A 
ATOM     67  C   UNL A   1      33.006  27.226  26.195  1.00  0.00     0.003 A 
ATOM     68  N   UNL A   1      31.043  26.562  27.009  1.00  0.00    -0.361 N 
ATOM     69  C   UNL A   1      31.876  27.649  26.896  1.00  0.00     0.046 A 
ATOM     70  C   UNL A   1      34.044  28.159  25.978  1.00  0.00     0.010 A 
ATOM     71  H   UNL A   1      30.181  26.559  27.485  1.00  0.00     0.166 HD
ATOM     72  C   UNL A   1      31.705  28.967  27.337  1.00  0.00     0.026 A 
ATOM     73  C   UNL A   1      33.893  29.478  26.421  1.00  0.00     0.001 A 
ATOM     74  C   UNL A   1      32.733  29.877  27.077  1.00  0.00     0.002 A 
ENDBRANCH  64  65
ENDBRANCH  63  64
BRANCH  63  75
ATOM     75  N   UNL A   1      33.444  24.366  22.533  1.00  0.00    -0.340 N 
ATOM     76  C   UNL A   1      32.997  25.411  21.764  1.00  0.00     0.254 C 
ATOM     77  H   UNL A   1      34.055  23.745  22.073  1.00  0.00     0.164 HD
ATOM     78  O   UNL A   1      33.285  25.447  20.571  1.00  0.00    -0.269 OA
BRANCH  76  79
ATOM     79  C   UNL A   1      32.203  26.503  22.358  1.00  0.00     0.075 A 
ATOM     80  C   UNL A   1      30.892  26.285  22.804  1.00  0.00     0.020 A 
ATOM     81  C   UNL A   1      32.791  27.759  22.524  1.00  0.00     0.138 A 
ATOM     82  C   UNL A   1      30.159  27.346  23.340  1.00  0.00     0.040 A 
ATOM     83  C   UNL A   1      32.071  28.811  23.081  1.00  0.00     0.079 A 
ATOM     84  F   UNL A   1      34.051  27.987  22.128  1.00  0.00    -0.206 F 
ATOM     85  C   UNL A   1      30.755  28.598  23.471  1.00  0.00     0.126 A 
ATOM     86  F   UNL A   1      30.048  29.611  23.987  1.00  0.00    -0.207 F 
ENDBRANCH  76  79
ENDBRANCH  63  75
ENDBRANCH  60  63
ENDBRANCH  58  59
ENDBRANCH  57  58
ENDBRANCH   1  57
TORSDOF 15
ENDMDL
MODEL 2
REMARK VINA RESULT:     -12.1      0.439      5.701
REMARK SMILES O=C(NCCCCNC(=O)[C@@H](Cc1c[nH]c2ccccc12)NC(=O)c1ccc(F)cc1F)c1ccc(-c2c3nc(c(-c4ccccc4)c4ccc([nH]4)c(-c4ccccc4)c4nc(c(-c5ccccc5)c5ccc2[nH]5)C=C4)C=C3)cc1
REMARK SMILES IDX 5 1 4 2 3 3 1 4 2 5 33 7 34 8 80 9 35 10 79 11 36 12 37 13
REMARK SMILES IDX 38 14 73 15 39 16 78 17 72 18 74 19 40 20 77 21 71 22 70 23
REMARK SMILES IDX 41 25 63 26 48 27 62 28 49 29 52 30 61 31 75 32 50 33 51 34
REMARK SMILES IDX 60 36 76 37 53 38 42 39 43 40 47 41 44 42 46 43 45 44 64 45
REMARK SMILES IDX 65 46 69 47 66 48 68 49 67 50 54 51 55 52 59 53 56 54 58 55
REMARK SMILES IDX 57 56 6 57 7 58 8 59 9 60 10 62 11 63 12 64 13 65 14 66
REMARK SMILES IDX 21 67 15 68 16 69 20 70 17 72 19 73 18 74 22 75 23 76 24 78
REMARK SMILES IDX 25 79 26 80 31 81 27 82 30 83 32 84 28 85 29 86
REMARK H PARENT 3 6 74 24 52 35 8 61 15 71 22 77
REMARK Flexibility Score: inf
ROOT
ATOM      1  C   UNL A   1      37.892  21.071  24.837  1.00  0.00     0.023 C 
ENDROOT
BRANCH   1   2
ATOM      2  C   UNL A   1      38.873  20.881  25.980  1.00  0.00     0.116 C 
BRANCH   2   3
ATOM      3  N   UNL A   1      39.803  19.769  25.803  1.00  0.00    -0.352 N 
ATOM      4  O   UNL A   1      41.823  18.739  25.816  1.00  0.00    -0.269 OA
ATOM      5  C   UNL A   1      41.154  19.735  26.066  1.00  0.00     0.251 C 
ATOM      6  H   UNL A   1      39.414  18.936  25.450  1.00  0.00     0.163 HD
BRANCH   5   7
ATOM      7  C   UNL A   1      41.789  20.954  26.601  1.00  0.00     0.039 A 
ATOM      8  C   UNL A   1      41.842  21.158  27.980  1.00  0.00     0.014 A 
ATOM      9  C   UNL A   1      42.208  21.950  25.715  1.00  0.00     0.014 A 
ATOM     10  C   UNL A   1      42.111  22.425  28.466  1.00  0.00     0.010 A 
ATOM     11  C   UNL A   1      42.594  23.194  26.217  1.00  0.00     0.010 A 
ATOM     12  C   UNL A   1      42.498  23.457  27.593  1.00  0.00    -0.014 A 
BRANCH  12  13
ATOM     13  C   UNL A   1      42.830  24.783  28.161  1.00  0.00     0.031 A 
ATOM     14  C   UNL A   1      44.251  25.181  28.451  1.00  0.00     0.074 A 
ATOM     15  C   UNL A   1      41.826  25.657  28.362  1.00  0.00     0.049 A 
ATOM     16  N   UNL A   1      44.703  26.311  28.934  1.00  0.00    -0.248 NA
ATOM     17  C   UNL A   1      45.300  24.187  28.175  1.00  0.00     0.031 C 
ATOM     18  C   UNL A   1      40.407  25.380  28.114  1.00  0.00     0.029 A 
ATOM     19  N   UNL A   1      41.841  26.960  28.784  1.00  0.00    -0.354 N 
ATOM     20  C   UNL A   1      46.076  26.151  29.060  1.00  0.00     0.074 A 
ATOM     21  C   UNL A   1      46.388  24.813  28.604  1.00  0.00     0.031 C 
ATOM     22  C   UNL A   1      39.699  26.497  28.320  1.00  0.00     0.029 A 
ATOM     23  C   UNL A   1      40.598  27.542  28.792  1.00  0.00     0.049 A 
ATOM     24  H   UNL A   1      42.662  27.431  29.056  1.00  0.00     0.167 HD
ATOM     25  C   UNL A   1      46.992  27.039  29.517  1.00  0.00     0.031 A 
ATOM     26  C   UNL A   1      40.213  28.776  29.159  1.00  0.00     0.031 A 
ATOM     27  C   UNL A   1      46.678  28.377  29.947  1.00  0.00     0.049 A 
ATOM     28  C   UNL A   1      41.245  29.737  29.658  1.00  0.00     0.074 A 
ATOM     29  C   UNL A   1      47.539  29.364  30.396  1.00  0.00     0.029 A 
ATOM     30  N   UNL A   1      45.401  28.916  29.977  1.00  0.00    -0.354 N 
ATOM     31  N   UNL A   1      42.540  29.568  29.768  1.00  0.00    -0.248 NA
ATOM     32  C   UNL A   1      40.764  31.053  30.094  1.00  0.00     0.031 C 
ATOM     33  C   UNL A   1      46.777  30.487  30.737  1.00  0.00     0.029 A 
ATOM     34  C   UNL A   1      45.448  30.214  30.460  1.00  0.00     0.049 A 
ATOM     35  H   UNL A   1      44.583  28.446  29.697  1.00  0.00     0.167 HD
ATOM     36  C   UNL A   1      43.031  30.753  30.292  1.00  0.00     0.074 A 
ATOM     37  C   UNL A   1      41.896  31.644  30.448  1.00  0.00     0.031 C 
ATOM     38  C   UNL A   1      44.305  31.074  30.625  1.00  0.00     0.031 A 
BRANCH  25  39
ATOM     39  C   UNL A   1      48.420  26.580  29.614  1.00  0.00    -0.014 A 
ATOM     40  C   UNL A   1      48.902  25.914  30.751  1.00  0.00     0.009 A 
ATOM     41  C   UNL A   1      49.286  26.778  28.526  1.00  0.00     0.009 A 
ATOM     42  C   UNL A   1      50.230  25.481  30.806  1.00  0.00     0.001 A 
ATOM     43  C   UNL A   1      50.605  26.326  28.575  1.00  0.00     0.001 A 
ATOM     44  C   UNL A   1      51.079  25.683  29.717  1.00  0.00     0.000 A 
ENDBRANCH  25  39
BRANCH  26  45
ATOM     45  C   UNL A   1      38.776  29.138  29.092  1.00  0.00    -0.014 A 
ATOM     46  C   UNL A   1      37.941  28.959  30.203  1.00  0.00     0.009 A 
ATOM     47  C   UNL A   1      38.250  29.723  27.928  1.00  0.00     0.009 A 
ATOM     48  C   UNL A   1      36.604  29.357  30.149  1.00  0.00     0.001 A 
ATOM     49  C   UNL A   1      36.920  30.145  27.887  1.00  0.00     0.001 A 
ATOM     50  C   UNL A   1      36.098  29.956  28.996  1.00  0.00     0.000 A 
ENDBRANCH  26  45
BRANCH  38  51
ATOM     51  C   UNL A   1      44.525  32.444  31.188  1.00  0.00    -0.014 A 
ATOM     52  C   UNL A   1      44.734  33.545  30.342  1.00  0.00     0.009 A 
ATOM     53  C   UNL A   1      44.509  32.640  32.577  1.00  0.00     0.009 A 
ATOM     54  C   UNL A   1      44.956  34.813  30.881  1.00  0.00     0.001 A 
ATOM     55  C   UNL A   1      44.710  33.913  33.111  1.00  0.00     0.001 A 
ATOM     56  C   UNL A   1      44.941  34.996  32.263  1.00  0.00     0.000 A 
ENDBRANCH  38  51
ENDBRANCH  12  13
ENDBRANCH   5   7
ENDBRANCH   2   3
ENDBRANCH   1   2
BRANCH   1  57
ATOM     57  C   UNL A   1      36.521  21.553  25.272  1.00  0.00     0.023 C 
BRANCH  57  58
ATOM     58  C   UNL A   1      35.681  22.251  24.211  1.00  0.00     0.116 C 
BRANCH  58  59
ATOM     59  N   UNL A   1      34.303  21.832  24.325  1.00  0.00    -0.354 N 
ATOM     60  C   UNL A   1      33.171  22.576  24.426  1.00  0.00     0.242 C 
ATOM     61  H   UNL A   1      34.163  20.858  24.329  1.00  0.00     0.163 HD
ATOM     62  O   UNL A   1      32.186  22.008  24.915  1.00  0.00    -0.273 OA
BRANCH  60  63
ATOM     63  C   UNL A   1      33.072  24.072  24.037  1.00  0.00     0.176 C 
BRANCH  63  64
ATOM     64  C   UNL A   1      33.660  25.080  25.047  1.00  0.00     0.072 C 
BRANCH  64  65
ATOM     65  C   UNL A   1      32.736  25.959  25.845  1.00  0.00    -0.020 A 
ATOM     66  C   UNL A   1      31.544  25.613  26.458  1.00  0.00     0.087 A 
ATOM     67  C   UNL A   1      32.974  27.339  26.190  1.00  0.00     0.003 A 
ATOM     68  N   UNL A   1      31.017  26.728  27.059  1.00  0.00    -0.361 N 
ATOM     69  C   UNL A   1      31.856  27.802  26.884  1.00  0.00     0.046 A 
ATOM     70  C   UNL A   1      34.015  28.253  25.917  1.00  0.00     0.010 A 
ATOM     71  H   UNL A   1      30.161  26.754  27.545  1.00  0.00     0.166 HD
ATOM     72  C   UNL A   1      31.699  29.141  27.266  1.00  0.00     0.026 A 
ATOM     73  C   UNL A   1      33.879  29.592  26.299  1.00  0.00     0.001 A 
ATOM     74  C   UNL A   1      32.730  30.030  26.950  1.00  0.00     0.002 A 
ENDBRANCH  64  65
ENDBRANCH  63  64
BRANCH  63  75
ATOM     75  N   UNL A   1      33.375  24.376  22.636  1.00  0.00    -0.340 N 
ATOM     76  C   UNL A   1      32.937  25.405  21.839  1.00  0.00     0.254 C 
ATOM     77  H   UNL A   1      33.986  23.742  22.196  1.00  0.00     0.164 HD
ATOM     78  O   UNL A   1      33.235  25.411  20.648  1.00  0.00    -0.269 OA
BRANCH  76  79
ATOM     79  C   UNL A   1      32.144  26.513  22.401  1.00  0.00     0.075 A 
ATOM     80  C   UNL A   1      30.835  26.308  22.860  1.00  0.00     0.020 A 
ATOM     81  C   UNL A   1      32.730  27.775  22.524  1.00  0.00     0.138 A 
ATOM     82  C   UNL A   1      30.103  27.384  23.365  1.00  0.00     0.040 A 
ATOM     83  C   UNL A   1      32.010  28.843  23.049  1.00  0.00     0.079 A 
ATOM     84  F   UNL A   1      33.988  27.993  22.114  1.00  0.00    -0.206 F 
ATOM     85  C   UNL A   1      30.697  28.641  23.452  1.00  0.00     0.126 A 
ATOM     86  F   UNL A   1      29.989  29.669  23.938  1.00  0.00    -0.207 F 
ENDBRANCH  76  79
ENDBRANCH  63  75
ENDBRANCH  60  63
ENDBRANCH  58  59
ENDBRANCH  57  58
ENDBRANCH   1  57
TORSDOF 15
ENDMDL
MODEL 3
REMARK VINA RESULT:     -12.1      2.320      7.728
REMARK SMILES O=C(NCCCCNC(=O)[C@@H](Cc1c[nH]c2ccccc12)NC(=O)c1ccc(F)cc1F)c1ccc(-c2c3nc(c(-c4ccccc4)c4ccc([nH]4)c(-c4ccccc4)c4nc(c(-c5ccccc5)c5ccc2[nH]5)C=C4)C=C3)cc1
REMARK SMILES IDX 5 1 4 2 3 3 1 4 2 5 33 7 34 8 80 9 35 10 79 11 36 12 37 13
REMARK SMILES IDX 38 14 73 15 39 16 78 17 72 18 74 19 40 20 77 21 71 22 70 23
REMARK SMILES IDX 41 25 63 26 48 27 62 28 49 29 52 30 61 31 75 32 50 33 51 34
REMARK SMILES IDX 60 36 76 37 53 38 42 39 43 40 47 41 44 42 46 43 45 44 64 45
REMARK SMILES IDX 65 46 69 47 66 48 68 49 67 50 54 51 55 52 59 53 56 54 58 55
REMARK SMILES IDX 57 56 6 57 7 58 8 59 9 60 10 62 11 63 12 64 13 65 14 66
REMARK SMILES IDX 21 67 15 68 16 69 20 70 17 72 19 73 18 74 22 75 23 76 24 78
REMARK SMILES IDX 25 79 26 80 31 81 27 82 30 83 32 84 28 85 29 86
REMARK H PARENT 3 6 74 24 52 35 8 61 15 71 22 77
REMARK Flexibility Score: inf
ROOT
ATOM      1  C   UNL A   1      32.426  28.659  26.295  1.00  0.00     0.023 C 
ENDROOT
BRANCH   1   2
ATOM      2  C   UNL A   1      33.570  28.868  27.271  1.00  0.00     0.116 C 
BRANCH   2   3
ATOM      3  N   UNL A   1      33.633  30.206  27.854  1.00  0.00    -0.352 N 
ATOM      4  O   UNL A   1      34.601  31.949  28.933  1.00  0.00    -0.269 OA
ATOM      5  C   UNL A   1      34.711  30.834  28.433  1.00  0.00     0.251 C 
ATOM      6  H   UNL A   1      32.796  30.724  27.828  1.00  0.00     0.163 HD
BRANCH   5   7
ATOM      7  C   UNL A   1      35.991  30.105  28.495  1.00  0.00     0.039 A 
ATOM      8  C   UNL A   1      36.354  29.445  29.670  1.00  0.00     0.014 A 
ATOM      9  C   UNL A   1      36.882  30.197  27.424  1.00  0.00     0.014 A 
ATOM     10  C   UNL A   1      37.672  29.065  29.852  1.00  0.00     0.010 A 
ATOM     11  C   UNL A   1      38.181  29.705  27.569  1.00  0.00     0.010 A 
ATOM     12  C   UNL A   1      38.600  29.183  28.803  1.00  0.00    -0.014 A 
BRANCH  12  13
ATOM     13  C   UNL A   1      39.987  28.714  29.023  1.00  0.00     0.031 A 
ATOM     14  C   UNL A   1      40.440  27.355  28.566  1.00  0.00     0.074 A 
ATOM     15  C   UNL A   1      40.861  29.562  29.598  1.00  0.00     0.049 A 
ATOM     16  N   UNL A   1      41.625  26.808  28.672  1.00  0.00    -0.248 NA
ATOM     17  C   UNL A   1      39.440  26.494  27.915  1.00  0.00     0.031 C 
ATOM     18  C   UNL A   1      40.533  30.908  30.079  1.00  0.00     0.029 A 
ATOM     19  N   UNL A   1      42.202  29.440  29.843  1.00  0.00    -0.354 N 
ATOM     20  C   UNL A   1      41.503  25.529  28.144  1.00  0.00     0.074 A 
ATOM     21  C   UNL A   1      40.129  25.378  27.717  1.00  0.00     0.031 C 
ATOM     22  C   UNL A   1      41.653  31.510  30.496  1.00  0.00     0.029 A 
ATOM     23  C   UNL A   1      42.760  30.570  30.388  1.00  0.00     0.049 A 
ATOM     24  H   UNL A   1      42.715  28.622  29.648  1.00  0.00     0.167 HD
ATOM     25  C   UNL A   1      42.453  24.569  28.028  1.00  0.00     0.031 A 
ATOM     26  C   UNL A   1      44.020  30.820  30.781  1.00  0.00     0.031 A 
ATOM     27  C   UNL A   1      43.825  24.735  28.434  1.00  0.00     0.049 A 
ATOM     28  C   UNL A   1      45.049  29.742  30.641  1.00  0.00     0.074 A 
ATOM     29  C   UNL A   1      44.871  23.833  28.329  1.00  0.00     0.029 A 
ATOM     30  N   UNL A   1      44.342  25.881  29.019  1.00  0.00    -0.354 N 
ATOM     31  N   UNL A   1      44.916  28.540  30.137  1.00  0.00    -0.248 NA
ATOM     32  C   UNL A   1      46.396  30.051  31.134  1.00  0.00     0.031 C 
ATOM     33  C   UNL A   1      46.011  24.420  28.890  1.00  0.00     0.029 A 
ATOM     34  C   UNL A   1      45.686  25.701  29.303  1.00  0.00     0.049 A 
ATOM     35  H   UNL A   1      43.829  26.700  29.206  1.00  0.00     0.167 HD
ATOM     36  C   UNL A   1      46.160  27.943  30.257  1.00  0.00     0.074 A 
ATOM     37  C   UNL A   1      47.043  28.928  30.852  1.00  0.00     0.031 C 
ATOM     38  C   UNL A   1      46.538  26.688  29.913  1.00  0.00     0.031 A 
BRANCH  25  39
ATOM     39  C   UNL A   1      42.033  23.236  27.476  1.00  0.00    -0.014 A 
ATOM     40  C   UNL A   1      42.188  22.922  26.117  1.00  0.00     0.009 A 
ATOM     41  C   UNL A   1      41.514  22.261  28.343  1.00  0.00     0.009 A 
ATOM     42  C   UNL A   1      41.805  21.667  25.635  1.00  0.00     0.001 A 
ATOM     43  C   UNL A   1      41.153  21.002  27.863  1.00  0.00     0.001 A 
ATOM     44  C   UNL A   1      41.292  20.707  26.507  1.00  0.00     0.000 A 
ENDBRANCH  25  39
BRANCH  26  45
ATOM     45  C   UNL A   1      44.346  32.140  31.374  1.00  0.00    -0.014 A 
ATOM     46  C   UNL A   1      44.228  32.354  32.754  1.00  0.00     0.009 A 
ATOM     47  C   UNL A   1      44.839  33.175  30.561  1.00  0.00     0.009 A 
ATOM     48  C   UNL A   1      44.594  33.582  33.308  1.00  0.00     0.001 A 
ATOM     49  C   UNL A   1      45.229  34.391  31.122  1.00  0.00     0.001 A 
ATOM     50  C   UNL A   1      45.101  34.594  32.495  1.00  0.00     0.000 A 
ENDBRANCH  26  45
BRANCH  38  51
ATOM     51  C   UNL A   1      47.967  26.322  30.179  1.00  0.00    -0.014 A 
ATOM     52  C   UNL A   1      48.366  25.849  31.439  1.00  0.00     0.009 A 
ATOM     53  C   UNL A   1      48.920  26.438  29.157  1.00  0.00     0.009 A 
ATOM     54  C   UNL A   1      49.702  25.530  31.679  1.00  0.00     0.001 A 
ATOM     55  C   UNL A   1      50.252  26.097  29.394  1.00  0.00     0.001 A 
ATOM     56  C   UNL A   1      50.643  25.651  30.656  1.00  0.00     0.000 A 
ENDBRANCH  38  51
ENDBRANCH  12  13
ENDBRANCH   5   7
ENDBRANCH   2   3
ENDBRANCH   1   2
BRANCH   1  57
ATOM     57  C   UNL A   1      31.451  27.572  26.708  1.00  0.00     0.023 C 
BRANCH  57  58
ATOM     58  C   UNL A   1      31.306  26.394  25.754  1.00  0.00     0.116 C 
BRANCH  58  59
ATOM     59  N   UNL A   1      30.870  25.226  26.481  1.00  0.00    -0.354 N 
ATOM     60  C   UNL A   1      30.977  23.909  26.163  1.00  0.00     0.242 C 
ATOM     61  H   UNL A   1      30.427  25.411  27.341  1.00  0.00     0.163 HD
ATOM     62  O   UNL A   1      30.183  23.145  26.727  1.00  0.00    -0.273 OA
BRANCH  60  63
ATOM     63  C   UNL A   1      31.963  23.343  25.111  1.00  0.00     0.176 C 
BRANCH  63  64
ATOM     64  C   UNL A   1      31.775  21.861  24.728  1.00  0.00     0.072 C 
BRANCH  64  65
ATOM     65  C   UNL A   1      32.917  20.896  24.904  1.00  0.00    -0.020 A 
ATOM     66  C   UNL A   1      34.014  21.014  25.739  1.00  0.00     0.087 A 
ATOM     67  C   UNL A   1      33.034  19.604  24.276  1.00  0.00     0.003 A 
ATOM     68  N   UNL A   1      34.820  19.918  25.568  1.00  0.00    -0.361 N 
ATOM     69  C   UNL A   1      34.259  19.055  24.657  1.00  0.00     0.046 A 
ATOM     70  C   UNL A   1      32.234  18.880  23.365  1.00  0.00     0.010 A 
ATOM     71  H   UNL A   1      35.676  19.770  26.031  1.00  0.00     0.166 HD
ATOM     72  C   UNL A   1      34.750  17.854  24.130  1.00  0.00     0.026 A 
ATOM     73  C   UNL A   1      32.705  17.673  22.836  1.00  0.00     0.001 A 
ATOM     74  C   UNL A   1      33.952  17.177  23.204  1.00  0.00     0.002 A 
ENDBRANCH  64  65
ENDBRANCH  63  64
BRANCH  63  75
ATOM     75  N   UNL A   1      32.243  24.229  23.977  1.00  0.00    -0.340 N 
ATOM     76  C   UNL A   1      33.443  24.639  23.451  1.00  0.00     0.254 C 
ATOM     77  H   UNL A   1      31.447  24.586  23.522  1.00  0.00     0.164 HD
ATOM     78  O   UNL A   1      33.450  25.477  22.554  1.00  0.00    -0.269 OA
BRANCH  76  79
ATOM     79  C   UNL A   1      34.715  24.066  23.927  1.00  0.00     0.075 A 
ATOM     80  C   UNL A   1      35.443  23.163  23.138  1.00  0.00     0.020 A 
ATOM     81  C   UNL A   1      35.224  24.471  25.163  1.00  0.00     0.138 A 
ATOM     82  C   UNL A   1      36.632  22.620  23.629  1.00  0.00     0.040 A 
ATOM     83  C   UNL A   1      36.421  23.949  25.643  1.00  0.00     0.079 A 
ATOM     84  F   UNL A   1      34.559  25.350  25.927  1.00  0.00    -0.206 F 
ATOM     85  C   UNL A   1      37.107  23.017  24.876  1.00  0.00     0.126 A 
ATOM     86  F   UNL A   1      38.249  22.493  25.340  1.00  0.00    -0.207 F 
ENDBRANCH  76  79
ENDBRANCH  63  75
ENDBRANCH  60  63
ENDBRANCH  58  59
ENDBRANCH  57  58
ENDBRANCH   1  57
TORSDOF 15
ENDMDL
