MODEL 1
REMARK VINA RESULT:     -12.4      0.000      0.000
REMARK SMILES O=C(NCCCCNC(=O)[C@]1(NC(=O)C2CCN(C(=O)C3CC3)CC2)CCCc2ccccc21)c1ccc(-c2c3nc(c(-c4ccccc4)c4ccc([nH]4)c(-c4ccccc4)c4nc(c(-c5ccccc5)c5ccc2[nH]5)C=C4)C=C3)cc1
REMARK SMILES IDX 6 1 5 2 4 3 3 4 1 5 2 6 35 8 36 9 82 10 37 11 81 12 38 13
REMARK SMILES IDX 39 14 40 15 75 16 41 17 80 18 74 19 76 20 42 21 79 22 73 23
REMARK SMILES IDX 72 24 43 26 65 27 50 28 64 29 51 30 54 31 63 32 77 33 52 34
REMARK SMILES IDX 53 35 62 37 78 38 55 39 44 40 45 41 49 42 46 43 48 44 47 45
REMARK SMILES IDX 66 46 67 47 71 48 68 49 70 50 69 51 56 52 57 53 61 54 58 55
REMARK SMILES IDX 60 56 59 57 7 58 8 59 9 60 10 62 11 63 26 64 34 65 27 66
REMARK SMILES IDX 29 67 33 68 28 69 30 70 32 71 31 72 12 73 13 74 14 76 15 77
REMARK SMILES IDX 16 78 25 79 17 80 24 81 18 82 19 83 20 84 21 85 22 86 23 87
REMARK H PARENT 3 7 76 25 54 36 8 61 12 75
REMARK Flexibility Score: inf
ROOT
ATOM      1  C   UNL A   1      36.249  20.607  24.950  1.00  0.00     0.023 C 
ENDROOT
BRANCH   1   2
ATOM      2  C   UNL A   1      37.708  20.307  24.609  1.00  0.00     0.023 C 
BRANCH   2   3
ATOM      3  C   UNL A   1      38.685  20.433  25.774  1.00  0.00     0.116 C 
BRANCH   3   4
ATOM      4  N   UNL A   1      39.754  19.449  25.736  1.00  0.00    -0.352 N 
ATOM      5  O   UNL A   1      41.899  18.739  25.852  1.00  0.00    -0.269 OA
ATOM      6  C   UNL A   1      41.082  19.626  26.052  1.00  0.00     0.251 C 
ATOM      7  H   UNL A   1      39.497  18.543  25.447  1.00  0.00     0.163 HD
BRANCH   6   8
ATOM      8  C   UNL A   1      41.509  20.928  26.601  1.00  0.00     0.039 A 
ATOM      9  C   UNL A   1      41.378  21.193  27.967  1.00  0.00     0.014 A 
ATOM     10  C   UNL A   1      41.997  21.903  25.728  1.00  0.00     0.014 A 
ATOM     11  C   UNL A   1      41.621  22.477  28.440  1.00  0.00     0.010 A 
ATOM     12  C   UNL A   1      42.310  23.172  26.220  1.00  0.00     0.010 A 
ATOM     13  C   UNL A   1      42.100  23.476  27.575  1.00  0.00    -0.014 A 
BRANCH  13  14
ATOM     14  C   UNL A   1      42.459  24.806  28.121  1.00  0.00     0.031 A 
ATOM     15  C   UNL A   1      43.870  25.139  28.517  1.00  0.00     0.074 A 
ATOM     16  C   UNL A   1      41.481  25.723  28.259  1.00  0.00     0.049 A 
ATOM     17  N   UNL A   1      44.340  26.253  29.018  1.00  0.00    -0.248 NA
ATOM     18  C   UNL A   1      44.885  24.088  28.336  1.00  0.00     0.031 C 
ATOM     19  C   UNL A   1      40.071  25.511  27.917  1.00  0.00     0.029 A 
ATOM     20  N   UNL A   1      41.523  27.016  28.710  1.00  0.00    -0.354 N 
ATOM     21  C   UNL A   1      45.695  26.035  29.230  1.00  0.00     0.074 A 
ATOM     22  C   UNL A   1      45.973  24.675  28.819  1.00  0.00     0.031 C 
ATOM     23  C   UNL A   1      39.391  26.644  28.137  1.00  0.00     0.029 A 
ATOM     24  C   UNL A   1      40.301  27.640  28.687  1.00  0.00     0.049 A 
ATOM     25  H   UNL A   1      42.349  27.454  29.020  1.00  0.00     0.167 HD
ATOM     26  C   UNL A   1      46.621  26.894  29.721  1.00  0.00     0.031 A 
ATOM     27  C   UNL A   1      39.943  28.875  29.085  1.00  0.00     0.031 A 
ATOM     28  C   UNL A   1      46.343  28.250  30.119  1.00  0.00     0.049 A 
ATOM     29  C   UNL A   1      40.988  29.791  29.646  1.00  0.00     0.074 A 
ATOM     30  C   UNL A   1      47.227  29.209  30.583  1.00  0.00     0.029 A 
ATOM     31  N   UNL A   1      45.088  28.837  30.105  1.00  0.00    -0.354 N 
ATOM     32  N   UNL A   1      42.272  29.582  29.798  1.00  0.00    -0.248 NA
ATOM     33  C   UNL A   1      40.531  31.115  30.091  1.00  0.00     0.031 C 
ATOM     34  C   UNL A   1      46.498  30.362  30.897  1.00  0.00     0.029 A 
ATOM     35  C   UNL A   1      45.169  30.136  30.580  1.00  0.00     0.049 A 
ATOM     36  H   UNL A   1      44.262  28.396  29.802  1.00  0.00     0.167 HD
ATOM     37  C   UNL A   1      42.781  30.752  30.344  1.00  0.00     0.074 A 
ATOM     38  C   UNL A   1      41.671  31.674  30.473  1.00  0.00     0.031 C 
ATOM     39  C   UNL A   1      44.054  31.035  30.710  1.00  0.00     0.031 A 
BRANCH  26  40
ATOM     40  C   UNL A   1      48.031  26.396  29.878  1.00  0.00    -0.014 A 
ATOM     41  C   UNL A   1      48.461  25.793  31.069  1.00  0.00     0.009 A 
ATOM     42  C   UNL A   1      48.913  26.454  28.786  1.00  0.00     0.009 A 
ATOM     43  C   UNL A   1      49.755  25.272  31.169  1.00  0.00     0.001 A 
ATOM     44  C   UNL A   1      50.197  25.914  28.883  1.00  0.00     0.001 A 
ATOM     45  C   UNL A   1      50.618  25.327  30.076  1.00  0.00     0.000 A 
ENDBRANCH  26  40
BRANCH  27  46
ATOM     46  C   UNL A   1      38.525  29.300  28.985  1.00  0.00    -0.014 A 
ATOM     47  C   UNL A   1      37.681  29.248  30.104  1.00  0.00     0.009 A 
ATOM     48  C   UNL A   1      38.010  29.766  27.765  1.00  0.00     0.009 A 
ATOM     49  C   UNL A   1      36.343  29.632  29.997  1.00  0.00     0.001 A 
ATOM     50  C   UNL A   1      36.680  30.177  27.668  1.00  0.00     0.001 A 
ATOM     51  C   UNL A   1      35.845  30.101  28.781  1.00  0.00     0.000 A 
ENDBRANCH  27  46
BRANCH  39  52
ATOM     52  C   UNL A   1      44.308  32.406  31.267  1.00  0.00    -0.014 A 
ATOM     53  C   UNL A   1      44.648  33.476  30.426  1.00  0.00     0.009 A 
ATOM     54  C   UNL A   1      44.190  32.629  32.647  1.00  0.00     0.009 A 
ATOM     55  C   UNL A   1      44.900  34.739  30.962  1.00  0.00     0.001 A 
ATOM     56  C   UNL A   1      44.416  33.900  33.177  1.00  0.00     0.001 A 
ATOM     57  C   UNL A   1      44.780  34.952  32.336  1.00  0.00     0.000 A 
ENDBRANCH  39  52
ENDBRANCH  13  14
ENDBRANCH   6   8
ENDBRANCH   3   4
ENDBRANCH   2   3
ENDBRANCH   1   2
BRANCH   1  58
ATOM     58  C   UNL A   1      35.954  22.087  25.149  1.00  0.00     0.116 C 
BRANCH  58  59
ATOM     59  N   UNL A   1      35.571  22.399  26.531  1.00  0.00    -0.354 N 
ATOM     60  C   UNL A   1      34.444  23.032  27.029  1.00  0.00     0.250 C 
ATOM     61  H   UNL A   1      36.220  22.114  27.214  1.00  0.00     0.163 HD
ATOM     62  O   UNL A   1      34.289  23.028  28.252  1.00  0.00    -0.272 OA
BRANCH  60  63
ATOM     63  C   UNL A   1      33.497  23.789  26.055  1.00  0.00     0.145 C 
ATOM     64  C   UNL A   1      32.076  23.711  26.736  1.00  0.00     0.044 C 
ATOM     65  C   UNL A   1      33.293  23.198  24.628  1.00  0.00    -0.010 A 
ATOM     66  C   UNL A   1      31.548  22.278  26.752  1.00  0.00     0.008 C 
ATOM     67  C   UNL A   1      32.183  22.362  24.317  1.00  0.00    -0.042 A 
ATOM     68  C   UNL A   1      34.108  23.584  23.546  1.00  0.00     0.007 A 
ATOM     69  C   UNL A   1      31.191  21.870  25.343  1.00  0.00     0.036 C 
ATOM     70  C   UNL A   1      31.890  22.018  22.982  1.00  0.00     0.004 A 
ATOM     71  C   UNL A   1      33.804  23.234  22.224  1.00  0.00     0.000 A 
ATOM     72  C   UNL A   1      32.684  22.467  21.939  1.00  0.00     0.000 A 
BRANCH  63  73
ATOM     73  N   UNL A   1      33.945  25.215  25.994  1.00  0.00    -0.338 N 
ATOM     74  C   UNL A   1      33.307  26.421  26.097  1.00  0.00     0.224 C 
ATOM     75  H   UNL A   1      34.914  25.306  25.849  1.00  0.00     0.164 HD
ATOM     76  O   UNL A   1      34.042  27.397  26.275  1.00  0.00    -0.275 OA
BRANCH  74  77
ATOM     77  C   UNL A   1      31.779  26.615  25.946  1.00  0.00     0.082 C 
ATOM     78  C   UNL A   1      31.260  26.376  24.523  1.00  0.00     0.035 C 
ATOM     79  C   UNL A   1      31.342  28.051  26.356  1.00  0.00     0.035 C 
ATOM     80  C   UNL A   1      31.763  27.442  23.560  1.00  0.00     0.120 C 
ATOM     81  C   UNL A   1      31.610  29.137  25.287  1.00  0.00     0.120 C 
ATOM     82  N   UNL A   1      31.168  28.707  23.958  1.00  0.00    -0.342 N 
ATOM     83  C   UNL A   1      30.234  29.258  23.079  1.00  0.00     0.225 C 
ATOM     84  O   UNL A   1      30.042  28.746  21.973  1.00  0.00    -0.275 OA
BRANCH  83  85
ATOM     85  C   UNL A   1      29.381  30.446  23.368  1.00  0.00     0.079 C 
ATOM     86  C   UNL A   1      28.706  31.340  22.370  1.00  0.00     0.014 C 
ATOM     87  C   UNL A   1      27.883  30.460  23.279  1.00  0.00     0.014 C 
ENDBRANCH  83  85
ENDBRANCH  74  77
ENDBRANCH  63  73
ENDBRANCH  60  63
ENDBRANCH  58  59
ENDBRANCH   1  58
TORSDOF 14
ENDMDL
MODEL 2
REMARK VINA RESULT:     -12.3      0.838      5.681
REMARK SMILES O=C(NCCCCNC(=O)[C@]1(NC(=O)C2CCN(C(=O)C3CC3)CC2)CCCc2ccccc21)c1ccc(-c2c3nc(c(-c4ccccc4)c4ccc([nH]4)c(-c4ccccc4)c4nc(c(-c5ccccc5)c5ccc2[nH]5)C=C4)C=C3)cc1
REMARK SMILES IDX 6 1 5 2 4 3 3 4 1 5 2 6 35 8 36 9 82 10 37 11 81 12 38 13
REMARK SMILES IDX 39 14 40 15 75 16 41 17 80 18 74 19 76 20 42 21 79 22 73 23
REMARK SMILES IDX 72 24 43 26 65 27 50 28 64 29 51 30 54 31 63 32 77 33 52 34
REMARK SMILES IDX 53 35 62 37 78 38 55 39 44 40 45 41 49 42 46 43 48 44 47 45
REMARK SMILES IDX 66 46 67 47 71 48 68 49 70 50 69 51 56 52 57 53 61 54 58 55
REMARK SMILES IDX 60 56 59 57 7 58 8 59 9 60 10 62 11 63 26 64 34 65 27 66
REMARK SMILES IDX 29 67 33 68 28 69 30 70 32 71 31 72 12 73 13 74 14 76 15 77
REMARK SMILES IDX 16 78 25 79 17 80 24 81 18 82 19 83 20 84 21 85 22 86 23 87
REMARK H PARENT 3 7 76 25 54 36 8 61 12 75
REMARK Flexibility Score: inf
ROOT
ATOM      1  C   UNL A   1      36.382  20.132  25.005  1.00  0.00     0.023 C 
ENDROOT
BRANCH   1   2
ATOM      2  C   UNL A   1      37.847  19.957  24.608  1.00  0.00     0.023 C 
BRANCH   2   3
ATOM      3  C   UNL A   1      38.855  20.180  25.731  1.00  0.00     0.116 C 
BRANCH   3   4
ATOM      4  N   UNL A   1      39.917  19.188  25.755  1.00  0.00    -0.352 N 
ATOM      5  O   UNL A   1      42.055  18.470  25.938  1.00  0.00    -0.269 OA
ATOM      6  C   UNL A   1      41.242  19.371  26.083  1.00  0.00     0.251 C 
ATOM      7  H   UNL A   1      39.657  18.272  25.505  1.00  0.00     0.163 HD
BRANCH   6   8
ATOM      8  C   UNL A   1      41.670  20.694  26.577  1.00  0.00     0.039 A 
ATOM      9  C   UNL A   1      41.600  20.993  27.941  1.00  0.00     0.014 A 
ATOM     10  C   UNL A   1      42.098  21.654  25.657  1.00  0.00     0.014 A 
ATOM     11  C   UNL A   1      41.841  22.293  28.368  1.00  0.00     0.010 A 
ATOM     12  C   UNL A   1      42.410  22.941  26.101  1.00  0.00     0.010 A 
ATOM     13  C   UNL A   1      42.259  23.277  27.455  1.00  0.00    -0.014 A 
BRANCH  13  14
ATOM     14  C   UNL A   1      42.619  24.627  27.949  1.00  0.00     0.031 A 
ATOM     15  C   UNL A   1      41.574  25.677  28.199  1.00  0.00     0.074 A 
ATOM     16  C   UNL A   1      43.921  24.898  28.170  1.00  0.00     0.049 A 
ATOM     17  N   UNL A   1      41.731  26.907  28.621  1.00  0.00    -0.248 NA
ATOM     18  C   UNL A   1      40.173  25.308  27.937  1.00  0.00     0.031 C 
ATOM     19  C   UNL A   1      45.027  23.961  27.954  1.00  0.00     0.029 A 
ATOM     20  N   UNL A   1      44.533  26.033  28.635  1.00  0.00    -0.354 N 
ATOM     21  C   UNL A   1      40.459  27.464  28.658  1.00  0.00     0.074 A 
ATOM     22  C   UNL A   1      39.539  26.444  28.199  1.00  0.00     0.031 C 
ATOM     23  C   UNL A   1      46.175  24.546  28.318  1.00  0.00     0.029 A 
ATOM     24  C   UNL A   1      45.896  25.913  28.738  1.00  0.00     0.049 A 
ATOM     25  H   UNL A   1      44.042  26.854  28.872  1.00  0.00     0.167 HD
ATOM     26  C   UNL A   1      40.095  28.711  29.042  1.00  0.00     0.031 A 
ATOM     27  C   UNL A   1      46.826  26.811  29.109  1.00  0.00     0.031 A 
ATOM     28  C   UNL A   1      41.012  29.720  29.507  1.00  0.00     0.049 A 
ATOM     29  C   UNL A   1      46.392  28.190  29.505  1.00  0.00     0.074 A 
ATOM     30  C   UNL A   1      40.730  30.996  29.962  1.00  0.00     0.029 A 
ATOM     31  N   UNL A   1      42.388  29.568  29.572  1.00  0.00    -0.354 N 
ATOM     32  N   UNL A   1      45.181  28.684  29.575  1.00  0.00    -0.248 NA
ATOM     33  C   UNL A   1      47.456  29.134  29.872  1.00  0.00     0.031 C 
ATOM     34  C   UNL A   1      41.940  31.635  30.257  1.00  0.00     0.029 A 
ATOM     35  C   UNL A   1      42.971  30.738  30.032  1.00  0.00     0.049 A 
ATOM     36  H   UNL A   1      42.879  28.750  29.328  1.00  0.00     0.167 HD
ATOM     37  C   UNL A   1      45.334  29.993  30.007  1.00  0.00     0.074 A 
ATOM     38  C   UNL A   1      46.753  30.208  30.205  1.00  0.00     0.031 C 
ATOM     39  C   UNL A   1      44.384  30.936  30.215  1.00  0.00     0.031 A 
BRANCH  26  40
ATOM     40  C   UNL A   1      38.639  29.076  28.961  1.00  0.00    -0.014 A 
ATOM     41  C   UNL A   1      37.792  28.941  30.070  1.00  0.00     0.009 A 
ATOM     42  C   UNL A   1      38.131  29.643  27.781  1.00  0.00     0.009 A 
ATOM     43  C   UNL A   1      36.458  29.352  29.994  1.00  0.00     0.001 A 
ATOM     44  C   UNL A   1      36.804  30.073  27.714  1.00  0.00     0.001 A 
ATOM     45  C   UNL A   1      35.967  29.923  28.820  1.00  0.00     0.000 A 
ENDBRANCH  26  40
BRANCH  27  46
ATOM     46  C   UNL A   1      48.261  26.433  29.100  1.00  0.00    -0.014 A 
ATOM     47  C   UNL A   1      48.874  25.921  30.253  1.00  0.00     0.009 A 
ATOM     48  C   UNL A   1      49.024  26.579  27.931  1.00  0.00     0.009 A 
ATOM     49  C   UNL A   1      50.230  25.586  30.241  1.00  0.00     0.001 A 
ATOM     50  C   UNL A   1      50.371  26.215  27.914  1.00  0.00     0.001 A 
ATOM     51  C   UNL A   1      50.975  25.729  29.071  1.00  0.00     0.000 A 
ENDBRANCH  27  46
BRANCH  39  52
ATOM     52  C   UNL A   1      44.856  32.276  30.700  1.00  0.00    -0.014 A 
ATOM     53  C   UNL A   1      45.179  33.299  29.797  1.00  0.00     0.009 A 
ATOM     54  C   UNL A   1      44.963  32.519  32.078  1.00  0.00     0.009 A 
ATOM     55  C   UNL A   1      45.634  34.532  30.264  1.00  0.00     0.001 A 
ATOM     56  C   UNL A   1      45.393  33.762  32.543  1.00  0.00     0.001 A 
ATOM     57  C   UNL A   1      45.738  34.765  31.636  1.00  0.00     0.000 A 
ENDBRANCH  39  52
ENDBRANCH  13  14
ENDBRANCH   6   8
ENDBRANCH   3   4
ENDBRANCH   2   3
ENDBRANCH   1   2
BRANCH   1  58
ATOM     58  C   UNL A   1      35.794  21.481  24.615  1.00  0.00     0.116 C 
BRANCH  58  59
ATOM     59  N   UNL A   1      36.428  22.595  25.330  1.00  0.00    -0.354 N 
ATOM     60  C   UNL A   1      35.897  23.795  25.775  1.00  0.00     0.250 C 
ATOM     61  H   UNL A   1      37.385  22.470  25.524  1.00  0.00     0.163 HD
ATOM     62  O   UNL A   1      36.611  24.495  26.495  1.00  0.00    -0.272 OA
BRANCH  60  63
ATOM     63  C   UNL A   1      34.493  24.241  25.277  1.00  0.00     0.145 C 
ATOM     64  C   UNL A   1      33.576  24.184  26.559  1.00  0.00     0.044 C 
ATOM     65  C   UNL A   1      33.772  23.348  24.224  1.00  0.00    -0.010 A 
ATOM     66  C   UNL A   1      33.378  22.744  27.032  1.00  0.00     0.008 C 
ATOM     67  C   UNL A   1      32.810  22.370  24.608  1.00  0.00    -0.042 A 
ATOM     68  C   UNL A   1      33.922  23.568  22.842  1.00  0.00     0.007 A 
ATOM     69  C   UNL A   1      32.499  22.019  26.043  1.00  0.00     0.036 C 
ATOM     70  C   UNL A   1      32.009  21.727  23.643  1.00  0.00     0.004 A 
ATOM     71  C   UNL A   1      33.118  22.922  21.894  1.00  0.00     0.000 A 
ATOM     72  C   UNL A   1      32.148  22.016  22.295  1.00  0.00     0.000 A 
BRANCH  63  73
ATOM     73  N   UNL A   1      34.603  25.658  24.805  1.00  0.00    -0.338 N 
ATOM     74  C   UNL A   1      33.718  26.693  24.682  1.00  0.00     0.224 C 
ATOM     75  H   UNL A   1      35.514  25.896  24.520  1.00  0.00     0.164 HD
ATOM     76  O   UNL A   1      34.224  27.807  24.515  1.00  0.00    -0.275 OA
BRANCH  74  77
ATOM     77  C   UNL A   1      32.178  26.532  24.683  1.00  0.00     0.082 C 
ATOM     78  C   UNL A   1      31.552  26.552  23.283  1.00  0.00     0.035 C 
ATOM     79  C   UNL A   1      31.486  27.653  25.509  1.00  0.00     0.035 C 
ATOM     80  C   UNL A   1      31.679  27.924  22.636  1.00  0.00     0.120 C 
ATOM     81  C   UNL A   1      31.367  29.012  24.780  1.00  0.00     0.120 C 
ATOM     82  N   UNL A   1      30.870  28.849  23.411  1.00  0.00    -0.342 N 
ATOM     83  C   UNL A   1      29.733  29.360  22.781  1.00  0.00     0.225 C 
ATOM     84  O   UNL A   1      29.523  29.124  21.589  1.00  0.00    -0.275 OA
BRANCH  83  85
ATOM     85  C   UNL A   1      28.679  30.177  23.446  1.00  0.00     0.079 C 
ATOM     86  C   UNL A   1      28.733  31.643  23.760  1.00  0.00     0.014 C 
ATOM     87  C   UNL A   1      27.758  31.123  22.732  1.00  0.00     0.014 C 
ENDBRANCH  83  85
ENDBRANCH  74  77
ENDBRANCH  63  73
ENDBRANCH  60  63
ENDBRANCH  58  59
ENDBRANCH   1  58
TORSDOF 14
ENDMDL
MODEL 3
REMARK VINA RESULT:     -12.2      3.339      8.874
REMARK SMILES O=C(NCCCCNC(=O)[C@]1(NC(=O)C2CCN(C(=O)C3CC3)CC2)CCCc2ccccc21)c1ccc(-c2c3nc(c(-c4ccccc4)c4ccc([nH]4)c(-c4ccccc4)c4nc(c(-c5ccccc5)c5ccc2[nH]5)C=C4)C=C3)cc1
REMARK SMILES IDX 6 1 5 2 4 3 3 4 1 5 2 6 35 8 36 9 82 10 37 11 81 12 38 13
REMARK SMILES IDX 39 14 40 15 75 16 41 17 80 18 74 19 76 20 42 21 79 22 73 23
REMARK SMILES IDX 72 24 43 26 65 27 50 28 64 29 51 30 54 31 63 32 77 33 52 34
REMARK SMILES IDX 53 35 62 37 78 38 55 39 44 40 45 41 49 42 46 43 48 44 47 45
REMARK SMILES IDX 66 46 67 47 71 48 68 49 70 50 69 51 56 52 57 53 61 54 58 55
REMARK SMILES IDX 60 56 59 57 7 58 8 59 9 60 10 62 11 63 26 64 34 65 27 66
REMARK SMILES IDX 29 67 33 68 28 69 30 70 32 71 31 72 12 73 13 74 14 76 15 77
REMARK SMILES IDX 16 78 25 79 17 80 24 81 18 82 19 83 20 84 21 85 22 86 23 87
REMARK H PARENT 3 7 76 25 54 36 8 61 12 75
REMARK Flexibility Score: inf
ROOT
ATOM      1  C   UNL A   1      31.288  30.670  25.478  1.00  0.00     0.023 C 
ENDROOT
BRANCH   1   2
ATOM      2  C   UNL A   1      31.158  31.793  26.507  1.00  0.00     0.023 C 
BRANCH   2   3
ATOM      3  C   UNL A   1      32.468  32.470  26.897  1.00  0.00     0.116 C 
BRANCH   3   4
ATOM      4  N   UNL A   1      32.288  33.824  27.396  1.00  0.00    -0.352 N 
ATOM      5  O   UNL A   1      32.710  35.589  28.746  1.00  0.00    -0.269 OA
ATOM      6  C   UNL A   1      33.052  34.494  28.324  1.00  0.00     0.251 C 
ATOM      7  H   UNL A   1      31.525  34.323  27.024  1.00  0.00     0.163 HD
BRANCH   6   8
ATOM      8  C   UNL A   1      34.276  33.844  28.833  1.00  0.00     0.039 A 
ATOM      9  C   UNL A   1      34.198  32.910  29.869  1.00  0.00     0.014 A 
ATOM     10  C   UNL A   1      35.511  34.213  28.295  1.00  0.00     0.014 A 
ATOM     11  C   UNL A   1      35.368  32.437  30.452  1.00  0.00     0.010 A 
ATOM     12  C   UNL A   1      36.683  33.680  28.835  1.00  0.00     0.010 A 
ATOM     13  C   UNL A   1      36.621  32.808  29.934  1.00  0.00    -0.014 A 
BRANCH  13  14
ATOM     14  C   UNL A   1      37.853  32.205  30.497  1.00  0.00     0.031 A 
ATOM     15  C   UNL A   1      38.452  30.955  29.918  1.00  0.00     0.074 A 
ATOM     16  C   UNL A   1      38.430  32.808  31.555  1.00  0.00     0.049 A 
ATOM     17  N   UNL A   1      39.519  30.302  30.305  1.00  0.00    -0.248 NA
ATOM     18  C   UNL A   1      37.767  30.353  28.762  1.00  0.00     0.031 C 
ATOM     19  C   UNL A   1      37.933  34.022  32.209  1.00  0.00     0.029 A 
ATOM     20  N   UNL A   1      39.564  32.492  32.257  1.00  0.00    -0.354 N 
ATOM     21  C   UNL A   1      39.623  29.206  29.458  1.00  0.00     0.074 A 
ATOM     22  C   UNL A   1      38.503  29.270  28.544  1.00  0.00     0.031 C 
ATOM     23  C   UNL A   1      38.775  34.367  33.192  1.00  0.00     0.029 A 
ATOM     24  C   UNL A   1      39.836  33.371  33.276  1.00  0.00     0.049 A 
ATOM     25  H   UNL A   1      40.127  31.711  32.051  1.00  0.00     0.167 HD
ATOM     26  C   UNL A   1      40.572  28.237  29.444  1.00  0.00     0.031 A 
ATOM     27  C   UNL A   1      40.820  33.367  34.193  1.00  0.00     0.031 A 
ATOM     28  C   UNL A   1      41.691  28.182  30.349  1.00  0.00     0.049 A 
ATOM     29  C   UNL A   1      41.839  32.268  34.165  1.00  0.00     0.074 A 
ATOM     30  C   UNL A   1      42.728  27.265  30.381  1.00  0.00     0.029 A 
ATOM     31  N   UNL A   1      41.918  29.076  31.382  1.00  0.00    -0.354 N 
ATOM     32  N   UNL A   1      41.946  31.265  33.329  1.00  0.00    -0.248 NA
ATOM     33  C   UNL A   1      42.871  32.302  35.210  1.00  0.00     0.031 C 
ATOM     34  C   UNL A   1      43.556  27.576  31.464  1.00  0.00     0.029 A 
ATOM     35  C   UNL A   1      43.062  28.716  32.077  1.00  0.00     0.049 A 
ATOM     36  H   UNL A   1      41.350  29.853  31.593  1.00  0.00     0.167 HD
ATOM     37  C   UNL A   1      43.066  30.555  33.738  1.00  0.00     0.074 A 
ATOM     38  C   UNL A   1      43.615  31.255  34.880  1.00  0.00     0.031 C 
ATOM     39  C   UNL A   1      43.589  29.419  33.215  1.00  0.00     0.031 A 
BRANCH  26  40
ATOM     40  C   UNL A   1      40.438  27.136  28.430  1.00  0.00    -0.014 A 
ATOM     41  C   UNL A   1      39.705  25.973  28.710  1.00  0.00     0.009 A 
ATOM     42  C   UNL A   1      40.984  27.304  27.147  1.00  0.00     0.009 A 
ATOM     43  C   UNL A   1      39.534  24.993  27.729  1.00  0.00     0.001 A 
ATOM     44  C   UNL A   1      40.794  26.333  26.162  1.00  0.00     0.001 A 
ATOM     45  C   UNL A   1      40.072  25.176  26.455  1.00  0.00     0.000 A 
ENDBRANCH  26  40
BRANCH  27  46
ATOM     46  C   UNL A   1      40.870  34.431  35.225  1.00  0.00    -0.014 A 
ATOM     47  C   UNL A   1      41.614  35.602  35.013  1.00  0.00     0.009 A 
ATOM     48  C   UNL A   1      40.166  34.281  36.431  1.00  0.00     0.009 A 
ATOM     49  C   UNL A   1      41.671  36.590  35.998  1.00  0.00     0.001 A 
ATOM     50  C   UNL A   1      40.200  35.284  37.401  1.00  0.00     0.001 A 
ATOM     51  C   UNL A   1      40.960  36.432  37.188  1.00  0.00     0.000 A 
ENDBRANCH  27  46
BRANCH  39  52
ATOM     52  C   UNL A   1      44.828  28.883  33.870  1.00  0.00    -0.014 A 
ATOM     53  C   UNL A   1      46.102  29.305  33.462  1.00  0.00     0.009 A 
ATOM     54  C   UNL A   1      44.716  27.955  34.917  1.00  0.00     0.009 A 
ATOM     55  C   UNL A   1      47.244  28.781  34.069  1.00  0.00     0.001 A 
ATOM     56  C   UNL A   1      45.860  27.454  35.540  1.00  0.00     0.001 A 
ATOM     57  C   UNL A   1      47.123  27.860  35.109  1.00  0.00     0.000 A 
ENDBRANCH  39  52
ENDBRANCH  13  14
ENDBRANCH   6   8
ENDBRANCH   3   4
ENDBRANCH   2   3
ENDBRANCH   1   2
BRANCH   1  58
ATOM     58  C   UNL A   1      31.516  29.295  26.091  1.00  0.00     0.116 C 
BRANCH  58  59
ATOM     59  N   UNL A   1      32.901  29.105  26.536  1.00  0.00    -0.354 N 
ATOM     60  C   UNL A   1      33.821  28.120  26.213  1.00  0.00     0.250 C 
ATOM     61  H   UNL A   1      33.230  29.786  27.166  1.00  0.00     0.163 HD
ATOM     62  O   UNL A   1      34.979  28.280  26.604  1.00  0.00    -0.272 OA
BRANCH  60  63
ATOM     63  C   UNL A   1      33.342  26.838  25.474  1.00  0.00     0.145 C 
ATOM     64  C   UNL A   1      34.088  26.874  24.085  1.00  0.00     0.044 C 
ATOM     65  C   UNL A   1      31.830  26.722  25.117  1.00  0.00    -0.010 A 
ATOM     66  C   UNL A   1      33.588  28.029  23.218  1.00  0.00     0.008 C 
ATOM     67  C   UNL A   1      31.336  27.084  23.832  1.00  0.00    -0.042 A 
ATOM     68  C   UNL A   1      30.909  26.113  25.992  1.00  0.00     0.007 A 
ATOM     69  C   UNL A   1      32.183  27.725  22.758  1.00  0.00     0.036 C 
ATOM     70  C   UNL A   1      30.016  26.769  23.450  1.00  0.00     0.004 A 
ATOM     71  C   UNL A   1      29.601  25.805  25.598  1.00  0.00     0.000 A 
ATOM     72  C   UNL A   1      29.159  26.116  24.321  1.00  0.00     0.000 A 
BRANCH  63  73
ATOM     73  N   UNL A   1      33.808  25.654  26.261  1.00  0.00    -0.338 N 
ATOM     74  C   UNL A   1      34.017  24.335  25.965  1.00  0.00     0.224 C 
ATOM     75  H   UNL A   1      34.009  25.873  27.199  1.00  0.00     0.164 HD
ATOM     76  O   UNL A   1      34.672  23.701  26.799  1.00  0.00    -0.275 OA
BRANCH  74  77
ATOM     77  C   UNL A   1      33.445  23.617  24.719  1.00  0.00     0.082 C 
ATOM     78  C   UNL A   1      32.245  22.711  25.021  1.00  0.00     0.035 C 
ATOM     79  C   UNL A   1      34.521  22.735  24.023  1.00  0.00     0.035 C 
ATOM     80  C   UNL A   1      32.654  21.508  25.860  1.00  0.00     0.120 C 
ATOM     81  C   UNL A   1      34.786  21.376  24.713  1.00  0.00     0.120 C 
ATOM     82  N   UNL A   1      33.536  20.688  25.048  1.00  0.00    -0.342 N 
ATOM     83  C   UNL A   1      33.041  19.443  24.655  1.00  0.00     0.225 C 
ATOM     84  O   UNL A   1      31.963  19.034  25.095  1.00  0.00    -0.275 OA
BRANCH  83  85
ATOM     85  C   UNL A   1      33.701  18.525  23.683  1.00  0.00     0.079 C 
ATOM     86  C   UNL A   1      34.361  17.212  23.984  1.00  0.00     0.014 C 
ATOM     87  C   UNL A   1      33.094  17.255  23.164  1.00  0.00     0.014 C 
ENDBRANCH  83  85
ENDBRANCH  74  77
ENDBRANCH  63  73
ENDBRANCH  60  63
ENDBRANCH  58  59
ENDBRANCH   1  58
TORSDOF 14
ENDMDL
