MODEL 1
REMARK VINA RESULT:     -10.9      0.000      0.000
REMARK SMILES COc1ccccc1CC(=O)NC[C@H]1CC[C@H](C(=O)NCCCCNC(=O)c2ccc(-c3c4nc(c(-c5ccccc5)c5ccc([nH]5)c(-c5ccccc5)c5nc(c(-c6ccccc6)c6ccc3[nH]6)C=C5)C=C4)cc2)O1
REMARK SMILES IDX 21 1 20 2 18 3 19 4 17 6 14 7 15 8 76 9 16 10 13 11 12 12
REMARK SMILES IDX 10 13 11 14 9 16 8 17 3 18 4 19 5 20 7 21 6 22 2 23 1 24
REMARK SMILES IDX 22 25 23 26 24 27 25 28 26 29 27 31 28 32 29 33 75 34 30 35
REMARK SMILES IDX 74 36 31 37 32 38 33 39 68 40 34 41 73 42 67 43 69 44 35 45
REMARK SMILES IDX 72 46 66 47 65 48 36 50 58 51 43 52 57 53 44 54 47 55 56 56
REMARK SMILES IDX 70 57 45 58 46 59 55 61 71 62 48 63 37 64 38 65 42 66 39 67
REMARK SMILES IDX 41 68 40 69 59 70 60 71 64 72 61 73 63 74 62 75 49 76 50 77
REMARK SMILES IDX 54 78 51 79 53 80 52 81
REMARK H PARENT 20 5 12 15 25 30 69 49 47 60
REMARK Flexibility Score: inf
ROOT
ATOM      1  C   UNL A   1      32.656  29.797  25.911  1.00  0.00     0.116 C 
ENDROOT
BRANCH   1   2
ATOM      2  N   UNL A   1      33.321  29.755  24.628  1.00  0.00    -0.354 N 
ATOM      3  C   UNL A   1      33.391  28.739  23.720  1.00  0.00     0.249 C 
ATOM      4  O   UNL A   1      34.039  28.949  22.689  1.00  0.00    -0.272 OA
ATOM      5  H   UNL A   1      33.793  30.580  24.373  1.00  0.00     0.163 HD
BRANCH   3   6
ATOM      6  C   UNL A   1      32.767  27.349  23.991  1.00  0.00     0.207 C 
ATOM      7  C   UNL A   1      31.128  26.562  25.480  1.00  0.00     0.138 C 
ATOM      8  C   UNL A   1      32.470  26.302  26.137  1.00  0.00     0.037 C 
ATOM      9  O   UNL A   1      31.376  27.319  24.291  1.00  0.00    -0.363 OA
ATOM     10  C   UNL A   1      33.503  26.587  25.078  1.00  0.00     0.045 C 
BRANCH   7  11
ATOM     11  C   UNL A   1      30.320  25.292  25.160  1.00  0.00     0.147 C 
BRANCH  11  12
ATOM     12  N   UNL A   1      29.938  24.601  26.390  1.00  0.00    -0.353 N 
ATOM     13  C   UNL A   1      30.101  23.296  26.748  1.00  0.00     0.224 C 
ATOM     14  O   UNL A   1      29.574  22.909  27.795  1.00  0.00    -0.275 OA
ATOM     15  H   UNL A   1      29.495  25.165  27.065  1.00  0.00     0.163 HD
BRANCH  13  16
ATOM     16  C   UNL A   1      30.953  22.373  25.905  1.00  0.00     0.139 C 
BRANCH  16  17
ATOM     17  C   UNL A   1      32.434  22.630  26.010  1.00  0.00     0.003 A 
ATOM     18  C   UNL A   1      33.232  22.850  24.879  1.00  0.00     0.122 A 
ATOM     19  C   UNL A   1      34.615  23.016  24.998  1.00  0.00     0.047 A 
ATOM     20  C   UNL A   1      35.214  22.998  26.256  1.00  0.00     0.004 A 
ATOM     21  C   UNL A   1      33.050  22.649  27.274  1.00  0.00     0.008 A 
ATOM     22  C   UNL A   1      34.431  22.823  27.394  1.00  0.00     0.001 A 
BRANCH  18  23
ATOM     23  O   UNL A   1      32.715  22.770  23.611  1.00  0.00    -0.496 OA
ATOM     24  C   UNL A   1      33.523  23.499  22.686  1.00  0.00     0.278 C 
ENDBRANCH  18  23
ENDBRANCH  16  17
ENDBRANCH  13  16
ENDBRANCH  11  12
ENDBRANCH   7  11
ENDBRANCH   3   6
ENDBRANCH   1   2
BRANCH   1  25
ATOM     25  C   UNL A   1      31.292  30.477  25.811  1.00  0.00     0.023 C 
BRANCH  25  26
ATOM     26  C   UNL A   1      31.308  31.964  26.165  1.00  0.00     0.023 C 
BRANCH  26  27
ATOM     27  C   UNL A   1      32.412  32.379  27.131  1.00  0.00     0.116 C 
BRANCH  27  28
ATOM     28  N   UNL A   1      32.306  33.754  27.591  1.00  0.00    -0.352 N 
ATOM     29  C   UNL A   1      33.165  34.436  28.422  1.00  0.00     0.251 C 
ATOM     30  H   UNL A   1      31.524  34.258  27.269  1.00  0.00     0.163 HD
ATOM     31  O   UNL A   1      32.899  35.565  28.809  1.00  0.00    -0.269 OA
BRANCH  29  32
ATOM     32  C   UNL A   1      34.394  33.758  28.878  1.00  0.00     0.039 A 
ATOM     33  C   UNL A   1      35.621  34.152  28.340  1.00  0.00     0.014 A 
ATOM     34  C   UNL A   1      34.337  32.774  29.868  1.00  0.00     0.014 A 
ATOM     35  C   UNL A   1      36.799  33.597  28.840  1.00  0.00     0.010 A 
ATOM     36  C   UNL A   1      35.512  32.283  30.420  1.00  0.00     0.010 A 
ATOM     37  C   UNL A   1      36.755  32.680  29.903  1.00  0.00    -0.014 A 
BRANCH  37  38
ATOM     38  C   UNL A   1      37.995  32.094  30.464  1.00  0.00     0.031 A 
ATOM     39  C   UNL A   1      38.551  30.825  29.882  1.00  0.00     0.074 A 
ATOM     40  C   UNL A   1      38.585  32.667  31.530  1.00  0.00     0.049 A 
ATOM     41  N   UNL A   1      39.599  30.134  30.254  1.00  0.00    -0.248 NA
ATOM     42  C   UNL A   1      37.816  30.236  28.750  1.00  0.00     0.031 C 
ATOM     43  C   UNL A   1      38.114  33.870  32.220  1.00  0.00     0.029 A 
ATOM     44  N   UNL A   1      39.714  32.308  32.223  1.00  0.00    -0.354 N 
ATOM     45  C   UNL A   1      39.631  29.023  29.421  1.00  0.00     0.074 A 
ATOM     46  C   UNL A   1      38.470  29.101  28.563  1.00  0.00     0.031 C 
ATOM     47  C   UNL A   1      38.966  34.167  33.216  1.00  0.00     0.029 A 
ATOM     48  C   UNL A   1      40.024  33.161  33.253  1.00  0.00     0.049 A 
ATOM     49  H   UNL A   1      40.252  31.513  32.000  1.00  0.00     0.167 HD
ATOM     50  C   UNL A   1      40.557  28.037  29.356  1.00  0.00     0.031 A 
ATOM     51  C   UNL A   1      41.047  33.139  34.125  1.00  0.00     0.031 A 
ATOM     52  C   UNL A   1      41.723  27.972  30.193  1.00  0.00     0.049 A 
ATOM     53  C   UNL A   1      42.078  32.048  34.018  1.00  0.00     0.074 A 
ATOM     54  C   UNL A   1      42.753  27.049  30.169  1.00  0.00     0.029 A 
ATOM     55  N   UNL A   1      42.016  28.874  31.204  1.00  0.00    -0.354 N 
ATOM     56  N   UNL A   1      42.133  31.043  33.178  1.00  0.00    -0.248 NA
ATOM     57  C   UNL A   1      43.198  32.105  34.966  1.00  0.00     0.031 C 
ATOM     58  C   UNL A   1      43.651  27.371  31.191  1.00  0.00     0.029 A 
ATOM     59  C   UNL A   1      43.207  28.524  31.818  1.00  0.00     0.049 A 
ATOM     60  H   UNL A   1      41.461  29.650  31.448  1.00  0.00     0.167 HD
ATOM     61  C   UNL A   1      43.309  30.366  33.474  1.00  0.00     0.074 A 
ATOM     62  C   UNL A   1      43.941  31.084  34.563  1.00  0.00     0.031 C 
ATOM     63  C   UNL A   1      43.822  29.254  32.896  1.00  0.00     0.031 A 
BRANCH  50  64
ATOM     64  C   UNL A   1      40.333  26.952  28.342  1.00  0.00    -0.014 A 
ATOM     65  C   UNL A   1      39.568  25.814  28.650  1.00  0.00     0.009 A 
ATOM     66  C   UNL A   1      40.885  27.069  27.057  1.00  0.00     0.009 A 
ATOM     67  C   UNL A   1      39.401  24.796  27.709  1.00  0.00     0.001 A 
ATOM     68  C   UNL A   1      40.689  26.064  26.108  1.00  0.00     0.001 A 
ATOM     69  C   UNL A   1      39.958  24.924  26.438  1.00  0.00     0.000 A 
ENDBRANCH  50  64
BRANCH  51  70
ATOM     70  C   UNL A   1      41.177  34.206  35.151  1.00  0.00    -0.014 A 
ATOM     71  C   UNL A   1      40.582  34.053  36.412  1.00  0.00     0.009 A 
ATOM     72  C   UNL A   1      41.893  35.380  34.875  1.00  0.00     0.009 A 
ATOM     73  C   UNL A   1      40.676  35.067  37.368  1.00  0.00     0.001 A 
ATOM     74  C   UNL A   1      42.007  36.382  35.842  1.00  0.00     0.001 A 
ATOM     75  C   UNL A   1      41.392  36.229  37.083  1.00  0.00     0.000 A 
ENDBRANCH  51  70
BRANCH  63  76
ATOM     76  C   UNL A   1      45.153  28.771  33.397  1.00  0.00    -0.014 A 
ATOM     77  C   UNL A   1      45.248  27.819  34.423  1.00  0.00     0.009 A 
ATOM     78  C   UNL A   1      46.330  29.256  32.806  1.00  0.00     0.009 A 
ATOM     79  C   UNL A   1      46.497  27.388  34.871  1.00  0.00     0.001 A 
ATOM     80  C   UNL A   1      47.578  28.802  33.236  1.00  0.00     0.001 A 
ATOM     81  C   UNL A   1      47.660  27.876  34.275  1.00  0.00     0.000 A 
ENDBRANCH  63  76
ENDBRANCH  37  38
ENDBRANCH  29  32
ENDBRANCH  27  28
ENDBRANCH  26  27
ENDBRANCH  25  26
ENDBRANCH   1  25
TORSDOF 16
ENDMDL
MODEL 2
REMARK VINA RESULT:     -10.7      1.399      6.209
REMARK SMILES COc1ccccc1CC(=O)NC[C@H]1CC[C@H](C(=O)NCCCCNC(=O)c2ccc(-c3c4nc(c(-c5ccccc5)c5ccc([nH]5)c(-c5ccccc5)c5nc(c(-c6ccccc6)c6ccc3[nH]6)C=C5)C=C4)cc2)O1
REMARK SMILES IDX 21 1 20 2 18 3 19 4 17 6 14 7 15 8 76 9 16 10 13 11 12 12
REMARK SMILES IDX 10 13 11 14 9 16 8 17 3 18 4 19 5 20 7 21 6 22 2 23 1 24
REMARK SMILES IDX 22 25 23 26 24 27 25 28 26 29 27 31 28 32 29 33 75 34 30 35
REMARK SMILES IDX 74 36 31 37 32 38 33 39 68 40 34 41 73 42 67 43 69 44 35 45
REMARK SMILES IDX 72 46 66 47 65 48 36 50 58 51 43 52 57 53 44 54 47 55 56 56
REMARK SMILES IDX 70 57 45 58 46 59 55 61 71 62 48 63 37 64 38 65 42 66 39 67
REMARK SMILES IDX 41 68 40 69 59 70 60 71 64 72 61 73 63 74 62 75 49 76 50 77
REMARK SMILES IDX 54 78 51 79 53 80 52 81
REMARK H PARENT 20 5 12 15 25 30 69 49 47 60
REMARK Flexibility Score: inf
ROOT
ATOM      1  C   UNL A   1      32.796  29.686  25.733  1.00  0.00     0.116 C 
ENDROOT
BRANCH   1   2
ATOM      2  N   UNL A   1      32.206  29.752  24.415  1.00  0.00    -0.354 N 
ATOM      3  C   UNL A   1      31.669  28.756  23.654  1.00  0.00     0.249 C 
ATOM      4  O   UNL A   1      31.233  29.069  22.541  1.00  0.00    -0.272 OA
ATOM      5  H   UNL A   1      32.189  30.648  24.007  1.00  0.00     0.163 HD
BRANCH   3   6
ATOM      6  C   UNL A   1      31.677  27.277  24.111  1.00  0.00     0.207 C 
ATOM      7  C   UNL A   1      30.447  25.372  23.492  1.00  0.00     0.138 C 
ATOM      8  C   UNL A   1      29.765  25.949  24.718  1.00  0.00     0.037 C 
ATOM      9  O   UNL A   1      31.471  26.293  23.103  1.00  0.00    -0.363 OA
ATOM     10  C   UNL A   1      30.695  27.014  25.238  1.00  0.00     0.045 C 
BRANCH   7  11
ATOM     11  C   UNL A   1      31.029  23.962  23.693  1.00  0.00     0.147 C 
BRANCH  11  12
ATOM     12  N   UNL A   1      31.871  23.586  22.558  1.00  0.00    -0.353 N 
ATOM     13  C   UNL A   1      33.220  23.680  22.400  1.00  0.00     0.224 C 
ATOM     14  O   UNL A   1      33.698  23.421  21.292  1.00  0.00    -0.275 OA
ATOM     15  H   UNL A   1      31.388  23.207  21.788  1.00  0.00     0.163 HD
BRANCH  13  16
ATOM     16  C   UNL A   1      34.103  24.041  23.575  1.00  0.00     0.139 C 
BRANCH  16  17
ATOM     17  C   UNL A   1      35.016  22.930  24.028  1.00  0.00     0.003 A 
ATOM     18  C   UNL A   1      34.520  21.696  24.471  1.00  0.00     0.122 A 
ATOM     19  C   UNL A   1      35.384  20.707  24.951  1.00  0.00     0.047 A 
ATOM     20  C   UNL A   1      36.759  20.927  24.962  1.00  0.00     0.004 A 
ATOM     21  C   UNL A   1      36.409  23.122  24.013  1.00  0.00     0.008 A 
ATOM     22  C   UNL A   1      37.273  22.131  24.485  1.00  0.00     0.001 A 
BRANCH  18  23
ATOM     23  O   UNL A   1      33.173  21.464  24.585  1.00  0.00    -0.496 OA
ATOM     24  C   UNL A   1      32.762  21.515  25.951  1.00  0.00     0.278 C 
ENDBRANCH  18  23
ENDBRANCH  16  17
ENDBRANCH  13  16
ENDBRANCH  11  12
ENDBRANCH   7  11
ENDBRANCH   3   6
ENDBRANCH   1   2
BRANCH   1  25
ATOM     25  C   UNL A   1      31.809  30.126  26.811  1.00  0.00     0.023 C 
BRANCH  25  26
ATOM     26  C   UNL A   1      31.541  31.631  26.837  1.00  0.00     0.023 C 
BRANCH  26  27
ATOM     27  C   UNL A   1      32.766  32.492  27.121  1.00  0.00     0.116 C 
BRANCH  27  28
ATOM     28  N   UNL A   1      32.452  33.794  27.688  1.00  0.00    -0.352 N 
ATOM     29  C   UNL A   1      33.179  34.512  28.608  1.00  0.00     0.251 C 
ATOM     30  H   UNL A   1      31.617  34.212  27.375  1.00  0.00     0.163 HD
ATOM     31  O   UNL A   1      32.745  35.556  29.075  1.00  0.00    -0.269 OA
BRANCH  29  32
ATOM     32  C   UNL A   1      34.478  33.974  29.059  1.00  0.00     0.039 A 
ATOM     33  C   UNL A   1      34.519  33.193  30.216  1.00  0.00     0.014 A 
ATOM     34  C   UNL A   1      35.637  34.199  28.314  1.00  0.00     0.014 A 
ATOM     35  C   UNL A   1      35.719  32.589  30.593  1.00  0.00     0.010 A 
ATOM     36  C   UNL A   1      36.809  33.532  28.644  1.00  0.00     0.010 A 
ATOM     37  C   UNL A   1      36.865  32.730  29.794  1.00  0.00    -0.014 A 
BRANCH  37  38
ATOM     38  C   UNL A   1      38.144  32.079  30.164  1.00  0.00     0.031 A 
ATOM     39  C   UNL A   1      39.087  32.770  31.109  1.00  0.00     0.074 A 
ATOM     40  C   UNL A   1      38.483  30.901  29.607  1.00  0.00     0.049 A 
ATOM     41  N   UNL A   1      40.268  32.387  31.525  1.00  0.00    -0.248 NA
ATOM     42  C   UNL A   1      38.662  34.079  31.633  1.00  0.00     0.031 C 
ATOM     43  C   UNL A   1      37.679  30.155  28.637  1.00  0.00     0.029 A 
ATOM     44  N   UNL A   1      39.601  30.124  29.780  1.00  0.00    -0.354 N 
ATOM     45  C   UNL A   1      40.732  33.416  32.335  1.00  0.00     0.074 A 
ATOM     46  C   UNL A   1      39.735  34.462  32.307  1.00  0.00     0.031 C 
ATOM     47  C   UNL A   1      38.315  29.014  28.325  1.00  0.00     0.029 A 
ATOM     48  C   UNL A   1      39.581  28.961  29.049  1.00  0.00     0.049 A 
ATOM     49  H   UNL A   1      40.346  30.376  30.372  1.00  0.00     0.167 HD
ATOM     50  C   UNL A   1      41.875  33.477  33.058  1.00  0.00     0.031 A 
ATOM     51  C   UNL A   1      40.480  27.964  28.976  1.00  0.00     0.031 A 
ATOM     52  C   UNL A   1      42.856  32.428  33.104  1.00  0.00     0.049 A 
ATOM     53  C   UNL A   1      41.731  28.041  29.809  1.00  0.00     0.074 A 
ATOM     54  C   UNL A   1      44.019  32.365  33.850  1.00  0.00     0.029 A 
ATOM     55  N   UNL A   1      42.783  31.252  32.373  1.00  0.00    -0.354 N 
ATOM     56  N   UNL A   1      42.122  28.989  30.625  1.00  0.00    -0.248 NA
ATOM     57  C   UNL A   1      42.650  26.898  29.724  1.00  0.00     0.031 C 
ATOM     58  C   UNL A   1      44.669  31.166  33.543  1.00  0.00     0.029 A 
ATOM     59  C   UNL A   1      43.886  30.460  32.643  1.00  0.00     0.049 A 
ATOM     60  H   UNL A   1      42.055  31.014  31.755  1.00  0.00     0.167 HD
ATOM     61  C   UNL A   1      43.317  28.544  31.176  1.00  0.00     0.074 A 
ATOM     62  C   UNL A   1      43.577  27.236  30.610  1.00  0.00     0.031 C 
ATOM     63  C   UNL A   1      44.124  29.160  32.074  1.00  0.00     0.031 A 
BRANCH  50  64
ATOM     64  C   UNL A   1      42.116  34.728  33.855  1.00  0.00    -0.014 A 
ATOM     65  C   UNL A   1      42.780  35.832  33.293  1.00  0.00     0.009 A 
ATOM     66  C   UNL A   1      41.667  34.811  35.181  1.00  0.00     0.009 A 
ATOM     67  C   UNL A   1      43.031  36.972  34.058  1.00  0.00     0.001 A 
ATOM     68  C   UNL A   1      41.891  35.965  35.934  1.00  0.00     0.001 A 
ATOM     69  C   UNL A   1      42.582  37.040  35.376  1.00  0.00     0.000 A 
ENDBRANCH  50  64
BRANCH  51  70
ATOM     70  C   UNL A   1      40.214  26.781  28.116  1.00  0.00    -0.014 A 
ATOM     71  C   UNL A   1      40.716  26.729  26.807  1.00  0.00     0.009 A 
ATOM     72  C   UNL A   1      39.458  25.702  28.597  1.00  0.00     0.009 A 
ATOM     73  C   UNL A   1      40.442  25.634  25.986  1.00  0.00     0.001 A 
ATOM     74  C   UNL A   1      39.208  24.595  27.782  1.00  0.00     0.001 A 
ATOM     75  C   UNL A   1      39.692  24.566  26.476  1.00  0.00     0.000 A 
ENDBRANCH  51  70
BRANCH  63  76
ATOM     76  C   UNL A   1      45.340  28.406  32.533  1.00  0.00    -0.014 A 
ATOM     77  C   UNL A   1      45.288  27.535  33.632  1.00  0.00     0.009 A 
ATOM     78  C   UNL A   1      46.546  28.548  31.831  1.00  0.00     0.009 A 
ATOM     79  C   UNL A   1      46.433  26.848  34.040  1.00  0.00     0.001 A 
ATOM     80  C   UNL A   1      47.681  27.837  32.223  1.00  0.00     0.001 A 
ATOM     81  C   UNL A   1      47.626  26.996  33.333  1.00  0.00     0.000 A 
ENDBRANCH  63  76
ENDBRANCH  37  38
ENDBRANCH  29  32
ENDBRANCH  27  28
ENDBRANCH  26  27
ENDBRANCH  25  26
ENDBRANCH   1  25
TORSDOF 16
ENDMDL
MODEL 3
REMARK VINA RESULT:     -10.7      2.869      7.040
REMARK SMILES COc1ccccc1CC(=O)NC[C@H]1CC[C@H](C(=O)NCCCCNC(=O)c2ccc(-c3c4nc(c(-c5ccccc5)c5ccc([nH]5)c(-c5ccccc5)c5nc(c(-c6ccccc6)c6ccc3[nH]6)C=C5)C=C4)cc2)O1
REMARK SMILES IDX 21 1 20 2 18 3 19 4 17 6 14 7 15 8 76 9 16 10 13 11 12 12
REMARK SMILES IDX 10 13 11 14 9 16 8 17 3 18 4 19 5 20 7 21 6 22 2 23 1 24
REMARK SMILES IDX 22 25 23 26 24 27 25 28 26 29 27 31 28 32 29 33 75 34 30 35
REMARK SMILES IDX 74 36 31 37 32 38 33 39 68 40 34 41 73 42 67 43 69 44 35 45
REMARK SMILES IDX 72 46 66 47 65 48 36 50 58 51 43 52 57 53 44 54 47 55 56 56
REMARK SMILES IDX 70 57 45 58 46 59 55 61 71 62 48 63 37 64 38 65 42 66 39 67
REMARK SMILES IDX 41 68 40 69 59 70 60 71 64 72 61 73 63 74 62 75 49 76 50 77
REMARK SMILES IDX 54 78 51 79 53 80 52 81
REMARK H PARENT 20 5 12 15 25 30 69 49 47 60
REMARK Flexibility Score: inf
ROOT
ATOM      1  C   UNL A   1      33.444  29.287  23.336  1.00  0.00     0.116 C 
ENDROOT
BRANCH   1   2
ATOM      2  N   UNL A   1      32.164  29.281  22.666  1.00  0.00    -0.354 N 
ATOM      3  C   UNL A   1      31.218  28.298  22.609  1.00  0.00     0.249 C 
ATOM      4  O   UNL A   1      30.199  28.535  21.953  1.00  0.00    -0.272 OA
ATOM      5  H   UNL A   1      31.940  30.107  22.180  1.00  0.00     0.163 HD
BRANCH   3   6
ATOM      6  C   UNL A   1      31.437  26.910  23.257  1.00  0.00     0.207 C 
ATOM      7  C   UNL A   1      30.205  24.909  23.277  1.00  0.00     0.138 C 
ATOM      8  C   UNL A   1      29.836  25.656  24.544  1.00  0.00     0.037 C 
ATOM      9  O   UNL A   1      31.033  25.777  22.497  1.00  0.00    -0.363 OA
ATOM     10  C   UNL A   1      30.805  26.807  24.633  1.00  0.00     0.045 C 
BRANCH   7  11
ATOM     11  C   UNL A   1      30.903  23.558  23.516  1.00  0.00     0.147 C 
BRANCH  11  12
ATOM     12  N   UNL A   1      31.944  23.332  22.514  1.00  0.00    -0.353 N 
ATOM     13  C   UNL A   1      33.298  23.428  22.622  1.00  0.00     0.224 C 
ATOM     14  O   UNL A   1      33.974  23.318  21.595  1.00  0.00    -0.275 OA
ATOM     15  H   UNL A   1      31.615  23.070  21.624  1.00  0.00     0.163 HD
BRANCH  13  16
ATOM     16  C   UNL A   1      33.946  23.609  23.977  1.00  0.00     0.139 C 
BRANCH  16  17
ATOM     17  C   UNL A   1      35.016  22.595  24.293  1.00  0.00     0.003 A 
ATOM     18  C   UNL A   1      34.708  21.265  24.609  1.00  0.00     0.122 A 
ATOM     19  C   UNL A   1      35.713  20.362  24.965  1.00  0.00     0.047 A 
ATOM     20  C   UNL A   1      37.045  20.769  24.978  1.00  0.00     0.004 A 
ATOM     21  C   UNL A   1      36.368  22.980  24.276  1.00  0.00     0.008 A 
ATOM     22  C   UNL A   1      37.374  22.075  24.625  1.00  0.00     0.001 A 
BRANCH  18  23
ATOM     23  O   UNL A   1      33.409  20.837  24.718  1.00  0.00    -0.496 OA
ATOM     24  C   UNL A   1      33.251  19.980  25.849  1.00  0.00     0.278 C 
ENDBRANCH  18  23
ENDBRANCH  16  17
ENDBRANCH  13  16
ENDBRANCH  11  12
ENDBRANCH   7  11
ENDBRANCH   3   6
ENDBRANCH   1   2
BRANCH   1  25
ATOM     25  C   UNL A   1      33.288  29.504  24.839  1.00  0.00     0.023 C 
BRANCH  25  26
ATOM     26  C   UNL A   1      33.916  28.407  25.698  1.00  0.00     0.023 C 
BRANCH  26  27
ATOM     27  C   UNL A   1      33.681  28.557  27.197  1.00  0.00     0.116 C 
BRANCH  27  28
ATOM     28  N   UNL A   1      33.575  29.938  27.641  1.00  0.00    -0.352 N 
ATOM     29  C   UNL A   1      34.540  30.708  28.245  1.00  0.00     0.251 C 
ATOM     30  H   UNL A   1      32.704  30.374  27.490  1.00  0.00     0.163 HD
ATOM     31  O   UNL A   1      34.281  31.830  28.657  1.00  0.00    -0.269 OA
BRANCH  29  32
ATOM     32  C   UNL A   1      35.888  30.136  28.431  1.00  0.00     0.039 A 
ATOM     33  C   UNL A   1      36.796  30.189  27.371  1.00  0.00     0.014 A 
ATOM     34  C   UNL A   1      36.266  29.595  29.662  1.00  0.00     0.014 A 
ATOM     35  C   UNL A   1      38.105  29.751  27.566  1.00  0.00     0.010 A 
ATOM     36  C   UNL A   1      37.590  29.236  29.878  1.00  0.00     0.010 A 
ATOM     37  C   UNL A   1      38.520  29.298  28.830  1.00  0.00    -0.014 A 
BRANCH  37  38
ATOM     38  C   UNL A   1      39.912  28.848  29.066  1.00  0.00     0.031 A 
ATOM     39  C   UNL A   1      40.899  29.782  29.710  1.00  0.00     0.074 A 
ATOM     40  C   UNL A   1      40.303  27.630  28.649  1.00  0.00     0.049 A 
ATOM     41  N   UNL A   1      42.169  29.594  29.966  1.00  0.00    -0.248 NA
ATOM     42  C   UNL A   1      40.401  31.115  30.089  1.00  0.00     0.031 C 
ATOM     43  C   UNL A   1      39.456  26.651  27.964  1.00  0.00     0.029 A 
ATOM     44  N   UNL A   1      41.522  27.006  28.740  1.00  0.00    -0.354 N 
ATOM     45  C   UNL A   1      42.622  30.788  30.510  1.00  0.00     0.074 A 
ATOM     46  C   UNL A   1      41.510  31.712  30.496  1.00  0.00     0.031 C 
ATOM     47  C   UNL A   1      40.172  25.540  27.726  1.00  0.00     0.029 A 
ATOM     48  C   UNL A   1      41.533  25.737  28.216  1.00  0.00     0.049 A 
ATOM     49  H   UNL A   1      42.314  27.429  29.146  1.00  0.00     0.167 HD
ATOM     50  C   UNL A   1      43.848  31.085  31.003  1.00  0.00     0.031 A 
ATOM     51  C   UNL A   1      42.527  24.834  28.142  1.00  0.00     0.031 A 
ATOM     52  C   UNL A   1      44.947  30.160  31.038  1.00  0.00     0.049 A 
ATOM     53  C   UNL A   1      43.874  25.176  28.719  1.00  0.00     0.074 A 
ATOM     54  C   UNL A   1      46.212  30.342  31.568  1.00  0.00     0.029 A 
ATOM     55  N   UNL A   1      44.907  28.873  30.525  1.00  0.00    -0.354 N 
ATOM     56  N   UNL A   1      44.267  26.286  29.296  1.00  0.00    -0.248 NA
ATOM     57  C   UNL A   1      44.904  24.131  28.653  1.00  0.00     0.031 C 
ATOM     58  C   UNL A   1      46.950  29.176  31.342  1.00  0.00     0.029 A 
ATOM     59  C   UNL A   1      46.129  28.251  30.716  1.00  0.00     0.049 A 
ATOM     60  H   UNL A   1      44.126  28.462  30.089  1.00  0.00     0.167 HD
ATOM     61  C   UNL A   1      45.580  26.062  29.690  1.00  0.00     0.074 A 
ATOM     62  C   UNL A   1      45.909  24.707  29.298  1.00  0.00     0.031 C 
ATOM     63  C   UNL A   1      46.435  26.900  30.324  1.00  0.00     0.031 A 
BRANCH  50  64
ATOM     64  C   UNL A   1      44.054  32.474  31.539  1.00  0.00    -0.014 A 
ATOM     65  C   UNL A   1      44.460  33.525  30.700  1.00  0.00     0.009 A 
ATOM     66  C   UNL A   1      43.831  32.739  32.898  1.00  0.00     0.009 A 
ATOM     67  C   UNL A   1      44.684  34.801  31.221  1.00  0.00     0.001 A 
ATOM     68  C   UNL A   1      44.025  34.024  33.410  1.00  0.00     0.001 A 
ATOM     69  C   UNL A   1      44.462  35.051  32.574  1.00  0.00     0.000 A 
ENDBRANCH  50  64
BRANCH  51  70
ATOM     70  C   UNL A   1      42.278  23.499  27.538  1.00  0.00    -0.014 A 
ATOM     71  C   UNL A   1      41.732  22.463  28.310  1.00  0.00     0.009 A 
ATOM     72  C   UNL A   1      42.586  23.254  26.192  1.00  0.00     0.009 A 
ATOM     73  C   UNL A   1      41.525  21.199  27.754  1.00  0.00     0.001 A 
ATOM     74  C   UNL A   1      42.355  21.996  25.631  1.00  0.00     0.001 A 
ATOM     75  C   UNL A   1      41.833  20.968  26.414  1.00  0.00     0.000 A 
ENDBRANCH  51  70
BRANCH  63  76
ATOM     76  C   UNL A   1      47.792  26.360  30.674  1.00  0.00    -0.014 A 
ATOM     77  C   UNL A   1      48.027  25.706  31.893  1.00  0.00     0.009 A 
ATOM     78  C   UNL A   1      48.842  26.480  29.751  1.00  0.00     0.009 A 
ATOM     79  C   UNL A   1      49.298  25.214  32.195  1.00  0.00     0.001 A 
ATOM     80  C   UNL A   1      50.105  25.962  30.043  1.00  0.00     0.001 A 
ATOM     81  C   UNL A   1      50.334  25.338  31.269  1.00  0.00     0.000 A 
ENDBRANCH  63  76
ENDBRANCH  37  38
ENDBRANCH  29  32
ENDBRANCH  27  28
ENDBRANCH  26  27
ENDBRANCH  25  26
ENDBRANCH   1  25
TORSDOF 16
ENDMDL
