MODEL 1
REMARK VINA RESULT:     -10.0      0.000      0.000
REMARK SMILES CN(CC1CCC1)C(=O)N(CC(=O)NCCCCNC(=O)c1ccc(-c2c3nc(c(-c4ccccc4)c4ccc([nH]4)c(-c4ccccc4)c4nc(c(-c5ccccc5)c5ccc2[nH]5)C=C4)C=C3)cc1)C(C)(C)C
REMARK SMILES IDX 15 1 14 2 12 3 13 4 11 6 10 7 8 8 9 9 2 10 1 11 3 12 4 13
REMARK SMILES IDX 5 14 7 15 6 16 70 17 71 18 72 19 73 20 16 21 17 22 18 23
REMARK SMILES IDX 19 24 20 25 21 27 22 28 23 29 69 30 24 31 68 32 25 33 26 34
REMARK SMILES IDX 27 35 62 36 28 37 67 38 61 39 63 40 29 41 66 42 60 43 59 44
REMARK SMILES IDX 30 46 52 47 37 48 51 49 38 50 41 51 50 52 64 53 39 54 40 55
REMARK SMILES IDX 49 57 65 58 42 59 31 60 32 61 36 62 33 63 35 64 34 65 53 66
REMARK SMILES IDX 54 67 58 68 55 69 57 70 56 71 43 72 44 73 48 74 45 75 47 76
REMARK SMILES IDX 46 77
REMARK H PARENT 14 5 19 26 63 45 41 56
REMARK Flexibility Score: inf
ROOT
ATOM      1  C   UNL A   1      37.832  23.546  25.737  1.00  0.00     0.116 C 
ENDROOT
BRANCH   1   2
ATOM      2  N   UNL A   1      37.484  23.129  24.389  1.00  0.00    -0.355 N 
ATOM      3  C   UNL A   1      36.359  23.317  23.645  1.00  0.00     0.239 C 
ATOM      4  O   UNL A   1      36.483  23.123  22.428  1.00  0.00    -0.273 OA
ATOM      5  H   UNL A   1      38.190  22.618  23.931  1.00  0.00     0.163 HD
BRANCH   3   6
ATOM      6  C   UNL A   1      35.029  23.893  24.178  1.00  0.00     0.221 C 
BRANCH   6   7
ATOM      7  N   UNL A   1      34.047  23.024  24.827  1.00  0.00    -0.311 N 
BRANCH   7   8
ATOM      8  C   UNL A   1      33.567  21.811  24.322  1.00  0.00     0.320 C 
ATOM      9  O   UNL A   1      32.916  21.810  23.268  1.00  0.00    -0.248 OA
BRANCH   8  10
ATOM     10  N   UNL A   1      33.875  20.567  24.876  1.00  0.00    -0.327 N 
ATOM     11  C   UNL A   1      35.301  20.368  25.143  1.00  0.00     0.148 C 
BRANCH  10  12
ATOM     12  C   UNL A   1      33.073  19.335  24.991  1.00  0.00     0.124 C 
BRANCH  12  13
ATOM     13  C   UNL A   1      33.777  18.231  24.212  1.00  0.00     0.008 C 
ATOM     14  C   UNL A   1      33.866  16.837  24.901  1.00  0.00     0.005 C 
ATOM     15  C   UNL A   1      33.175  17.460  23.002  1.00  0.00     0.005 C 
ATOM     16  C   UNL A   1      34.044  16.263  23.480  1.00  0.00     0.001 C 
ENDBRANCH  12  13
ENDBRANCH  10  12
ENDBRANCH   8  10
ENDBRANCH   7   8
BRANCH   7  17
ATOM     17  C   UNL A   1      33.349  23.633  26.048  1.00  0.00     0.037 C 
ATOM     18  C   UNL A   1      33.940  23.079  27.362  1.00  0.00     0.034 C 
ATOM     19  C   UNL A   1      33.436  25.175  26.051  1.00  0.00     0.034 C 
ATOM     20  C   UNL A   1      31.823  23.322  26.123  1.00  0.00     0.034 C 
ENDBRANCH   7  17
ENDBRANCH   6   7
ENDBRANCH   3   6
ENDBRANCH   1   2
BRANCH   1  21
ATOM     21  C   UNL A   1      38.858  22.652  26.420  1.00  0.00     0.023 C 
BRANCH  21  22
ATOM     22  C   UNL A   1      39.174  21.365  25.674  1.00  0.00     0.023 C 
BRANCH  22  23
ATOM     23  C   UNL A   1      39.590  20.206  26.569  1.00  0.00     0.116 C 
BRANCH  23  24
ATOM     24  N   UNL A   1      40.710  19.451  26.024  1.00  0.00    -0.352 N 
ATOM     25  C   UNL A   1      42.016  19.842  25.841  1.00  0.00     0.251 C 
ATOM     26  H   UNL A   1      40.502  18.529  25.749  1.00  0.00     0.163 HD
ATOM     27  O   UNL A   1      42.798  19.148  25.210  1.00  0.00    -0.269 OA
BRANCH  25  28
ATOM     28  C   UNL A   1      42.454  21.138  26.399  1.00  0.00     0.039 A 
ATOM     29  C   UNL A   1      42.771  22.183  25.530  1.00  0.00     0.014 A 
ATOM     30  C   UNL A   1      42.487  21.327  27.781  1.00  0.00     0.014 A 
ATOM     31  C   UNL A   1      43.037  23.450  26.053  1.00  0.00     0.010 A 
ATOM     32  C   UNL A   1      42.649  22.606  28.292  1.00  0.00     0.010 A 
ATOM     33  C   UNL A   1      42.932  23.680  27.435  1.00  0.00    -0.014 A 
BRANCH  33  34
ATOM     34  C   UNL A   1      43.126  25.030  28.018  1.00  0.00     0.031 A 
ATOM     35  C   UNL A   1      44.490  25.453  28.486  1.00  0.00     0.074 A 
ATOM     36  C   UNL A   1      42.066  25.841  28.201  1.00  0.00     0.049 A 
ATOM     37  N   UNL A   1      44.851  26.554  29.095  1.00  0.00    -0.248 NA
ATOM     38  C   UNL A   1      45.588  24.497  28.270  1.00  0.00     0.031 C 
ATOM     39  C   UNL A   1      40.682  25.532  27.831  1.00  0.00     0.029 A 
ATOM     40  N   UNL A   1      41.989  27.095  28.755  1.00  0.00    -0.354 N 
ATOM     41  C   UNL A   1      46.207  26.409  29.357  1.00  0.00     0.074 A 
ATOM     42  C   UNL A   1      46.590  25.093  28.898  1.00  0.00     0.031 C 
ATOM     43  C   UNL A   1      39.902  26.583  28.132  1.00  0.00     0.029 A 
ATOM     44  C   UNL A   1      40.719  27.619  28.755  1.00  0.00     0.049 A 
ATOM     45  H   UNL A   1      42.770  27.573  29.116  1.00  0.00     0.167 HD
ATOM     46  C   UNL A   1      47.065  27.300  29.907  1.00  0.00     0.031 A 
ATOM     47  C   UNL A   1      40.264  28.801  29.210  1.00  0.00     0.031 A 
ATOM     48  C   UNL A   1      46.687  28.613  30.352  1.00  0.00     0.049 A 
ATOM     49  C   UNL A   1      41.231  29.770  29.832  1.00  0.00     0.074 A 
ATOM     50  C   UNL A   1      47.489  29.613  30.870  1.00  0.00     0.029 A 
ATOM     51  N   UNL A   1      45.391  29.106  30.333  1.00  0.00    -0.354 N 
ATOM     52  N   UNL A   1      42.524  29.646  30.012  1.00  0.00    -0.248 NA
ATOM     53  C   UNL A   1      40.675  31.045  30.305  1.00  0.00     0.031 C 
ATOM     54  C   UNL A   1      46.671  30.695  31.211  1.00  0.00     0.029 A 
ATOM     55  C   UNL A   1      45.367  30.389  30.853  1.00  0.00     0.049 A 
ATOM     56  H   UNL A   1      44.605  28.617  30.000  1.00  0.00     0.167 HD
ATOM     57  C   UNL A   1      42.941  30.836  30.592  1.00  0.00     0.074 A 
ATOM     58  C   UNL A   1      41.765  31.673  30.723  1.00  0.00     0.031 C 
ATOM     59  C   UNL A   1      44.187  31.206  30.978  1.00  0.00     0.031 A 
BRANCH  46  60
ATOM     60  C   UNL A   1      48.497  26.865  30.061  1.00  0.00    -0.014 A 
ATOM     61  C   UNL A   1      49.453  27.137  29.068  1.00  0.00     0.009 A 
ATOM     62  C   UNL A   1      48.895  26.168  31.212  1.00  0.00     0.009 A 
ATOM     63  C   UNL A   1      50.764  26.675  29.201  1.00  0.00     0.001 A 
ATOM     64  C   UNL A   1      50.216  25.737  31.358  1.00  0.00     0.001 A 
ATOM     65  C   UNL A   1      51.144  25.979  30.347  1.00  0.00     0.000 A 
ENDBRANCH  46  60
BRANCH  47  66
ATOM     66  C   UNL A   1      38.828  29.151  29.059  1.00  0.00    -0.014 A 
ATOM     67  C   UNL A   1      37.953  29.031  30.150  1.00  0.00     0.009 A 
ATOM     68  C   UNL A   1      38.324  29.618  27.835  1.00  0.00     0.009 A 
ATOM     69  C   UNL A   1      36.601  29.351  30.013  1.00  0.00     0.001 A 
ATOM     70  C   UNL A   1      36.977  29.963  27.709  1.00  0.00     0.001 A 
ATOM     71  C   UNL A   1      36.115  29.822  28.795  1.00  0.00     0.000 A 
ENDBRANCH  47  66
BRANCH  59  72
ATOM     72  C   UNL A   1      44.349  32.587  31.545  1.00  0.00    -0.014 A 
ATOM     73  C   UNL A   1      44.252  32.828  32.924  1.00  0.00     0.009 A 
ATOM     74  C   UNL A   1      44.650  33.658  30.687  1.00  0.00     0.009 A 
ATOM     75  C   UNL A   1      44.422  34.119  33.428  1.00  0.00     0.001 A 
ATOM     76  C   UNL A   1      44.849  34.940  31.196  1.00  0.00     0.001 A 
ATOM     77  C   UNL A   1      44.726  35.171  32.565  1.00  0.00     0.000 A 
ENDBRANCH  59  72
ENDBRANCH  33  34
ENDBRANCH  25  28
ENDBRANCH  23  24
ENDBRANCH  22  23
ENDBRANCH  21  22
ENDBRANCH   1  21
TORSDOF 17
ENDMDL
MODEL 2
REMARK VINA RESULT:     -10.0      1.804      3.749
REMARK SMILES CN(CC1CCC1)C(=O)N(CC(=O)NCCCCNC(=O)c1ccc(-c2c3nc(c(-c4ccccc4)c4ccc([nH]4)c(-c4ccccc4)c4nc(c(-c5ccccc5)c5ccc2[nH]5)C=C4)C=C3)cc1)C(C)(C)C
REMARK SMILES IDX 15 1 14 2 12 3 13 4 11 6 10 7 8 8 9 9 2 10 1 11 3 12 4 13
REMARK SMILES IDX 5 14 7 15 6 16 70 17 71 18 72 19 73 20 16 21 17 22 18 23
REMARK SMILES IDX 19 24 20 25 21 27 22 28 23 29 69 30 24 31 68 32 25 33 26 34
REMARK SMILES IDX 27 35 62 36 28 37 67 38 61 39 63 40 29 41 66 42 60 43 59 44
REMARK SMILES IDX 30 46 52 47 37 48 51 49 38 50 41 51 50 52 64 53 39 54 40 55
REMARK SMILES IDX 49 57 65 58 42 59 31 60 32 61 36 62 33 63 35 64 34 65 53 66
REMARK SMILES IDX 54 67 58 68 55 69 57 70 56 71 43 72 44 73 48 74 45 75 47 76
REMARK SMILES IDX 46 77
REMARK H PARENT 14 5 19 26 63 45 41 56
REMARK Flexibility Score: inf
ROOT
ATOM      1  C   UNL A   1      35.643  20.757  25.177  1.00  0.00     0.116 C 
ENDROOT
BRANCH   1   2
ATOM      2  N   UNL A   1      35.321  21.350  26.463  1.00  0.00    -0.355 N 
ATOM      3  C   UNL A   1      34.631  22.476  26.794  1.00  0.00     0.239 C 
ATOM      4  O   UNL A   1      34.252  22.546  27.971  1.00  0.00    -0.273 OA
ATOM      5  H   UNL A   1      35.664  20.846  27.237  1.00  0.00     0.163 HD
BRANCH   3   6
ATOM      6  C   UNL A   1      34.168  23.558  25.794  1.00  0.00     0.221 C 
BRANCH   6   7
ATOM      7  N   UNL A   1      32.750  23.718  25.470  1.00  0.00    -0.311 N 
BRANCH   7   8
ATOM      8  C   UNL A   1      31.822  24.464  26.204  1.00  0.00     0.320 C 
ATOM      9  O   UNL A   1      31.306  23.963  27.213  1.00  0.00    -0.248 OA
BRANCH   8  10
ATOM     10  N   UNL A   1      31.518  25.800  25.935  1.00  0.00    -0.327 N 
ATOM     11  C   UNL A   1      30.086  26.106  25.969  1.00  0.00     0.148 C 
BRANCH  10  12
ATOM     12  C   UNL A   1      32.342  26.883  25.370  1.00  0.00     0.124 C 
BRANCH  12  13
ATOM     13  C   UNL A   1      32.605  27.907  26.468  1.00  0.00     0.008 C 
ATOM     14  C   UNL A   1      33.958  28.676  26.397  1.00  0.00     0.005 C 
ATOM     15  C   UNL A   1      31.948  29.316  26.560  1.00  0.00     0.005 C 
ATOM     16  C   UNL A   1      33.267  29.758  27.254  1.00  0.00     0.001 C 
ENDBRANCH  12  13
ENDBRANCH  10  12
ENDBRANCH   8  10
ENDBRANCH   7   8
BRANCH   7  17
ATOM     17  C   UNL A   1      32.232  22.802  24.356  1.00  0.00     0.037 C 
ATOM     18  C   UNL A   1      30.940  23.364  23.727  1.00  0.00     0.034 C 
ATOM     19  C   UNL A   1      33.292  22.582  23.253  1.00  0.00     0.034 C 
ATOM     20  C   UNL A   1      31.861  21.367  24.841  1.00  0.00     0.034 C 
ENDBRANCH   7  17
ENDBRANCH   6   7
ENDBRANCH   3   6
ENDBRANCH   1   2
BRANCH   1  21
ATOM     21  C   UNL A   1      37.064  21.030  24.703  1.00  0.00     0.023 C 
BRANCH  21  22
ATOM     22  C   UNL A   1      38.048  19.899  24.962  1.00  0.00     0.023 C 
BRANCH  22  23
ATOM     23  C   UNL A   1      39.238  20.289  25.827  1.00  0.00     0.116 C 
BRANCH  23  24
ATOM     24  N   UNL A   1      40.260  19.252  25.875  1.00  0.00    -0.352 N 
ATOM     25  C   UNL A   1      41.612  19.373  26.098  1.00  0.00     0.251 C 
ATOM     26  H   UNL A   1      39.936  18.334  25.728  1.00  0.00     0.163 HD
ATOM     27  O   UNL A   1      42.363  18.424  25.934  1.00  0.00    -0.269 OA
BRANCH  25  28
ATOM     28  C   UNL A   1      42.148  20.685  26.513  1.00  0.00     0.039 A 
ATOM     29  C   UNL A   1      42.587  21.583  25.539  1.00  0.00     0.014 A 
ATOM     30  C   UNL A   1      42.155  21.040  27.863  1.00  0.00     0.014 A 
ATOM     31  C   UNL A   1      42.951  22.877  25.916  1.00  0.00     0.010 A 
ATOM     32  C   UNL A   1      42.417  22.355  28.222  1.00  0.00     0.010 A 
ATOM     33  C   UNL A   1      42.824  23.285  27.255  1.00  0.00    -0.014 A 
BRANCH  33  34
ATOM     34  C   UNL A   1      43.121  24.675  27.677  1.00  0.00     0.031 A 
ATOM     35  C   UNL A   1      44.546  25.105  27.882  1.00  0.00     0.074 A 
ATOM     36  C   UNL A   1      42.112  25.523  27.956  1.00  0.00     0.049 A 
ATOM     37  N   UNL A   1      45.011  26.245  28.327  1.00  0.00    -0.248 NA
ATOM     38  C   UNL A   1      45.587  24.108  27.579  1.00  0.00     0.031 C 
ATOM     39  C   UNL A   1      40.684  25.216  27.840  1.00  0.00     0.029 A 
ATOM     40  N   UNL A   1      42.137  26.821  28.402  1.00  0.00    -0.354 N 
ATOM     41  C   UNL A   1      46.390  26.091  28.380  1.00  0.00     0.074 A 
ATOM     42  C   UNL A   1      46.682  24.732  27.983  1.00  0.00     0.031 C 
ATOM     43  C   UNL A   1      39.973  26.307  28.168  1.00  0.00     0.029 A 
ATOM     44  C   UNL A   1      40.889  27.373  28.559  1.00  0.00     0.049 A 
ATOM     45  H   UNL A   1      42.970  27.310  28.590  1.00  0.00     0.167 HD
ATOM     46  C   UNL A   1      47.335  27.005  28.705  1.00  0.00     0.031 A 
ATOM     47  C   UNL A   1      40.524  28.600  28.974  1.00  0.00     0.031 A 
ATOM     48  C   UNL A   1      47.045  28.360  29.088  1.00  0.00     0.049 A 
ATOM     49  C   UNL A   1      41.588  29.596  29.347  1.00  0.00     0.074 A 
ATOM     50  C   UNL A   1      47.930  29.382  29.380  1.00  0.00     0.029 A 
ATOM     51  N   UNL A   1      45.768  28.880  29.233  1.00  0.00    -0.354 N 
ATOM     52  N   UNL A   1      42.891  29.457  29.328  1.00  0.00    -0.248 NA
ATOM     53  C   UNL A   1      41.127  30.919  29.788  1.00  0.00     0.031 C 
ATOM     54  C   UNL A   1      47.187  30.508  29.751  1.00  0.00     0.029 A 
ATOM     55  C   UNL A   1      45.840  30.203  29.634  1.00  0.00     0.049 A 
ATOM     56  H   UNL A   1      44.934  28.382  29.074  1.00  0.00     0.167 HD
ATOM     57  C   UNL A   1      43.408  30.682  29.726  1.00  0.00     0.074 A 
ATOM     58  C   UNL A   1      42.276  31.555  29.969  1.00  0.00     0.031 C 
ATOM     59  C   UNL A   1      44.703  31.055  29.874  1.00  0.00     0.031 A 
BRANCH  46  60
ATOM     60  C   UNL A   1      48.768  26.552  28.666  1.00  0.00    -0.014 A 
ATOM     61  C   UNL A   1      49.456  26.203  29.842  1.00  0.00     0.009 A 
ATOM     62  C   UNL A   1      49.444  26.476  27.439  1.00  0.00     0.009 A 
ATOM     63  C   UNL A   1      50.803  25.841  29.794  1.00  0.00     0.001 A 
ATOM     64  C   UNL A   1      50.782  26.079  27.391  1.00  0.00     0.001 A 
ATOM     65  C   UNL A   1      51.463  25.775  28.568  1.00  0.00     0.000 A 
ENDBRANCH  46  60
BRANCH  47  66
ATOM     66  C   UNL A   1      39.086  28.969  29.025  1.00  0.00    -0.014 A 
ATOM     67  C   UNL A   1      38.341  28.751  30.195  1.00  0.00     0.009 A 
ATOM     68  C   UNL A   1      38.452  29.551  27.917  1.00  0.00     0.009 A 
ATOM     69  C   UNL A   1      36.987  29.089  30.247  1.00  0.00     0.001 A 
ATOM     70  C   UNL A   1      37.104  29.913  27.981  1.00  0.00     0.001 A 
ATOM     71  C   UNL A   1      36.372  29.675  29.142  1.00  0.00     0.000 A 
ENDBRANCH  47  66
BRANCH  59  72
ATOM     72  C   UNL A   1      44.968  32.475  30.283  1.00  0.00    -0.014 A 
ATOM     73  C   UNL A   1      45.119  33.495  29.331  1.00  0.00     0.009 A 
ATOM     74  C   UNL A   1      45.022  32.805  31.648  1.00  0.00     0.009 A 
ATOM     75  C   UNL A   1      45.349  34.811  29.737  1.00  0.00     0.001 A 
ATOM     76  C   UNL A   1      45.223  34.124  32.050  1.00  0.00     0.001 A 
ATOM     77  C   UNL A   1      45.395  35.125  31.095  1.00  0.00     0.000 A 
ENDBRANCH  59  72
ENDBRANCH  33  34
ENDBRANCH  25  28
ENDBRANCH  23  24
ENDBRANCH  22  23
ENDBRANCH  21  22
ENDBRANCH   1  21
TORSDOF 17
ENDMDL
MODEL 3
REMARK VINA RESULT:     -10.0      4.196      9.080
REMARK SMILES CN(CC1CCC1)C(=O)N(CC(=O)NCCCCNC(=O)c1ccc(-c2c3nc(c(-c4ccccc4)c4ccc([nH]4)c(-c4ccccc4)c4nc(c(-c5ccccc5)c5ccc2[nH]5)C=C4)C=C3)cc1)C(C)(C)C
REMARK SMILES IDX 15 1 14 2 12 3 13 4 11 6 10 7 8 8 9 9 2 10 1 11 3 12 4 13
REMARK SMILES IDX 5 14 7 15 6 16 70 17 71 18 72 19 73 20 16 21 17 22 18 23
REMARK SMILES IDX 19 24 20 25 21 27 22 28 23 29 69 30 24 31 68 32 25 33 26 34
REMARK SMILES IDX 27 35 62 36 28 37 67 38 61 39 63 40 29 41 66 42 60 43 59 44
REMARK SMILES IDX 30 46 52 47 37 48 51 49 38 50 41 51 50 52 64 53 39 54 40 55
REMARK SMILES IDX 49 57 65 58 42 59 31 60 32 61 36 62 33 63 35 64 34 65 53 66
REMARK SMILES IDX 54 67 58 68 55 69 57 70 56 71 43 72 44 73 48 74 45 75 47 76
REMARK SMILES IDX 46 77
REMARK H PARENT 14 5 19 26 63 45 41 56
REMARK Flexibility Score: inf
ROOT
ATOM      1  C   UNL A   1      31.605  29.931  25.335  1.00  0.00     0.116 C 
ENDROOT
BRANCH   1   2
ATOM      2  N   UNL A   1      32.819  29.744  24.559  1.00  0.00    -0.355 N 
ATOM      3  C   UNL A   1      33.482  28.619  24.173  1.00  0.00     0.239 C 
ATOM      4  O   UNL A   1      34.301  28.767  23.256  1.00  0.00    -0.273 OA
ATOM      5  H   UNL A   1      33.238  30.582  24.257  1.00  0.00     0.163 HD
BRANCH   3   6
ATOM      6  C   UNL A   1      33.174  27.191  24.676  1.00  0.00     0.221 C 
BRANCH   6   7
ATOM      7  N   UNL A   1      32.669  26.169  23.760  1.00  0.00    -0.311 N 
BRANCH   7   8
ATOM      8  C   UNL A   1      33.449  25.340  22.947  1.00  0.00     0.320 C 
ATOM      9  O   UNL A   1      33.805  25.749  21.832  1.00  0.00    -0.248 OA
BRANCH   8  10
ATOM     10  N   UNL A   1      33.959  24.108  23.361  1.00  0.00    -0.327 N 
ATOM     11  C   UNL A   1      33.757  23.024  22.398  1.00  0.00     0.148 C 
BRANCH  10  12
ATOM     12  C   UNL A   1      34.419  23.649  24.684  1.00  0.00     0.124 C 
BRANCH  12  13
ATOM     13  C   UNL A   1      35.898  23.297  24.581  1.00  0.00     0.008 C 
ATOM     14  C   UNL A   1      36.763  23.537  25.854  1.00  0.00     0.005 C 
ATOM     15  C   UNL A   1      36.484  21.855  24.602  1.00  0.00     0.005 C 
ATOM     16  C   UNL A   1      37.737  22.498  25.259  1.00  0.00     0.001 C 
ENDBRANCH  12  13
ENDBRANCH  10  12
ENDBRANCH   8  10
ENDBRANCH   7   8
BRANCH   7  17
ATOM     17  C   UNL A   1      31.153  26.189  23.538  1.00  0.00     0.037 C 
ATOM     18  C   UNL A   1      30.759  27.224  22.463  1.00  0.00     0.034 C 
ATOM     19  C   UNL A   1      30.611  24.798  23.140  1.00  0.00     0.034 C 
ATOM     20  C   UNL A   1      30.336  26.586  24.805  1.00  0.00     0.034 C 
ENDBRANCH   7  17
ENDBRANCH   6   7
ENDBRANCH   3   6
ENDBRANCH   1   2
BRANCH   1  21
ATOM     21  C   UNL A   1      31.842  30.459  26.744  1.00  0.00     0.023 C 
BRANCH  21  22
ATOM     22  C   UNL A   1      31.593  31.950  26.913  1.00  0.00     0.023 C 
BRANCH  22  23
ATOM     23  C   UNL A   1      32.839  32.761  27.238  1.00  0.00     0.116 C 
BRANCH  23  24
ATOM     24  N   UNL A   1      32.529  34.116  27.670  1.00  0.00    -0.352 N 
ATOM     25  C   UNL A   1      33.110  34.866  28.668  1.00  0.00     0.251 C 
ATOM     26  H   UNL A   1      31.800  34.559  27.179  1.00  0.00     0.163 HD
ATOM     27  O   UNL A   1      32.619  35.926  29.024  1.00  0.00    -0.269 OA
BRANCH  25  28
ATOM     28  C   UNL A   1      34.328  34.351  29.323  1.00  0.00     0.039 A 
ATOM     29  C   UNL A   1      34.211  33.636  30.517  1.00  0.00     0.014 A 
ATOM     30  C   UNL A   1      35.574  34.526  28.719  1.00  0.00     0.014 A 
ATOM     31  C   UNL A   1      35.341  33.019  31.059  1.00  0.00     0.010 A 
ATOM     32  C   UNL A   1      36.672  33.828  29.201  1.00  0.00     0.010 A 
ATOM     33  C   UNL A   1      36.569  33.073  30.379  1.00  0.00    -0.014 A 
BRANCH  33  34
ATOM     34  C   UNL A   1      37.769  32.360  30.880  1.00  0.00     0.031 A 
ATOM     35  C   UNL A   1      38.535  32.917  32.048  1.00  0.00     0.074 A 
ATOM     36  C   UNL A   1      38.216  31.263  30.239  1.00  0.00     0.049 A 
ATOM     37  N   UNL A   1      39.651  32.493  32.583  1.00  0.00    -0.248 NA
ATOM     38  C   UNL A   1      37.991  34.133  32.675  1.00  0.00     0.031 C 
ATOM     39  C   UNL A   1      37.590  30.646  29.067  1.00  0.00     0.029 A 
ATOM     40  N   UNL A   1      39.313  30.475  30.483  1.00  0.00    -0.354 N 
ATOM     41  C   UNL A   1      39.953  33.402  33.588  1.00  0.00     0.074 A 
ATOM     42  C   UNL A   1      38.940  34.432  33.548  1.00  0.00     0.031 C 
ATOM     43  C   UNL A   1      38.290  29.555  28.719  1.00  0.00     0.029 A 
ATOM     44  C   UNL A   1      39.436  29.420  29.611  1.00  0.00     0.049 A 
ATOM     45  H   UNL A   1      39.950  30.648  31.212  1.00  0.00     0.167 HD
ATOM     46  C   UNL A   1      40.969  33.372  34.484  1.00  0.00     0.031 A 
ATOM     47  C   UNL A   1      40.370  28.453  29.539  1.00  0.00     0.031 A 
ATOM     48  C   UNL A   1      41.969  32.341  34.531  1.00  0.00     0.049 A 
ATOM     49  C   UNL A   1      41.499  28.447  30.532  1.00  0.00     0.074 A 
ATOM     50  C   UNL A   1      43.005  32.185  35.434  1.00  0.00     0.029 A 
ATOM     51  N   UNL A   1      42.057  31.288  33.633  1.00  0.00    -0.354 N 
ATOM     52  N   UNL A   1      41.734  29.276  31.520  1.00  0.00    -0.248 NA
ATOM     53  C   UNL A   1      42.484  27.364  30.404  1.00  0.00     0.031 C 
ATOM     54  C   UNL A   1      43.751  31.065  35.052  1.00  0.00     0.029 A 
ATOM     55  C   UNL A   1      43.145  30.492  33.945  1.00  0.00     0.049 A 
ATOM     56  H   UNL A   1      41.437  31.131  32.884  1.00  0.00     0.167 HD
ATOM     57  C   UNL A   1      42.877  28.800  32.150  1.00  0.00     0.074 A 
ATOM     58  C   UNL A   1      43.279  27.604  31.438  1.00  0.00     0.031 C 
ATOM     59  C   UNL A   1      43.532  29.306  33.223  1.00  0.00     0.031 A 
BRANCH  46  60
ATOM     60  C   UNL A   1      41.041  34.501  35.474  1.00  0.00    -0.014 A 
ATOM     61  C   UNL A   1      41.817  35.645  35.222  1.00  0.00     0.009 A 
ATOM     62  C   UNL A   1      40.328  34.420  36.680  1.00  0.00     0.009 A 
ATOM     63  C   UNL A   1      41.920  36.657  36.177  1.00  0.00     0.001 A 
ATOM     64  C   UNL A   1      40.405  35.451  37.619  1.00  0.00     0.001 A 
ATOM     65  C   UNL A   1      41.211  36.561  37.373  1.00  0.00     0.000 A 
ENDBRANCH  46  60
BRANCH  47  66
ATOM     66  C   UNL A   1      40.257  27.388  28.509  1.00  0.00    -0.014 A 
ATOM     67  C   UNL A   1      39.546  26.210  28.785  1.00  0.00     0.009 A 
ATOM     68  C   UNL A   1      40.845  27.544  27.244  1.00  0.00     0.009 A 
ATOM     69  C   UNL A   1      39.443  25.203  27.825  1.00  0.00     0.001 A 
ATOM     70  C   UNL A   1      40.716  26.546  26.276  1.00  0.00     0.001 A 
ATOM     71  C   UNL A   1      40.022  25.374  26.569  1.00  0.00     0.000 A 
ENDBRANCH  47  66
BRANCH  59  72
ATOM     72  C   UNL A   1      44.731  28.547  33.717  1.00  0.00    -0.014 A 
ATOM     73  C   UNL A   1      44.605  27.508  34.651  1.00  0.00     0.009 A 
ATOM     74  C   UNL A   1      46.002  28.850  33.202  1.00  0.00     0.009 A 
ATOM     75  C   UNL A   1      45.733  26.808  35.083  1.00  0.00     0.001 A 
ATOM     76  C   UNL A   1      47.123  28.129  33.613  1.00  0.00     0.001 A 
ATOM     77  C   UNL A   1      46.989  27.115  34.560  1.00  0.00     0.000 A 
ENDBRANCH  59  72
ENDBRANCH  33  34
ENDBRANCH  25  28
ENDBRANCH  23  24
ENDBRANCH  22  23
ENDBRANCH  21  22
ENDBRANCH   1  21
TORSDOF 17
ENDMDL
