MODEL 1
REMARK VINA RESULT:     -11.5      0.000      0.000
REMARK SMILES Cn1cc(CNC(=O)Cn2ccc(C(=O)NCCCCNC(=O)c3ccc(-c4c5nc(c(-c6ccccc6)c6ccc([nH]6)c(-c6ccccc6)c6nc(c(-c7ccccc7)c7ccc4[nH]7)C=C6)C=C5)cc3)n2)cn1
REMARK SMILES IDX 17 1 16 2 14 3 15 4 13 6 10 7 11 8 72 9 12 10 9 11 7 12 6 13
REMARK SMILES IDX 8 15 5 16 4 17 1 18 2 19 3 20 74 21 73 22 18 23 19 24 20 25
REMARK SMILES IDX 21 26 22 27 23 29 24 30 25 31 71 32 26 33 70 34 27 35 28 36
REMARK SMILES IDX 29 37 64 38 30 39 69 40 63 41 65 42 31 43 68 44 62 45 61 46
REMARK SMILES IDX 32 48 54 49 39 50 53 51 40 52 43 53 52 54 66 55 41 56 42 57
REMARK SMILES IDX 51 59 67 60 44 61 33 62 34 63 38 64 35 65 37 66 36 67 55 68
REMARK SMILES IDX 56 69 60 70 57 71 59 72 58 73 45 74 46 75 50 76 47 77 49 78
REMARK SMILES IDX 48 79
REMARK H PARENT 16 5 6 14 21 28 65 47 43 58
REMARK Flexibility Score: inf
ROOT
ATOM      1  C   UNL A   1      36.551  21.743  25.764  1.00  0.00     0.116 C 
ENDROOT
BRANCH   1   2
ATOM      2  N   UNL A   1      35.531  21.847  26.785  1.00  0.00    -0.351 N 
ATOM      3  C   UNL A   1      34.291  22.448  26.797  1.00  0.00     0.271 C 
ATOM      4  O   UNL A   1      33.620  22.240  27.814  1.00  0.00    -0.267 OA
ATOM      5  H   UNL A   1      35.769  21.407  27.632  1.00  0.00     0.163 HD
BRANCH   3   6
ATOM      6  C   UNL A   1      33.792  23.277  25.675  1.00  0.00     0.150 A 
ATOM      7  N   UNL A   1      33.367  25.088  24.598  1.00  0.00    -0.263 N 
ATOM      8  C   UNL A   1      33.016  24.094  23.740  1.00  0.00     0.110 A 
ATOM      9  N   UNL A   1      33.804  24.624  25.783  1.00  0.00    -0.167 NA
ATOM     10  C   UNL A   1      33.289  22.918  24.394  1.00  0.00     0.056 A 
BRANCH   7  11
ATOM     11  C   UNL A   1      33.314  26.524  24.384  1.00  0.00     0.243 C 
BRANCH  11  12
ATOM     12  C   UNL A   1      32.482  27.241  25.420  1.00  0.00     0.241 C 
ATOM     13  N   UNL A   1      31.132  27.347  25.257  1.00  0.00    -0.350 N 
ATOM     14  H   UNL A   1      30.654  27.839  25.963  1.00  0.00     0.163 HD
ATOM     15  O   UNL A   1      32.995  27.746  26.422  1.00  0.00    -0.273 OA
BRANCH  13  16
ATOM     16  C   UNL A   1      30.310  26.831  24.182  1.00  0.00     0.155 C 
BRANCH  16  17
ATOM     17  C   UNL A   1      29.982  27.959  23.282  1.00  0.00     0.009 A 
ATOM     18  C   UNL A   1      27.970  30.347  21.478  1.00  0.00     0.173 C 
ATOM     19  N   UNL A   1      28.962  29.505  22.101  1.00  0.00    -0.275 N 
ATOM     20  C   UNL A   1      28.742  28.491  22.988  1.00  0.00     0.113 A 
ATOM     21  N   UNL A   1      30.259  29.684  21.805  1.00  0.00    -0.181 NA
ATOM     22  C   UNL A   1      30.879  28.748  22.524  1.00  0.00     0.140 A 
ENDBRANCH  16  17
ENDBRANCH  13  16
ENDBRANCH  11  12
ENDBRANCH   7  11
ENDBRANCH   3   6
ENDBRANCH   1   2
BRANCH   1  23
ATOM     23  C   UNL A   1      36.403  20.483  24.908  1.00  0.00     0.023 C 
BRANCH  23  24
ATOM     24  C   UNL A   1      37.618  19.540  24.894  1.00  0.00     0.023 C 
BRANCH  24  25
ATOM     25  C   UNL A   1      38.910  20.121  25.465  1.00  0.00     0.116 C 
BRANCH  25  26
ATOM     26  N   UNL A   1      39.949  19.111  25.701  1.00  0.00    -0.352 N 
ATOM     27  C   UNL A   1      41.291  19.304  25.957  1.00  0.00     0.251 C 
ATOM     28  H   UNL A   1      39.649  18.174  25.673  1.00  0.00     0.163 HD
ATOM     29  O   UNL A   1      42.115  18.404  25.755  1.00  0.00    -0.269 OA
BRANCH  27  30
ATOM     30  C   UNL A   1      41.737  20.590  26.509  1.00  0.00     0.039 A 
ATOM     31  C   UNL A   1      42.425  21.547  25.757  1.00  0.00     0.014 A 
ATOM     32  C   UNL A   1      41.416  20.831  27.840  1.00  0.00     0.014 A 
ATOM     33  C   UNL A   1      42.717  22.781  26.339  1.00  0.00     0.010 A 
ATOM     34  C   UNL A   1      41.526  22.094  28.343  1.00  0.00     0.010 A 
ATOM     35  C   UNL A   1      42.250  23.045  27.633  1.00  0.00    -0.014 A 
BRANCH  35  36
ATOM     36  C   UNL A   1      42.429  24.334  28.286  1.00  0.00     0.031 A 
ATOM     37  C   UNL A   1      41.347  25.323  28.036  1.00  0.00     0.074 A 
ATOM     38  C   UNL A   1      43.313  24.475  29.299  1.00  0.00     0.049 A 
ATOM     39  N   UNL A   1      41.437  26.471  27.451  1.00  0.00    -0.248 NA
ATOM     40  C   UNL A   1      39.966  24.936  28.376  1.00  0.00     0.031 C 
ATOM     41  C   UNL A   1      44.174  23.440  29.894  1.00  0.00     0.029 A 
ATOM     42  N   UNL A   1      43.509  25.530  30.132  1.00  0.00    -0.354 N 
ATOM     43  C   UNL A   1      40.169  27.042  27.532  1.00  0.00     0.074 A 
ATOM     44  C   UNL A   1      39.276  25.980  27.914  1.00  0.00     0.031 C 
ATOM     45  C   UNL A   1      44.578  23.837  31.120  1.00  0.00     0.029 A 
ATOM     46  C   UNL A   1      44.156  25.210  31.321  1.00  0.00     0.049 A 
ATOM     47  H   UNL A   1      43.216  26.445  29.913  1.00  0.00     0.167 HD
ATOM     48  C   UNL A   1      39.997  28.395  27.555  1.00  0.00     0.031 A 
ATOM     49  C   UNL A   1      44.292  26.002  32.412  1.00  0.00     0.031 A 
ATOM     50  C   UNL A   1      41.207  29.084  27.183  1.00  0.00     0.049 A 
ATOM     51  C   UNL A   1      44.013  27.392  31.982  1.00  0.00     0.074 A 
ATOM     52  C   UNL A   1      42.025  29.096  26.072  1.00  0.00     0.029 A 
ATOM     53  N   UNL A   1      41.953  29.618  28.208  1.00  0.00    -0.354 N 
ATOM     54  N   UNL A   1      44.775  28.057  31.161  1.00  0.00    -0.248 NA
ATOM     55  C   UNL A   1      42.647  27.879  32.099  1.00  0.00     0.031 C 
ATOM     56  C   UNL A   1      43.350  29.172  26.596  1.00  0.00     0.029 A 
ATOM     57  C   UNL A   1      43.262  29.284  27.985  1.00  0.00     0.049 A 
ATOM     58  H   UNL A   1      41.609  30.145  28.964  1.00  0.00     0.167 HD
ATOM     59  C   UNL A   1      43.891  28.736  30.334  1.00  0.00     0.074 A 
ATOM     60  C   UNL A   1      42.603  28.677  31.027  1.00  0.00     0.031 C 
ATOM     61  C   UNL A   1      44.218  29.019  29.038  1.00  0.00     0.031 A 
BRANCH  48  62
ATOM     62  C   UNL A   1      38.906  29.098  28.336  1.00  0.00    -0.014 A 
ATOM     63  C   UNL A   1      38.787  28.821  29.711  1.00  0.00     0.009 A 
ATOM     64  C   UNL A   1      37.828  29.778  27.738  1.00  0.00     0.009 A 
ATOM     65  C   UNL A   1      37.614  29.112  30.418  1.00  0.00     0.001 A 
ATOM     66  C   UNL A   1      36.673  30.113  28.452  1.00  0.00     0.001 A 
ATOM     67  C   UNL A   1      36.553  29.747  29.784  1.00  0.00     0.000 A 
ENDBRANCH  48  62
BRANCH  49  68
ATOM     68  C   UNL A   1      44.390  25.622  33.838  1.00  0.00    -0.014 A 
ATOM     69  C   UNL A   1      43.248  25.247  34.562  1.00  0.00     0.009 A 
ATOM     70  C   UNL A   1      45.646  25.368  34.422  1.00  0.00     0.009 A 
ATOM     71  C   UNL A   1      43.358  24.607  35.805  1.00  0.00     0.001 A 
ATOM     72  C   UNL A   1      45.757  24.732  35.663  1.00  0.00     0.001 A 
ATOM     73  C   UNL A   1      44.612  24.336  36.348  1.00  0.00     0.000 A 
ENDBRANCH  49  68
BRANCH  61  74
ATOM     74  C   UNL A   1      45.643  28.790  28.598  1.00  0.00    -0.014 A 
ATOM     75  C   UNL A   1      46.631  29.789  28.635  1.00  0.00     0.009 A 
ATOM     76  C   UNL A   1      46.036  27.479  28.296  1.00  0.00     0.009 A 
ATOM     77  C   UNL A   1      47.969  29.486  28.356  1.00  0.00     0.001 A 
ATOM     78  C   UNL A   1      47.373  27.171  28.039  1.00  0.00     0.001 A 
ATOM     79  C   UNL A   1      48.338  28.175  28.064  1.00  0.00     0.000 A 
ENDBRANCH  61  74
ENDBRANCH  35  36
ENDBRANCH  27  30
ENDBRANCH  25  26
ENDBRANCH  24  25
ENDBRANCH  23  24
ENDBRANCH   1  23
TORSDOF 15
ENDMDL
MODEL 2
REMARK VINA RESULT:     -11.2      1.729      2.092
REMARK SMILES Cn1cc(CNC(=O)Cn2ccc(C(=O)NCCCCNC(=O)c3ccc(-c4c5nc(c(-c6ccccc6)c6ccc([nH]6)c(-c6ccccc6)c6nc(c(-c7ccccc7)c7ccc4[nH]7)C=C6)C=C5)cc3)n2)cn1
REMARK SMILES IDX 17 1 16 2 14 3 15 4 13 6 10 7 11 8 72 9 12 10 9 11 7 12 6 13
REMARK SMILES IDX 8 15 5 16 4 17 1 18 2 19 3 20 74 21 73 22 18 23 19 24 20 25
REMARK SMILES IDX 21 26 22 27 23 29 24 30 25 31 71 32 26 33 70 34 27 35 28 36
REMARK SMILES IDX 29 37 64 38 30 39 69 40 63 41 65 42 31 43 68 44 62 45 61 46
REMARK SMILES IDX 32 48 54 49 39 50 53 51 40 52 43 53 52 54 66 55 41 56 42 57
REMARK SMILES IDX 51 59 67 60 44 61 33 62 34 63 38 64 35 65 37 66 36 67 55 68
REMARK SMILES IDX 56 69 60 70 57 71 59 72 58 73 45 74 46 75 50 76 47 77 49 78
REMARK SMILES IDX 48 79
REMARK H PARENT 16 5 6 14 21 28 65 47 43 58
REMARK Flexibility Score: inf
ROOT
ATOM      1  C   UNL A   1      36.741  21.830  25.378  1.00  0.00     0.116 C 
ENDROOT
BRANCH   1   2
ATOM      2  N   UNL A   1      35.886  21.852  26.545  1.00  0.00    -0.351 N 
ATOM      3  C   UNL A   1      34.558  21.534  26.725  1.00  0.00     0.271 C 
ATOM      4  O   UNL A   1      34.170  21.555  27.900  1.00  0.00    -0.267 OA
ATOM      5  H   UNL A   1      36.338  22.154  27.365  1.00  0.00     0.163 HD
BRANCH   3   6
ATOM      6  C   UNL A   1      33.658  21.186  25.601  1.00  0.00     0.150 A 
ATOM      7  N   UNL A   1      32.536  21.516  23.798  1.00  0.00    -0.263 N 
ATOM      8  C   UNL A   1      32.370  20.192  24.062  1.00  0.00     0.110 A 
ATOM      9  N   UNL A   1      33.277  22.144  24.728  1.00  0.00    -0.167 NA
ATOM     10  C   UNL A   1      33.088  19.944  25.206  1.00  0.00     0.056 A 
BRANCH   7  11
ATOM     11  C   UNL A   1      32.016  22.284  22.679  1.00  0.00     0.243 C 
BRANCH  11  12
ATOM     12  C   UNL A   1      32.834  23.518  22.384  1.00  0.00     0.241 C 
ATOM     13  N   UNL A   1      32.448  24.727  22.884  1.00  0.00    -0.350 N 
ATOM     14  H   UNL A   1      33.020  25.491  22.641  1.00  0.00     0.163 HD
ATOM     15  O   UNL A   1      33.852  23.465  21.690  1.00  0.00    -0.273 OA
BRANCH  13  16
ATOM     16  C   UNL A   1      31.311  25.034  23.725  1.00  0.00     0.155 C 
BRANCH  16  17
ATOM     17  C   UNL A   1      31.763  25.979  24.770  1.00  0.00     0.009 A 
ATOM     18  C   UNL A   1      31.583  28.172  27.627  1.00  0.00     0.173 C 
ATOM     19  N   UNL A   1      31.889  27.349  26.483  1.00  0.00    -0.275 N 
ATOM     20  C   UNL A   1      31.031  26.537  25.799  1.00  0.00     0.113 A 
ATOM     21  N   UNL A   1      33.135  27.351  25.983  1.00  0.00    -0.181 NA
ATOM     22  C   UNL A   1      33.060  26.517  24.945  1.00  0.00     0.140 A 
ENDBRANCH  16  17
ENDBRANCH  13  16
ENDBRANCH  11  12
ENDBRANCH   7  11
ENDBRANCH   3   6
ENDBRANCH   1   2
BRANCH   1  23
ATOM     23  C   UNL A   1      36.682  20.497  24.628  1.00  0.00     0.023 C 
BRANCH  23  24
ATOM     24  C   UNL A   1      37.800  19.495  24.961  1.00  0.00     0.023 C 
BRANCH  24  25
ATOM     25  C   UNL A   1      39.036  20.087  25.636  1.00  0.00     0.116 C 
BRANCH  25  26
ATOM     26  N   UNL A   1      40.133  19.124  25.792  1.00  0.00    -0.352 N 
ATOM     27  C   UNL A   1      41.477  19.376  25.976  1.00  0.00     0.251 C 
ATOM     28  H   UNL A   1      39.876  18.174  25.763  1.00  0.00     0.163 HD
ATOM     29  O   UNL A   1      42.328  18.519  25.710  1.00  0.00    -0.269 OA
BRANCH  27  30
ATOM     30  C   UNL A   1      41.894  20.671  26.527  1.00  0.00     0.039 A 
ATOM     31  C   UNL A   1      42.506  21.667  25.759  1.00  0.00     0.014 A 
ATOM     32  C   UNL A   1      41.626  20.880  27.875  1.00  0.00     0.014 A 
ATOM     33  C   UNL A   1      42.772  22.904  26.347  1.00  0.00     0.010 A 
ATOM     34  C   UNL A   1      41.706  22.139  28.393  1.00  0.00     0.010 A 
ATOM     35  C   UNL A   1      42.356  23.130  27.666  1.00  0.00    -0.014 A 
BRANCH  35  36
ATOM     36  C   UNL A   1      42.511  24.416  28.330  1.00  0.00     0.031 A 
ATOM     37  C   UNL A   1      41.431  25.401  28.056  1.00  0.00     0.074 A 
ATOM     38  C   UNL A   1      43.367  24.556  29.368  1.00  0.00     0.049 A 
ATOM     39  N   UNL A   1      41.532  26.553  27.480  1.00  0.00    -0.248 NA
ATOM     40  C   UNL A   1      40.044  25.006  28.356  1.00  0.00     0.031 C 
ATOM     41  C   UNL A   1      44.216  23.521  29.980  1.00  0.00     0.029 A 
ATOM     42  N   UNL A   1      43.535  25.607  30.211  1.00  0.00    -0.354 N 
ATOM     43  C   UNL A   1      40.259  27.118  27.530  1.00  0.00     0.074 A 
ATOM     44  C   UNL A   1      39.361  26.049  27.881  1.00  0.00     0.031 C 
ATOM     45  C   UNL A   1      44.585  23.913  31.218  1.00  0.00     0.029 A 
ATOM     46  C   UNL A   1      44.151  25.283  31.415  1.00  0.00     0.049 A 
ATOM     47  H   UNL A   1      43.244  26.522  29.989  1.00  0.00     0.167 HD
ATOM     48  C   UNL A   1      40.080  28.470  27.556  1.00  0.00     0.031 A 
ATOM     49  C   UNL A   1      44.254  26.070  32.514  1.00  0.00     0.031 A 
ATOM     50  C   UNL A   1      41.297  29.167  27.220  1.00  0.00     0.049 A 
ATOM     51  C   UNL A   1      43.980  27.461  32.084  1.00  0.00     0.074 A 
ATOM     52  C   UNL A   1      42.144  29.188  26.132  1.00  0.00     0.029 A 
ATOM     53  N   UNL A   1      42.012  29.698  28.268  1.00  0.00    -0.354 N 
ATOM     54  N   UNL A   1      44.761  28.134  31.288  1.00  0.00    -0.248 NA
ATOM     55  C   UNL A   1      42.609  27.941  32.166  1.00  0.00     0.031 C 
ATOM     56  C   UNL A   1      43.454  29.268  26.692  1.00  0.00     0.029 A 
ATOM     57  C   UNL A   1      43.328  29.371  28.079  1.00  0.00     0.049 A 
ATOM     58  H   UNL A   1      41.645  30.220  29.017  1.00  0.00     0.167 HD
ATOM     59  C   UNL A   1      43.896  28.813  30.441  1.00  0.00     0.074 A 
ATOM     60  C   UNL A   1      42.591  28.744  31.098  1.00  0.00     0.031 C 
ATOM     61  C   UNL A   1      44.257  29.105  29.156  1.00  0.00     0.031 A 
BRANCH  48  62
ATOM     62  C   UNL A   1      38.966  29.163  28.310  1.00  0.00    -0.014 A 
ATOM     63  C   UNL A   1      38.971  29.097  29.717  1.00  0.00     0.009 A 
ATOM     64  C   UNL A   1      37.776  29.618  27.710  1.00  0.00     0.009 A 
ATOM     65  C   UNL A   1      37.820  29.365  30.467  1.00  0.00     0.001 A 
ATOM     66  C   UNL A   1      36.638  29.932  28.459  1.00  0.00     0.001 A 
ATOM     67  C   UNL A   1      36.650  29.771  29.836  1.00  0.00     0.000 A 
ENDBRANCH  48  62
BRANCH  49  68
ATOM     68  C   UNL A   1      44.315  25.682  33.939  1.00  0.00    -0.014 A 
ATOM     69  C   UNL A   1      43.447  24.709  34.458  1.00  0.00     0.009 A 
ATOM     70  C   UNL A   1      45.407  26.074  34.737  1.00  0.00     0.009 A 
ATOM     71  C   UNL A   1      43.683  24.122  35.709  1.00  0.00     0.001 A 
ATOM     72  C   UNL A   1      45.643  25.491  35.988  1.00  0.00     0.001 A 
ATOM     73  C   UNL A   1      44.789  24.502  36.466  1.00  0.00     0.000 A 
ENDBRANCH  49  68
BRANCH  61  74
ATOM     74  C   UNL A   1      45.694  28.885  28.753  1.00  0.00    -0.014 A 
ATOM     75  C   UNL A   1      46.683  29.879  28.851  1.00  0.00     0.009 A 
ATOM     76  C   UNL A   1      46.093  27.582  28.422  1.00  0.00     0.009 A 
ATOM     77  C   UNL A   1      48.028  29.580  28.605  1.00  0.00     0.001 A 
ATOM     78  C   UNL A   1      47.436  27.278  28.197  1.00  0.00     0.001 A 
ATOM     79  C   UNL A   1      48.403  28.278  28.283  1.00  0.00     0.000 A 
ENDBRANCH  61  74
ENDBRANCH  35  36
ENDBRANCH  27  30
ENDBRANCH  25  26
ENDBRANCH  24  25
ENDBRANCH  23  24
ENDBRANCH   1  23
TORSDOF 15
ENDMDL
MODEL 3
REMARK VINA RESULT:     -10.9      4.787      9.613
REMARK SMILES Cn1cc(CNC(=O)Cn2ccc(C(=O)NCCCCNC(=O)c3ccc(-c4c5nc(c(-c6ccccc6)c6ccc([nH]6)c(-c6ccccc6)c6nc(c(-c7ccccc7)c7ccc4[nH]7)C=C6)C=C5)cc3)n2)cn1
REMARK SMILES IDX 17 1 16 2 14 3 15 4 13 6 10 7 11 8 72 9 12 10 9 11 7 12 6 13
REMARK SMILES IDX 8 15 5 16 4 17 1 18 2 19 3 20 74 21 73 22 18 23 19 24 20 25
REMARK SMILES IDX 21 26 22 27 23 29 24 30 25 31 71 32 26 33 70 34 27 35 28 36
REMARK SMILES IDX 29 37 64 38 30 39 69 40 63 41 65 42 31 43 68 44 62 45 61 46
REMARK SMILES IDX 32 48 54 49 39 50 53 51 40 52 43 53 52 54 66 55 41 56 42 57
REMARK SMILES IDX 51 59 67 60 44 61 33 62 34 63 38 64 35 65 37 66 36 67 55 68
REMARK SMILES IDX 56 69 60 70 57 71 59 72 58 73 45 74 46 75 50 76 47 77 49 78
REMARK SMILES IDX 48 79
REMARK H PARENT 16 5 6 14 21 28 65 47 43 58
REMARK Flexibility Score: inf
ROOT
ATOM      1  C   UNL A   1      35.475  33.340  28.452  1.00  0.00     0.116 C 
ENDROOT
BRANCH   1   2
ATOM      2  N   UNL A   1      34.118  33.290  27.953  1.00  0.00    -0.351 N 
ATOM      3  C   UNL A   1      33.026  34.104  28.157  1.00  0.00     0.271 C 
ATOM      4  O   UNL A   1      32.034  33.830  27.470  1.00  0.00    -0.267 OA
ATOM      5  H   UNL A   1      33.942  32.529  27.355  1.00  0.00     0.163 HD
BRANCH   3   6
ATOM      6  C   UNL A   1      33.033  35.227  29.123  1.00  0.00     0.150 A 
ATOM      7  N   UNL A   1      32.809  36.186  31.033  1.00  0.00    -0.263 N 
ATOM      8  C   UNL A   1      33.277  37.167  30.215  1.00  0.00     0.110 A 
ATOM      9  N   UNL A   1      32.619  35.019  30.393  1.00  0.00    -0.167 NA
ATOM     10  C   UNL A   1      33.445  36.581  28.984  1.00  0.00     0.056 A 
BRANCH   7  11
ATOM     11  C   UNL A   1      32.499  36.268  32.451  1.00  0.00     0.243 C 
BRANCH  11  12
ATOM     12  C   UNL A   1      33.713  36.563  33.299  1.00  0.00     0.241 C 
ATOM     13  N   UNL A   1      34.498  35.541  33.745  1.00  0.00    -0.350 N 
ATOM     14  H   UNL A   1      35.264  35.804  34.305  1.00  0.00     0.163 HD
ATOM     15  O   UNL A   1      34.016  37.718  33.610  1.00  0.00    -0.273 OA
BRANCH  13  16
ATOM     16  C   UNL A   1      34.354  34.121  33.504  1.00  0.00     0.155 C 
BRANCH  16  17
ATOM     17  C   UNL A   1      35.697  33.573  33.212  1.00  0.00     0.009 A 
ATOM     18  C   UNL A   1      38.665  32.770  31.328  1.00  0.00     0.173 C 
ATOM     19  N   UNL A   1      37.591  32.985  32.265  1.00  0.00    -0.275 N 
ATOM     20  C   UNL A   1      36.422  33.654  32.039  1.00  0.00     0.113 A 
ATOM     21  N   UNL A   1      37.688  32.485  33.507  1.00  0.00    -0.181 NA
ATOM     22  C   UNL A   1      36.540  32.845  34.083  1.00  0.00     0.140 A 
ENDBRANCH  16  17
ENDBRANCH  13  16
ENDBRANCH  11  12
ENDBRANCH   7  11
ENDBRANCH   3   6
ENDBRANCH   1   2
BRANCH   1  23
ATOM     23  C   UNL A   1      36.319  32.150  27.990  1.00  0.00     0.023 C 
BRANCH  23  24
ATOM     24  C   UNL A   1      35.530  30.941  27.458  1.00  0.00     0.023 C 
BRANCH  24  25
ATOM     25  C   UNL A   1      35.484  29.725  28.380  1.00  0.00     0.116 C 
BRANCH  25  26
ATOM     26  N   UNL A   1      35.657  30.062  29.798  1.00  0.00    -0.352 N 
ATOM     27  C   UNL A   1      36.644  29.642  30.666  1.00  0.00     0.251 C 
ATOM     28  H   UNL A   1      34.980  30.666  30.181  1.00  0.00     0.163 HD
ATOM     29  O   UNL A   1      36.473  29.673  31.891  1.00  0.00    -0.269 OA
BRANCH  27  30
ATOM     30  C   UNL A   1      37.929  29.185  30.121  1.00  0.00     0.039 A 
ATOM     31  C   UNL A   1      38.622  29.873  29.120  1.00  0.00     0.014 A 
ATOM     32  C   UNL A   1      38.452  28.022  30.674  1.00  0.00     0.014 A 
ATOM     33  C   UNL A   1      39.885  29.418  28.739  1.00  0.00     0.010 A 
ATOM     34  C   UNL A   1      39.755  27.691  30.444  1.00  0.00     0.010 A 
ATOM     35  C   UNL A   1      40.445  28.328  29.419  1.00  0.00    -0.014 A 
BRANCH  35  36
ATOM     36  C   UNL A   1      41.791  27.841  29.151  1.00  0.00     0.031 A 
ATOM     37  C   UNL A   1      41.859  26.557  28.404  1.00  0.00     0.074 A 
ATOM     38  C   UNL A   1      42.856  28.667  29.265  1.00  0.00     0.049 A 
ATOM     39  N   UNL A   1      42.360  25.434  28.797  1.00  0.00    -0.248 NA
ATOM     40  C   UNL A   1      41.183  26.482  27.097  1.00  0.00     0.031 C 
ATOM     41  C   UNL A   1      42.855  30.093  29.631  1.00  0.00     0.029 A 
ATOM     42  N   UNL A   1      44.150  28.457  28.909  1.00  0.00    -0.354 N 
ATOM     43  C   UNL A   1      42.248  24.565  27.713  1.00  0.00     0.074 A 
ATOM     44  C   UNL A   1      41.340  25.194  26.790  1.00  0.00     0.031 C 
ATOM     45  C   UNL A   1      44.010  30.664  29.226  1.00  0.00     0.029 A 
ATOM     46  C   UNL A   1      44.893  29.621  28.738  1.00  0.00     0.049 A 
ATOM     47  H   UNL A   1      44.530  27.558  28.783  1.00  0.00     0.167 HD
ATOM     48  C   UNL A   1      43.123  23.536  27.532  1.00  0.00     0.031 A 
ATOM     49  C   UNL A   1      46.127  29.725  28.188  1.00  0.00     0.031 A 
ATOM     50  C   UNL A   1      43.916  23.307  28.714  1.00  0.00     0.049 A 
ATOM     51  C   UNL A   1      46.721  28.368  28.186  1.00  0.00     0.074 A 
ATOM     52  C   UNL A   1      43.644  22.991  30.030  1.00  0.00     0.029 A 
ATOM     53  N   UNL A   1      45.200  23.801  28.701  1.00  0.00    -0.354 N 
ATOM     54  N   UNL A   1      47.044  27.724  29.271  1.00  0.00    -0.248 NA
ATOM     55  C   UNL A   1      46.529  27.542  27.004  1.00  0.00     0.031 C 
ATOM     56  C   UNL A   1      44.577  23.759  30.789  1.00  0.00     0.029 A 
ATOM     57  C   UNL A   1      45.412  24.434  29.896  1.00  0.00     0.049 A 
ATOM     58  H   UNL A   1      45.848  23.714  27.966  1.00  0.00     0.167 HD
ATOM     59  C   UNL A   1      46.654  26.414  29.031  1.00  0.00     0.074 A 
ATOM     60  C   UNL A   1      46.448  26.340  27.584  1.00  0.00     0.031 C 
ATOM     61  C   UNL A   1      46.250  25.603  30.053  1.00  0.00     0.031 A 
BRANCH  48  62
ATOM     62  C   UNL A   1      43.581  23.040  26.177  1.00  0.00    -0.014 A 
ATOM     63  C   UNL A   1      43.572  21.653  25.936  1.00  0.00     0.009 A 
ATOM     64  C   UNL A   1      44.284  23.832  25.249  1.00  0.00     0.009 A 
ATOM     65  C   UNL A   1      44.312  21.086  24.892  1.00  0.00     0.001 A 
ATOM     66  C   UNL A   1      44.987  23.273  24.177  1.00  0.00     0.001 A 
ATOM     67  C   UNL A   1      45.030  21.896  24.020  1.00  0.00     0.000 A 
ENDBRANCH  48  62
BRANCH  49  68
ATOM     68  C   UNL A   1      46.723  30.849  27.434  1.00  0.00    -0.014 A 
ATOM     69  C   UNL A   1      45.915  31.857  26.887  1.00  0.00     0.009 A 
ATOM     70  C   UNL A   1      48.112  31.078  27.479  1.00  0.00     0.009 A 
ATOM     71  C   UNL A   1      46.470  33.063  26.437  1.00  0.00     0.001 A 
ATOM     72  C   UNL A   1      48.667  32.281  27.028  1.00  0.00     0.001 A 
ATOM     73  C   UNL A   1      47.844  33.281  26.522  1.00  0.00     0.000 A 
ENDBRANCH  49  68
BRANCH  61  74
ATOM     74  C   UNL A   1      46.461  26.082  31.468  1.00  0.00    -0.014 A 
ATOM     75  C   UNL A   1      47.637  25.833  32.199  1.00  0.00     0.009 A 
ATOM     76  C   UNL A   1      45.511  26.954  32.016  1.00  0.00     0.009 A 
ATOM     77  C   UNL A   1      47.841  26.425  33.451  1.00  0.00     0.001 A 
ATOM     78  C   UNL A   1      45.724  27.562  33.255  1.00  0.00     0.001 A 
ATOM     79  C   UNL A   1      46.886  27.293  33.974  1.00  0.00     0.000 A 
ENDBRANCH  61  74
ENDBRANCH  35  36
ENDBRANCH  27  30
ENDBRANCH  25  26
ENDBRANCH  24  25
ENDBRANCH  23  24
ENDBRANCH   1  23
TORSDOF 15
ENDMDL
