MODEL 1
REMARK VINA RESULT:     -12.8      0.000      0.000
REMARK SMILES Cc1cccc(C(=O)Nc2ccc(-c3nnc(S[C@H](C(=O)NCCCCNC(=O)c4ccc(-c5c6nc(c(-c7ccccc7)c7ccc([nH]7)c(-c7ccccc7)c7nc(c(-c8ccccc8)c8ccc5[nH]8)C=C7)C=C6)cc4)C(C)C)n3C)cc2)c1
REMARK SMILES IDX 23 1 22 2 20 3 21 4 19 6 18 7 17 8 14 9 15 10 81 11 16 12
REMARK SMILES IDX 82 13 13 14 10 15 11 16 84 17 12 18 83 19 9 20 7 21 8 22
REMARK SMILES IDX 6 24 1 25 2 26 3 27 85 28 4 29 5 30 78 31 79 32 80 33 24 34
REMARK SMILES IDX 25 35 26 36 27 37 28 38 29 40 30 41 31 42 77 43 32 44 76 45
REMARK SMILES IDX 33 46 34 47 35 48 70 49 36 50 75 51 69 52 71 53 37 54 74 55
REMARK SMILES IDX 68 56 67 57 38 59 60 60 45 61 59 62 46 63 49 64 58 65 72 66
REMARK SMILES IDX 47 67 48 68 57 70 73 71 50 72 39 73 40 74 44 75 41 76 43 77
REMARK SMILES IDX 42 78 61 79 62 80 66 81 63 82 65 83 64 84 51 85 52 86 56 87
REMARK SMILES IDX 53 88 55 89 54 90
REMARK H PARENT 22 5 9 23 27 39 71 58 49 69
REMARK Flexibility Score: inf
ROOT
ATOM      1  C   UNL A   1      31.626  29.151  25.757  1.00  0.00     0.116 C 
ENDROOT
BRANCH   1   2
ATOM      2  N   UNL A   1      32.013  28.489  24.521  1.00  0.00    -0.355 N 
ATOM      3  C   UNL A   1      31.381  28.291  23.330  1.00  0.00     0.233 C 
ATOM      4  O   UNL A   1      32.121  28.244  22.336  1.00  0.00    -0.274 OA
ATOM      5  H   UNL A   1      32.920  28.105  24.551  1.00  0.00     0.163 HD
BRANCH   3   6
ATOM      6  C   UNL A   1      29.868  28.088  23.132  1.00  0.00     0.146 C 
BRANCH   6   7
ATOM      7  S   UNL A   1      29.167  26.706  24.110  1.00  0.00    -0.072 SA
BRANCH   7   8
ATOM      8  C   UNL A   1      30.316  26.029  25.194  1.00  0.00     0.192 A 
ATOM      9  C   UNL A   1      32.038  24.838  25.874  1.00  0.00     0.164 A 
ATOM     10  N   UNL A   1      31.491  25.438  26.919  1.00  0.00    -0.129 NA
ATOM     11  N   UNL A   1      31.271  25.137  24.767  1.00  0.00    -0.305 N 
ATOM     12  N   UNL A   1      30.415  26.178  26.490  1.00  0.00    -0.123 NA
ATOM     13  C   UNL A   1      31.396  24.525  23.468  1.00  0.00     0.154 C 
BRANCH   9  14
ATOM     14  C   UNL A   1      33.228  23.987  25.924  1.00  0.00     0.019 A 
ATOM     15  C   UNL A   1      35.383  22.192  25.694  1.00  0.00     0.041 A 
ATOM     16  C   UNL A   1      35.364  23.360  24.933  1.00  0.00     0.027 A 
ATOM     17  C   UNL A   1      34.409  21.994  26.672  1.00  0.00     0.027 A 
ATOM     18  C   UNL A   1      34.277  24.235  25.029  1.00  0.00     0.014 A 
ATOM     19  C   UNL A   1      33.324  22.874  26.772  1.00  0.00     0.014 A 
BRANCH  15  20
ATOM     20  N   UNL A   1      36.350  21.230  25.368  1.00  0.00    -0.322 N 
ATOM     21  C   UNL A   1      36.232  19.889  25.057  1.00  0.00     0.255 C 
ATOM     22  O   UNL A   1      37.261  19.211  25.009  1.00  0.00    -0.269 OA
ATOM     23  H   UNL A   1      37.275  21.570  25.361  1.00  0.00     0.170 HD
BRANCH  21  24
ATOM     24  C   UNL A   1      34.934  19.247  24.679  1.00  0.00     0.040 A 
ATOM     25  C   UNL A   1      33.331  15.814  24.299  1.00  0.00     0.044 C 
ATOM     26  C   UNL A   1      33.497  17.305  24.328  1.00  0.00    -0.050 A 
ATOM     27  C   UNL A   1      32.488  18.143  23.849  1.00  0.00     0.003 A 
ATOM     28  C   UNL A   1      34.676  17.877  24.822  1.00  0.00     0.017 A 
ATOM     29  C   UNL A   1      32.679  19.524  23.818  1.00  0.00     0.001 A 
ATOM     30  C   UNL A   1      33.903  20.072  24.209  1.00  0.00     0.014 A 
ENDBRANCH  21  24
ENDBRANCH  15  20
ENDBRANCH   9  14
ENDBRANCH   7   8
ENDBRANCH   6   7
BRANCH   6  31
ATOM     31  C   UNL A   1      28.927  29.320  23.170  1.00  0.00     0.006 C 
ATOM     32  C   UNL A   1      29.235  30.278  22.006  1.00  0.00     0.009 C 
ATOM     33  C   UNL A   1      27.419  29.003  23.095  1.00  0.00     0.009 C 
ENDBRANCH   6  31
ENDBRANCH   3   6
ENDBRANCH   1   2
BRANCH   1  34
ATOM     34  C   UNL A   1      31.884  30.659  25.786  1.00  0.00     0.023 C 
BRANCH  34  35
ATOM     35  C   UNL A   1      32.311  31.228  27.143  1.00  0.00     0.023 C 
BRANCH  35  36
ATOM     36  C   UNL A   1      33.720  30.846  27.592  1.00  0.00     0.116 C 
BRANCH  36  37
ATOM     37  N   UNL A   1      34.313  31.682  28.630  1.00  0.00    -0.352 N 
ATOM     38  C   UNL A   1      35.457  31.456  29.387  1.00  0.00     0.251 C 
ATOM     39  H   UNL A   1      33.839  32.523  28.821  1.00  0.00     0.163 HD
ATOM     40  O   UNL A   1      35.777  32.240  30.268  1.00  0.00    -0.269 OA
BRANCH  38  41
ATOM     41  C   UNL A   1      36.369  30.332  29.032  1.00  0.00     0.039 A 
ATOM     42  C   UNL A   1      36.630  29.363  30.010  1.00  0.00     0.014 A 
ATOM     43  C   UNL A   1      37.116  30.348  27.860  1.00  0.00     0.014 A 
ATOM     44  C   UNL A   1      37.804  28.614  29.934  1.00  0.00     0.010 A 
ATOM     45  C   UNL A   1      38.333  29.693  27.835  1.00  0.00     0.010 A 
ATOM     46  C   UNL A   1      38.710  28.886  28.909  1.00  0.00    -0.014 A 
BRANCH  46  47
ATOM     47  C   UNL A   1      40.108  28.476  28.951  1.00  0.00     0.031 A 
ATOM     48  C   UNL A   1      40.530  27.174  28.411  1.00  0.00     0.074 A 
ATOM     49  C   UNL A   1      41.049  29.301  29.464  1.00  0.00     0.049 A 
ATOM     50  N   UNL A   1      41.510  26.483  28.893  1.00  0.00    -0.248 NA
ATOM     51  C   UNL A   1      39.857  26.534  27.289  1.00  0.00     0.031 C 
ATOM     52  C   UNL A   1      42.499  29.134  29.396  1.00  0.00     0.029 A 
ATOM     53  N   UNL A   1      40.875  30.351  30.363  1.00  0.00    -0.354 N 
ATOM     54  C   UNL A   1      41.799  25.510  27.968  1.00  0.00     0.074 A 
ATOM     55  C   UNL A   1      40.684  25.513  27.045  1.00  0.00     0.031 C 
ATOM     56  C   UNL A   1      43.051  29.796  30.425  1.00  0.00     0.029 A 
ATOM     57  C   UNL A   1      41.965  30.297  31.249  1.00  0.00     0.049 A 
ATOM     58  H   UNL A   1      40.137  31.002  30.375  1.00  0.00     0.167 HD
ATOM     59  C   UNL A   1      43.022  24.911  27.960  1.00  0.00     0.031 A 
ATOM     60  C   UNL A   1      41.830  30.124  32.596  1.00  0.00     0.031 A 
ATOM     61  C   UNL A   1      43.911  25.416  29.003  1.00  0.00     0.049 A 
ATOM     62  C   UNL A   1      42.557  28.904  33.132  1.00  0.00     0.074 A 
ATOM     63  C   UNL A   1      45.008  26.264  29.002  1.00  0.00     0.029 A 
ATOM     64  N   UNL A   1      43.551  25.267  30.332  1.00  0.00    -0.354 N 
ATOM     65  N   UNL A   1      43.225  28.057  32.400  1.00  0.00    -0.248 NA
ATOM     66  C   UNL A   1      42.469  28.470  34.527  1.00  0.00     0.031 C 
ATOM     67  C   UNL A   1      45.320  26.598  30.348  1.00  0.00     0.029 A 
ATOM     68  C   UNL A   1      44.415  25.951  31.165  1.00  0.00     0.049 A 
ATOM     69  H   UNL A   1      42.778  24.741  30.642  1.00  0.00     0.167 HD
ATOM     70  C   UNL A   1      43.583  26.969  33.155  1.00  0.00     0.074 A 
ATOM     71  C   UNL A   1      43.089  27.277  34.484  1.00  0.00     0.031 C 
ATOM     72  C   UNL A   1      44.204  25.884  32.604  1.00  0.00     0.031 A 
BRANCH  59  73
ATOM     73  C   UNL A   1      43.484  24.065  26.802  1.00  0.00    -0.014 A 
ATOM     74  C   UNL A   1      44.289  24.627  25.796  1.00  0.00     0.009 A 
ATOM     75  C   UNL A   1      43.127  22.716  26.632  1.00  0.00     0.009 A 
ATOM     76  C   UNL A   1      44.620  23.923  24.633  1.00  0.00     0.001 A 
ATOM     77  C   UNL A   1      43.416  22.019  25.451  1.00  0.00     0.001 A 
ATOM     78  C   UNL A   1      44.153  22.629  24.444  1.00  0.00     0.000 A 
ENDBRANCH  59  73
BRANCH  60  79
ATOM     79  C   UNL A   1      40.537  30.632  33.131  1.00  0.00    -0.014 A 
ATOM     80  C   UNL A   1      40.337  32.028  33.176  1.00  0.00     0.009 A 
ATOM     81  C   UNL A   1      39.417  29.791  33.202  1.00  0.00     0.009 A 
ATOM     82  C   UNL A   1      39.047  32.564  33.156  1.00  0.00     0.001 A 
ATOM     83  C   UNL A   1      38.128  30.335  33.202  1.00  0.00     0.001 A 
ATOM     84  C   UNL A   1      37.943  31.717  33.137  1.00  0.00     0.000 A 
ENDBRANCH  60  79
BRANCH  72  85
ATOM     85  C   UNL A   1      44.640  24.629  33.331  1.00  0.00    -0.014 A 
ATOM     86  C   UNL A   1      43.802  23.543  33.609  1.00  0.00     0.009 A 
ATOM     87  C   UNL A   1      45.950  24.556  33.862  1.00  0.00     0.009 A 
ATOM     88  C   UNL A   1      44.273  22.413  34.300  1.00  0.00     0.001 A 
ATOM     89  C   UNL A   1      46.419  23.445  34.567  1.00  0.00     0.001 A 
ATOM     90  C   UNL A   1      45.581  22.361  34.771  1.00  0.00     0.000 A 
ENDBRANCH  72  85
ENDBRANCH  46  47
ENDBRANCH  38  41
ENDBRANCH  36  37
ENDBRANCH  35  36
ENDBRANCH  34  35
ENDBRANCH   1  34
TORSDOF 17
ENDMDL
MODEL 2
REMARK VINA RESULT:     -12.5      1.241      2.320
REMARK SMILES Cc1cccc(C(=O)Nc2ccc(-c3nnc(S[C@H](C(=O)NCCCCNC(=O)c4ccc(-c5c6nc(c(-c7ccccc7)c7ccc([nH]7)c(-c7ccccc7)c7nc(c(-c8ccccc8)c8ccc5[nH]8)C=C7)C=C6)cc4)C(C)C)n3C)cc2)c1
REMARK SMILES IDX 23 1 22 2 20 3 21 4 19 6 18 7 17 8 14 9 15 10 81 11 16 12
REMARK SMILES IDX 82 13 13 14 10 15 11 16 84 17 12 18 83 19 9 20 7 21 8 22
REMARK SMILES IDX 6 24 1 25 2 26 3 27 85 28 4 29 5 30 78 31 79 32 80 33 24 34
REMARK SMILES IDX 25 35 26 36 27 37 28 38 29 40 30 41 31 42 77 43 32 44 76 45
REMARK SMILES IDX 33 46 34 47 35 48 70 49 36 50 75 51 69 52 71 53 37 54 74 55
REMARK SMILES IDX 68 56 67 57 38 59 60 60 45 61 59 62 46 63 49 64 58 65 72 66
REMARK SMILES IDX 47 67 48 68 57 70 73 71 50 72 39 73 40 74 44 75 41 76 43 77
REMARK SMILES IDX 42 78 61 79 62 80 66 81 63 82 65 83 64 84 51 85 52 86 56 87
REMARK SMILES IDX 53 88 55 89 54 90
REMARK H PARENT 22 5 9 23 27 39 71 58 49 69
REMARK Flexibility Score: inf
ROOT
ATOM      1  C   UNL A   1      31.577  29.026  25.968  1.00  0.00     0.116 C 
ENDROOT
BRANCH   1   2
ATOM      2  N   UNL A   1      32.019  28.234  24.830  1.00  0.00    -0.355 N 
ATOM      3  C   UNL A   1      31.482  27.983  23.602  1.00  0.00     0.233 C 
ATOM      4  O   UNL A   1      32.302  27.797  22.691  1.00  0.00    -0.274 OA
ATOM      5  H   UNL A   1      32.884  27.787  24.977  1.00  0.00     0.163 HD
BRANCH   3   6
ATOM      6  C   UNL A   1      29.981  27.878  23.275  1.00  0.00     0.146 C 
BRANCH   6   7
ATOM      7  S   UNL A   1      29.096  26.598  24.242  1.00  0.00    -0.072 SA
BRANCH   7   8
ATOM      8  C   UNL A   1      30.174  25.563  25.090  1.00  0.00     0.192 A 
ATOM      9  C   UNL A   1      31.568  23.894  25.435  1.00  0.00     0.164 A 
ATOM     10  N   UNL A   1      31.418  24.568  26.563  1.00  0.00    -0.129 NA
ATOM     11  N   UNL A   1      30.734  24.459  24.492  1.00  0.00    -0.305 N 
ATOM     12  N   UNL A   1      30.545  25.608  26.344  1.00  0.00    -0.123 NA
ATOM     13  C   UNL A   1      30.438  23.909  23.193  1.00  0.00     0.154 C 
BRANCH   9  14
ATOM     14  C   UNL A   1      32.447  22.736  25.260  1.00  0.00     0.019 A 
ATOM     15  C   UNL A   1      34.420  20.741  25.045  1.00  0.00     0.041 A 
ATOM     16  C   UNL A   1      33.875  21.053  26.291  1.00  0.00     0.027 A 
ATOM     17  C   UNL A   1      33.877  21.316  23.896  1.00  0.00     0.027 A 
ATOM     18  C   UNL A   1      32.916  22.065  26.397  1.00  0.00     0.014 A 
ATOM     19  C   UNL A   1      32.911  22.324  24.003  1.00  0.00     0.014 A 
BRANCH  15  20
ATOM     20  N   UNL A   1      35.555  19.918  25.029  1.00  0.00    -0.322 N 
ATOM     21  C   UNL A   1      36.902  20.223  25.074  1.00  0.00     0.255 C 
ATOM     22  O   UNL A   1      37.710  19.322  24.839  1.00  0.00    -0.269 OA
ATOM     23  H   UNL A   1      35.357  18.954  24.976  1.00  0.00     0.170 HD
BRANCH  21  24
ATOM     24  C   UNL A   1      37.425  21.562  25.491  1.00  0.00     0.040 A 
ATOM     25  C   UNL A   1      40.331  23.149  27.372  1.00  0.00     0.044 C 
ATOM     26  C   UNL A   1      39.072  23.007  26.568  1.00  0.00    -0.050 A 
ATOM     27  C   UNL A   1      38.260  24.115  26.315  1.00  0.00     0.003 A 
ATOM     28  C   UNL A   1      38.685  21.755  26.072  1.00  0.00     0.017 A 
ATOM     29  C   UNL A   1      37.059  23.960  25.624  1.00  0.00     0.001 A 
ATOM     30  C   UNL A   1      36.632  22.689  25.234  1.00  0.00     0.014 A 
ENDBRANCH  21  24
ENDBRANCH  15  20
ENDBRANCH   9  14
ENDBRANCH   7   8
ENDBRANCH   6   7
BRANCH   6  31
ATOM     31  C   UNL A   1      29.135  29.175  23.177  1.00  0.00     0.006 C 
ATOM     32  C   UNL A   1      29.716  30.125  22.116  1.00  0.00     0.009 C 
ATOM     33  C   UNL A   1      27.649  28.968  22.819  1.00  0.00     0.009 C 
ENDBRANCH   6  31
ENDBRANCH   3   6
ENDBRANCH   1   2
BRANCH   1  34
ATOM     34  C   UNL A   1      32.366  30.317  26.197  1.00  0.00     0.023 C 
BRANCH  34  35
ATOM     35  C   UNL A   1      33.031  30.448  27.570  1.00  0.00     0.023 C 
BRANCH  35  36
ATOM     36  C   UNL A   1      34.255  31.360  27.615  1.00  0.00     0.116 C 
BRANCH  36  37
ATOM     37  N   UNL A   1      34.600  31.911  28.920  1.00  0.00    -0.352 N 
ATOM     38  C   UNL A   1      35.585  31.500  29.811  1.00  0.00     0.251 C 
ATOM     39  H   UNL A   1      34.060  32.682  29.212  1.00  0.00     0.163 HD
ATOM     40  O   UNL A   1      35.694  32.042  30.901  1.00  0.00    -0.269 OA
BRANCH  38  41
ATOM     41  C   UNL A   1      36.598  30.495  29.381  1.00  0.00     0.039 A 
ATOM     42  C   UNL A   1      36.806  29.379  30.202  1.00  0.00     0.014 A 
ATOM     43  C   UNL A   1      37.470  30.749  28.328  1.00  0.00     0.014 A 
ATOM     44  C   UNL A   1      38.024  28.703  30.142  1.00  0.00     0.010 A 
ATOM     45  C   UNL A   1      38.719  30.159  28.338  1.00  0.00     0.010 A 
ATOM     46  C   UNL A   1      39.021  29.189  29.296  1.00  0.00    -0.014 A 
BRANCH  46  47
ATOM     47  C   UNL A   1      40.428  28.835  29.436  1.00  0.00     0.031 A 
ATOM     48  C   UNL A   1      40.974  27.635  28.781  1.00  0.00     0.074 A 
ATOM     49  C   UNL A   1      41.265  29.621  30.150  1.00  0.00     0.049 A 
ATOM     50  N   UNL A   1      41.935  26.927  29.272  1.00  0.00    -0.248 NA
ATOM     51  C   UNL A   1      40.455  27.125  27.518  1.00  0.00     0.031 C 
ATOM     52  C   UNL A   1      42.722  29.524  30.219  1.00  0.00     0.029 A 
ATOM     53  N   UNL A   1      40.943  30.532  31.154  1.00  0.00    -0.354 N 
ATOM     54  C   UNL A   1      42.371  26.100  28.266  1.00  0.00     0.074 A 
ATOM     55  C   UNL A   1      41.357  26.181  27.235  1.00  0.00     0.031 C 
ATOM     56  C   UNL A   1      43.129  30.062  31.380  1.00  0.00     0.029 A 
ATOM     57  C   UNL A   1      41.938  30.403  32.138  1.00  0.00     0.049 A 
ATOM     58  H   UNL A   1      40.173  31.144  31.171  1.00  0.00     0.167 HD
ATOM     59  C   UNL A   1      43.619  25.557  28.313  1.00  0.00     0.031 A 
ATOM     60  C   UNL A   1      41.675  30.045  33.429  1.00  0.00     0.031 A 
ATOM     61  C   UNL A   1      44.368  25.953  29.503  1.00  0.00     0.049 A 
ATOM     62  C   UNL A   1      42.410  28.793  33.878  1.00  0.00     0.074 A 
ATOM     63  C   UNL A   1      45.411  26.837  29.731  1.00  0.00     0.029 A 
ATOM     64  N   UNL A   1      43.882  25.611  30.754  1.00  0.00    -0.354 N 
ATOM     65  N   UNL A   1      43.194  28.081  33.119  1.00  0.00    -0.248 NA
ATOM     66  C   UNL A   1      42.203  28.172  35.187  1.00  0.00     0.031 C 
ATOM     67  C   UNL A   1      45.565  26.999  31.135  1.00  0.00     0.029 A 
ATOM     68  C   UNL A   1      44.618  26.211  31.758  1.00  0.00     0.049 A 
ATOM     69  H   UNL A   1      43.112  25.017  30.908  1.00  0.00     0.167 HD
ATOM     70  C   UNL A   1      43.533  26.917  33.761  1.00  0.00     0.074 A 
ATOM     71  C   UNL A   1      42.889  27.022  35.057  1.00  0.00     0.031 C 
ATOM     72  C   UNL A   1      44.265  25.942  33.145  1.00  0.00     0.031 A 
BRANCH  59  73
ATOM     73  C   UNL A   1      44.243  24.895  27.112  1.00  0.00    -0.014 A 
ATOM     74  C   UNL A   1      45.599  24.524  27.137  1.00  0.00     0.009 A 
ATOM     75  C   UNL A   1      43.551  24.643  25.914  1.00  0.00     0.009 A 
ATOM     76  C   UNL A   1      46.256  24.041  25.999  1.00  0.00     0.001 A 
ATOM     77  C   UNL A   1      44.211  24.202  24.759  1.00  0.00     0.001 A 
ATOM     78  C   UNL A   1      45.569  23.913  24.799  1.00  0.00     0.000 A 
ENDBRANCH  59  73
BRANCH  60  79
ATOM     79  C   UNL A   1      40.308  30.423  33.882  1.00  0.00    -0.014 A 
ATOM     80  C   UNL A   1      40.071  31.769  34.229  1.00  0.00     0.009 A 
ATOM     81  C   UNL A   1      39.210  29.600  33.592  1.00  0.00     0.009 A 
ATOM     82  C   UNL A   1      38.784  32.308  34.156  1.00  0.00     0.001 A 
ATOM     83  C   UNL A   1      37.921  30.141  33.540  1.00  0.00     0.001 A 
ATOM     84  C   UNL A   1      37.714  31.500  33.780  1.00  0.00     0.000 A 
ENDBRANCH  60  79
BRANCH  72  85
ATOM     85  C   UNL A   1      44.692  24.619  33.745  1.00  0.00    -0.014 A 
ATOM     86  C   UNL A   1      43.810  23.623  34.176  1.00  0.00     0.009 A 
ATOM     87  C   UNL A   1      46.066  24.381  33.990  1.00  0.00     0.009 A 
ATOM     88  C   UNL A   1      44.278  22.422  34.736  1.00  0.00     0.001 A 
ATOM     89  C   UNL A   1      46.538  23.198  34.564  1.00  0.00     0.001 A 
ATOM     90  C   UNL A   1      45.640  22.207  34.923  1.00  0.00     0.000 A 
ENDBRANCH  72  85
ENDBRANCH  46  47
ENDBRANCH  38  41
ENDBRANCH  36  37
ENDBRANCH  35  36
ENDBRANCH  34  35
ENDBRANCH   1  34
TORSDOF 17
ENDMDL
MODEL 3
REMARK VINA RESULT:     -11.8      3.446      8.093
REMARK SMILES Cc1cccc(C(=O)Nc2ccc(-c3nnc(S[C@H](C(=O)NCCCCNC(=O)c4ccc(-c5c6nc(c(-c7ccccc7)c7ccc([nH]7)c(-c7ccccc7)c7nc(c(-c8ccccc8)c8ccc5[nH]8)C=C7)C=C6)cc4)C(C)C)n3C)cc2)c1
REMARK SMILES IDX 23 1 22 2 20 3 21 4 19 6 18 7 17 8 14 9 15 10 81 11 16 12
REMARK SMILES IDX 82 13 13 14 10 15 11 16 84 17 12 18 83 19 9 20 7 21 8 22
REMARK SMILES IDX 6 24 1 25 2 26 3 27 85 28 4 29 5 30 78 31 79 32 80 33 24 34
REMARK SMILES IDX 25 35 26 36 27 37 28 38 29 40 30 41 31 42 77 43 32 44 76 45
REMARK SMILES IDX 33 46 34 47 35 48 70 49 36 50 75 51 69 52 71 53 37 54 74 55
REMARK SMILES IDX 68 56 67 57 38 59 60 60 45 61 59 62 46 63 49 64 58 65 72 66
REMARK SMILES IDX 47 67 48 68 57 70 73 71 50 72 39 73 40 74 44 75 41 76 43 77
REMARK SMILES IDX 42 78 61 79 62 80 66 81 63 82 65 83 64 84 51 85 52 86 56 87
REMARK SMILES IDX 53 88 55 89 54 90
REMARK H PARENT 22 5 9 23 27 39 71 58 49 69
REMARK Flexibility Score: inf
ROOT
ATOM      1  C   UNL A   1      33.604  27.216  25.519  1.00  0.00     0.116 C 
ENDROOT
BRANCH   1   2
ATOM      2  N   UNL A   1      33.581  27.036  24.076  1.00  0.00    -0.355 N 
ATOM      3  C   UNL A   1      32.589  26.752  23.186  1.00  0.00     0.233 C 
ATOM      4  O   UNL A   1      32.737  27.232  22.052  1.00  0.00    -0.274 OA
ATOM      5  H   UNL A   1      34.465  27.141  23.655  1.00  0.00     0.163 HD
BRANCH   3   6
ATOM      6  C   UNL A   1      31.353  25.875  23.458  1.00  0.00     0.146 C 
BRANCH   6   7
ATOM      7  S   UNL A   1      31.720  24.084  23.567  1.00  0.00    -0.072 SA
BRANCH   7   8
ATOM      8  C   UNL A   1      33.403  23.758  23.465  1.00  0.00     0.192 A 
ATOM      9  C   UNL A   1      35.445  23.292  24.144  1.00  0.00     0.164 A 
ATOM     10  N   UNL A   1      35.449  23.417  22.827  1.00  0.00    -0.129 NA
ATOM     11  N   UNL A   1      34.171  23.573  24.591  1.00  0.00    -0.305 N 
ATOM     12  N   UNL A   1      34.173  23.710  22.408  1.00  0.00    -0.123 NA
ATOM     13  C   UNL A   1      33.783  23.750  25.968  1.00  0.00     0.154 C 
BRANCH   9  14
ATOM     14  C   UNL A   1      36.614  22.948  24.957  1.00  0.00     0.019 A 
ATOM     15  C   UNL A   1      39.062  22.507  26.273  1.00  0.00     0.041 A 
ATOM     16  C   UNL A   1      38.360  23.694  26.483  1.00  0.00     0.027 A 
ATOM     17  C   UNL A   1      38.473  21.485  25.529  1.00  0.00     0.027 A 
ATOM     18  C   UNL A   1      37.160  23.922  25.805  1.00  0.00     0.014 A 
ATOM     19  C   UNL A   1      37.266  21.711  24.856  1.00  0.00     0.014 A 
BRANCH  15  20
ATOM     20  N   UNL A   1      40.374  22.442  26.763  1.00  0.00    -0.322 N 
ATOM     21  C   UNL A   1      41.279  23.439  27.077  1.00  0.00     0.255 C 
ATOM     22  O   UNL A   1      42.448  23.113  27.296  1.00  0.00    -0.269 OA
ATOM     23  H   UNL A   1      40.710  21.527  26.906  1.00  0.00     0.170 HD
BRANCH  21  24
ATOM     24  C   UNL A   1      40.889  24.871  27.261  1.00  0.00     0.040 A 
ATOM     25  C   UNL A   1      39.126  27.164  29.738  1.00  0.00     0.044 C 
ATOM     26  C   UNL A   1      39.882  26.699  28.528  1.00  0.00    -0.050 A 
ATOM     27  C   UNL A   1      40.109  27.564  27.455  1.00  0.00     0.003 A 
ATOM     28  C   UNL A   1      40.356  25.383  28.451  1.00  0.00     0.017 A 
ATOM     29  C   UNL A   1      40.754  27.103  26.308  1.00  0.00     0.001 A 
ATOM     30  C   UNL A   1      41.122  25.759  26.201  1.00  0.00     0.014 A 
ENDBRANCH  21  24
ENDBRANCH  15  20
ENDBRANCH   9  14
ENDBRANCH   7   8
ENDBRANCH   6   7
BRANCH   6  31
ATOM     31  C   UNL A   1      30.353  26.299  24.566  1.00  0.00     0.006 C 
ATOM     32  C   UNL A   1      28.930  26.428  23.995  1.00  0.00     0.009 C 
ATOM     33  C   UNL A   1      30.260  25.343  25.773  1.00  0.00     0.009 C 
ENDBRANCH   6  31
ENDBRANCH   3   6
ENDBRANCH   1   2
BRANCH   1  34
ATOM     34  C   UNL A   1      33.538  28.671  25.987  1.00  0.00     0.023 C 
BRANCH  34  35
ATOM     35  C   UNL A   1      34.122  28.944  27.376  1.00  0.00     0.023 C 
BRANCH  35  36
ATOM     36  C   UNL A   1      35.575  29.412  27.389  1.00  0.00     0.116 C 
BRANCH  36  37
ATOM     37  N   UNL A   1      35.787  30.851  27.508  1.00  0.00    -0.352 N 
ATOM     38  C   UNL A   1      36.524  31.551  28.456  1.00  0.00     0.251 C 
ATOM     39  H   UNL A   1      35.349  31.403  26.821  1.00  0.00     0.163 HD
ATOM     40  O   UNL A   1      36.541  32.773  28.443  1.00  0.00    -0.269 OA
BRANCH  38  41
ATOM     41  C   UNL A   1      37.405  30.810  29.403  1.00  0.00     0.039 A 
ATOM     42  C   UNL A   1      36.803  30.157  30.487  1.00  0.00     0.014 A 
ATOM     43  C   UNL A   1      38.788  30.937  29.356  1.00  0.00     0.014 A 
ATOM     44  C   UNL A   1      37.555  29.897  31.632  1.00  0.00     0.010 A 
ATOM     45  C   UNL A   1      39.513  30.787  30.523  1.00  0.00     0.010 A 
ATOM     46  C   UNL A   1      38.877  30.339  31.683  1.00  0.00    -0.014 A 
BRANCH  46  47
ATOM     47  C   UNL A   1      39.620  30.490  32.927  1.00  0.00     0.031 A 
ATOM     48  C   UNL A   1      39.578  31.752  33.684  1.00  0.00     0.074 A 
ATOM     49  C   UNL A   1      40.341  29.460  33.424  1.00  0.00     0.049 A 
ATOM     50  N   UNL A   1      40.567  32.201  34.382  1.00  0.00    -0.248 NA
ATOM     51  C   UNL A   1      38.411  32.625  33.690  1.00  0.00     0.031 C 
ATOM     52  C   UNL A   1      40.968  29.378  34.742  1.00  0.00     0.029 A 
ATOM     53  N   UNL A   1      40.855  28.360  32.741  1.00  0.00    -0.354 N 
ATOM     54  C   UNL A   1      40.069  33.208  35.171  1.00  0.00     0.074 A 
ATOM     55  C   UNL A   1      38.759  33.507  34.632  1.00  0.00     0.031 C 
ATOM     56  C   UNL A   1      41.994  28.516  34.671  1.00  0.00     0.029 A 
ATOM     57  C   UNL A   1      42.131  28.121  33.281  1.00  0.00     0.049 A 
ATOM     58  H   UNL A   1      40.413  27.852  32.024  1.00  0.00     0.167 HD
ATOM     59  C   UNL A   1      40.724  33.581  36.306  1.00  0.00     0.031 A 
ATOM     60  C   UNL A   1      43.278  28.159  32.541  1.00  0.00     0.031 A 
ATOM     61  C   UNL A   1      41.944  32.812  36.538  1.00  0.00     0.049 A 
ATOM     62  C   UNL A   1      44.299  29.164  33.047  1.00  0.00     0.074 A 
ATOM     63  C   UNL A   1      42.283  31.792  37.413  1.00  0.00     0.029 A 
ATOM     64  N   UNL A   1      42.968  32.869  35.608  1.00  0.00    -0.354 N 
ATOM     65  N   UNL A   1      44.116  29.959  34.063  1.00  0.00    -0.248 NA
ATOM     66  C   UNL A   1      45.556  29.444  32.352  1.00  0.00     0.031 C 
ATOM     67  C   UNL A   1      43.538  31.256  37.015  1.00  0.00     0.029 A 
ATOM     68  C   UNL A   1      43.961  31.952  35.901  1.00  0.00     0.049 A 
ATOM     69  H   UNL A   1      42.987  33.482  34.838  1.00  0.00     0.167 HD
ATOM     70  C   UNL A   1      45.136  30.874  34.128  1.00  0.00     0.074 A 
ATOM     71  C   UNL A   1      46.017  30.506  33.036  1.00  0.00     0.031 C 
ATOM     72  C   UNL A   1      45.135  31.890  35.042  1.00  0.00     0.031 A 
BRANCH  59  73
ATOM     73  C   UNL A   1      40.077  34.461  37.343  1.00  0.00    -0.014 A 
ATOM     74  C   UNL A   1      40.296  35.850  37.324  1.00  0.00     0.009 A 
ATOM     75  C   UNL A   1      39.270  33.972  38.386  1.00  0.00     0.009 A 
ATOM     76  C   UNL A   1      39.836  36.686  38.348  1.00  0.00     0.001 A 
ATOM     77  C   UNL A   1      38.844  34.795  39.438  1.00  0.00     0.001 A 
ATOM     78  C   UNL A   1      39.140  36.152  39.425  1.00  0.00     0.000 A 
ENDBRANCH  59  73
BRANCH  60  79
ATOM     79  C   UNL A   1      43.068  27.827  31.105  1.00  0.00    -0.014 A 
ATOM     80  C   UNL A   1      42.832  28.886  30.205  1.00  0.00     0.009 A 
ATOM     81  C   UNL A   1      43.486  26.590  30.593  1.00  0.00     0.009 A 
ATOM     82  C   UNL A   1      43.136  28.749  28.848  1.00  0.00     0.001 A 
ATOM     83  C   UNL A   1      43.768  26.453  29.230  1.00  0.00     0.001 A 
ATOM     84  C   UNL A   1      43.635  27.541  28.367  1.00  0.00     0.000 A 
ENDBRANCH  60  79
BRANCH  72  85
ATOM     85  C   UNL A   1      46.196  32.957  35.205  1.00  0.00    -0.014 A 
ATOM     86  C   UNL A   1      45.974  34.328  35.034  1.00  0.00     0.009 A 
ATOM     87  C   UNL A   1      47.535  32.570  35.453  1.00  0.00     0.009 A 
ATOM     88  C   UNL A   1      47.011  35.263  35.191  1.00  0.00     0.001 A 
ATOM     89  C   UNL A   1      48.576  33.492  35.591  1.00  0.00     0.001 A 
ATOM     90  C   UNL A   1      48.308  34.847  35.476  1.00  0.00     0.000 A 
ENDBRANCH  72  85
ENDBRANCH  46  47
ENDBRANCH  38  41
ENDBRANCH  36  37
ENDBRANCH  35  36
ENDBRANCH  34  35
ENDBRANCH   1  34
TORSDOF 17
ENDMDL
