MODEL 1
REMARK VINA RESULT:     -10.1      0.000      0.000
REMARK SMILES C[C@@](NC(=O)CSCc1ccccc1)(C(=O)NCCCCNC(=O)c1ccc(-c2c3nc(c(-c4ccccc4)c4ccc([nH]4)c(-c4ccccc4)c4nc(c(-c5ccccc5)c5ccc2[nH]5)C=C4)C=C3)cc1)C1CC1
REMARK SMILES IDX 18 1 17 2 15 3 16 4 2 6 1 7 3 8 4 9 5 11 6 12 7 13 8 14 9 15
REMARK SMILES IDX 10 16 14 17 11 18 13 19 12 20 73 21 74 22 75 23 19 24 20 25
REMARK SMILES IDX 21 26 22 27 23 28 24 30 25 31 26 32 72 33 27 34 71 35 28 36
REMARK SMILES IDX 29 37 30 38 65 39 31 40 70 41 64 42 66 43 32 44 69 45 63 46
REMARK SMILES IDX 62 47 33 49 55 50 40 51 54 52 41 53 44 54 53 55 67 56 42 57
REMARK SMILES IDX 43 58 52 60 68 61 45 62 34 63 35 64 39 65 36 66 38 67 37 68
REMARK SMILES IDX 56 69 57 70 61 71 58 72 60 73 59 74 46 75 47 76 51 77 48 78
REMARK SMILES IDX 50 79 49 80
REMARK H PARENT 17 5 3 10 22 29 66 48 44 59
REMARK Flexibility Score: inf
ROOT
ATOM      1  C   UNL A   1      34.565  24.703  25.238  1.00  0.00     0.116 C 
ENDROOT
BRANCH   1   2
ATOM      2  N   UNL A   1      33.227  25.125  25.607  1.00  0.00    -0.354 N 
ATOM      3  C   UNL A   1      32.006  24.867  25.051  1.00  0.00     0.245 C 
ATOM      4  O   UNL A   1      31.033  25.338  25.654  1.00  0.00    -0.272 OA
ATOM      5  H   UNL A   1      33.192  25.702  26.404  1.00  0.00     0.163 HD
BRANCH   3   6
ATOM      6  C   UNL A   1      31.816  24.109  23.688  1.00  0.00     0.119 C 
ATOM      7  C   UNL A   1      30.317  24.230  23.292  1.00  0.00     0.046 C 
BRANCH   6   8
ATOM      8  N   UNL A   1      32.596  24.655  22.566  1.00  0.00    -0.341 N 
ATOM      9  C   UNL A   1      32.718  25.916  22.081  1.00  0.00     0.230 C 
ATOM     10  H   UNL A   1      33.125  23.983  22.080  1.00  0.00     0.164 HD
ATOM     11  O   UNL A   1      33.736  26.153  21.422  1.00  0.00    -0.274 OA
BRANCH   9  12
ATOM     12  C   UNL A   1      31.653  26.976  22.274  1.00  0.00     0.169 C 
BRANCH  12  13
ATOM     13  S   UNL A   1      32.318  28.587  22.792  1.00  0.00    -0.147 SA
BRANCH  13  14
ATOM     14  C   UNL A   1      31.467  28.846  24.394  1.00  0.00     0.105 C 
BRANCH  14  15
ATOM     15  C   UNL A   1      32.419  29.325  25.460  1.00  0.00    -0.038 A 
ATOM     16  C   UNL A   1      32.082  30.430  26.257  1.00  0.00     0.004 A 
ATOM     17  C   UNL A   1      33.615  28.644  25.722  1.00  0.00     0.004 A 
ATOM     18  C   UNL A   1      32.942  30.873  27.259  1.00  0.00     0.000 A 
ATOM     19  C   UNL A   1      34.475  29.089  26.728  1.00  0.00     0.000 A 
ATOM     20  C   UNL A   1      34.142  30.207  27.490  1.00  0.00     0.000 A 
ENDBRANCH  14  15
ENDBRANCH  13  14
ENDBRANCH  12  13
ENDBRANCH   9  12
ENDBRANCH   6   8
BRANCH   6  21
ATOM     21  C   UNL A   1      32.042  22.596  23.860  1.00  0.00     0.024 C 
ATOM     22  C   UNL A   1      32.163  21.659  22.672  1.00  0.00     0.007 C 
ATOM     23  C   UNL A   1      33.318  21.820  23.620  1.00  0.00     0.007 C 
ENDBRANCH   6  21
ENDBRANCH   3   6
ENDBRANCH   1   2
BRANCH   1  24
ATOM     24  C   UNL A   1      35.219  23.789  26.277  1.00  0.00     0.023 C 
BRANCH  24  25
ATOM     25  C   UNL A   1      36.157  22.693  25.757  1.00  0.00     0.023 C 
BRANCH  25  26
ATOM     26  C   UNL A   1      37.433  23.135  25.045  1.00  0.00     0.116 C 
BRANCH  26  27
ATOM     27  N   UNL A   1      38.625  22.398  25.432  1.00  0.00    -0.352 N 
ATOM     28  C   UNL A   1      39.683  22.778  26.223  1.00  0.00     0.251 C 
ATOM     29  H   UNL A   1      38.683  21.484  25.070  1.00  0.00     0.163 HD
ATOM     30  O   UNL A   1      40.594  21.978  26.431  1.00  0.00    -0.269 OA
BRANCH  28  31
ATOM     31  C   UNL A   1      39.777  24.146  26.787  1.00  0.00     0.039 A 
ATOM     32  C   UNL A   1      39.196  24.380  28.039  1.00  0.00     0.014 A 
ATOM     33  C   UNL A   1      40.419  25.191  26.118  1.00  0.00     0.014 A 
ATOM     34  C   UNL A   1      39.352  25.619  28.664  1.00  0.00     0.010 A 
ATOM     35  C   UNL A   1      40.618  26.415  26.761  1.00  0.00     0.010 A 
ATOM     36  C   UNL A   1      40.113  26.628  28.052  1.00  0.00    -0.014 A 
BRANCH  36  37
ATOM     37  C   UNL A   1      40.474  27.859  28.798  1.00  0.00     0.031 A 
ATOM     38  C   UNL A   1      41.790  27.984  29.506  1.00  0.00     0.074 A 
ATOM     39  C   UNL A   1      39.563  28.849  28.887  1.00  0.00     0.049 A 
ATOM     40  N   UNL A   1      42.254  28.989  30.205  1.00  0.00    -0.248 NA
ATOM     41  C   UNL A   1      42.697  26.830  29.430  1.00  0.00     0.031 C 
ATOM     42  C   UNL A   1      38.227  28.825  28.283  1.00  0.00     0.029 A 
ATOM     43  N   UNL A   1      39.616  30.063  29.524  1.00  0.00    -0.354 N 
ATOM     44  C   UNL A   1      43.506  28.591  30.653  1.00  0.00     0.074 A 
ATOM     45  C   UNL A   1      43.712  27.238  30.181  1.00  0.00     0.031 C 
ATOM     46  C   UNL A   1      37.597  29.976  28.564  1.00  0.00     0.029 A 
ATOM     47  C   UNL A   1      38.468  30.805  29.391  1.00  0.00     0.049 A 
ATOM     48  H   UNL A   1      40.403  30.373  30.027  1.00  0.00     0.167 HD
ATOM     49  C   UNL A   1      44.408  29.296  31.379  1.00  0.00     0.031 A 
ATOM     50  C   UNL A   1      38.146  32.016  29.882  1.00  0.00     0.031 A 
ATOM     51  C   UNL A   1      44.194  30.633  31.867  1.00  0.00     0.049 A 
ATOM     52  C   UNL A   1      39.155  32.766  30.702  1.00  0.00     0.074 A 
ATOM     53  C   UNL A   1      45.064  31.445  32.574  1.00  0.00     0.029 A 
ATOM     54  N   UNL A   1      43.020  31.354  31.706  1.00  0.00    -0.354 N 
ATOM     55  N   UNL A   1      40.368  32.408  31.046  1.00  0.00    -0.248 NA
ATOM     56  C   UNL A   1      38.755  34.093  31.191  1.00  0.00     0.031 C 
ATOM     57  C   UNL A   1      44.400  32.637  32.885  1.00  0.00     0.029 A 
ATOM     58  C   UNL A   1      43.134  32.589  32.323  1.00  0.00     0.049 A 
ATOM     59  H   UNL A   1      42.222  31.034  31.226  1.00  0.00     0.167 HD
ATOM     60  C   UNL A   1      40.887  33.475  31.768  1.00  0.00     0.074 A 
ATOM     61  C   UNL A   1      39.862  34.498  31.798  1.00  0.00     0.031 C 
ATOM     62  C   UNL A   1      42.104  33.595  32.351  1.00  0.00     0.031 A 
BRANCH  49  63
ATOM     63  C   UNL A   1      45.714  28.623  31.700  1.00  0.00    -0.014 A 
ATOM     64  C   UNL A   1      46.820  28.745  30.842  1.00  0.00     0.009 A 
ATOM     65  C   UNL A   1      45.857  27.894  32.890  1.00  0.00     0.009 A 
ATOM     66  C   UNL A   1      48.030  28.122  31.154  1.00  0.00     0.001 A 
ATOM     67  C   UNL A   1      47.076  27.294  33.213  1.00  0.00     0.001 A 
ATOM     68  C   UNL A   1      48.159  27.401  32.341  1.00  0.00     0.000 A 
ENDBRANCH  49  63
BRANCH  50  69
ATOM     69  C   UNL A   1      36.811  32.602  29.595  1.00  0.00    -0.014 A 
ATOM     70  C   UNL A   1      36.576  33.280  28.390  1.00  0.00     0.009 A 
ATOM     71  C   UNL A   1      35.766  32.485  30.523  1.00  0.00     0.009 A 
ATOM     72  C   UNL A   1      35.326  33.851  28.131  1.00  0.00     0.001 A 
ATOM     73  C   UNL A   1      34.511  33.032  30.251  1.00  0.00     0.001 A 
ATOM     74  C   UNL A   1      34.295  33.722  29.059  1.00  0.00     0.000 A 
ENDBRANCH  50  69
BRANCH  62  75
ATOM     75  C   UNL A   1      42.403  34.893  33.047  1.00  0.00    -0.014 A 
ATOM     76  C   UNL A   1      43.130  35.911  32.408  1.00  0.00     0.009 A 
ATOM     77  C   UNL A   1      41.925  35.111  34.348  1.00  0.00     0.009 A 
ATOM     78  C   UNL A   1      43.398  37.108  33.073  1.00  0.00     0.001 A 
ATOM     79  C   UNL A   1      42.172  36.320  35.000  1.00  0.00     0.001 A 
ATOM     80  C   UNL A   1      42.915  37.314  34.366  1.00  0.00     0.000 A 
ENDBRANCH  62  75
ENDBRANCH  36  37
ENDBRANCH  28  31
ENDBRANCH  26  27
ENDBRANCH  25  26
ENDBRANCH  24  25
ENDBRANCH   1  24
TORSDOF 17
ENDMDL
MODEL 2
REMARK VINA RESULT:      -9.9      2.447      7.536
REMARK SMILES C[C@@](NC(=O)CSCc1ccccc1)(C(=O)NCCCCNC(=O)c1ccc(-c2c3nc(c(-c4ccccc4)c4ccc([nH]4)c(-c4ccccc4)c4nc(c(-c5ccccc5)c5ccc2[nH]5)C=C4)C=C3)cc1)C1CC1
REMARK SMILES IDX 18 1 17 2 15 3 16 4 2 6 1 7 3 8 4 9 5 11 6 12 7 13 8 14 9 15
REMARK SMILES IDX 10 16 14 17 11 18 13 19 12 20 73 21 74 22 75 23 19 24 20 25
REMARK SMILES IDX 21 26 22 27 23 28 24 30 25 31 26 32 72 33 27 34 71 35 28 36
REMARK SMILES IDX 29 37 30 38 65 39 31 40 70 41 64 42 66 43 32 44 69 45 63 46
REMARK SMILES IDX 62 47 33 49 55 50 40 51 54 52 41 53 44 54 53 55 67 56 42 57
REMARK SMILES IDX 43 58 52 60 68 61 45 62 34 63 35 64 39 65 36 66 38 67 37 68
REMARK SMILES IDX 56 69 57 70 61 71 58 72 60 73 59 74 46 75 47 76 51 77 48 78
REMARK SMILES IDX 50 79 49 80
REMARK H PARENT 17 5 3 10 22 29 66 48 44 59
REMARK Flexibility Score: inf
ROOT
ATOM      1  C   UNL A   1      33.755  27.095  25.006  1.00  0.00     0.116 C 
ENDROOT
BRANCH   1   2
ATOM      2  N   UNL A   1      33.846  26.235  23.840  1.00  0.00    -0.354 N 
ATOM      3  C   UNL A   1      33.964  24.881  23.715  1.00  0.00     0.245 C 
ATOM      4  O   UNL A   1      33.956  24.446  22.556  1.00  0.00    -0.272 OA
ATOM      5  H   UNL A   1      33.816  26.717  22.981  1.00  0.00     0.163 HD
BRANCH   3   6
ATOM      6  C   UNL A   1      34.192  23.914  24.933  1.00  0.00     0.119 C 
ATOM      7  C   UNL A   1      35.649  24.130  25.434  1.00  0.00     0.046 C 
BRANCH   6   8
ATOM      8  N   UNL A   1      33.308  24.155  26.084  1.00  0.00    -0.341 N 
ATOM      9  C   UNL A   1      31.957  24.140  26.203  1.00  0.00     0.230 C 
ATOM     10  H   UNL A   1      33.784  24.366  26.919  1.00  0.00     0.164 HD
ATOM     11  O   UNL A   1      31.509  23.962  27.341  1.00  0.00    -0.274 OA
BRANCH   9  12
ATOM     12  C   UNL A   1      31.027  24.381  25.032  1.00  0.00     0.169 C 
BRANCH  12  13
ATOM     13  S   UNL A   1      30.077  25.926  25.165  1.00  0.00    -0.147 SA
BRANCH  13  14
ATOM     14  C   UNL A   1      30.300  26.649  23.497  1.00  0.00     0.105 C 
BRANCH  14  15
ATOM     15  C   UNL A   1      29.436  27.870  23.298  1.00  0.00    -0.038 A 
ATOM     16  C   UNL A   1      30.028  29.107  23.006  1.00  0.00     0.004 A 
ATOM     17  C   UNL A   1      28.040  27.780  23.332  1.00  0.00     0.004 A 
ATOM     18  C   UNL A   1      29.244  30.240  22.801  1.00  0.00     0.000 A 
ATOM     19  C   UNL A   1      27.254  28.916  23.123  1.00  0.00     0.000 A 
ATOM     20  C   UNL A   1      27.857  30.146  22.866  1.00  0.00     0.000 A 
ENDBRANCH  14  15
ENDBRANCH  13  14
ENDBRANCH  12  13
ENDBRANCH   9  12
ENDBRANCH   6   8
BRANCH   6  21
ATOM     21  C   UNL A   1      34.159  22.441  24.484  1.00  0.00     0.024 C 
ATOM     22  C   UNL A   1      35.336  21.507  24.701  1.00  0.00     0.007 C 
ATOM     23  C   UNL A   1      34.015  21.214  25.356  1.00  0.00     0.007 C 
ENDBRANCH   6  21
ENDBRANCH   3   6
ENDBRANCH   1   2
BRANCH   1  24
ATOM     24  C   UNL A   1      33.461  28.556  24.658  1.00  0.00     0.023 C 
BRANCH  24  25
ATOM     25  C   UNL A   1      32.838  29.427  25.756  1.00  0.00     0.023 C 
BRANCH  25  26
ATOM     26  C   UNL A   1      33.453  29.350  27.152  1.00  0.00     0.116 C 
BRANCH  26  27
ATOM     27  N   UNL A   1      33.572  30.631  27.829  1.00  0.00    -0.352 N 
ATOM     28  C   UNL A   1      34.640  31.183  28.496  1.00  0.00     0.251 C 
ATOM     29  H   UNL A   1      32.761  31.189  27.805  1.00  0.00     0.163 HD
ATOM     30  O   UNL A   1      34.522  32.303  28.992  1.00  0.00    -0.269 OA
BRANCH  28  31
ATOM     31  C   UNL A   1      35.909  30.440  28.677  1.00  0.00     0.039 A 
ATOM     32  C   UNL A   1      36.797  30.386  27.596  1.00  0.00     0.014 A 
ATOM     33  C   UNL A   1      36.241  29.803  29.876  1.00  0.00     0.014 A 
ATOM     34  C   UNL A   1      38.053  29.794  27.750  1.00  0.00     0.010 A 
ATOM     35  C   UNL A   1      37.514  29.254  30.046  1.00  0.00     0.010 A 
ATOM     36  C   UNL A   1      38.441  29.273  28.995  1.00  0.00    -0.014 A 
BRANCH  36  37
ATOM     37  C   UNL A   1      39.843  28.849  29.231  1.00  0.00     0.031 A 
ATOM     38  C   UNL A   1      40.848  29.783  29.837  1.00  0.00     0.074 A 
ATOM     39  C   UNL A   1      40.222  27.621  28.827  1.00  0.00     0.049 A 
ATOM     40  N   UNL A   1      42.113  29.569  30.104  1.00  0.00    -0.248 NA
ATOM     41  C   UNL A   1      40.379  31.134  30.177  1.00  0.00     0.031 C 
ATOM     42  C   UNL A   1      39.349  26.638  28.178  1.00  0.00     0.029 A 
ATOM     43  N   UNL A   1      41.439  26.989  28.893  1.00  0.00    -0.354 N 
ATOM     44  C   UNL A   1      42.591  30.755  30.643  1.00  0.00     0.074 A 
ATOM     45  C   UNL A   1      41.493  31.698  30.627  1.00  0.00     0.031 C 
ATOM     46  C   UNL A   1      40.053  25.524  27.923  1.00  0.00     0.029 A 
ATOM     47  C   UNL A   1      41.431  25.723  28.360  1.00  0.00     0.049 A 
ATOM     48  H   UNL A   1      42.241  27.404  29.286  1.00  0.00     0.167 HD
ATOM     49  C   UNL A   1      43.829  31.028  31.120  1.00  0.00     0.031 A 
ATOM     50  C   UNL A   1      42.422  24.821  28.232  1.00  0.00     0.031 A 
ATOM     51  C   UNL A   1      44.928  30.097  31.116  1.00  0.00     0.049 A 
ATOM     52  C   UNL A   1      43.791  25.157  28.749  1.00  0.00     0.074 A 
ATOM     53  C   UNL A   1      46.207  30.267  31.616  1.00  0.00     0.029 A 
ATOM     54  N   UNL A   1      44.879  28.822  30.573  1.00  0.00    -0.354 N 
ATOM     55  N   UNL A   1      44.205  26.255  29.333  1.00  0.00    -0.248 NA
ATOM     56  C   UNL A   1      44.825  24.124  28.602  1.00  0.00     0.031 C 
ATOM     57  C   UNL A   1      46.947  29.114  31.331  1.00  0.00     0.029 A 
ATOM     58  C   UNL A   1      46.113  28.204  30.703  1.00  0.00     0.049 A 
ATOM     59  H   UNL A   1      44.085  28.415  30.155  1.00  0.00     0.167 HD
ATOM     60  C   UNL A   1      45.540  26.037  29.647  1.00  0.00     0.074 A 
ATOM     61  C   UNL A   1      45.860  24.695  29.204  1.00  0.00     0.031 C 
ATOM     62  C   UNL A   1      46.419  26.871  30.251  1.00  0.00     0.031 A 
BRANCH  49  63
ATOM     63  C   UNL A   1      44.066  32.403  31.684  1.00  0.00    -0.014 A 
ATOM     64  C   UNL A   1      44.271  33.505  30.837  1.00  0.00     0.009 A 
ATOM     65  C   UNL A   1      44.042  32.609  33.071  1.00  0.00     0.009 A 
ATOM     66  C   UNL A   1      44.482  34.778  31.371  1.00  0.00     0.001 A 
ATOM     67  C   UNL A   1      44.226  33.888  33.602  1.00  0.00     0.001 A 
ATOM     68  C   UNL A   1      44.455  34.969  32.752  1.00  0.00     0.000 A 
ENDBRANCH  49  63
BRANCH  50  69
ATOM     69  C   UNL A   1      42.150  23.505  27.599  1.00  0.00    -0.014 A 
ATOM     70  C   UNL A   1      41.602  22.454  28.350  1.00  0.00     0.009 A 
ATOM     71  C   UNL A   1      42.433  23.293  26.241  1.00  0.00     0.009 A 
ATOM     72  C   UNL A   1      41.367  21.209  27.759  1.00  0.00     0.001 A 
ATOM     73  C   UNL A   1      42.172  22.057  25.647  1.00  0.00     0.001 A 
ATOM     74  C   UNL A   1      41.648  21.014  26.408  1.00  0.00     0.000 A 
ENDBRANCH  50  69
BRANCH  62  75
ATOM     75  C   UNL A   1      47.806  26.345  30.493  1.00  0.00    -0.014 A 
ATOM     76  C   UNL A   1      48.157  25.754  31.718  1.00  0.00     0.009 A 
ATOM     77  C   UNL A   1      48.764  26.415  29.470  1.00  0.00     0.009 A 
ATOM     78  C   UNL A   1      49.451  25.273  31.922  1.00  0.00     0.001 A 
ATOM     79  C   UNL A   1      50.049  25.909  29.669  1.00  0.00     0.001 A 
ATOM     80  C   UNL A   1      50.394  25.347  30.897  1.00  0.00     0.000 A 
ENDBRANCH  62  75
ENDBRANCH  36  37
ENDBRANCH  28  31
ENDBRANCH  26  27
ENDBRANCH  25  26
ENDBRANCH  24  25
ENDBRANCH   1  24
TORSDOF 17
ENDMDL
MODEL 3
REMARK VINA RESULT:      -9.8      0.281      5.929
REMARK SMILES C[C@@](NC(=O)CSCc1ccccc1)(C(=O)NCCCCNC(=O)c1ccc(-c2c3nc(c(-c4ccccc4)c4ccc([nH]4)c(-c4ccccc4)c4nc(c(-c5ccccc5)c5ccc2[nH]5)C=C4)C=C3)cc1)C1CC1
REMARK SMILES IDX 18 1 17 2 15 3 16 4 2 6 1 7 3 8 4 9 5 11 6 12 7 13 8 14 9 15
REMARK SMILES IDX 10 16 14 17 11 18 13 19 12 20 73 21 74 22 75 23 19 24 20 25
REMARK SMILES IDX 21 26 22 27 23 28 24 30 25 31 26 32 72 33 27 34 71 35 28 36
REMARK SMILES IDX 29 37 30 38 65 39 31 40 70 41 64 42 66 43 32 44 69 45 63 46
REMARK SMILES IDX 62 47 33 49 55 50 40 51 54 52 41 53 44 54 53 55 67 56 42 57
REMARK SMILES IDX 43 58 52 60 68 61 45 62 34 63 35 64 39 65 36 66 38 67 37 68
REMARK SMILES IDX 56 69 57 70 61 71 58 72 60 73 59 74 46 75 47 76 51 77 48 78
REMARK SMILES IDX 50 79 49 80
REMARK H PARENT 17 5 3 10 22 29 66 48 44 59
REMARK Flexibility Score: inf
ROOT
ATOM      1  C   UNL A   1      34.532  24.751  25.148  1.00  0.00     0.116 C 
ENDROOT
BRANCH   1   2
ATOM      2  N   UNL A   1      33.189  25.071  25.596  1.00  0.00    -0.354 N 
ATOM      3  C   UNL A   1      31.961  24.770  25.080  1.00  0.00     0.245 C 
ATOM      4  O   UNL A   1      30.991  25.149  25.748  1.00  0.00    -0.272 OA
ATOM      5  H   UNL A   1      33.157  25.603  26.424  1.00  0.00     0.163 HD
BRANCH   3   6
ATOM      6  C   UNL A   1      31.753  24.072  23.687  1.00  0.00     0.119 C 
ATOM      7  C   UNL A   1      30.261  24.259  23.290  1.00  0.00     0.046 C 
BRANCH   6   8
ATOM      8  N   UNL A   1      32.558  24.634  22.591  1.00  0.00    -0.341 N 
ATOM      9  C   UNL A   1      32.699  25.904  22.134  1.00  0.00     0.230 C 
ATOM     10  H   UNL A   1      33.090  23.968  22.101  1.00  0.00     0.164 HD
ATOM     11  O   UNL A   1      33.731  26.146  21.499  1.00  0.00    -0.274 OA
BRANCH   9  12
ATOM     12  C   UNL A   1      31.640  26.969  22.331  1.00  0.00     0.169 C 
BRANCH  12  13
ATOM     13  S   UNL A   1      32.324  28.618  22.675  1.00  0.00    -0.147 SA
BRANCH  13  14
ATOM     14  C   UNL A   1      31.436  29.078  24.211  1.00  0.00     0.105 C 
BRANCH  14  15
ATOM     15  C   UNL A   1      32.392  29.394  25.334  1.00  0.00    -0.038 A 
ATOM     16  C   UNL A   1      32.088  30.412  26.249  1.00  0.00     0.004 A 
ATOM     17  C   UNL A   1      33.556  28.640  25.526  1.00  0.00     0.004 A 
ATOM     18  C   UNL A   1      32.950  30.703  27.303  1.00  0.00     0.000 A 
ATOM     19  C   UNL A   1      34.420  28.930  26.585  1.00  0.00     0.000 A 
ATOM     20  C   UNL A   1      34.120  29.966  27.467  1.00  0.00     0.000 A 
ENDBRANCH  14  15
ENDBRANCH  13  14
ENDBRANCH  12  13
ENDBRANCH   9  12
ENDBRANCH   6   8
BRANCH   6  21
ATOM     21  C   UNL A   1      31.927  22.546  23.800  1.00  0.00     0.024 C 
ATOM     22  C   UNL A   1      32.244  21.680  22.595  1.00  0.00     0.007 C 
ATOM     23  C   UNL A   1      33.216  21.757  23.739  1.00  0.00     0.007 C 
ENDBRANCH   6  21
ENDBRANCH   3   6
ENDBRANCH   1   2
BRANCH   1  24
ATOM     24  C   UNL A   1      35.425  24.198  26.262  1.00  0.00     0.023 C 
BRANCH  24  25
ATOM     25  C   UNL A   1      36.263  22.955  25.938  1.00  0.00     0.023 C 
BRANCH  25  26
ATOM     26  C   UNL A   1      37.455  23.132  25.001  1.00  0.00     0.116 C 
BRANCH  26  27
ATOM     27  N   UNL A   1      38.646  22.400  25.397  1.00  0.00    -0.352 N 
ATOM     28  C   UNL A   1      39.692  22.781  26.203  1.00  0.00     0.251 C 
ATOM     29  H   UNL A   1      38.714  21.489  25.029  1.00  0.00     0.163 HD
ATOM     30  O   UNL A   1      40.606  21.985  26.417  1.00  0.00    -0.269 OA
BRANCH  28  31
ATOM     31  C   UNL A   1      39.771  24.145  26.778  1.00  0.00     0.039 A 
ATOM     32  C   UNL A   1      39.196  24.360  28.036  1.00  0.00     0.014 A 
ATOM     33  C   UNL A   1      40.393  25.205  26.112  1.00  0.00     0.014 A 
ATOM     34  C   UNL A   1      39.340  25.597  28.670  1.00  0.00     0.010 A 
ATOM     35  C   UNL A   1      40.579  26.426  26.764  1.00  0.00     0.010 A 
ATOM     36  C   UNL A   1      40.082  26.621  28.060  1.00  0.00    -0.014 A 
BRANCH  36  37
ATOM     37  C   UNL A   1      40.430  27.851  28.813  1.00  0.00     0.031 A 
ATOM     38  C   UNL A   1      39.463  28.991  28.936  1.00  0.00     0.074 A 
ATOM     39  C   UNL A   1      41.668  27.959  29.335  1.00  0.00     0.049 A 
ATOM     40  N   UNL A   1      39.616  30.135  29.554  1.00  0.00    -0.248 NA
ATOM     41  C   UNL A   1      38.161  28.831  28.271  1.00  0.00     0.031 C 
ATOM     42  C   UNL A   1      42.718  26.939  29.239  1.00  0.00     0.029 A 
ATOM     43  N   UNL A   1      42.260  28.976  30.042  1.00  0.00    -0.354 N 
ATOM     44  C   UNL A   1      38.432  30.833  29.354  1.00  0.00     0.074 A 
ATOM     45  C   UNL A   1      37.588  30.001  28.523  1.00  0.00     0.031 C 
ATOM     46  C   UNL A   1      43.814  27.375  29.878  1.00  0.00     0.029 A 
ATOM     47  C   UNL A   1      43.560  28.713  30.401  1.00  0.00     0.049 A 
ATOM     48  H   UNL A   1      41.796  29.813  30.271  1.00  0.00     0.167 HD
ATOM     49  C   UNL A   1      38.077  32.050  29.832  1.00  0.00     0.031 A 
ATOM     50  C   UNL A   1      44.451  29.464  31.073  1.00  0.00     0.031 A 
ATOM     51  C   UNL A   1      38.926  32.887  30.640  1.00  0.00     0.049 A 
ATOM     52  C   UNL A   1      44.040  30.819  31.572  1.00  0.00     0.074 A 
ATOM     53  C   UNL A   1      38.640  34.117  31.206  1.00  0.00     0.029 A 
ATOM     54  N   UNL A   1      40.234  32.583  30.987  1.00  0.00    -0.354 N 
ATOM     55  N   UNL A   1      42.887  31.429  31.445  1.00  0.00    -0.248 NA
ATOM     56  C   UNL A   1      45.049  31.583  32.319  1.00  0.00     0.031 C 
ATOM     57  C   UNL A   1      39.791  34.581  31.855  1.00  0.00     0.029 A 
ATOM     58  C   UNL A   1      40.776  33.614  31.739  1.00  0.00     0.049 A 
ATOM     59  H   UNL A   1      40.708  31.758  30.736  1.00  0.00     0.167 HD
ATOM     60  C   UNL A   1      43.021  32.637  32.118  1.00  0.00     0.074 A 
ATOM     61  C   UNL A   1      44.363  32.664  32.665  1.00  0.00     0.031 C 
ATOM     62  C   UNL A   1      42.114  33.631  32.271  1.00  0.00     0.031 A 
BRANCH  49  63
ATOM     63  C   UNL A   1      36.705  32.557  29.482  1.00  0.00    -0.014 A 
ATOM     64  C   UNL A   1      35.627  32.396  30.368  1.00  0.00     0.009 A 
ATOM     65  C   UNL A   1      36.494  33.239  28.274  1.00  0.00     0.009 A 
ATOM     66  C   UNL A   1      34.359  32.878  30.036  1.00  0.00     0.001 A 
ATOM     67  C   UNL A   1      35.231  33.744  27.956  1.00  0.00     0.001 A 
ATOM     68  C   UNL A   1      34.163  33.555  28.832  1.00  0.00     0.000 A 
ENDBRANCH  49  63
BRANCH  50  69
ATOM     69  C   UNL A   1      45.819  28.943  31.327  1.00  0.00    -0.014 A 
ATOM     70  C   UNL A   1      46.106  28.242  32.507  1.00  0.00     0.009 A 
ATOM     71  C   UNL A   1      46.844  29.142  30.389  1.00  0.00     0.009 A 
ATOM     72  C   UNL A   1      47.398  27.771  32.755  1.00  0.00     0.001 A 
ATOM     73  C   UNL A   1      48.128  28.647  30.627  1.00  0.00     0.001 A 
ATOM     74  C   UNL A   1      48.406  27.971  31.813  1.00  0.00     0.000 A 
ENDBRANCH  50  69
BRANCH  62  75
ATOM     75  C   UNL A   1      42.534  34.821  33.086  1.00  0.00    -0.014 A 
ATOM     76  C   UNL A   1      43.186  35.915  32.495  1.00  0.00     0.009 A 
ATOM     77  C   UNL A   1      42.246  34.860  34.459  1.00  0.00     0.009 A 
ATOM     78  C   UNL A   1      43.569  37.010  33.272  1.00  0.00     0.001 A 
ATOM     79  C   UNL A   1      42.606  35.968  35.227  1.00  0.00     0.001 A 
ATOM     80  C   UNL A   1      43.275  37.038  34.635  1.00  0.00     0.000 A 
ENDBRANCH  62  75
ENDBRANCH  36  37
ENDBRANCH  28  31
ENDBRANCH  26  27
ENDBRANCH  25  26
ENDBRANCH  24  25
ENDBRANCH   1  24
TORSDOF 17
ENDMDL
