MODEL 1
REMARK VINA RESULT:     -12.5      0.000      0.000
REMARK SMILES Cc1ccc2c(c1)c(-c1ccnc3c(C)cccc13)c(C)n2CC(=O)NCCCCNC(=O)c1ccc(-c2c3nc(c(-c4ccccc4)c4ccc([nH]4)c(-c4ccccc4)c4nc(c(-c5ccccc5)c5ccc2[nH]5)C=C4)C=C3)cc1
REMARK SMILES IDX 28 1 27 2 26 3 24 4 25 5 23 7 22 8 1 9 2 10 3 11 7 12 4 13
REMARK SMILES IDX 6 14 5 15 8 16 20 17 21 18 9 19 10 20 19 21 11 22 13 23
REMARK SMILES IDX 18 24 12 25 14 26 17 27 15 28 16 29 29 30 30 31 31 32 32 33
REMARK SMILES IDX 33 35 34 36 35 37 81 38 36 39 80 40 37 41 38 42 39 43 74 44
REMARK SMILES IDX 40 45 79 46 73 47 75 48 41 49 78 50 72 51 71 52 42 54 64 55
REMARK SMILES IDX 49 56 63 57 50 58 53 59 62 60 76 61 51 62 52 63 61 65 77 66
REMARK SMILES IDX 54 67 43 68 44 69 48 70 45 71 47 72 46 73 65 74 66 75 70 76
REMARK SMILES IDX 67 77 69 78 68 79 55 80 56 81 60 82 57 83 59 84 58 85
REMARK H PARENT 26 6 31 34 75 53 53 64
REMARK Flexibility Score: inf
ROOT
ATOM      1  C   UNL A   1      34.975  33.165  28.054  1.00  0.00     0.023 C 
ENDROOT
BRANCH   1   2
ATOM      2  C   UNL A   1      34.844  31.703  27.637  1.00  0.00     0.116 C 
BRANCH   2   3
ATOM      3  N   UNL A   1      33.531  31.166  27.928  1.00  0.00    -0.355 N 
ATOM      4  C   UNL A   1      32.757  30.328  27.175  1.00  0.00     0.239 C 
ATOM      5  O   UNL A   1      31.676  29.974  27.639  1.00  0.00    -0.273 OA
ATOM      6  H   UNL A   1      33.141  31.444  28.788  1.00  0.00     0.163 HD
BRANCH   4   7
ATOM      7  C   UNL A   1      33.256  29.800  25.840  1.00  0.00     0.222 C 
BRANCH   7   8
ATOM      8  N   UNL A   1      32.442  28.716  25.299  1.00  0.00    -0.335 N 
ATOM      9  C   UNL A   1      27.481  28.606  22.576  1.00  0.00     0.044 C 
ATOM     10  C   UNL A   1      28.807  28.701  23.272  1.00  0.00    -0.050 A 
ATOM     11  C   UNL A   1      29.419  29.943  23.437  1.00  0.00     0.005 A 
ATOM     12  C   UNL A   1      29.461  27.545  23.723  1.00  0.00     0.014 A 
ATOM     13  C   UNL A   1      30.661  30.063  24.068  1.00  0.00     0.027 A 
ATOM     14  C   UNL A   1      30.710  27.641  24.377  1.00  0.00     0.008 A 
ATOM     15  C   UNL A   1      31.283  28.900  24.558  1.00  0.00     0.049 A 
ATOM     16  C   UNL A   1      31.602  26.684  24.944  1.00  0.00     0.011 A 
ATOM     17  C   UNL A   1      32.698  27.366  25.453  1.00  0.00     0.024 A 
ATOM     18  C   UNL A   1      33.929  26.820  26.104  1.00  0.00     0.065 C 
BRANCH  16  19
ATOM     19  C   UNL A   1      31.464  25.234  24.980  1.00  0.00    -0.005 A 
ATOM     20  C   UNL A   1      30.796  24.680  26.069  1.00  0.00     0.029 A 
ATOM     21  C   UNL A   1      32.001  24.394  23.970  1.00  0.00     0.008 A 
ATOM     22  C   UNL A   1      30.670  23.312  26.116  1.00  0.00     0.112 A 
ATOM     23  C   UNL A   1      31.814  22.999  24.113  1.00  0.00     0.074 A 
ATOM     24  C   UNL A   1      32.713  24.879  22.845  1.00  0.00     0.011 A 
ATOM     25  N   UNL A   1      31.156  22.481  25.172  1.00  0.00    -0.256 NA
ATOM     26  C   UNL A   1      32.335  22.147  23.127  1.00  0.00    -0.025 A 
ATOM     27  C   UNL A   1      33.229  24.022  21.882  1.00  0.00     0.001 A 
ATOM     28  C   UNL A   1      32.165  20.652  23.208  1.00  0.00     0.047 C 
ATOM     29  C   UNL A   1      33.041  22.658  22.022  1.00  0.00     0.005 A 
ENDBRANCH  16  19
ENDBRANCH   7   8
ENDBRANCH   4   7
ENDBRANCH   2   3
ENDBRANCH   1   2
BRANCH   1  30
ATOM     30  C   UNL A   1      33.636  33.889  28.252  1.00  0.00     0.023 C 
BRANCH  30  31
ATOM     31  C   UNL A   1      33.744  35.195  29.043  1.00  0.00     0.116 C 
BRANCH  31  32
ATOM     32  N   UNL A   1      33.263  35.083  30.405  1.00  0.00    -0.352 N 
ATOM     33  C   UNL A   1      33.780  34.593  31.568  1.00  0.00     0.251 C 
ATOM     34  H   UNL A   1      32.353  35.443  30.517  1.00  0.00     0.163 HD
ATOM     35  O   UNL A   1      33.107  34.789  32.589  1.00  0.00    -0.269 OA
BRANCH  33  36
ATOM     36  C   UNL A   1      35.028  33.796  31.682  1.00  0.00     0.039 A 
ATOM     37  C   UNL A   1      36.318  34.321  31.751  1.00  0.00     0.014 A 
ATOM     38  C   UNL A   1      34.872  32.397  31.627  1.00  0.00     0.014 A 
ATOM     39  C   UNL A   1      37.421  33.487  31.642  1.00  0.00     0.010 A 
ATOM     40  C   UNL A   1      35.972  31.555  31.536  1.00  0.00     0.010 A 
ATOM     41  C   UNL A   1      37.243  32.114  31.482  1.00  0.00    -0.014 A 
BRANCH  41  42
ATOM     42  C   UNL A   1      38.442  31.304  31.320  1.00  0.00     0.031 A 
ATOM     43  C   UNL A   1      39.195  31.036  32.574  1.00  0.00     0.074 A 
ATOM     44  C   UNL A   1      38.817  30.785  30.135  1.00  0.00     0.049 A 
ATOM     45  N   UNL A   1      40.415  31.352  32.862  1.00  0.00    -0.248 NA
ATOM     46  C   UNL A   1      38.452  30.428  33.691  1.00  0.00     0.031 C 
ATOM     47  C   UNL A   1      38.051  30.728  28.886  1.00  0.00     0.029 A 
ATOM     48  N   UNL A   1      39.946  30.089  29.836  1.00  0.00    -0.354 N 
ATOM     49  C   UNL A   1      40.650  30.860  34.146  1.00  0.00     0.074 A 
ATOM     50  C   UNL A   1      39.379  30.408  34.649  1.00  0.00     0.031 C 
ATOM     51  C   UNL A   1      38.626  29.828  28.056  1.00  0.00     0.029 A 
ATOM     52  C   UNL A   1      39.872  29.375  28.650  1.00  0.00     0.049 A 
ATOM     53  H   UNL A   1      40.747  30.092  30.409  1.00  0.00     0.167 HD
ATOM     54  C   UNL A   1      41.906  30.698  34.645  1.00  0.00     0.031 A 
ATOM     55  C   UNL A   1      40.736  28.420  28.232  1.00  0.00     0.031 A 
ATOM     56  C   UNL A   1      42.878  31.465  33.916  1.00  0.00     0.049 A 
ATOM     57  C   UNL A   1      42.003  28.602  28.976  1.00  0.00     0.074 A 
ATOM     58  C   UNL A   1      43.105  32.812  33.728  1.00  0.00     0.029 A 
ATOM     59  N   UNL A   1      43.606  30.815  32.951  1.00  0.00    -0.354 N 
ATOM     60  N   UNL A   1      42.786  29.631  28.832  1.00  0.00    -0.248 NA
ATOM     61  C   UNL A   1      42.191  27.837  30.199  1.00  0.00     0.031 C 
ATOM     62  C   UNL A   1      43.562  32.920  32.384  1.00  0.00     0.029 A 
ATOM     63  C   UNL A   1      43.645  31.631  31.851  1.00  0.00     0.049 A 
ATOM     64  H   UNL A   1      44.022  29.927  33.034  1.00  0.00     0.167 HD
ATOM     65  C   UNL A   1      43.262  29.895  30.108  1.00  0.00     0.074 A 
ATOM     66  C   UNL A   1      42.945  28.699  30.885  1.00  0.00     0.031 C 
ATOM     67  C   UNL A   1      43.618  31.158  30.483  1.00  0.00     0.031 A 
BRANCH  54  68
ATOM     68  C   UNL A   1      42.300  29.582  35.578  1.00  0.00    -0.014 A 
ATOM     69  C   UNL A   1      41.753  28.287  35.503  1.00  0.00     0.009 A 
ATOM     70  C   UNL A   1      43.442  29.736  36.386  1.00  0.00     0.009 A 
ATOM     71  C   UNL A   1      42.320  27.200  36.175  1.00  0.00     0.001 A 
ATOM     72  C   UNL A   1      44.037  28.642  37.027  1.00  0.00     0.001 A 
ATOM     73  C   UNL A   1      43.478  27.374  36.917  1.00  0.00     0.000 A 
ENDBRANCH  54  68
BRANCH  55  74
ATOM     74  C   UNL A   1      40.402  27.145  27.557  1.00  0.00    -0.014 A 
ATOM     75  C   UNL A   1      39.467  26.268  28.139  1.00  0.00     0.009 A 
ATOM     76  C   UNL A   1      41.200  26.653  26.515  1.00  0.00     0.009 A 
ATOM     77  C   UNL A   1      39.363  24.937  27.725  1.00  0.00     0.001 A 
ATOM     78  C   UNL A   1      41.097  25.318  26.100  1.00  0.00     0.001 A 
ATOM     79  C   UNL A   1      40.190  24.458  26.715  1.00  0.00     0.000 A 
ENDBRANCH  55  74
BRANCH  67  80
ATOM     80  C   UNL A   1      43.712  32.232  29.422  1.00  0.00    -0.014 A 
ATOM     81  C   UNL A   1      44.867  32.269  28.625  1.00  0.00     0.009 A 
ATOM     82  C   UNL A   1      42.815  33.312  29.347  1.00  0.00     0.009 A 
ATOM     83  C   UNL A   1      45.138  33.365  27.804  1.00  0.00     0.001 A 
ATOM     84  C   UNL A   1      43.075  34.399  28.503  1.00  0.00     0.001 A 
ATOM     85  C   UNL A   1      44.243  34.431  27.744  1.00  0.00     0.000 A 
ENDBRANCH  67  80
ENDBRANCH  41  42
ENDBRANCH  33  36
ENDBRANCH  31  32
ENDBRANCH  30  31
ENDBRANCH   1  30
TORSDOF 13
ENDMDL
MODEL 2
REMARK VINA RESULT:     -12.4      1.884      2.616
REMARK SMILES Cc1ccc2c(c1)c(-c1ccnc3c(C)cccc13)c(C)n2CC(=O)NCCCCNC(=O)c1ccc(-c2c3nc(c(-c4ccccc4)c4ccc([nH]4)c(-c4ccccc4)c4nc(c(-c5ccccc5)c5ccc2[nH]5)C=C4)C=C3)cc1
REMARK SMILES IDX 28 1 27 2 26 3 24 4 25 5 23 7 22 8 1 9 2 10 3 11 7 12 4 13
REMARK SMILES IDX 6 14 5 15 8 16 20 17 21 18 9 19 10 20 19 21 11 22 13 23
REMARK SMILES IDX 18 24 12 25 14 26 17 27 15 28 16 29 29 30 30 31 31 32 32 33
REMARK SMILES IDX 33 35 34 36 35 37 81 38 36 39 80 40 37 41 38 42 39 43 74 44
REMARK SMILES IDX 40 45 79 46 73 47 75 48 41 49 78 50 72 51 71 52 42 54 64 55
REMARK SMILES IDX 49 56 63 57 50 58 53 59 62 60 76 61 51 62 52 63 61 65 77 66
REMARK SMILES IDX 54 67 43 68 44 69 48 70 45 71 47 72 46 73 65 74 66 75 70 76
REMARK SMILES IDX 67 77 69 78 68 79 55 80 56 81 60 82 57 83 59 84 58 85
REMARK H PARENT 26 6 31 34 75 53 53 64
REMARK Flexibility Score: inf
ROOT
ATOM      1  C   UNL A   1      36.286  31.284  27.896  1.00  0.00     0.023 C 
ENDROOT
BRANCH   1   2
ATOM      2  C   UNL A   1      35.405  30.054  27.694  1.00  0.00     0.116 C 
BRANCH   2   3
ATOM      3  N   UNL A   1      33.996  30.362  27.824  1.00  0.00    -0.355 N 
ATOM      4  C   UNL A   1      33.004  30.266  26.888  1.00  0.00     0.239 C 
ATOM      5  O   UNL A   1      31.862  30.556  27.233  1.00  0.00    -0.273 OA
ATOM      6  H   UNL A   1      33.714  30.687  28.709  1.00  0.00     0.163 HD
BRANCH   4   7
ATOM      7  C   UNL A   1      33.301  29.749  25.490  1.00  0.00     0.222 C 
BRANCH   7   8
ATOM      8  N   UNL A   1      32.445  28.639  25.083  1.00  0.00    -0.335 N 
ATOM      9  C   UNL A   1      27.265  28.395  22.815  1.00  0.00     0.044 C 
ATOM     10  C   UNL A   1      28.647  28.524  23.386  1.00  0.00    -0.050 A 
ATOM     11  C   UNL A   1      29.268  29.772  23.429  1.00  0.00     0.005 A 
ATOM     12  C   UNL A   1      29.339  27.393  23.841  1.00  0.00     0.014 A 
ATOM     13  C   UNL A   1      30.561  29.923  23.941  1.00  0.00     0.027 A 
ATOM     14  C   UNL A   1      30.641  27.521  24.377  1.00  0.00     0.008 A 
ATOM     15  C   UNL A   1      31.225  28.786  24.438  1.00  0.00     0.049 A 
ATOM     16  C   UNL A   1      31.581  26.594  24.915  1.00  0.00     0.011 A 
ATOM     17  C   UNL A   1      32.716  27.299  25.288  1.00  0.00     0.024 A 
ATOM     18  C   UNL A   1      34.001  26.786  25.857  1.00  0.00     0.065 C 
BRANCH  16  19
ATOM     19  C   UNL A   1      31.449  25.149  25.042  1.00  0.00    -0.005 A 
ATOM     20  C   UNL A   1      30.802  24.660  26.175  1.00  0.00     0.029 A 
ATOM     21  C   UNL A   1      31.973  24.249  24.077  1.00  0.00     0.008 A 
ATOM     22  C   UNL A   1      30.682  23.298  26.308  1.00  0.00     0.112 A 
ATOM     23  C   UNL A   1      31.794  22.865  24.309  1.00  0.00     0.074 A 
ATOM     24  C   UNL A   1      32.663  24.666  22.913  1.00  0.00     0.011 A 
ATOM     25  N   UNL A   1      31.155  22.412  25.408  1.00  0.00    -0.256 NA
ATOM     26  C   UNL A   1      32.301  21.956  23.368  1.00  0.00    -0.025 A 
ATOM     27  C   UNL A   1      33.167  23.753  21.995  1.00  0.00     0.001 A 
ATOM     28  C   UNL A   1      32.139  20.468  23.544  1.00  0.00     0.047 C 
ATOM     29  C   UNL A   1      32.986  22.399  22.223  1.00  0.00     0.005 A 
ENDBRANCH  16  19
ENDBRANCH   7   8
ENDBRANCH   4   7
ENDBRANCH   2   3
ENDBRANCH   1   2
BRANCH   1  30
ATOM     30  C   UNL A   1      35.522  32.614  27.905  1.00  0.00     0.023 C 
BRANCH  30  31
ATOM     31  C   UNL A   1      35.855  33.517  29.095  1.00  0.00     0.116 C 
BRANCH  31  32
ATOM     32  N   UNL A   1      35.233  33.089  30.332  1.00  0.00    -0.352 N 
ATOM     33  C   UNL A   1      35.612  32.287  31.368  1.00  0.00     0.251 C 
ATOM     34  H   UNL A   1      34.331  33.464  30.452  1.00  0.00     0.163 HD
ATOM     35  O   UNL A   1      34.846  32.255  32.340  1.00  0.00    -0.269 OA
BRANCH  33  36
ATOM     36  C   UNL A   1      36.812  31.413  31.380  1.00  0.00     0.039 A 
ATOM     37  C   UNL A   1      38.134  31.856  31.411  1.00  0.00     0.014 A 
ATOM     38  C   UNL A   1      36.568  30.030  31.263  1.00  0.00     0.014 A 
ATOM     39  C   UNL A   1      39.177  30.965  31.208  1.00  0.00     0.010 A 
ATOM     40  C   UNL A   1      37.609  29.130  31.076  1.00  0.00     0.010 A 
ATOM     41  C   UNL A   1      38.907  29.615  30.987  1.00  0.00    -0.014 A 
BRANCH  41  42
ATOM     42  C   UNL A   1      40.046  28.745  30.726  1.00  0.00     0.031 A 
ATOM     43  C   UNL A   1      40.920  28.482  31.901  1.00  0.00     0.074 A 
ATOM     44  C   UNL A   1      40.265  28.172  29.528  1.00  0.00     0.049 A 
ATOM     45  N   UNL A   1      42.177  28.751  32.042  1.00  0.00    -0.248 NA
ATOM     46  C   UNL A   1      40.280  27.946  33.112  1.00  0.00     0.031 C 
ATOM     47  C   UNL A   1      39.365  28.111  28.372  1.00  0.00     0.029 A 
ATOM     48  N   UNL A   1      41.324  27.415  29.133  1.00  0.00    -0.354 N 
ATOM     49  C   UNL A   1      42.531  28.290  33.310  1.00  0.00     0.074 A 
ATOM     50  C   UNL A   1      41.304  27.913  33.964  1.00  0.00     0.031 C 
ATOM     51  C   UNL A   1      39.805  27.158  27.519  1.00  0.00     0.029 A 
ATOM     52  C   UNL A   1      41.089  26.667  27.990  1.00  0.00     0.049 A 
ATOM     53  H   UNL A   1      42.182  27.399  29.616  1.00  0.00     0.167 HD
ATOM     54  C   UNL A   1      43.826  28.086  33.676  1.00  0.00     0.031 A 
ATOM     55  C   UNL A   1      41.860  25.660  27.516  1.00  0.00     0.031 A 
ATOM     56  C   UNL A   1      44.744  28.782  32.818  1.00  0.00     0.049 A 
ATOM     57  C   UNL A   1      43.208  25.806  28.111  1.00  0.00     0.074 A 
ATOM     58  C   UNL A   1      45.006  30.111  32.556  1.00  0.00     0.029 A 
ATOM     59  N   UNL A   1      45.332  28.068  31.804  1.00  0.00    -0.354 N 
ATOM     60  N   UNL A   1      44.014  26.793  27.845  1.00  0.00    -0.248 NA
ATOM     61  C   UNL A   1      43.497  25.073  29.334  1.00  0.00     0.031 C 
ATOM     62  C   UNL A   1      45.317  30.154  31.167  1.00  0.00     0.029 A 
ATOM     63  C   UNL A   1      45.285  28.847  30.677  1.00  0.00     0.049 A 
ATOM     64  H   UNL A   1      45.716  27.166  31.874  1.00  0.00     0.167 HD
ATOM     65  C   UNL A   1      44.638  27.075  29.051  1.00  0.00     0.074 A 
ATOM     66  C   UNL A   1      44.357  25.921  29.901  1.00  0.00     0.031 C 
ATOM     67  C   UNL A   1      45.087  28.331  29.338  1.00  0.00     0.031 A 
BRANCH  54  68
ATOM     68  C   UNL A   1      44.272  26.983  34.601  1.00  0.00    -0.014 A 
ATOM     69  C   UNL A   1      44.540  27.185  35.967  1.00  0.00     0.009 A 
ATOM     70  C   UNL A   1      44.168  25.646  34.172  1.00  0.00     0.009 A 
ATOM     71  C   UNL A   1      44.676  26.121  36.864  1.00  0.00     0.001 A 
ATOM     72  C   UNL A   1      44.261  24.579  35.074  1.00  0.00     0.001 A 
ATOM     73  C   UNL A   1      44.510  24.818  36.421  1.00  0.00     0.000 A 
ENDBRANCH  54  68
BRANCH  55  74
ATOM     74  C   UNL A   1      41.399  24.381  26.929  1.00  0.00    -0.014 A 
ATOM     75  C   UNL A   1      40.239  23.758  27.429  1.00  0.00     0.009 A 
ATOM     76  C   UNL A   1      42.240  23.628  26.098  1.00  0.00     0.009 A 
ATOM     77  C   UNL A   1      39.953  22.420  27.143  1.00  0.00     0.001 A 
ATOM     78  C   UNL A   1      41.953  22.286  25.811  1.00  0.00     0.001 A 
ATOM     79  C   UNL A   1      40.819  21.679  26.346  1.00  0.00     0.000 A 
ENDBRANCH  55  74
BRANCH  67  80
ATOM     80  C   UNL A   1      45.109  29.365  28.234  1.00  0.00    -0.014 A 
ATOM     81  C   UNL A   1      46.356  29.732  27.702  1.00  0.00     0.009 A 
ATOM     82  C   UNL A   1      43.982  30.127  27.878  1.00  0.00     0.009 A 
ATOM     83  C   UNL A   1      46.481  30.844  26.867  1.00  0.00     0.001 A 
ATOM     84  C   UNL A   1      44.105  31.226  27.020  1.00  0.00     0.001 A 
ATOM     85  C   UNL A   1      45.356  31.592  26.527  1.00  0.00     0.000 A 
ENDBRANCH  67  80
ENDBRANCH  41  42
ENDBRANCH  33  36
ENDBRANCH  31  32
ENDBRANCH  30  31
ENDBRANCH   1  30
TORSDOF 13
ENDMDL
MODEL 3
REMARK VINA RESULT:     -12.3      2.595      3.881
REMARK SMILES Cc1ccc2c(c1)c(-c1ccnc3c(C)cccc13)c(C)n2CC(=O)NCCCCNC(=O)c1ccc(-c2c3nc(c(-c4ccccc4)c4ccc([nH]4)c(-c4ccccc4)c4nc(c(-c5ccccc5)c5ccc2[nH]5)C=C4)C=C3)cc1
REMARK SMILES IDX 28 1 27 2 26 3 24 4 25 5 23 7 22 8 1 9 2 10 3 11 7 12 4 13
REMARK SMILES IDX 6 14 5 15 8 16 20 17 21 18 9 19 10 20 19 21 11 22 13 23
REMARK SMILES IDX 18 24 12 25 14 26 17 27 15 28 16 29 29 30 30 31 31 32 32 33
REMARK SMILES IDX 33 35 34 36 35 37 81 38 36 39 80 40 37 41 38 42 39 43 74 44
REMARK SMILES IDX 40 45 79 46 73 47 75 48 41 49 78 50 72 51 71 52 42 54 64 55
REMARK SMILES IDX 49 56 63 57 50 58 53 59 62 60 76 61 51 62 52 63 61 65 77 66
REMARK SMILES IDX 54 67 43 68 44 69 48 70 45 71 47 72 46 73 65 74 66 75 70 76
REMARK SMILES IDX 67 77 69 78 68 79 55 80 56 81 60 82 57 83 59 84 58 85
REMARK H PARENT 26 6 31 34 75 53 53 64
REMARK Flexibility Score: inf
ROOT
ATOM      1  C   UNL A   1      34.387  29.356  27.387  1.00  0.00     0.023 C 
ENDROOT
BRANCH   1   2
ATOM      2  C   UNL A   1      33.845  28.408  26.321  1.00  0.00     0.116 C 
BRANCH   2   3
ATOM      3  N   UNL A   1      32.687  28.953  25.641  1.00  0.00    -0.355 N 
ATOM      4  C   UNL A   1      31.498  28.347  25.348  1.00  0.00     0.239 C 
ATOM      5  O   UNL A   1      30.637  29.019  24.785  1.00  0.00    -0.273 OA
ATOM      6  H   UNL A   1      32.769  29.889  25.350  1.00  0.00     0.163 HD
BRANCH   4   7
ATOM      7  C   UNL A   1      31.231  26.912  25.770  1.00  0.00     0.222 C 
BRANCH   7   8
ATOM      8  N   UNL A   1      31.945  25.923  24.967  1.00  0.00    -0.335 N 
ATOM      9  C   UNL A   1      32.647  25.262  19.390  1.00  0.00     0.044 C 
ATOM     10  C   UNL A   1      32.453  25.507  20.858  1.00  0.00    -0.050 A 
ATOM     11  C   UNL A   1      31.904  26.712  21.295  1.00  0.00     0.005 A 
ATOM     12  C   UNL A   1      32.859  24.552  21.801  1.00  0.00     0.014 A 
ATOM     13  C   UNL A   1      31.724  26.978  22.656  1.00  0.00     0.027 A 
ATOM     14  C   UNL A   1      32.674  24.790  23.182  1.00  0.00     0.008 A 
ATOM     15  C   UNL A   1      32.091  25.990  23.589  1.00  0.00     0.049 A 
ATOM     16  C   UNL A   1      32.963  24.039  24.359  1.00  0.00     0.011 A 
ATOM     17  C   UNL A   1      32.562  24.787  25.457  1.00  0.00     0.024 A 
ATOM     18  C   UNL A   1      32.688  24.468  26.912  1.00  0.00     0.065 C 
BRANCH  16  19
ATOM     19  C   UNL A   1      33.601  22.733  24.460  1.00  0.00    -0.005 A 
ATOM     20  C   UNL A   1      32.781  21.610  24.372  1.00  0.00     0.029 A 
ATOM     21  C   UNL A   1      34.997  22.582  24.665  1.00  0.00     0.008 A 
ATOM     22  C   UNL A   1      33.372  20.374  24.477  1.00  0.00     0.112 A 
ATOM     23  C   UNL A   1      35.505  21.265  24.758  1.00  0.00     0.074 A 
ATOM     24  C   UNL A   1      35.892  23.672  24.789  1.00  0.00     0.011 A 
ATOM     25  N   UNL A   1      34.695  20.189  24.661  1.00  0.00    -0.256 NA
ATOM     26  C   UNL A   1      36.882  21.089  24.959  1.00  0.00    -0.025 A 
ATOM     27  C   UNL A   1      37.252  23.482  24.997  1.00  0.00     0.001 A 
ATOM     28  C   UNL A   1      37.495  19.716  25.057  1.00  0.00     0.047 C 
ATOM     29  C   UNL A   1      37.747  22.191  25.082  1.00  0.00     0.005 A 
ENDBRANCH  16  19
ENDBRANCH   7   8
ENDBRANCH   4   7
ENDBRANCH   2   3
ENDBRANCH   1   2
BRANCH   1  30
ATOM     30  C   UNL A   1      33.549  30.626  27.589  1.00  0.00     0.023 C 
BRANCH  30  31
ATOM     31  C   UNL A   1      34.380  31.888  27.835  1.00  0.00     0.116 C 
BRANCH  31  32
ATOM     32  N   UNL A   1      34.573  32.183  29.241  1.00  0.00    -0.352 N 
ATOM     33  C   UNL A   1      35.525  31.868  30.165  1.00  0.00     0.251 C 
ATOM     34  H   UNL A   1      33.851  32.739  29.614  1.00  0.00     0.163 HD
ATOM     35  O   UNL A   1      35.417  32.420  31.268  1.00  0.00    -0.269 OA
BRANCH  33  36
ATOM     36  C   UNL A   1      36.613  30.876  29.970  1.00  0.00     0.039 A 
ATOM     37  C   UNL A   1      36.507  29.506  30.202  1.00  0.00     0.014 A 
ATOM     38  C   UNL A   1      37.867  31.403  29.602  1.00  0.00     0.014 A 
ATOM     39  C   UNL A   1      37.638  28.703  30.191  1.00  0.00     0.010 A 
ATOM     40  C   UNL A   1      39.001  30.602  29.572  1.00  0.00     0.010 A 
ATOM     41  C   UNL A   1      38.888  29.264  29.929  1.00  0.00    -0.014 A 
BRANCH  41  42
ATOM     42  C   UNL A   1      40.039  28.375  29.987  1.00  0.00     0.031 A 
ATOM     43  C   UNL A   1      40.688  28.272  31.322  1.00  0.00     0.074 A 
ATOM     44  C   UNL A   1      40.457  27.653  28.931  1.00  0.00     0.049 A 
ATOM     45  N   UNL A   1      41.905  28.564  31.649  1.00  0.00    -0.248 NA
ATOM     46  C   UNL A   1      39.835  27.893  32.460  1.00  0.00     0.031 C 
ATOM     47  C   UNL A   1      39.774  27.437  27.651  1.00  0.00     0.029 A 
ATOM     48  N   UNL A   1      41.556  26.858  28.831  1.00  0.00    -0.354 N 
ATOM     49  C   UNL A   1      42.021  28.273  33.008  1.00  0.00     0.074 A 
ATOM     50  C   UNL A   1      40.692  27.977  33.477  1.00  0.00     0.031 C 
ATOM     51  C   UNL A   1      40.342  26.385  27.019  1.00  0.00     0.029 A 
ATOM     52  C   UNL A   1      41.514  25.967  27.769  1.00  0.00     0.049 A 
ATOM     53  H   UNL A   1      42.315  26.910  29.456  1.00  0.00     0.167 HD
ATOM     54  C   UNL A   1      43.228  28.126  33.620  1.00  0.00     0.031 A 
ATOM     55  C   UNL A   1      42.339  24.912  27.573  1.00  0.00     0.031 A 
ATOM     56  C   UNL A   1      44.294  28.711  32.856  1.00  0.00     0.049 A 
ATOM     57  C   UNL A   1      43.563  25.142  28.374  1.00  0.00     0.074 A 
ATOM     58  C   UNL A   1      44.621  29.996  32.477  1.00  0.00     0.029 A 
ATOM     59  N   UNL A   1      45.040  27.876  32.063  1.00  0.00    -0.354 N 
ATOM     60  N   UNL A   1      44.420  26.091  28.130  1.00  0.00    -0.248 NA
ATOM     61  C   UNL A   1      43.620  24.575  29.712  1.00  0.00     0.031 C 
ATOM     62  C   UNL A   1      45.173  29.861  31.172  1.00  0.00     0.029 A 
ATOM     63  C   UNL A   1      45.206  28.501  30.855  1.00  0.00     0.049 A 
ATOM     64  H   UNL A   1      45.391  26.992  32.315  1.00  0.00     0.167 HD
ATOM     65  C   UNL A   1      44.827  26.530  29.381  1.00  0.00     0.074 A 
ATOM     66  C   UNL A   1      44.381  25.494  30.309  1.00  0.00     0.031 C 
ATOM     67  C   UNL A   1      45.239  27.816  29.580  1.00  0.00     0.031 A 
BRANCH  54  68
ATOM     68  C   UNL A   1      43.485  27.154  34.743  1.00  0.00    -0.014 A 
ATOM     69  C   UNL A   1      43.538  27.537  36.097  1.00  0.00     0.009 A 
ATOM     70  C   UNL A   1      43.407  25.773  34.484  1.00  0.00     0.009 A 
ATOM     71  C   UNL A   1      43.495  26.604  37.136  1.00  0.00     0.001 A 
ATOM     72  C   UNL A   1      43.321  24.838  35.523  1.00  0.00     0.001 A 
ATOM     73  C   UNL A   1      43.360  25.254  36.849  1.00  0.00     0.000 A 
ENDBRANCH  54  68
BRANCH  55  74
ATOM     74  C   UNL A   1      41.968  23.565  27.083  1.00  0.00    -0.014 A 
ATOM     75  C   UNL A   1      40.931  22.851  27.714  1.00  0.00     0.009 A 
ATOM     76  C   UNL A   1      42.806  22.864  26.205  1.00  0.00     0.009 A 
ATOM     77  C   UNL A   1      40.765  21.478  27.508  1.00  0.00     0.001 A 
ATOM     78  C   UNL A   1      42.640  21.486  26.000  1.00  0.00     0.001 A 
ATOM     79  C   UNL A   1      41.631  20.793  26.663  1.00  0.00     0.000 A 
ENDBRANCH  55  74
BRANCH  67  80
ATOM     80  C   UNL A   1      45.473  28.698  28.374  1.00  0.00    -0.014 A 
ATOM     81  C   UNL A   1      46.797  28.892  27.948  1.00  0.00     0.009 A 
ATOM     82  C   UNL A   1      44.467  29.500  27.807  1.00  0.00     0.009 A 
ATOM     83  C   UNL A   1      47.113  29.877  27.010  1.00  0.00     0.001 A 
ATOM     84  C   UNL A   1      44.781  30.470  26.847  1.00  0.00     0.001 A 
ATOM     85  C   UNL A   1      46.106  30.667  26.461  1.00  0.00     0.000 A 
ENDBRANCH  67  80
ENDBRANCH  41  42
ENDBRANCH  33  36
ENDBRANCH  31  32
ENDBRANCH  30  31
ENDBRANCH   1  30
TORSDOF 13
ENDMDL
