MODEL 1
REMARK VINA RESULT:     -11.1      0.000      0.000
REMARK SMILES CCc1[nH]nc(-n2cccc2)c1C(=O)NCCCCNC(=O)c1ccc(-c2c3nc(c(-c4ccccc4)c4ccc([nH]4)c(-c4ccccc4)c4nc(c(-c5ccccc5)c5ccc2[nH]5)C=C4)C=C3)cc1
REMARK SMILES IDX 18 1 17 2 16 3 15 4 13 5 14 6 12 8 3 9 4 10 5 11 6 13 2 14
REMARK SMILES IDX 1 15 7 16 8 17 11 18 9 19 10 20 19 21 20 22 21 23 22 25
REMARK SMILES IDX 23 26 24 27 70 28 25 29 69 30 26 31 27 32 28 33 63 34 29 35
REMARK SMILES IDX 68 36 62 37 64 38 30 39 67 40 61 41 60 42 31 44 53 45 38 46
REMARK SMILES IDX 52 47 39 48 42 49 51 50 65 51 40 52 41 53 50 55 66 56 43 57
REMARK SMILES IDX 32 58 33 59 37 60 34 61 36 62 35 63 54 64 55 65 59 66 56 67
REMARK SMILES IDX 58 68 57 69 44 70 45 71 49 72 46 73 48 74 47 75
REMARK H PARENT 15 7 4 12 20 24 64 43 42 54
REMARK Flexibility Score: inf
ROOT
ATOM      1  C   UNL A   1      36.719  23.202  24.934  1.00  0.00     0.023 C 
ENDROOT
BRANCH   1   2
ATOM      2  C   UNL A   1      37.295  21.812  24.648  1.00  0.00     0.023 C 
BRANCH   2   3
ATOM      3  C   UNL A   1      36.350  20.662  24.954  1.00  0.00     0.116 C 
BRANCH   3   4
ATOM      4  N   UNL A   1      35.235  21.015  25.782  1.00  0.00    -0.352 N 
ATOM      5  C   UNL A   1      33.881  20.830  25.679  1.00  0.00     0.256 C 
ATOM      6  O   UNL A   1      33.319  20.973  26.770  1.00  0.00    -0.269 OA
ATOM      7  H   UNL A   1      35.498  21.494  26.600  1.00  0.00     0.163 HD
BRANCH   5   8
ATOM      8  C   UNL A   1      33.101  20.500  24.471  1.00  0.00     0.105 A 
ATOM      9  C   UNL A   1      32.449  21.230  23.458  1.00  0.00     0.050 A 
ATOM     10  N   UNL A   1      31.987  20.305  22.553  1.00  0.00    -0.280 N 
ATOM     11  N   UNL A   1      32.374  19.062  22.785  1.00  0.00    -0.156 NA
ATOM     12  H   UNL A   1      31.414  20.549  21.791  1.00  0.00     0.190 HD
ATOM     13  C   UNL A   1      32.973  19.144  23.975  1.00  0.00     0.171 A 
BRANCH   9  14
ATOM     14  C   UNL A   1      32.178  22.654  23.093  1.00  0.00     0.053 C 
ATOM     15  C   UNL A   1      33.385  23.556  23.335  1.00  0.00     0.011 C 
ENDBRANCH   9  14
BRANCH  13  16
ATOM     16  N   UNL A   1      33.402  17.899  24.540  1.00  0.00    -0.307 N 
ATOM     17  C   UNL A   1      34.628  17.279  24.408  1.00  0.00     0.093 A 
ATOM     18  C   UNL A   1      32.645  17.120  25.402  1.00  0.00     0.093 A 
ATOM     19  C   UNL A   1      34.610  16.087  25.099  1.00  0.00     0.020 A 
ATOM     20  C   UNL A   1      33.342  15.973  25.707  1.00  0.00     0.020 A 
ENDBRANCH  13  16
ENDBRANCH   5   8
ENDBRANCH   3   4
ENDBRANCH   2   3
ENDBRANCH   1   2
BRANCH   1  21
ATOM     21  C   UNL A   1      37.379  23.945  26.102  1.00  0.00     0.116 C 
BRANCH  21  22
ATOM     22  N   UNL A   1      38.561  23.255  26.589  1.00  0.00    -0.352 N 
ATOM     23  C   UNL A   1      39.753  23.782  27.024  1.00  0.00     0.251 C 
ATOM     24  H   UNL A   1      38.500  22.272  26.611  1.00  0.00     0.163 HD
ATOM     25  O   UNL A   1      40.757  23.082  27.034  1.00  0.00    -0.269 OA
BRANCH  23  26
ATOM     26  C   UNL A   1      39.846  25.184  27.481  1.00  0.00     0.039 A 
ATOM     27  C   UNL A   1      39.394  25.493  28.770  1.00  0.00     0.014 A 
ATOM     28  C   UNL A   1      40.271  26.200  26.617  1.00  0.00     0.014 A 
ATOM     29  C   UNL A   1      39.427  26.810  29.219  1.00  0.00     0.010 A 
ATOM     30  C   UNL A   1      40.311  27.518  27.065  1.00  0.00     0.010 A 
ATOM     31  C   UNL A   1      39.914  27.817  28.375  1.00  0.00    -0.014 A 
BRANCH  31  32
ATOM     32  C   UNL A   1      40.228  29.144  28.958  1.00  0.00     0.031 A 
ATOM     33  C   UNL A   1      38.936  29.974  29.191  1.00  0.00     0.074 A 
ATOM     34  C   UNL A   1      41.550  29.423  29.186  1.00  0.00     0.049 A 
ATOM     35  N   UNL A   1      38.775  31.243  29.413  1.00  0.00    -0.248 NA
ATOM     36  C   UNL A   1      37.612  29.279  29.164  1.00  0.00     0.031 C 
ATOM     37  C   UNL A   1      42.668  28.469  28.983  1.00  0.00     0.029 A 
ATOM     38  N   UNL A   1      42.234  30.537  29.631  1.00  0.00    -0.354 N 
ATOM     39  C   UNL A   1      37.408  31.465  29.715  1.00  0.00     0.074 A 
ATOM     40  C   UNL A   1      36.733  30.228  29.483  1.00  0.00     0.031 C 
ATOM     41  C   UNL A   1      43.863  29.055  29.223  1.00  0.00     0.029 A 
ATOM     42  C   UNL A   1      43.654  30.437  29.607  1.00  0.00     0.049 A 
ATOM     43  H   UNL A   1      41.770  31.348  29.944  1.00  0.00     0.167 HD
ATOM     44  C   UNL A   1      36.932  32.629  30.247  1.00  0.00     0.031 A 
ATOM     45  C   UNL A   1      44.591  31.412  29.838  1.00  0.00     0.031 A 
ATOM     46  C   UNL A   1      37.944  33.624  30.234  1.00  0.00     0.049 A 
ATOM     47  C   UNL A   1      43.825  32.575  30.291  1.00  0.00     0.074 A 
ATOM     48  C   UNL A   1      38.503  34.373  29.233  1.00  0.00     0.029 A 
ATOM     49  N   UNL A   1      38.737  33.697  31.348  1.00  0.00    -0.354 N 
ATOM     50  N   UNL A   1      43.317  32.703  31.476  1.00  0.00    -0.248 NA
ATOM     51  C   UNL A   1      43.548  33.659  29.341  1.00  0.00     0.031 C 
ATOM     52  C   UNL A   1      39.860  34.450  29.609  1.00  0.00     0.029 A 
ATOM     53  C   UNL A   1      40.013  33.932  30.899  1.00  0.00     0.049 A 
ATOM     54  H   UNL A   1      38.451  33.600  32.284  1.00  0.00     0.167 HD
ATOM     55  C   UNL A   1      42.354  33.656  31.273  1.00  0.00     0.074 A 
ATOM     56  C   UNL A   1      42.759  34.409  30.105  1.00  0.00     0.031 C 
ATOM     57  C   UNL A   1      41.092  33.440  31.714  1.00  0.00     0.031 A 
BRANCH  44  58
ATOM     58  C   UNL A   1      35.677  32.941  31.022  1.00  0.00    -0.014 A 
ATOM     59  C   UNL A   1      34.944  34.093  30.638  1.00  0.00     0.009 A 
ATOM     60  C   UNL A   1      35.393  32.399  32.280  1.00  0.00     0.009 A 
ATOM     61  C   UNL A   1      34.088  34.757  31.519  1.00  0.00     0.001 A 
ATOM     62  C   UNL A   1      34.499  33.043  33.151  1.00  0.00     0.001 A 
ATOM     63  C   UNL A   1      33.884  34.241  32.789  1.00  0.00     0.000 A 
ENDBRANCH  44  58
BRANCH  45  64
ATOM     64  C   UNL A   1      46.081  31.645  29.723  1.00  0.00    -0.014 A 
ATOM     65  C   UNL A   1      46.922  31.195  28.704  1.00  0.00     0.009 A 
ATOM     66  C   UNL A   1      46.716  32.445  30.721  1.00  0.00     0.009 A 
ATOM     67  C   UNL A   1      48.280  31.596  28.650  1.00  0.00     0.001 A 
ATOM     68  C   UNL A   1      48.042  32.880  30.651  1.00  0.00     0.001 A 
ATOM     69  C   UNL A   1      48.827  32.462  29.598  1.00  0.00     0.000 A 
ENDBRANCH  45  64
BRANCH  57  70
ATOM     70  C   UNL A   1      40.958  32.358  32.777  1.00  0.00    -0.014 A 
ATOM     71  C   UNL A   1      40.506  31.081  32.419  1.00  0.00     0.009 A 
ATOM     72  C   UNL A   1      41.158  32.607  34.149  1.00  0.00     0.009 A 
ATOM     73  C   UNL A   1      40.248  30.100  33.387  1.00  0.00     0.001 A 
ATOM     74  C   UNL A   1      40.904  31.627  35.122  1.00  0.00     0.001 A 
ATOM     75  C   UNL A   1      40.445  30.373  34.739  1.00  0.00     0.000 A 
ENDBRANCH  57  70
ENDBRANCH  31  32
ENDBRANCH  23  26
ENDBRANCH  21  22
ENDBRANCH   1  21
TORSDOF 13
ENDMDL
MODEL 2
REMARK VINA RESULT:     -11.0      4.953      9.527
REMARK SMILES CCc1[nH]nc(-n2cccc2)c1C(=O)NCCCCNC(=O)c1ccc(-c2c3nc(c(-c4ccccc4)c4ccc([nH]4)c(-c4ccccc4)c4nc(c(-c5ccccc5)c5ccc2[nH]5)C=C4)C=C3)cc1
REMARK SMILES IDX 18 1 17 2 16 3 15 4 13 5 14 6 12 8 3 9 4 10 5 11 6 13 2 14
REMARK SMILES IDX 1 15 7 16 8 17 11 18 9 19 10 20 19 21 20 22 21 23 22 25
REMARK SMILES IDX 23 26 24 27 70 28 25 29 69 30 26 31 27 32 28 33 63 34 29 35
REMARK SMILES IDX 68 36 62 37 64 38 30 39 67 40 61 41 60 42 31 44 53 45 38 46
REMARK SMILES IDX 52 47 39 48 42 49 51 50 65 51 40 52 41 53 50 55 66 56 43 57
REMARK SMILES IDX 32 58 33 59 37 60 34 61 36 62 35 63 54 64 55 65 59 66 56 67
REMARK SMILES IDX 58 68 57 69 44 70 45 71 49 72 46 73 48 74 47 75
REMARK H PARENT 15 7 4 12 20 24 64 43 42 54
REMARK Flexibility Score: inf
ROOT
ATOM      1  C   UNL A   1      33.714  29.748  26.438  1.00  0.00     0.023 C 
ENDROOT
BRANCH   1   2
ATOM      2  C   UNL A   1      32.271  30.121  26.790  1.00  0.00     0.023 C 
BRANCH   2   3
ATOM      3  C   UNL A   1      31.351  30.285  25.591  1.00  0.00     0.116 C 
BRANCH   3   4
ATOM      4  N   UNL A   1      31.840  29.689  24.383  1.00  0.00    -0.352 N 
ATOM      5  C   UNL A   1      31.244  29.023  23.345  1.00  0.00     0.256 C 
ATOM      6  O   UNL A   1      31.971  28.991  22.348  1.00  0.00    -0.269 OA
ATOM      7  H   UNL A   1      32.815  29.777  24.276  1.00  0.00     0.163 HD
BRANCH   5   8
ATOM      8  C   UNL A   1      29.910  28.391  23.322  1.00  0.00     0.105 A 
ATOM      9  C   UNL A   1      29.378  27.140  23.689  1.00  0.00     0.050 A 
ATOM     10  N   UNL A   1      28.020  27.228  23.502  1.00  0.00    -0.280 N 
ATOM     11  N   UNL A   1      27.583  28.435  23.180  1.00  0.00    -0.156 NA
ATOM     12  H   UNL A   1      27.419  26.455  23.599  1.00  0.00     0.190 HD
ATOM     13  C   UNL A   1      28.708  29.127  22.986  1.00  0.00     0.171 A 
BRANCH   9  14
ATOM     14  C   UNL A   1      29.851  25.832  24.238  1.00  0.00     0.053 C 
ATOM     15  C   UNL A   1      30.599  25.994  25.559  1.00  0.00     0.011 C 
ENDBRANCH   9  14
BRANCH  13  16
ATOM     16  N   UNL A   1      28.535  30.467  22.508  1.00  0.00    -0.307 N 
ATOM     17  C   UNL A   1      28.737  31.649  23.192  1.00  0.00     0.093 A 
ATOM     18  C   UNL A   1      28.193  30.805  21.208  1.00  0.00     0.093 A 
ATOM     19  C   UNL A   1      28.436  32.709  22.364  1.00  0.00     0.020 A 
ATOM     20  C   UNL A   1      28.064  32.172  21.113  1.00  0.00     0.020 A 
ENDBRANCH  13  16
ENDBRANCH   5   8
ENDBRANCH   3   4
ENDBRANCH   2   3
ENDBRANCH   1   2
BRANCH   1  21
ATOM     21  C   UNL A   1      34.568  29.285  27.625  1.00  0.00     0.116 C 
BRANCH  21  22
ATOM     22  N   UNL A   1      34.895  30.381  28.522  1.00  0.00    -0.352 N 
ATOM     23  C   UNL A   1      35.984  30.529  29.346  1.00  0.00     0.251 C 
ATOM     24  H   UNL A   1      34.246  31.121  28.541  1.00  0.00     0.163 HD
ATOM     25  O   UNL A   1      35.925  31.298  30.296  1.00  0.00    -0.269 OA
BRANCH  23  26
ATOM     26  C   UNL A   1      37.231  29.773  29.106  1.00  0.00     0.039 A 
ATOM     27  C   UNL A   1      37.793  29.810  27.823  1.00  0.00     0.014 A 
ATOM     28  C   UNL A   1      37.781  28.951  30.096  1.00  0.00     0.014 A 
ATOM     29  C   UNL A   1      38.944  29.077  27.549  1.00  0.00     0.010 A 
ATOM     30  C   UNL A   1      38.936  28.221  29.828  1.00  0.00     0.010 A 
ATOM     31  C   UNL A   1      39.531  28.305  28.562  1.00  0.00    -0.014 A 
BRANCH  31  32
ATOM     32  C   UNL A   1      40.902  27.782  28.353  1.00  0.00     0.031 A 
ATOM     33  C   UNL A   1      41.957  28.918  28.455  1.00  0.00     0.074 A 
ATOM     34  C   UNL A   1      41.023  26.439  28.109  1.00  0.00     0.049 A 
ATOM     35  N   UNL A   1      43.199  28.954  28.076  1.00  0.00    -0.248 NA
ATOM     36  C   UNL A   1      41.561  30.223  29.068  1.00  0.00     0.031 C 
ATOM     37  C   UNL A   1      39.902  25.467  28.133  1.00  0.00     0.029 A 
ATOM     38  N   UNL A   1      42.082  25.609  27.799  1.00  0.00    -0.354 N 
ATOM     39  C   UNL A   1      43.763  30.168  28.543  1.00  0.00     0.074 A 
ATOM     40  C   UNL A   1      42.689  30.934  29.090  1.00  0.00     0.031 C 
ATOM     41  C   UNL A   1      40.319  24.228  27.782  1.00  0.00     0.029 A 
ATOM     42  C   UNL A   1      41.740  24.260  27.499  1.00  0.00     0.049 A 
ATOM     43  H   UNL A   1      43.013  25.931  27.786  1.00  0.00     0.167 HD
ATOM     44  C   UNL A   1      45.105  30.423  28.551  1.00  0.00     0.031 A 
ATOM     45  C   UNL A   1      42.538  23.256  27.015  1.00  0.00     0.031 A 
ATOM     46  C   UNL A   1      45.799  29.415  27.833  1.00  0.00     0.049 A 
ATOM     47  C   UNL A   1      43.894  23.811  27.023  1.00  0.00     0.074 A 
ATOM     48  C   UNL A   1      45.915  29.133  26.498  1.00  0.00     0.029 A 
ATOM     49  N   UNL A   1      46.223  28.335  28.560  1.00  0.00    -0.354 N 
ATOM     50  N   UNL A   1      44.622  23.955  28.084  1.00  0.00    -0.248 NA
ATOM     51  C   UNL A   1      44.470  24.301  25.764  1.00  0.00     0.031 C 
ATOM     52  C   UNL A   1      45.918  27.723  26.467  1.00  0.00     0.029 A 
ATOM     53  C   UNL A   1      46.011  27.231  27.774  1.00  0.00     0.049 A 
ATOM     54  H   UNL A   1      46.605  28.348  29.467  1.00  0.00     0.167 HD
ATOM     55  C   UNL A   1      45.534  24.895  27.681  1.00  0.00     0.074 A 
ATOM     56  C   UNL A   1      45.605  24.807  26.239  1.00  0.00     0.031 C 
ATOM     57  C   UNL A   1      45.757  25.987  28.450  1.00  0.00     0.031 A 
BRANCH  44  58
ATOM     58  C   UNL A   1      45.939  31.392  29.350  1.00  0.00    -0.014 A 
ATOM     59  C   UNL A   1      45.983  31.206  30.755  1.00  0.00     0.009 A 
ATOM     60  C   UNL A   1      46.361  32.632  28.861  1.00  0.00     0.009 A 
ATOM     61  C   UNL A   1      46.285  32.249  31.633  1.00  0.00     0.001 A 
ATOM     62  C   UNL A   1      46.706  33.670  29.743  1.00  0.00     0.001 A 
ATOM     63  C   UNL A   1      46.625  33.491  31.124  1.00  0.00     0.000 A 
ENDBRANCH  44  58
BRANCH  45  64
ATOM     64  C   UNL A   1      42.437  21.852  26.462  1.00  0.00    -0.014 A 
ATOM     65  C   UNL A   1      43.444  21.130  25.820  1.00  0.00     0.009 A 
ATOM     66  C   UNL A   1      41.208  21.146  26.639  1.00  0.00     0.009 A 
ATOM     67  C   UNL A   1      43.254  19.772  25.466  1.00  0.00     0.001 A 
ATOM     68  C   UNL A   1      41.027  19.795  26.332  1.00  0.00     0.001 A 
ATOM     69  C   UNL A   1      42.066  19.098  25.753  1.00  0.00     0.000 A 
ENDBRANCH  45  64
BRANCH  57  70
ATOM     70  C   UNL A   1      45.303  25.859  29.898  1.00  0.00    -0.014 A 
ATOM     71  C   UNL A   1      44.126  26.493  30.318  1.00  0.00     0.009 A 
ATOM     72  C   UNL A   1      46.076  25.221  30.887  1.00  0.00     0.009 A 
ATOM     73  C   UNL A   1      43.746  26.505  31.668  1.00  0.00     0.001 A 
ATOM     74  C   UNL A   1      45.698  25.227  32.239  1.00  0.00     0.001 A 
ATOM     75  C   UNL A   1      44.532  25.874  32.629  1.00  0.00     0.000 A 
ENDBRANCH  57  70
ENDBRANCH  31  32
ENDBRANCH  23  26
ENDBRANCH  21  22
ENDBRANCH   1  21
TORSDOF 13
ENDMDL
MODEL 3
REMARK VINA RESULT:     -11.0      4.646      8.889
REMARK SMILES CCc1[nH]nc(-n2cccc2)c1C(=O)NCCCCNC(=O)c1ccc(-c2c3nc(c(-c4ccccc4)c4ccc([nH]4)c(-c4ccccc4)c4nc(c(-c5ccccc5)c5ccc2[nH]5)C=C4)C=C3)cc1
REMARK SMILES IDX 18 1 17 2 16 3 15 4 13 5 14 6 12 8 3 9 4 10 5 11 6 13 2 14
REMARK SMILES IDX 1 15 7 16 8 17 11 18 9 19 10 20 19 21 20 22 21 23 22 25
REMARK SMILES IDX 23 26 24 27 70 28 25 29 69 30 26 31 27 32 28 33 63 34 29 35
REMARK SMILES IDX 68 36 62 37 64 38 30 39 67 40 61 41 60 42 31 44 53 45 38 46
REMARK SMILES IDX 52 47 39 48 42 49 51 50 65 51 40 52 41 53 50 55 66 56 43 57
REMARK SMILES IDX 32 58 33 59 37 60 34 61 36 62 35 63 54 64 55 65 59 66 56 67
REMARK SMILES IDX 58 68 57 69 44 70 45 71 49 72 46 73 48 74 47 75
REMARK H PARENT 15 7 4 12 20 24 64 43 42 54
REMARK Flexibility Score: inf
ROOT
ATOM      1  C   UNL A   1      31.082  32.201  26.834  1.00  0.00     0.023 C 
ENDROOT
BRANCH   1   2
ATOM      2  C   UNL A   1      31.020  31.325  25.580  1.00  0.00     0.023 C 
BRANCH   2   3
ATOM      3  C   UNL A   1      31.784  30.015  25.687  1.00  0.00     0.116 C 
BRANCH   3   4
ATOM      4  N   UNL A   1      32.283  29.516  24.440  1.00  0.00    -0.352 N 
ATOM      5  C   UNL A   1      31.725  28.796  23.416  1.00  0.00     0.256 C 
ATOM      6  O   UNL A   1      32.394  28.883  22.382  1.00  0.00    -0.269 OA
ATOM      7  H   UNL A   1      33.229  29.738  24.285  1.00  0.00     0.163 HD
BRANCH   5   8
ATOM      8  C   UNL A   1      30.489  27.989  23.444  1.00  0.00     0.105 A 
ATOM      9  C   UNL A   1      30.152  26.669  23.799  1.00  0.00     0.050 A 
ATOM     10  N   UNL A   1      28.786  26.576  23.688  1.00  0.00    -0.280 N 
ATOM     11  N   UNL A   1      28.173  27.720  23.429  1.00  0.00    -0.156 NA
ATOM     12  H   UNL A   1      28.301  25.727  23.793  1.00  0.00     0.190 HD
ATOM     13  C   UNL A   1      29.182  28.563  23.197  1.00  0.00     0.171 A 
BRANCH   9  14
ATOM     14  C   UNL A   1      30.827  25.424  24.280  1.00  0.00     0.053 C 
ATOM     15  C   UNL A   1      30.567  24.232  23.364  1.00  0.00     0.011 C 
ENDBRANCH   9  14
BRANCH  13  16
ATOM     16  N   UNL A   1      28.804  29.878  22.773  1.00  0.00    -0.307 N 
ATOM     17  C   UNL A   1      28.126  30.844  23.490  1.00  0.00     0.093 A 
ATOM     18  C   UNL A   1      29.134  30.440  21.549  1.00  0.00     0.093 A 
ATOM     19  C   UNL A   1      27.952  31.958  22.697  1.00  0.00     0.020 A 
ATOM     20  C   UNL A   1      28.568  31.691  21.456  1.00  0.00     0.020 A 
ENDBRANCH  13  16
ENDBRANCH   5   8
ENDBRANCH   3   4
ENDBRANCH   2   3
ENDBRANCH   1   2
BRANCH   1  21
ATOM     21  C   UNL A   1      32.463  32.794  27.139  1.00  0.00     0.116 C 
BRANCH  21  22
ATOM     22  N   UNL A   1      32.386  34.203  27.489  1.00  0.00    -0.352 N 
ATOM     23  C   UNL A   1      32.990  34.870  28.528  1.00  0.00     0.251 C 
ATOM     24  H   UNL A   1      31.824  34.756  26.900  1.00  0.00     0.163 HD
ATOM     25  O   UNL A   1      32.533  35.941  28.906  1.00  0.00    -0.269 OA
BRANCH  23  26
ATOM     26  C   UNL A   1      34.183  34.317  29.200  1.00  0.00     0.039 A 
ATOM     27  C   UNL A   1      34.028  33.764  30.478  1.00  0.00     0.014 A 
ATOM     28  C   UNL A   1      35.456  34.436  28.629  1.00  0.00     0.014 A 
ATOM     29  C   UNL A   1      35.138  33.271  31.158  1.00  0.00     0.010 A 
ATOM     30  C   UNL A   1      36.568  33.939  29.304  1.00  0.00     0.010 A 
ATOM     31  C   UNL A   1      36.403  33.333  30.557  1.00  0.00    -0.014 A 
BRANCH  31  32
ATOM     32  C   UNL A   1      37.510  32.542  31.146  1.00  0.00     0.031 A 
ATOM     33  C   UNL A   1      37.670  31.177  30.423  1.00  0.00     0.074 A 
ATOM     34  C   UNL A   1      38.188  33.109  32.194  1.00  0.00     0.049 A 
ATOM     35  N   UNL A   1      38.305  30.101  30.780  1.00  0.00    -0.248 NA
ATOM     36  C   UNL A   1      37.011  30.977  29.096  1.00  0.00     0.031 C 
ATOM     37  C   UNL A   1      37.959  34.480  32.712  1.00  0.00     0.029 A 
ATOM     38  N   UNL A   1      39.197  32.678  33.032  1.00  0.00    -0.354 N 
ATOM     39  C   UNL A   1      38.273  29.193  29.691  1.00  0.00     0.074 A 
ATOM     40  C   UNL A   1      37.408  29.764  28.708  1.00  0.00     0.031 C 
ATOM     41  C   UNL A   1      38.728  34.731  33.796  1.00  0.00     0.029 A 
ATOM     42  C   UNL A   1      39.535  33.564  34.094  1.00  0.00     0.049 A 
ATOM     43  H   UNL A   1      39.651  31.813  32.905  1.00  0.00     0.167 HD
ATOM     44  C   UNL A   1      39.052  28.074  29.618  1.00  0.00     0.031 A 
ATOM     45  C   UNL A   1      40.372  33.353  35.159  1.00  0.00     0.031 A 
ATOM     46  C   UNL A   1      39.703  27.849  30.859  1.00  0.00     0.049 A 
ATOM     47  C   UNL A   1      41.000  32.056  34.897  1.00  0.00     0.074 A 
ATOM     48  C   UNL A   1      39.263  27.398  32.075  1.00  0.00     0.029 A 
ATOM     49  N   UNL A   1      40.934  28.429  31.012  1.00  0.00    -0.354 N 
ATOM     50  N   UNL A   1      41.950  31.860  34.040  1.00  0.00    -0.248 NA
ATOM     51  C   UNL A   1      40.498  30.867  35.598  1.00  0.00     0.031 C 
ATOM     52  C   UNL A   1      40.004  28.173  32.992  1.00  0.00     0.029 A 
ATOM     53  C   UNL A   1      40.986  28.892  32.303  1.00  0.00     0.049 A 
ATOM     54  H   UNL A   1      41.642  28.499  30.332  1.00  0.00     0.167 HD
ATOM     55  C   UNL A   1      41.865  30.511  33.820  1.00  0.00     0.074 A 
ATOM     56  C   UNL A   1      41.237  29.942  34.992  1.00  0.00     0.031 C 
ATOM     57  C   UNL A   1      41.818  30.039  32.551  1.00  0.00     0.031 A 
BRANCH  44  58
ATOM     58  C   UNL A   1      39.502  27.237  28.448  1.00  0.00    -0.014 A 
ATOM     59  C   UNL A   1      39.532  25.831  28.627  1.00  0.00     0.009 A 
ATOM     60  C   UNL A   1      40.213  27.753  27.360  1.00  0.00     0.009 A 
ATOM     61  C   UNL A   1      40.349  25.001  27.857  1.00  0.00     0.001 A 
ATOM     62  C   UNL A   1      41.003  26.912  26.558  1.00  0.00     0.001 A 
ATOM     63  C   UNL A   1      41.105  25.549  26.833  1.00  0.00     0.000 A 
ENDBRANCH  44  58
BRANCH  45  64
ATOM     64  C   UNL A   1      40.776  33.995  36.468  1.00  0.00    -0.014 A 
ATOM     65  C   UNL A   1      42.075  34.279  36.894  1.00  0.00     0.009 A 
ATOM     66  C   UNL A   1      39.743  34.407  37.363  1.00  0.00     0.009 A 
ATOM     67  C   UNL A   1      42.306  35.003  38.090  1.00  0.00     0.001 A 
ATOM     68  C   UNL A   1      39.961  35.159  38.520  1.00  0.00     0.001 A 
ATOM     69  C   UNL A   1      41.255  35.472  38.879  1.00  0.00     0.000 A 
ENDBRANCH  45  64
BRANCH  57  70
ATOM     70  C   UNL A   1      42.305  31.011  31.484  1.00  0.00    -0.014 A 
ATOM     71  C   UNL A   1      43.674  31.107  31.202  1.00  0.00     0.009 A 
ATOM     72  C   UNL A   1      41.449  31.920  30.833  1.00  0.00     0.009 A 
ATOM     73  C   UNL A   1      44.170  32.079  30.323  1.00  0.00     0.001 A 
ATOM     74  C   UNL A   1      41.942  32.893  29.948  1.00  0.00     0.001 A 
ATOM     75  C   UNL A   1      43.306  32.973  29.696  1.00  0.00     0.000 A 
ENDBRANCH  57  70
ENDBRANCH  31  32
ENDBRANCH  23  26
ENDBRANCH  21  22
ENDBRANCH   1  21
TORSDOF 13
ENDMDL
