MODEL 1
REMARK VINA RESULT:     -11.1      0.000      0.000
REMARK SMILES O=C(NCCCCNC(=O)c1cn(C2C[NH+](Cc3cc(F)ccc3F)C2)nn1)c1ccc(-c2c3nc(c(-c4ccccc4)c4ccc([nH]4)c(-c4ccccc4)c4nc(c(-c5ccccc5)c5ccc2[nH]5)C=C4)C=C3)cc1
REMARK SMILES IDX 6 1 5 2 4 3 3 4 1 5 2 6 29 8 30 9 76 10 31 11 75 12 32 13
REMARK SMILES IDX 33 14 34 15 69 16 35 17 74 18 68 19 70 20 36 21 73 22 67 23
REMARK SMILES IDX 66 24 37 26 59 27 44 28 58 29 45 30 48 31 57 32 71 33 46 34
REMARK SMILES IDX 47 35 56 37 72 38 49 39 38 40 39 41 43 42 40 43 42 44 41 45
REMARK SMILES IDX 60 46 61 47 65 48 62 49 64 50 63 51 50 52 51 53 55 54 52 55
REMARK SMILES IDX 54 56 53 57 7 58 8 59 9 60 10 62 11 63 12 64 28 65 13 66
REMARK SMILES IDX 27 67 14 68 15 69 26 70 16 71 17 73 18 74 19 75 24 76 20 77
REMARK SMILES IDX 23 78 25 79 21 80 22 81
REMARK H PARENT 3 7 70 25 48 36 8 61 16 72
REMARK Flexibility Score: inf
ROOT
ATOM      1  C   UNL A   1      35.477  22.896  23.686  1.00  0.00     0.023 C 
ENDROOT
BRANCH   1   2
ATOM      2  C   UNL A   1      36.763  22.121  24.005  1.00  0.00     0.023 C 
BRANCH   2   3
ATOM      3  C   UNL A   1      37.128  22.035  25.485  1.00  0.00     0.116 C 
BRANCH   3   4
ATOM      4  N   UNL A   1      38.485  21.596  25.733  1.00  0.00    -0.352 N 
ATOM      5  O   UNL A   1      40.498  21.291  26.560  1.00  0.00    -0.269 OA
ATOM      6  C   UNL A   1      39.549  22.073  26.444  1.00  0.00     0.251 C 
ATOM      7  H   UNL A   1      38.690  20.748  25.279  1.00  0.00     0.163 HD
BRANCH   6   8
ATOM      8  C   UNL A   1      39.687  23.442  27.018  1.00  0.00     0.039 A 
ATOM      9  C   UNL A   1      38.821  24.519  26.826  1.00  0.00     0.014 A 
ATOM     10  C   UNL A   1      40.847  23.653  27.793  1.00  0.00     0.014 A 
ATOM     11  C   UNL A   1      39.148  25.783  27.331  1.00  0.00     0.010 A 
ATOM     12  C   UNL A   1      41.178  24.906  28.295  1.00  0.00     0.010 A 
ATOM     13  C   UNL A   1      40.346  25.987  28.031  1.00  0.00    -0.014 A 
BRANCH  13  14
ATOM     14  C   UNL A   1      40.625  27.304  28.607  1.00  0.00     0.031 A 
ATOM     15  C   UNL A   1      41.797  28.003  28.006  1.00  0.00     0.074 A 
ATOM     16  C   UNL A   1      39.836  27.941  29.501  1.00  0.00     0.049 A 
ATOM     17  N   UNL A   1      42.902  28.336  28.589  1.00  0.00    -0.248 NA
ATOM     18  C   UNL A   1      41.782  28.275  26.560  1.00  0.00     0.031 C 
ATOM     19  C   UNL A   1      38.510  27.550  29.990  1.00  0.00     0.029 A 
ATOM     20  N   UNL A   1      40.030  29.151  30.105  1.00  0.00    -0.354 N 
ATOM     21  C   UNL A   1      43.666  29.002  27.633  1.00  0.00     0.074 A 
ATOM     22  C   UNL A   1      42.979  28.836  26.376  1.00  0.00     0.031 C 
ATOM     23  C   UNL A   1      37.934  28.600  30.624  1.00  0.00     0.029 A 
ATOM     24  C   UNL A   1      38.899  29.681  30.721  1.00  0.00     0.049 A 
ATOM     25  H   UNL A   1      40.901  29.611  30.105  1.00  0.00     0.167 HD
ATOM     26  C   UNL A   1      44.712  29.804  27.982  1.00  0.00     0.031 A 
ATOM     27  C   UNL A   1      38.760  30.927  31.246  1.00  0.00     0.031 A 
ATOM     28  C   UNL A   1      45.130  29.575  29.338  1.00  0.00     0.049 A 
ATOM     29  C   UNL A   1      40.117  31.453  31.509  1.00  0.00     0.074 A 
ATOM     30  C   UNL A   1      45.655  28.505  30.031  1.00  0.00     0.029 A 
ATOM     31  N   UNL A   1      44.680  30.458  30.287  1.00  0.00    -0.354 N 
ATOM     32  N   UNL A   1      40.910  30.967  32.418  1.00  0.00    -0.248 NA
ATOM     33  C   UNL A   1      40.757  32.237  30.466  1.00  0.00     0.031 C 
ATOM     34  C   UNL A   1      45.044  28.572  31.317  1.00  0.00     0.029 A 
ATOM     35  C   UNL A   1      44.246  29.717  31.352  1.00  0.00     0.049 A 
ATOM     36  H   UNL A   1      44.671  31.439  30.216  1.00  0.00     0.167 HD
ATOM     37  C   UNL A   1      42.164  30.990  31.830  1.00  0.00     0.074 A 
ATOM     38  C   UNL A   1      42.024  31.865  30.667  1.00  0.00     0.031 C 
ATOM     39  C   UNL A   1      43.120  30.082  32.180  1.00  0.00     0.031 A 
BRANCH  26  40
ATOM     40  C   UNL A   1      45.092  31.066  27.249  1.00  0.00    -0.014 A 
ATOM     41  C   UNL A   1      46.448  31.275  26.930  1.00  0.00     0.009 A 
ATOM     42  C   UNL A   1      44.237  32.177  27.140  1.00  0.00     0.009 A 
ATOM     43  C   UNL A   1      46.936  32.549  26.615  1.00  0.00     0.001 A 
ATOM     44  C   UNL A   1      44.715  33.443  26.786  1.00  0.00     0.001 A 
ATOM     45  C   UNL A   1      46.069  33.635  26.556  1.00  0.00     0.000 A 
ENDBRANCH  26  40
BRANCH  27  46
ATOM     46  C   UNL A   1      37.576  31.818  31.273  1.00  0.00    -0.014 A 
ATOM     47  C   UNL A   1      36.275  31.297  31.392  1.00  0.00     0.009 A 
ATOM     48  C   UNL A   1      37.746  33.197  31.494  1.00  0.00     0.009 A 
ATOM     49  C   UNL A   1      35.196  32.116  31.759  1.00  0.00     0.001 A 
ATOM     50  C   UNL A   1      36.669  34.014  31.861  1.00  0.00     0.001 A 
ATOM     51  C   UNL A   1      35.397  33.471  32.008  1.00  0.00     0.000 A 
ENDBRANCH  27  46
BRANCH  39  52
ATOM     52  C   UNL A   1      42.871  29.205  33.381  1.00  0.00    -0.014 A 
ATOM     53  C   UNL A   1      43.272  29.549  34.684  1.00  0.00     0.009 A 
ATOM     54  C   UNL A   1      42.043  28.087  33.209  1.00  0.00     0.009 A 
ATOM     55  C   UNL A   1      42.860  28.784  35.780  1.00  0.00     0.001 A 
ATOM     56  C   UNL A   1      41.614  27.337  34.306  1.00  0.00     0.001 A 
ATOM     57  C   UNL A   1      42.023  27.685  35.591  1.00  0.00     0.000 A 
ENDBRANCH  39  52
ENDBRANCH  13  14
ENDBRANCH   6   8
ENDBRANCH   3   4
ENDBRANCH   2   3
ENDBRANCH   1   2
BRANCH   1  58
ATOM     58  C   UNL A   1      34.222  22.466  24.448  1.00  0.00     0.116 C 
BRANCH  58  59
ATOM     59  N   UNL A   1      33.009  22.622  23.666  1.00  0.00    -0.351 N 
ATOM     60  C   UNL A   1      31.970  23.507  23.828  1.00  0.00     0.273 C 
ATOM     61  H   UNL A   1      32.916  22.001  22.908  1.00  0.00     0.163 HD
ATOM     62  O   UNL A   1      30.956  23.347  23.140  1.00  0.00    -0.267 OA
BRANCH  60  63
ATOM     63  C   UNL A   1      32.085  24.577  24.799  1.00  0.00     0.170 A 
ATOM     64  C   UNL A   1      32.857  25.726  24.749  1.00  0.00     0.145 A 
ATOM     65  N   UNL A   1      31.372  24.575  25.970  1.00  0.00    -0.125 NA
ATOM     66  N   UNL A   1      32.661  26.305  25.969  1.00  0.00    -0.237 N 
ATOM     67  N   UNL A   1      31.742  25.628  26.682  1.00  0.00    -0.066 NA
BRANCH  66  68
ATOM     68  C   UNL A   1      33.395  27.359  26.592  1.00  0.00     0.218 C 
ATOM     69  C   UNL A   1      33.882  28.472  25.626  1.00  0.00     0.296 C 
ATOM     70  C   UNL A   1      32.571  28.498  27.235  1.00  0.00     0.296 C 
ATOM     71  N   UNL A   1      33.495  29.485  26.625  1.00  0.00    -0.327 N 
ATOM     72  H   UNL A   1      33.152  30.404  26.344  1.00  0.00     0.348 HD
BRANCH  71  73
ATOM     73  C   UNL A   1      34.608  29.944  27.495  1.00  0.00     0.302 C 
BRANCH  73  74
ATOM     74  C   UNL A   1      34.743  31.409  27.859  1.00  0.00     0.045 A 
ATOM     75  C   UNL A   1      33.620  32.242  28.005  1.00  0.00     0.051 A 
ATOM     76  C   UNL A   1      36.010  31.988  28.012  1.00  0.00     0.132 A 
ATOM     77  C   UNL A   1      33.782  33.618  28.153  1.00  0.00     0.123 A 
ATOM     78  C   UNL A   1      36.167  33.359  28.210  1.00  0.00     0.043 A 
ATOM     79  F   UNL A   1      37.107  31.222  27.949  1.00  0.00    -0.206 F 
ATOM     80  F   UNL A   1      32.701  34.407  28.166  1.00  0.00    -0.207 F 
ATOM     81  C   UNL A   1      35.047  34.186  28.246  1.00  0.00     0.042 A 
ENDBRANCH  73  74
ENDBRANCH  71  73
ENDBRANCH  66  68
ENDBRANCH  60  63
ENDBRANCH  58  59
ENDBRANCH   1  58
TORSDOF 14
ENDMDL
MODEL 2
REMARK VINA RESULT:     -11.1      2.773      8.191
REMARK SMILES O=C(NCCCCNC(=O)c1cn(C2C[NH+](Cc3cc(F)ccc3F)C2)nn1)c1ccc(-c2c3nc(c(-c4ccccc4)c4ccc([nH]4)c(-c4ccccc4)c4nc(c(-c5ccccc5)c5ccc2[nH]5)C=C4)C=C3)cc1
REMARK SMILES IDX 6 1 5 2 4 3 3 4 1 5 2 6 29 8 30 9 76 10 31 11 75 12 32 13
REMARK SMILES IDX 33 14 34 15 69 16 35 17 74 18 68 19 70 20 36 21 73 22 67 23
REMARK SMILES IDX 66 24 37 26 59 27 44 28 58 29 45 30 48 31 57 32 71 33 46 34
REMARK SMILES IDX 47 35 56 37 72 38 49 39 38 40 39 41 43 42 40 43 42 44 41 45
REMARK SMILES IDX 60 46 61 47 65 48 62 49 64 50 63 51 50 52 51 53 55 54 52 55
REMARK SMILES IDX 54 56 53 57 7 58 8 59 9 60 10 62 11 63 12 64 28 65 13 66
REMARK SMILES IDX 27 67 14 68 15 69 26 70 16 71 17 73 18 74 19 75 24 76 20 77
REMARK SMILES IDX 23 78 25 79 21 80 22 81
REMARK H PARENT 3 7 70 25 48 36 8 61 16 72
REMARK Flexibility Score: inf
ROOT
ATOM      1  C   UNL A   1      32.922  28.199  24.834  1.00  0.00     0.023 C 
ENDROOT
BRANCH   1   2
ATOM      2  C   UNL A   1      32.972  29.574  25.515  1.00  0.00     0.023 C 
BRANCH   2   3
ATOM      3  C   UNL A   1      33.054  29.549  27.039  1.00  0.00     0.116 C 
BRANCH   3   4
ATOM      4  N   UNL A   1      33.375  30.830  27.633  1.00  0.00    -0.352 N 
ATOM      5  O   UNL A   1      34.390  32.653  28.323  1.00  0.00    -0.269 OA
ATOM      6  C   UNL A   1      34.520  31.460  28.028  1.00  0.00     0.251 C 
ATOM      7  H   UNL A   1      32.574  31.379  27.788  1.00  0.00     0.163 HD
BRANCH   6   8
ATOM      8  C   UNL A   1      35.863  30.834  28.196  1.00  0.00     0.039 A 
ATOM      9  C   UNL A   1      36.220  29.526  27.869  1.00  0.00     0.014 A 
ATOM     10  C   UNL A   1      36.839  31.660  28.790  1.00  0.00     0.014 A 
ATOM     11  C   UNL A   1      37.491  29.041  28.198  1.00  0.00     0.010 A 
ATOM     12  C   UNL A   1      38.102  31.183  29.122  1.00  0.00     0.010 A 
ATOM     13  C   UNL A   1      38.419  29.856  28.862  1.00  0.00    -0.014 A 
BRANCH  13  14
ATOM     14  C   UNL A   1      39.764  29.341  29.129  1.00  0.00     0.031 A 
ATOM     15  C   UNL A   1      40.057  29.108  30.573  1.00  0.00     0.074 A 
ATOM     16  C   UNL A   1      40.647  28.955  28.182  1.00  0.00     0.049 A 
ATOM     17  N   UNL A   1      40.944  29.700  31.304  1.00  0.00    -0.248 NA
ATOM     18  C   UNL A   1      39.196  28.176  31.319  1.00  0.00     0.031 C 
ATOM     19  C   UNL A   1      40.441  28.838  26.736  1.00  0.00     0.029 A 
ATOM     20  N   UNL A   1      41.922  28.490  28.339  1.00  0.00    -0.354 N 
ATOM     21  C   UNL A   1      40.869  29.112  32.565  1.00  0.00     0.074 A 
ATOM     22  C   UNL A   1      39.705  28.264  32.550  1.00  0.00     0.031 C 
ATOM     23  C   UNL A   1      41.459  28.128  26.190  1.00  0.00     0.029 A 
ATOM     24  C   UNL A   1      42.459  27.873  27.213  1.00  0.00     0.049 A 
ATOM     25  H   UNL A   1      42.422  28.584  29.183  1.00  0.00     0.167 HD
ATOM     26  C   UNL A   1      41.884  29.223  33.469  1.00  0.00     0.031 A 
ATOM     27  C   UNL A   1      43.626  27.180  27.134  1.00  0.00     0.031 A 
ATOM     28  C   UNL A   1      42.799  30.274  33.118  1.00  0.00     0.049 A 
ATOM     29  C   UNL A   1      44.467  27.596  28.278  1.00  0.00     0.074 A 
ATOM     30  C   UNL A   1      42.709  31.643  32.977  1.00  0.00     0.029 A 
ATOM     31  N   UNL A   1      43.962  29.904  32.487  1.00  0.00    -0.354 N 
ATOM     32  N   UNL A   1      44.977  28.786  28.397  1.00  0.00    -0.248 NA
ATOM     33  C   UNL A   1      44.381  26.820  29.503  1.00  0.00     0.031 C 
ATOM     34  C   UNL A   1      43.538  31.946  31.858  1.00  0.00     0.029 A 
ATOM     35  C   UNL A   1      44.139  30.760  31.435  1.00  0.00     0.049 A 
ATOM     36  H   UNL A   1      44.555  29.162  32.744  1.00  0.00     0.167 HD
ATOM     37  C   UNL A   1      44.853  29.082  29.745  1.00  0.00     0.074 A 
ATOM     38  C   UNL A   1      44.564  27.802  30.390  1.00  0.00     0.031 C 
ATOM     39  C   UNL A   1      44.719  30.371  30.171  1.00  0.00     0.031 A 
BRANCH  26  40
ATOM     40  C   UNL A   1      42.277  28.136  34.439  1.00  0.00    -0.014 A 
ATOM     41  C   UNL A   1      42.892  26.975  33.934  1.00  0.00     0.009 A 
ATOM     42  C   UNL A   1      41.794  28.075  35.758  1.00  0.00     0.009 A 
ATOM     43  C   UNL A   1      42.933  25.788  34.676  1.00  0.00     0.001 A 
ATOM     44  C   UNL A   1      41.870  26.903  36.516  1.00  0.00     0.001 A 
ATOM     45  C   UNL A   1      42.409  25.751  35.963  1.00  0.00     0.000 A 
ENDBRANCH  26  40
BRANCH  27  46
ATOM     46  C   UNL A   1      43.967  25.983  26.330  1.00  0.00    -0.014 A 
ATOM     47  C   UNL A   1      45.096  25.202  26.632  1.00  0.00     0.009 A 
ATOM     48  C   UNL A   1      43.011  25.433  25.458  1.00  0.00     0.009 A 
ATOM     49  C   UNL A   1      45.240  23.905  26.115  1.00  0.00     0.001 A 
ATOM     50  C   UNL A   1      43.153  24.138  24.943  1.00  0.00     0.001 A 
ATOM     51  C   UNL A   1      44.261  23.368  25.283  1.00  0.00     0.000 A 
ENDBRANCH  27  46
BRANCH  39  52
ATOM     52  C   UNL A   1      44.946  31.482  29.178  1.00  0.00    -0.014 A 
ATOM     53  C   UNL A   1      43.915  32.055  28.412  1.00  0.00     0.009 A 
ATOM     54  C   UNL A   1      46.210  32.088  29.157  1.00  0.00     0.009 A 
ATOM     55  C   UNL A   1      44.152  33.198  27.641  1.00  0.00     0.001 A 
ATOM     56  C   UNL A   1      46.440  33.240  28.404  1.00  0.00     0.001 A 
ATOM     57  C   UNL A   1      45.412  33.795  27.646  1.00  0.00     0.000 A 
ENDBRANCH  39  52
ENDBRANCH  13  14
ENDBRANCH   6   8
ENDBRANCH   3   4
ENDBRANCH   2   3
ENDBRANCH   1   2
BRANCH   1  58
ATOM     58  C   UNL A   1      32.928  26.984  25.763  1.00  0.00     0.116 C 
BRANCH  58  59
ATOM     59  N   UNL A   1      31.835  26.066  25.494  1.00  0.00    -0.351 N 
ATOM     60  C   UNL A   1      31.845  24.861  24.834  1.00  0.00     0.273 C 
ATOM     61  H   UNL A   1      30.956  26.349  25.836  1.00  0.00     0.163 HD
ATOM     62  O   UNL A   1      30.761  24.329  24.577  1.00  0.00    -0.267 OA
BRANCH  60  63
ATOM     63  C   UNL A   1      33.110  24.266  24.448  1.00  0.00     0.170 A 
ATOM     64  C   UNL A   1      34.048  23.616  25.233  1.00  0.00     0.145 A 
ATOM     65  N   UNL A   1      33.549  24.273  23.149  1.00  0.00    -0.125 NA
ATOM     66  N   UNL A   1      35.079  23.371  24.373  1.00  0.00    -0.237 N 
ATOM     67  N   UNL A   1      34.758  23.735  23.118  1.00  0.00    -0.066 NA
BRANCH  66  68
ATOM     68  C   UNL A   1      36.418  22.969  24.667  1.00  0.00     0.218 C 
ATOM     69  C   UNL A   1      37.110  23.785  25.792  1.00  0.00     0.296 C 
ATOM     70  C   UNL A   1      36.592  21.781  25.639  1.00  0.00     0.296 C 
ATOM     71  N   UNL A   1      37.665  22.531  26.335  1.00  0.00    -0.327 N 
ATOM     72  H   UNL A   1      37.813  22.406  27.336  1.00  0.00     0.348 HD
BRANCH  71  73
ATOM     73  C   UNL A   1      39.050  22.232  25.888  1.00  0.00     0.302 C 
BRANCH  73  74
ATOM     74  C   UNL A   1      40.208  22.331  26.862  1.00  0.00     0.045 A 
ATOM     75  C   UNL A   1      40.497  23.522  27.549  1.00  0.00     0.051 A 
ATOM     76  C   UNL A   1      41.059  21.237  27.065  1.00  0.00     0.132 A 
ATOM     77  C   UNL A   1      41.673  23.638  28.289  1.00  0.00     0.123 A 
ATOM     78  C   UNL A   1      42.210  21.341  27.846  1.00  0.00     0.043 A 
ATOM     79  F   UNL A   1      40.786  20.061  26.484  1.00  0.00    -0.206 F 
ATOM     80  F   UNL A   1      41.991  24.819  28.832  1.00  0.00    -0.207 F 
ATOM     81  C   UNL A   1      42.537  22.560  28.434  1.00  0.00     0.042 A 
ENDBRANCH  73  74
ENDBRANCH  71  73
ENDBRANCH  66  68
ENDBRANCH  60  63
ENDBRANCH  58  59
ENDBRANCH   1  58
TORSDOF 14
ENDMDL
MODEL 3
REMARK VINA RESULT:     -10.9      1.334      2.130
REMARK SMILES O=C(NCCCCNC(=O)c1cn(C2C[NH+](Cc3cc(F)ccc3F)C2)nn1)c1ccc(-c2c3nc(c(-c4ccccc4)c4ccc([nH]4)c(-c4ccccc4)c4nc(c(-c5ccccc5)c5ccc2[nH]5)C=C4)C=C3)cc1
REMARK SMILES IDX 6 1 5 2 4 3 3 4 1 5 2 6 29 8 30 9 76 10 31 11 75 12 32 13
REMARK SMILES IDX 33 14 34 15 69 16 35 17 74 18 68 19 70 20 36 21 73 22 67 23
REMARK SMILES IDX 66 24 37 26 59 27 44 28 58 29 45 30 48 31 57 32 71 33 46 34
REMARK SMILES IDX 47 35 56 37 72 38 49 39 38 40 39 41 43 42 40 43 42 44 41 45
REMARK SMILES IDX 60 46 61 47 65 48 62 49 64 50 63 51 50 52 51 53 55 54 52 55
REMARK SMILES IDX 54 56 53 57 7 58 8 59 9 60 10 62 11 63 12 64 28 65 13 66
REMARK SMILES IDX 27 67 14 68 15 69 26 70 16 71 17 73 18 74 19 75 24 76 20 77
REMARK SMILES IDX 23 78 25 79 21 80 22 81
REMARK H PARENT 3 7 70 25 48 36 8 61 16 72
REMARK Flexibility Score: inf
ROOT
ATOM      1  C   UNL A   1      35.994  21.090  25.427  1.00  0.00     0.023 C 
ENDROOT
BRANCH   1   2
ATOM      2  C   UNL A   1      36.390  22.538  25.751  1.00  0.00     0.023 C 
BRANCH   2   3
ATOM      3  C   UNL A   1      37.762  22.973  25.241  1.00  0.00     0.116 C 
BRANCH   3   4
ATOM      4  N   UNL A   1      38.869  22.277  25.859  1.00  0.00    -0.352 N 
ATOM      5  O   UNL A   1      40.474  21.620  27.210  1.00  0.00    -0.269 OA
ATOM      6  C   UNL A   1      39.795  22.575  26.818  1.00  0.00     0.251 C 
ATOM      7  H   UNL A   1      38.982  21.366  25.503  1.00  0.00     0.163 HD
BRANCH   6   8
ATOM      8  C   UNL A   1      40.094  23.928  27.368  1.00  0.00     0.039 A 
ATOM      9  C   UNL A   1      41.286  24.343  27.963  1.00  0.00     0.014 A 
ATOM     10  C   UNL A   1      39.028  24.849  27.307  1.00  0.00     0.014 A 
ATOM     11  C   UNL A   1      41.378  25.612  28.546  1.00  0.00     0.010 A 
ATOM     12  C   UNL A   1      39.112  26.111  27.886  1.00  0.00     0.010 A 
ATOM     13  C   UNL A   1      40.278  26.481  28.544  1.00  0.00    -0.014 A 
BRANCH  13  14
ATOM     14  C   UNL A   1      40.428  27.828  29.099  1.00  0.00     0.031 A 
ATOM     15  C   UNL A   1      41.454  28.665  28.413  1.00  0.00     0.074 A 
ATOM     16  C   UNL A   1      39.633  28.367  30.050  1.00  0.00     0.049 A 
ATOM     17  N   UNL A   1      42.548  29.141  28.912  1.00  0.00    -0.248 NA
ATOM     18  C   UNL A   1      41.297  28.921  26.972  1.00  0.00     0.031 C 
ATOM     19  C   UNL A   1      38.408  27.814  30.636  1.00  0.00     0.029 A 
ATOM     20  N   UNL A   1      39.715  29.597  30.639  1.00  0.00    -0.354 N 
ATOM     21  C   UNL A   1      43.147  29.891  27.902  1.00  0.00     0.074 A 
ATOM     22  C   UNL A   1      42.396  29.629  26.700  1.00  0.00     0.031 C 
ATOM     23  C   UNL A   1      37.751  28.788  31.312  1.00  0.00     0.029 A 
ATOM     24  C   UNL A   1      38.575  29.984  31.338  1.00  0.00     0.049 A 
ATOM     25  H   UNL A   1      40.518  30.164  30.575  1.00  0.00     0.167 HD
ATOM     26  C   UNL A   1      44.105  30.823  28.173  1.00  0.00     0.031 A 
ATOM     27  C   UNL A   1      38.317  31.206  31.873  1.00  0.00     0.031 A 
ATOM     28  C   UNL A   1      44.649  30.661  29.493  1.00  0.00     0.049 A 
ATOM     29  C   UNL A   1      39.612  31.903  32.035  1.00  0.00     0.074 A 
ATOM     30  C   UNL A   1      45.356  29.672  30.145  1.00  0.00     0.029 A 
ATOM     31  N   UNL A   1      44.161  31.487  30.475  1.00  0.00    -0.354 N 
ATOM     32  N   UNL A   1      40.525  31.530  32.882  1.00  0.00    -0.248 NA
ATOM     33  C   UNL A   1      40.067  32.754  30.948  1.00  0.00     0.031 C 
ATOM     34  C   UNL A   1      44.838  29.672  31.473  1.00  0.00     0.029 A 
ATOM     35  C   UNL A   1      43.905  30.706  31.569  1.00  0.00     0.049 A 
ATOM     36  H   UNL A   1      44.021  32.459  30.405  1.00  0.00     0.167 HD
ATOM     37  C   UNL A   1      41.720  31.708  32.202  1.00  0.00     0.074 A 
ATOM     38  C   UNL A   1      41.382  32.547  31.053  1.00  0.00     0.031 C 
ATOM     39  C   UNL A   1      42.806  30.931  32.478  1.00  0.00     0.031 A 
BRANCH  26  40
ATOM     40  C   UNL A   1      44.266  32.117  27.415  1.00  0.00    -0.014 A 
ATOM     41  C   UNL A   1      43.835  33.311  28.025  1.00  0.00     0.009 A 
ATOM     42  C   UNL A   1      44.529  32.170  26.035  1.00  0.00     0.009 A 
ATOM     43  C   UNL A   1      43.588  34.467  27.274  1.00  0.00     0.001 A 
ATOM     44  C   UNL A   1      44.322  33.335  25.290  1.00  0.00     0.001 A 
ATOM     45  C   UNL A   1      43.820  34.472  25.903  1.00  0.00     0.000 A 
ENDBRANCH  26  40
BRANCH  27  46
ATOM     46  C   UNL A   1      37.034  31.940  31.990  1.00  0.00    -0.014 A 
ATOM     47  C   UNL A   1      36.389  32.084  33.231  1.00  0.00     0.009 A 
ATOM     48  C   UNL A   1      36.603  32.763  30.935  1.00  0.00     0.009 A 
ATOM     49  C   UNL A   1      35.382  33.043  33.418  1.00  0.00     0.001 A 
ATOM     50  C   UNL A   1      35.599  33.721  31.121  1.00  0.00     0.001 A 
ATOM     51  C   UNL A   1      34.998  33.871  32.367  1.00  0.00     0.000 A 
ENDBRANCH  27  46
BRANCH  39  52
ATOM     52  C   UNL A   1      42.761  30.040  33.693  1.00  0.00    -0.014 A 
ATOM     53  C   UNL A   1      42.227  28.739  33.677  1.00  0.00     0.009 A 
ATOM     54  C   UNL A   1      43.449  30.466  34.838  1.00  0.00     0.009 A 
ATOM     55  C   UNL A   1      42.372  27.896  34.784  1.00  0.00     0.001 A 
ATOM     56  C   UNL A   1      43.612  29.617  35.934  1.00  0.00     0.001 A 
ATOM     57  C   UNL A   1      43.073  28.332  35.907  1.00  0.00     0.000 A 
ENDBRANCH  39  52
ENDBRANCH  13  14
ENDBRANCH   6   8
ENDBRANCH   3   4
ENDBRANCH   2   3
ENDBRANCH   1   2
BRANCH   1  58
ATOM     58  C   UNL A   1      34.526  20.725  25.653  1.00  0.00     0.116 C 
BRANCH  58  59
ATOM     59  N   UNL A   1      33.787  20.574  24.412  1.00  0.00    -0.351 N 
ATOM     60  C   UNL A   1      32.674  21.247  23.967  1.00  0.00     0.273 C 
ATOM     61  H   UNL A   1      34.134  19.887  23.798  1.00  0.00     0.163 HD
ATOM     62  O   UNL A   1      32.113  20.835  22.947  1.00  0.00    -0.267 OA
BRANCH  60  63
ATOM     63  C   UNL A   1      32.188  22.395  24.707  1.00  0.00     0.170 A 
ATOM     64  C   UNL A   1      32.589  23.719  24.634  1.00  0.00     0.145 A 
ATOM     65  N   UNL A   1      31.182  22.289  25.632  1.00  0.00    -0.125 NA
ATOM     66  N   UNL A   1      31.879  24.330  25.626  1.00  0.00    -0.237 N 
ATOM     67  N   UNL A   1      31.011  23.475  26.196  1.00  0.00    -0.066 NA
BRANCH  66  68
ATOM     68  C   UNL A   1      32.067  25.625  26.199  1.00  0.00     0.218 C 
ATOM     69  C   UNL A   1      33.516  26.174  26.105  1.00  0.00     0.296 C 
ATOM     70  C   UNL A   1      31.719  26.839  25.308  1.00  0.00     0.296 C 
ATOM     71  N   UNL A   1      32.973  27.497  25.747  1.00  0.00    -0.327 N 
ATOM     72  H   UNL A   1      33.473  28.123  25.116  1.00  0.00     0.348 HD
BRANCH  71  73
ATOM     73  C   UNL A   1      32.839  28.434  26.893  1.00  0.00     0.302 C 
BRANCH  73  74
ATOM     74  C   UNL A   1      33.909  29.473  27.162  1.00  0.00     0.045 A 
ATOM     75  C   UNL A   1      35.265  29.124  27.294  1.00  0.00     0.051 A 
ATOM     76  C   UNL A   1      33.561  30.818  27.340  1.00  0.00     0.132 A 
ATOM     77  C   UNL A   1      36.193  30.068  27.727  1.00  0.00     0.123 A 
ATOM     78  C   UNL A   1      34.503  31.772  27.726  1.00  0.00     0.043 A 
ATOM     79  F   UNL A   1      32.293  31.211  27.160  1.00  0.00    -0.206 F 
ATOM     80  F   UNL A   1      37.454  29.686  27.965  1.00  0.00    -0.207 F 
ATOM     81  C   UNL A   1      35.822  31.387  27.954  1.00  0.00     0.042 A 
ENDBRANCH  73  74
ENDBRANCH  71  73
ENDBRANCH  66  68
ENDBRANCH  60  63
ENDBRANCH  58  59
ENDBRANCH   1  58
TORSDOF 14
ENDMDL
