MODEL 1
REMARK VINA RESULT:     -11.1      0.000      0.000
REMARK SMILES Cc1cc(C(=O)Nc2c(Cl)cc(Cl)cc2C(=O)NCCCCNC(=O)c2ccc(-c3c4nc(c(-c5ccccc5)c5ccc([nH]5)c(-c5ccccc5)c5nc(c(-c6ccccc6)c6ccc3[nH]6)C=C5)C=C4)cc2)c(C)s1
REMARK SMILES IDX 20 1 19 2 18 3 16 4 17 5 15 7 8 8 9 9 10 10 11 11 14 12
REMARK SMILES IDX 12 13 13 14 7 15 5 16 6 17 4 19 1 20 2 21 3 22 76 23 74 24
REMARK SMILES IDX 75 25 21 26 22 27 23 28 24 29 25 31 26 32 27 33 73 34 28 35
REMARK SMILES IDX 72 36 29 37 30 38 31 39 66 40 32 41 71 42 65 43 67 44 33 45
REMARK SMILES IDX 70 46 64 47 63 48 34 50 56 51 41 52 55 53 42 54 45 55 54 56
REMARK SMILES IDX 68 57 43 58 44 59 53 61 69 62 46 63 35 64 36 65 40 66 37 67
REMARK SMILES IDX 39 68 38 69 57 70 58 71 62 72 59 73 61 74 60 75 47 76 48 77
REMARK SMILES IDX 52 78 49 79 51 80 50 81
REMARK H PARENT 18 6 7 18 23 30 67 49 45 60
REMARK Flexibility Score: inf
ROOT
ATOM      1  C   UNL A   1      38.869  22.731  26.522  1.00  0.00     0.023 C 
ENDROOT
BRANCH   1   2
ATOM      2  C   UNL A   1      37.831  23.711  26.000  1.00  0.00     0.116 C 
BRANCH   2   3
ATOM      3  N   UNL A   1      37.453  23.611  24.614  1.00  0.00    -0.352 N 
ATOM      4  C   UNL A   1      36.274  23.202  24.034  1.00  0.00     0.253 C 
ATOM      5  O   UNL A   1      36.209  23.289  22.805  1.00  0.00    -0.269 OA
ATOM      6  H   UNL A   1      38.154  23.878  23.976  1.00  0.00     0.163 HD
BRANCH   4   7
ATOM      7  C   UNL A   1      35.091  22.609  24.741  1.00  0.00     0.066 A 
ATOM      8  C   UNL A   1      34.131  23.244  25.560  1.00  0.00     0.073 A 
ATOM      9  C   UNL A   1      32.984  22.518  25.978  1.00  0.00     0.066 A 
ATOM     10  Cl  UNL A   1      31.674  23.279  26.826  1.00  0.00    -0.082 Cl
ATOM     11  C   UNL A   1      32.852  21.157  25.715  1.00  0.00     0.043 A 
ATOM     12  C   UNL A   1      34.927  21.228  24.486  1.00  0.00     0.036 A 
ATOM     13  C   UNL A   1      33.842  20.512  24.990  1.00  0.00     0.043 A 
ATOM     14  Cl  UNL A   1      33.720  18.821  24.705  1.00  0.00    -0.084 Cl
BRANCH   8  15
ATOM     15  N   UNL A   1      34.267  24.580  25.960  1.00  0.00    -0.320 N 
ATOM     16  C   UNL A   1      33.838  25.740  25.316  1.00  0.00     0.256 C 
ATOM     17  O   UNL A   1      34.108  26.794  25.899  1.00  0.00    -0.269 OA
ATOM     18  H   UNL A   1      34.732  24.718  26.816  1.00  0.00     0.170 HD
BRANCH  16  19
ATOM     19  C   UNL A   1      32.988  25.721  24.096  1.00  0.00     0.054 A 
ATOM     20  C   UNL A   1      32.612  25.587  20.330  1.00  0.00     0.056 C 
ATOM     21  C   UNL A   1      32.426  25.650  21.805  1.00  0.00     0.003 A 
ATOM     22  C   UNL A   1      33.288  25.211  22.783  1.00  0.00     0.029 A 
ATOM     23  S   UNL A   1      31.030  26.316  22.494  1.00  0.00    -0.145 S 
ATOM     24  C   UNL A   1      31.652  26.131  24.089  1.00  0.00     0.014 A 
ATOM     25  C   UNL A   1      30.728  26.457  25.222  1.00  0.00     0.057 C 
ENDBRANCH  16  19
ENDBRANCH   8  15
ENDBRANCH   4   7
ENDBRANCH   2   3
ENDBRANCH   1   2
BRANCH   1  26
ATOM     26  C   UNL A   1      39.245  21.565  25.612  1.00  0.00     0.023 C 
BRANCH  26  27
ATOM     27  C   UNL A   1      39.328  20.176  26.241  1.00  0.00     0.116 C 
BRANCH  27  28
ATOM     28  N   UNL A   1      40.492  19.395  25.851  1.00  0.00    -0.352 N 
ATOM     29  C   UNL A   1      41.839  19.665  25.959  1.00  0.00     0.251 C 
ATOM     30  H   UNL A   1      40.282  18.525  25.440  1.00  0.00     0.163 HD
ATOM     31  O   UNL A   1      42.655  18.862  25.513  1.00  0.00    -0.269 OA
BRANCH  29  32
ATOM     32  C   UNL A   1      42.328  20.932  26.553  1.00  0.00     0.039 A 
ATOM     33  C   UNL A   1      42.837  21.913  25.695  1.00  0.00     0.014 A 
ATOM     34  C   UNL A   1      42.296  21.174  27.927  1.00  0.00     0.014 A 
ATOM     35  C   UNL A   1      43.203  23.164  26.201  1.00  0.00     0.010 A 
ATOM     36  C   UNL A   1      42.567  22.451  28.417  1.00  0.00     0.010 A 
ATOM     37  C   UNL A   1      43.012  23.467  27.559  1.00  0.00    -0.014 A 
BRANCH  37  38
ATOM     38  C   UNL A   1      43.241  24.845  28.073  1.00  0.00     0.031 A 
ATOM     39  C   UNL A   1      44.624  25.315  28.438  1.00  0.00     0.074 A 
ATOM     40  C   UNL A   1      42.186  25.667  28.259  1.00  0.00     0.049 A 
ATOM     41  N   UNL A   1      45.001  26.477  28.915  1.00  0.00    -0.248 NA
ATOM     42  C   UNL A   1      45.724  24.353  28.266  1.00  0.00     0.031 C 
ATOM     43  C   UNL A   1      40.785  25.322  28.006  1.00  0.00     0.029 A 
ATOM     44  N   UNL A   1      42.130  26.966  28.704  1.00  0.00    -0.354 N 
ATOM     45  C   UNL A   1      46.374  26.382  29.101  1.00  0.00     0.074 A 
ATOM     46  C   UNL A   1      46.756  25.032  28.746  1.00  0.00     0.031 C 
ATOM     47  C   UNL A   1      40.013  26.390  28.263  1.00  0.00     0.029 A 
ATOM     48  C   UNL A   1      40.856  27.484  28.737  1.00  0.00     0.049 A 
ATOM     49  H   UNL A   1      42.926  27.477  28.975  1.00  0.00     0.167 HD
ATOM     50  C   UNL A   1      47.247  27.338  29.502  1.00  0.00     0.031 A 
ATOM     51  C   UNL A   1      40.412  28.700  29.105  1.00  0.00     0.031 A 
ATOM     52  C   UNL A   1      46.877  28.683  29.852  1.00  0.00     0.049 A 
ATOM     53  C   UNL A   1      41.402  29.739  29.552  1.00  0.00     0.074 A 
ATOM     54  C   UNL A   1      47.696  29.730  30.238  1.00  0.00     0.029 A 
ATOM     55  N   UNL A   1      45.580  29.169  29.858  1.00  0.00    -0.354 N 
ATOM     56  N   UNL A   1      42.706  29.649  29.655  1.00  0.00    -0.248 NA
ATOM     57  C   UNL A   1      40.859  31.055  29.918  1.00  0.00     0.031 C 
ATOM     58  C   UNL A   1      46.891  30.839  30.517  1.00  0.00     0.029 A 
ATOM     59  C   UNL A   1      45.575  30.496  30.252  1.00  0.00     0.049 A 
ATOM     60  H   UNL A   1      44.779  28.648  29.617  1.00  0.00     0.167 HD
ATOM     61  C   UNL A   1      43.139  30.901  30.073  1.00  0.00     0.074 A 
ATOM     62  C   UNL A   1      41.964  31.739  30.176  1.00  0.00     0.031 C 
ATOM     63  C   UNL A   1      44.398  31.318  30.353  1.00  0.00     0.031 A 
BRANCH  50  64
ATOM     64  C   UNL A   1      48.702  26.964  29.568  1.00  0.00    -0.014 A 
ATOM     65  C   UNL A   1      49.248  26.393  30.730  1.00  0.00     0.009 A 
ATOM     66  C   UNL A   1      49.526  27.131  28.444  1.00  0.00     0.009 A 
ATOM     67  C   UNL A   1      50.593  26.024  30.774  1.00  0.00     0.001 A 
ATOM     68  C   UNL A   1      50.865  26.735  28.482  1.00  0.00     0.001 A 
ATOM     69  C   UNL A   1      51.398  26.189  29.649  1.00  0.00     0.000 A 
ENDBRANCH  50  64
BRANCH  51  70
ATOM     70  C   UNL A   1      38.959  29.016  29.063  1.00  0.00    -0.014 A 
ATOM     71  C   UNL A   1      38.359  29.479  27.881  1.00  0.00     0.009 A 
ATOM     72  C   UNL A   1      38.170  28.892  30.218  1.00  0.00     0.009 A 
ATOM     73  C   UNL A   1      37.013  29.850  27.867  1.00  0.00     0.001 A 
ATOM     74  C   UNL A   1      36.816  29.232  30.192  1.00  0.00     0.001 A 
ATOM     75  C   UNL A   1      36.242  29.724  29.022  1.00  0.00     0.000 A 
ENDBRANCH  51  70
BRANCH  63  76
ATOM     76  C   UNL A   1      44.565  32.755  30.764  1.00  0.00    -0.014 A 
ATOM     77  C   UNL A   1      44.769  33.767  29.813  1.00  0.00     0.009 A 
ATOM     78  C   UNL A   1      44.501  33.101  32.123  1.00  0.00     0.009 A 
ATOM     79  C   UNL A   1      44.950  35.091  30.219  1.00  0.00     0.001 A 
ATOM     80  C   UNL A   1      44.651  34.429  32.523  1.00  0.00     0.001 A 
ATOM     81  C   UNL A   1      44.887  35.420  31.572  1.00  0.00     0.000 A 
ENDBRANCH  63  76
ENDBRANCH  37  38
ENDBRANCH  29  32
ENDBRANCH  27  28
ENDBRANCH  26  27
ENDBRANCH   1  26
TORSDOF 13
ENDMDL
MODEL 2
REMARK VINA RESULT:     -11.0      1.180      1.699
REMARK SMILES Cc1cc(C(=O)Nc2c(Cl)cc(Cl)cc2C(=O)NCCCCNC(=O)c2ccc(-c3c4nc(c(-c5ccccc5)c5ccc([nH]5)c(-c5ccccc5)c5nc(c(-c6ccccc6)c6ccc3[nH]6)C=C5)C=C4)cc2)c(C)s1
REMARK SMILES IDX 20 1 19 2 18 3 16 4 17 5 15 7 8 8 9 9 10 10 11 11 14 12
REMARK SMILES IDX 12 13 13 14 7 15 5 16 6 17 4 19 1 20 2 21 3 22 76 23 74 24
REMARK SMILES IDX 75 25 21 26 22 27 23 28 24 29 25 31 26 32 27 33 73 34 28 35
REMARK SMILES IDX 72 36 29 37 30 38 31 39 66 40 32 41 71 42 65 43 67 44 33 45
REMARK SMILES IDX 70 46 64 47 63 48 34 50 56 51 41 52 55 53 42 54 45 55 54 56
REMARK SMILES IDX 68 57 43 58 44 59 53 61 69 62 46 63 35 64 36 65 40 66 37 67
REMARK SMILES IDX 39 68 38 69 57 70 58 71 62 72 59 73 61 74 60 75 47 76 48 77
REMARK SMILES IDX 52 78 49 79 51 80 50 81
REMARK H PARENT 18 6 7 18 23 30 67 49 45 60
REMARK Flexibility Score: inf
ROOT
ATOM      1  C   UNL A   1      38.552  22.836  26.464  1.00  0.00     0.023 C 
ENDROOT
BRANCH   1   2
ATOM      2  C   UNL A   1      37.516  23.665  25.723  1.00  0.00     0.116 C 
BRANCH   2   3
ATOM      3  N   UNL A   1      37.284  23.360  24.335  1.00  0.00    -0.352 N 
ATOM      4  C   UNL A   1      36.109  23.216  23.634  1.00  0.00     0.253 C 
ATOM      5  O   UNL A   1      36.214  23.022  22.420  1.00  0.00    -0.269 OA
ATOM      6  H   UNL A   1      38.100  23.232  23.799  1.00  0.00     0.163 HD
BRANCH   4   7
ATOM      7  C   UNL A   1      34.722  23.212  24.209  1.00  0.00     0.066 A 
ATOM      8  C   UNL A   1      33.513  23.649  23.624  1.00  0.00     0.073 A 
ATOM      9  C   UNL A   1      32.284  23.379  24.282  1.00  0.00     0.066 A 
ATOM     10  Cl  UNL A   1      30.751  23.717  23.541  1.00  0.00    -0.082 Cl
ATOM     11  C   UNL A   1      32.253  22.817  25.556  1.00  0.00     0.043 A 
ATOM     12  C   UNL A   1      34.659  22.638  25.500  1.00  0.00     0.036 A 
ATOM     13  C   UNL A   1      33.447  22.473  26.170  1.00  0.00     0.043 A 
ATOM     14  Cl  UNL A   1      33.427  21.829  27.764  1.00  0.00    -0.084 Cl
BRANCH   8  15
ATOM     15  N   UNL A   1      33.487  24.329  22.399  1.00  0.00    -0.320 N 
ATOM     16  C   UNL A   1      33.186  25.665  22.139  1.00  0.00     0.256 C 
ATOM     17  O   UNL A   1      33.228  25.991  20.949  1.00  0.00    -0.269 OA
ATOM     18  H   UNL A   1      33.712  23.785  21.610  1.00  0.00     0.170 HD
BRANCH  16  19
ATOM     19  C   UNL A   1      32.972  26.670  23.214  1.00  0.00     0.054 A 
ATOM     20  C   UNL A   1      33.953  28.236  26.520  1.00  0.00     0.056 C 
ATOM     21  C   UNL A   1      33.326  27.852  25.226  1.00  0.00     0.003 A 
ATOM     22  C   UNL A   1      33.914  27.204  24.164  1.00  0.00     0.029 A 
ATOM     23  S   UNL A   1      31.702  28.196  24.891  1.00  0.00    -0.145 S 
ATOM     24  C   UNL A   1      31.769  27.359  23.387  1.00  0.00     0.014 A 
ATOM     25  C   UNL A   1      30.558  27.441  22.509  1.00  0.00     0.057 C 
ENDBRANCH  16  19
ENDBRANCH   8  15
ENDBRANCH   4   7
ENDBRANCH   2   3
ENDBRANCH   1   2
BRANCH   1  26
ATOM     26  C   UNL A   1      39.286  21.763  25.666  1.00  0.00     0.023 C 
BRANCH  26  27
ATOM     27  C   UNL A   1      39.068  20.306  26.072  1.00  0.00     0.116 C 
BRANCH  27  28
ATOM     28  N   UNL A   1      40.204  19.428  25.837  1.00  0.00    -0.352 N 
ATOM     29  C   UNL A   1      41.550  19.611  26.064  1.00  0.00     0.251 C 
ATOM     30  H   UNL A   1      39.970  18.553  25.450  1.00  0.00     0.163 HD
ATOM     31  O   UNL A   1      42.344  18.731  25.739  1.00  0.00    -0.269 OA
BRANCH  29  32
ATOM     32  C   UNL A   1      42.072  20.873  26.640  1.00  0.00     0.039 A 
ATOM     33  C   UNL A   1      42.633  21.816  25.773  1.00  0.00     0.014 A 
ATOM     34  C   UNL A   1      42.021  21.145  28.008  1.00  0.00     0.014 A 
ATOM     35  C   UNL A   1      43.033  23.064  26.259  1.00  0.00     0.010 A 
ATOM     36  C   UNL A   1      42.328  22.423  28.477  1.00  0.00     0.010 A 
ATOM     37  C   UNL A   1      42.826  23.403  27.607  1.00  0.00    -0.014 A 
BRANCH  37  38
ATOM     38  C   UNL A   1      43.093  24.783  28.097  1.00  0.00     0.031 A 
ATOM     39  C   UNL A   1      44.493  25.229  28.429  1.00  0.00     0.074 A 
ATOM     40  C   UNL A   1      42.060  25.630  28.291  1.00  0.00     0.049 A 
ATOM     41  N   UNL A   1      44.903  26.388  28.882  1.00  0.00    -0.248 NA
ATOM     42  C   UNL A   1      45.569  24.241  28.250  1.00  0.00     0.031 C 
ATOM     43  C   UNL A   1      40.647  25.312  28.069  1.00  0.00     0.029 A 
ATOM     44  N   UNL A   1      42.040  26.936  28.717  1.00  0.00    -0.354 N 
ATOM     45  C   UNL A   1      46.278  26.267  29.043  1.00  0.00     0.074 A 
ATOM     46  C   UNL A   1      46.624  24.905  28.701  1.00  0.00     0.031 C 
ATOM     47  C   UNL A   1      39.903  26.399  28.325  1.00  0.00     0.029 A 
ATOM     48  C   UNL A   1      40.778  27.481  28.766  1.00  0.00     0.049 A 
ATOM     49  H   UNL A   1      42.851  27.434  28.966  1.00  0.00     0.167 HD
ATOM     50  C   UNL A   1      47.178  27.210  29.414  1.00  0.00     0.031 A 
ATOM     51  C   UNL A   1      40.367  28.712  29.125  1.00  0.00     0.031 A 
ATOM     52  C   UNL A   1      46.843  28.568  29.751  1.00  0.00     0.049 A 
ATOM     53  C   UNL A   1      41.387  29.736  29.538  1.00  0.00     0.074 A 
ATOM     54  C   UNL A   1      47.692  29.602  30.106  1.00  0.00     0.029 A 
ATOM     55  N   UNL A   1      45.557  29.081  29.774  1.00  0.00    -0.354 N 
ATOM     56  N   UNL A   1      42.690  29.620  29.618  1.00  0.00    -0.248 NA
ATOM     57  C   UNL A   1      40.878  31.068  29.895  1.00  0.00     0.031 C 
ATOM     58  C   UNL A   1      46.915  30.731  30.384  1.00  0.00     0.029 A 
ATOM     59  C   UNL A   1      45.587  30.414  30.149  1.00  0.00     0.049 A 
ATOM     60  H   UNL A   1      44.741  28.574  29.556  1.00  0.00     0.167 HD
ATOM     61  C   UNL A   1      43.157  30.867  30.010  1.00  0.00     0.074 A 
ATOM     62  C   UNL A   1      42.002  31.732  30.122  1.00  0.00     0.031 C 
ATOM     63  C   UNL A   1      44.430  31.262  30.260  1.00  0.00     0.031 A 
BRANCH  50  64
ATOM     64  C   UNL A   1      48.626  26.806  29.458  1.00  0.00    -0.014 A 
ATOM     65  C   UNL A   1      49.447  26.944  28.326  1.00  0.00     0.009 A 
ATOM     66  C   UNL A   1      49.191  26.332  30.651  1.00  0.00     0.009 A 
ATOM     67  C   UNL A   1      50.796  26.592  28.383  1.00  0.00     0.001 A 
ATOM     68  C   UNL A   1      50.548  26.006  30.712  1.00  0.00     0.001 A 
ATOM     69  C   UNL A   1      51.346  26.130  29.576  1.00  0.00     0.000 A 
ENDBRANCH  50  64
BRANCH  51  70
ATOM     70  C   UNL A   1      38.920  29.058  29.106  1.00  0.00    -0.014 A 
ATOM     71  C   UNL A   1      38.311  29.527  27.932  1.00  0.00     0.009 A 
ATOM     72  C   UNL A   1      38.149  28.957  30.274  1.00  0.00     0.009 A 
ATOM     73  C   UNL A   1      36.972  29.927  27.938  1.00  0.00     0.001 A 
ATOM     74  C   UNL A   1      36.802  29.325  30.269  1.00  0.00     0.001 A 
ATOM     75  C   UNL A   1      36.218  29.823  29.106  1.00  0.00     0.000 A 
ENDBRANCH  51  70
BRANCH  63  76
ATOM     76  C   UNL A   1      44.636  32.700  30.647  1.00  0.00    -0.014 A 
ATOM     77  C   UNL A   1      44.851  33.693  29.678  1.00  0.00     0.009 A 
ATOM     78  C   UNL A   1      44.596  33.068  32.001  1.00  0.00     0.009 A 
ATOM     79  C   UNL A   1      45.068  35.018  30.061  1.00  0.00     0.001 A 
ATOM     80  C   UNL A   1      44.781  34.398  32.379  1.00  0.00     0.001 A 
ATOM     81  C   UNL A   1      45.029  35.369  31.409  1.00  0.00     0.000 A 
ENDBRANCH  63  76
ENDBRANCH  37  38
ENDBRANCH  29  32
ENDBRANCH  27  28
ENDBRANCH  26  27
ENDBRANCH   1  26
TORSDOF 13
ENDMDL
MODEL 3
REMARK VINA RESULT:     -10.9      1.273      6.114
REMARK SMILES Cc1cc(C(=O)Nc2c(Cl)cc(Cl)cc2C(=O)NCCCCNC(=O)c2ccc(-c3c4nc(c(-c5ccccc5)c5ccc([nH]5)c(-c5ccccc5)c5nc(c(-c6ccccc6)c6ccc3[nH]6)C=C5)C=C4)cc2)c(C)s1
REMARK SMILES IDX 20 1 19 2 18 3 16 4 17 5 15 7 8 8 9 9 10 10 11 11 14 12
REMARK SMILES IDX 12 13 13 14 7 15 5 16 6 17 4 19 1 20 2 21 3 22 76 23 74 24
REMARK SMILES IDX 75 25 21 26 22 27 23 28 24 29 25 31 26 32 27 33 73 34 28 35
REMARK SMILES IDX 72 36 29 37 30 38 31 39 66 40 32 41 71 42 65 43 67 44 33 45
REMARK SMILES IDX 70 46 64 47 63 48 34 50 56 51 41 52 55 53 42 54 45 55 54 56
REMARK SMILES IDX 68 57 43 58 44 59 53 61 69 62 46 63 35 64 36 65 40 66 37 67
REMARK SMILES IDX 39 68 38 69 57 70 58 71 62 72 59 73 61 74 60 75 47 76 48 77
REMARK SMILES IDX 52 78 49 79 51 80 50 81
REMARK H PARENT 18 6 7 18 23 30 67 49 45 60
REMARK Flexibility Score: inf
ROOT
ATOM      1  C   UNL A   1      38.602  22.987  26.501  1.00  0.00     0.023 C 
ENDROOT
BRANCH   1   2
ATOM      2  C   UNL A   1      37.501  23.734  25.766  1.00  0.00     0.116 C 
BRANCH   2   3
ATOM      3  N   UNL A   1      37.270  23.398  24.385  1.00  0.00    -0.352 N 
ATOM      4  C   UNL A   1      36.096  23.252  23.683  1.00  0.00     0.253 C 
ATOM      5  O   UNL A   1      36.205  23.026  22.474  1.00  0.00    -0.269 OA
ATOM      6  H   UNL A   1      38.087  23.246  23.857  1.00  0.00     0.163 HD
BRANCH   4   7
ATOM      7  C   UNL A   1      34.708  23.280  24.251  1.00  0.00     0.066 A 
ATOM      8  C   UNL A   1      33.509  23.728  23.654  1.00  0.00     0.073 A 
ATOM      9  C   UNL A   1      32.272  23.489  24.311  1.00  0.00     0.066 A 
ATOM     10  Cl  UNL A   1      30.749  23.841  23.557  1.00  0.00    -0.082 Cl
ATOM     11  C   UNL A   1      32.226  22.948  25.593  1.00  0.00     0.043 A 
ATOM     12  C   UNL A   1      34.629  22.728  25.551  1.00  0.00     0.036 A 
ATOM     13  C   UNL A   1      33.412  22.594  26.218  1.00  0.00     0.043 A 
ATOM     14  Cl  UNL A   1      33.374  21.976  27.822  1.00  0.00    -0.084 Cl
BRANCH   8  15
ATOM     15  N   UNL A   1      33.499  24.388  22.418  1.00  0.00    -0.320 N 
ATOM     16  C   UNL A   1      33.211  25.722  22.134  1.00  0.00     0.256 C 
ATOM     17  O   UNL A   1      33.268  26.030  20.940  1.00  0.00    -0.269 OA
ATOM     18  H   UNL A   1      33.727  23.830  21.640  1.00  0.00     0.170 HD
BRANCH  16  19
ATOM     19  C   UNL A   1      32.996  26.747  23.191  1.00  0.00     0.054 A 
ATOM     20  C   UNL A   1      34.007  28.408  26.441  1.00  0.00     0.056 C 
ATOM     21  C   UNL A   1      33.364  27.980  25.169  1.00  0.00     0.003 A 
ATOM     22  C   UNL A   1      33.945  27.323  24.110  1.00  0.00     0.029 A 
ATOM     23  S   UNL A   1      31.725  28.280  24.861  1.00  0.00    -0.145 S 
ATOM     24  C   UNL A   1      31.781  27.411  23.375  1.00  0.00     0.014 A 
ATOM     25  C   UNL A   1      30.551  27.446  22.521  1.00  0.00     0.057 C 
ENDBRANCH  16  19
ENDBRANCH   8  15
ENDBRANCH   4   7
ENDBRANCH   2   3
ENDBRANCH   1   2
BRANCH   1  26
ATOM     26  C   UNL A   1      39.327  21.885  25.734  1.00  0.00     0.023 C 
BRANCH  26  27
ATOM     27  C   UNL A   1      39.002  20.439  26.100  1.00  0.00     0.116 C 
BRANCH  27  28
ATOM     28  N   UNL A   1      40.081  19.490  25.867  1.00  0.00    -0.352 N 
ATOM     29  C   UNL A   1      41.439  19.598  26.070  1.00  0.00     0.251 C 
ATOM     30  H   UNL A   1      39.791  18.623  25.501  1.00  0.00     0.163 HD
ATOM     31  O   UNL A   1      42.175  18.667  25.752  1.00  0.00    -0.269 OA
BRANCH  29  32
ATOM     32  C   UNL A   1      42.044  20.839  26.613  1.00  0.00     0.039 A 
ATOM     33  C   UNL A   1      42.639  21.733  25.717  1.00  0.00     0.014 A 
ATOM     34  C   UNL A   1      42.035  21.138  27.976  1.00  0.00     0.014 A 
ATOM     35  C   UNL A   1      43.119  22.965  26.173  1.00  0.00     0.010 A 
ATOM     36  C   UNL A   1      42.423  22.404  28.415  1.00  0.00     0.010 A 
ATOM     37  C   UNL A   1      42.958  23.339  27.517  1.00  0.00    -0.014 A 
BRANCH  37  38
ATOM     38  C   UNL A   1      43.313  24.710  27.976  1.00  0.00     0.031 A 
ATOM     39  C   UNL A   1      42.248  25.748  28.207  1.00  0.00     0.074 A 
ATOM     40  C   UNL A   1      44.612  25.038  28.143  1.00  0.00     0.049 A 
ATOM     41  N   UNL A   1      42.381  26.995  28.591  1.00  0.00    -0.248 NA
ATOM     42  C   UNL A   1      40.855  25.346  27.953  1.00  0.00     0.031 C 
ATOM     43  C   UNL A   1      45.751  24.150  27.898  1.00  0.00     0.029 A 
ATOM     44  N   UNL A   1      45.193  26.210  28.561  1.00  0.00    -0.354 N 
ATOM     45  C   UNL A   1      41.095  27.521  28.622  1.00  0.00     0.074 A 
ATOM     46  C   UNL A   1      40.203  26.481  28.158  1.00  0.00     0.031 C 
ATOM     47  C   UNL A   1      46.888  24.795  28.203  1.00  0.00     0.029 A 
ATOM     48  C   UNL A   1      46.566  26.153  28.629  1.00  0.00     0.049 A 
ATOM     49  H   UNL A   1      44.676  27.016  28.790  1.00  0.00     0.167 HD
ATOM     50  C   UNL A   1      40.686  28.748  29.027  1.00  0.00     0.031 A 
ATOM     51  C   UNL A   1      47.466  27.085  28.992  1.00  0.00     0.031 A 
ATOM     52  C   UNL A   1      41.566  29.786  29.494  1.00  0.00     0.049 A 
ATOM     53  C   UNL A   1      46.985  28.440  29.431  1.00  0.00     0.074 A 
ATOM     54  C   UNL A   1      41.240  31.049  29.957  1.00  0.00     0.029 A 
ATOM     55  N   UNL A   1      42.946  29.680  29.560  1.00  0.00    -0.354 N 
ATOM     56  N   UNL A   1      45.759  28.894  29.518  1.00  0.00    -0.248 NA
ATOM     57  C   UNL A   1      48.015  29.406  29.839  1.00  0.00     0.031 C 
ATOM     58  C   UNL A   1      42.426  31.724  30.264  1.00  0.00     0.029 A 
ATOM     59  C   UNL A   1      43.487  30.860  30.043  1.00  0.00     0.049 A 
ATOM     60  H   UNL A   1      43.466  28.885  29.301  1.00  0.00     0.167 HD
ATOM     61  C   UNL A   1      45.869  30.187  30.012  1.00  0.00     0.074 A 
ATOM     62  C   UNL A   1      47.278  30.434  30.233  1.00  0.00     0.031 C 
ATOM     63  C   UNL A   1      44.890  31.093  30.256  1.00  0.00     0.031 A 
BRANCH  50  64
ATOM     64  C   UNL A   1      39.210  29.030  28.999  1.00  0.00    -0.014 A 
ATOM     65  C   UNL A   1      38.418  28.838  30.143  1.00  0.00     0.009 A 
ATOM     66  C   UNL A   1      38.610  29.543  27.838  1.00  0.00     0.009 A 
ATOM     67  C   UNL A   1      37.053  29.128  30.117  1.00  0.00     0.001 A 
ATOM     68  C   UNL A   1      37.250  29.859  27.824  1.00  0.00     0.001 A 
ATOM     69  C   UNL A   1      36.472  29.644  28.960  1.00  0.00     0.000 A 
ENDBRANCH  50  64
BRANCH  51  70
ATOM     70  C   UNL A   1      48.921  26.777  28.967  1.00  0.00    -0.014 A 
ATOM     71  C   UNL A   1      49.572  26.293  30.113  1.00  0.00     0.009 A 
ATOM     72  C   UNL A   1      49.677  27.000  27.805  1.00  0.00     0.009 A 
ATOM     73  C   UNL A   1      50.952  26.080  30.110  1.00  0.00     0.001 A 
ATOM     74  C   UNL A   1      51.051  26.755  27.793  1.00  0.00     0.001 A 
ATOM     75  C   UNL A   1      51.690  26.308  28.949  1.00  0.00     0.000 A 
ENDBRANCH  51  70
BRANCH  63  76
ATOM     76  C   UNL A   1      45.314  32.421  30.820  1.00  0.00    -0.014 A 
ATOM     77  C   UNL A   1      45.407  32.629  32.206  1.00  0.00     0.009 A 
ATOM     78  C   UNL A   1      45.643  33.473  29.952  1.00  0.00     0.009 A 
ATOM     79  C   UNL A   1      45.775  33.877  32.710  1.00  0.00     0.001 A 
ATOM     80  C   UNL A   1      46.042  34.711  30.457  1.00  0.00     0.001 A 
ATOM     81  C   UNL A   1      46.096  34.915  31.836  1.00  0.00     0.000 A 
ENDBRANCH  63  76
ENDBRANCH  37  38
ENDBRANCH  29  32
ENDBRANCH  27  28
ENDBRANCH  26  27
ENDBRANCH   1  26
TORSDOF 13
ENDMDL
