MODEL 1
REMARK VINA RESULT:     -11.4      0.000      0.000
REMARK SMILES CC(C)[NH2+][C@@]1(C(=O)NCCCCNC(=O)c2ccc(-c3c4nc(c(-c5ccccc5)c5ccc([nH]5)c(-c5ccccc5)c5nc(c(-c6ccccc6)c6ccc3[nH]6)C=C5)C=C4)cc2)CC[C@@H](Sc2ccncc2)C1
REMARK SMILES IDX 10 1 9 2 8 3 6 4 7 5 5 7 64 8 74 9 65 10 66 11 4 12 2 15
REMARK SMILES IDX 1 16 3 17 67 18 68 19 69 20 73 21 70 22 72 23 71 24 11 25
REMARK SMILES IDX 12 26 13 27 14 28 15 30 16 31 17 32 63 33 18 34 62 35 19 36
REMARK SMILES IDX 20 37 21 38 56 39 22 40 61 41 55 42 57 43 23 44 60 45 54 46
REMARK SMILES IDX 53 47 24 49 46 50 31 51 45 52 32 53 35 54 44 55 58 56 33 57
REMARK SMILES IDX 34 58 43 60 59 61 36 62 25 63 26 64 30 65 27 66 29 67 28 68
REMARK SMILES IDX 47 69 48 70 52 71 49 72 51 73 50 74 37 75 38 76 42 77 39 78
REMARK SMILES IDX 41 79 40 80
REMARK H PARENT 8 6 4 13 4 14 13 29 57 48 35 59
REMARK Flexibility Score: inf
ROOT
ATOM      1  C   UNL A   1      31.851  30.435  26.783  1.00  0.00     0.023 C 
ENDROOT
BRANCH   1   2
ATOM      2  C   UNL A   1      32.766  29.942  25.661  1.00  0.00     0.116 C 
BRANCH   2   3
ATOM      3  N   UNL A   1      33.285  28.634  25.969  1.00  0.00    -0.351 N 
ATOM      4  C   UNL A   1      33.019  27.402  25.479  1.00  0.00     0.281 C 
ATOM      5  O   UNL A   1      33.509  26.474  26.146  1.00  0.00    -0.268 OA
ATOM      6  H   UNL A   1      33.971  28.639  26.676  1.00  0.00     0.163 HD
BRANCH   4   7
ATOM      7  C   UNL A   1      32.155  27.068  24.184  1.00  0.00     0.176 C 
ATOM      8  C   UNL A   1      32.579  27.901  22.961  1.00  0.00     0.080 C 
ATOM      9  C   UNL A   1      30.653  27.351  24.383  1.00  0.00     0.094 C 
ATOM     10  C   UNL A   1      31.426  28.831  22.579  1.00  0.00     0.022 C 
ATOM     11  C   UNL A   1      30.326  28.631  23.616  1.00  0.00     0.058 C 
BRANCH   7  12
ATOM     12  N   UNL A   1      32.527  25.652  23.899  1.00  0.00    -0.332 N 
ATOM     13  H   UNL A   1      33.519  25.659  23.659  1.00  0.00     0.347 HD
ATOM     14  H   UNL A   1      32.233  25.174  24.752  1.00  0.00     0.347 HD
BRANCH  12  15
ATOM     15  C   UNL A   1      31.860  24.882  22.863  1.00  0.00     0.176 C 
ATOM     16  C   UNL A   1      32.952  24.202  22.031  1.00  0.00     0.075 C 
ATOM     17  C   UNL A   1      30.944  23.794  23.436  1.00  0.00     0.075 C 
ENDBRANCH  12  15
ENDBRANCH   7  12
BRANCH  11  18
ATOM     18  S   UNL A   1      28.587  28.728  23.013  1.00  0.00    -0.122 SA
BRANCH  18  19
ATOM     19  C   UNL A   1      28.428  30.442  22.555  1.00  0.00     0.011 A 
ATOM     20  C   UNL A   1      28.104  30.820  21.257  1.00  0.00     0.035 A 
ATOM     21  C   UNL A   1      28.625  31.429  23.519  1.00  0.00     0.035 A 
ATOM     22  C   UNL A   1      28.063  32.171  20.958  1.00  0.00     0.112 A 
ATOM     23  C   UNL A   1      28.553  32.754  23.124  1.00  0.00     0.112 A 
ATOM     24  N   UNL A   1      28.289  33.146  21.861  1.00  0.00    -0.265 NA
ENDBRANCH  18  19
ENDBRANCH  11  18
ENDBRANCH   4   7
ENDBRANCH   2   3
ENDBRANCH   1   2
BRANCH   1  25
ATOM     25  C   UNL A   1      31.594  31.941  26.765  1.00  0.00     0.023 C 
BRANCH  25  26
ATOM     26  C   UNL A   1      32.729  32.786  27.330  1.00  0.00     0.116 C 
BRANCH  26  27
ATOM     27  N   UNL A   1      32.343  34.151  27.662  1.00  0.00    -0.352 N 
ATOM     28  C   UNL A   1      32.946  35.004  28.555  1.00  0.00     0.251 C 
ATOM     29  H   UNL A   1      31.554  34.505  27.189  1.00  0.00     0.163 HD
ATOM     30  O   UNL A   1      32.474  36.108  28.794  1.00  0.00    -0.269 OA
BRANCH  28  31
ATOM     31  C   UNL A   1      34.151  34.534  29.262  1.00  0.00     0.039 A 
ATOM     32  C   UNL A   1      34.005  33.931  30.512  1.00  0.00     0.014 A 
ATOM     33  C   UNL A   1      35.399  34.602  28.639  1.00  0.00     0.014 A 
ATOM     34  C   UNL A   1      35.109  33.323  31.108  1.00  0.00     0.010 A 
ATOM     35  C   UNL A   1      36.478  33.930  29.197  1.00  0.00     0.010 A 
ATOM     36  C   UNL A   1      36.342  33.282  30.435  1.00  0.00    -0.014 A 
BRANCH  36  37
ATOM     37  C   UNL A   1      37.505  32.562  31.003  1.00  0.00     0.031 A 
ATOM     38  C   UNL A   1      38.139  33.051  32.272  1.00  0.00     0.074 A 
ATOM     39  C   UNL A   1      38.033  31.518  30.338  1.00  0.00     0.049 A 
ATOM     40  N   UNL A   1      39.196  32.595  32.895  1.00  0.00    -0.248 NA
ATOM     41  C   UNL A   1      37.523  34.226  32.909  1.00  0.00     0.031 C 
ATOM     42  C   UNL A   1      37.533  30.973  29.073  1.00  0.00     0.029 A 
ATOM     43  N   UNL A   1      39.113  30.727  30.637  1.00  0.00    -0.354 N 
ATOM     44  C   UNL A   1      39.384  33.441  33.981  1.00  0.00     0.074 A 
ATOM     45  C   UNL A   1      38.367  34.466  33.901  1.00  0.00     0.031 C 
ATOM     46  C   UNL A   1      38.280  29.911  28.728  1.00  0.00     0.029 A 
ATOM     47  C   UNL A   1      39.331  29.725  29.724  1.00  0.00     0.049 A 
ATOM     48  H   UNL A   1      39.679  30.865  31.431  1.00  0.00     0.167 HD
ATOM     49  C   UNL A   1      40.307  33.361  34.967  1.00  0.00     0.031 A 
ATOM     50  C   UNL A   1      40.269  28.760  29.696  1.00  0.00     0.031 A 
ATOM     51  C   UNL A   1      41.307  32.333  35.056  1.00  0.00     0.049 A 
ATOM     52  C   UNL A   1      41.289  28.697  30.797  1.00  0.00     0.074 A 
ATOM     53  C   UNL A   1      42.244  32.123  36.052  1.00  0.00     0.029 A 
ATOM     54  N   UNL A   1      41.497  31.339  34.108  1.00  0.00    -0.354 N 
ATOM     55  N   UNL A   1      41.413  29.463  31.853  1.00  0.00    -0.248 NA
ATOM     56  C   UNL A   1      42.293  27.629  30.703  1.00  0.00     0.031 C 
ATOM     57  C   UNL A   1      43.030  31.024  35.684  1.00  0.00     0.029 A 
ATOM     58  C   UNL A   1      42.552  30.525  34.483  1.00  0.00     0.049 A 
ATOM     59  H   UNL A   1      40.961  31.228  33.290  1.00  0.00     0.167 HD
ATOM     60  C   UNL A   1      42.491  28.953  32.565  1.00  0.00     0.074 A 
ATOM     61  C   UNL A   1      42.980  27.808  31.824  1.00  0.00     0.031 C 
ATOM     62  C   UNL A   1      43.024  29.392  33.730  1.00  0.00     0.031 A 
BRANCH  49  63
ATOM     63  C   UNL A   1      40.271  34.433  36.020  1.00  0.00    -0.014 A 
ATOM     64  C   UNL A   1      41.021  35.613  35.883  1.00  0.00     0.009 A 
ATOM     65  C   UNL A   1      39.485  34.257  37.168  1.00  0.00     0.009 A 
ATOM     66  C   UNL A   1      41.025  36.570  36.899  1.00  0.00     0.001 A 
ATOM     67  C   UNL A   1      39.467  35.231  38.169  1.00  0.00     0.001 A 
ATOM     68  C   UNL A   1      40.247  36.378  38.040  1.00  0.00     0.000 A 
ENDBRANCH  49  63
BRANCH  50  69
ATOM     69  C   UNL A   1      40.259  27.746  28.613  1.00  0.00    -0.014 A 
ATOM     70  C   UNL A   1      40.941  27.996  27.412  1.00  0.00     0.009 A 
ATOM     71  C   UNL A   1      39.582  26.527  28.770  1.00  0.00     0.009 A 
ATOM     72  C   UNL A   1      40.930  27.053  26.382  1.00  0.00     0.001 A 
ATOM     73  C   UNL A   1      39.591  25.577  27.747  1.00  0.00     0.001 A 
ATOM     74  C   UNL A   1      40.259  25.843  26.552  1.00  0.00     0.000 A 
ENDBRANCH  50  69
BRANCH  62  75
ATOM     75  C   UNL A   1      44.176  28.609  34.291  1.00  0.00    -0.014 A 
ATOM     76  C   UNL A   1      43.964  27.511  35.140  1.00  0.00     0.009 A 
ATOM     77  C   UNL A   1      45.489  28.953  33.936  1.00  0.00     0.009 A 
ATOM     78  C   UNL A   1      45.049  26.791  35.643  1.00  0.00     0.001 A 
ATOM     79  C   UNL A   1      46.570  28.216  34.420  1.00  0.00     0.001 A 
ATOM     80  C   UNL A   1      46.349  27.141  35.280  1.00  0.00     0.000 A 
ENDBRANCH  62  75
ENDBRANCH  36  37
ENDBRANCH  28  31
ENDBRANCH  26  27
ENDBRANCH  25  26
ENDBRANCH   1  25
TORSDOF 15
ENDMDL
MODEL 2
REMARK VINA RESULT:     -11.1      1.841      4.073
REMARK SMILES CC(C)[NH2+][C@@]1(C(=O)NCCCCNC(=O)c2ccc(-c3c4nc(c(-c5ccccc5)c5ccc([nH]5)c(-c5ccccc5)c5nc(c(-c6ccccc6)c6ccc3[nH]6)C=C5)C=C4)cc2)CC[C@@H](Sc2ccncc2)C1
REMARK SMILES IDX 10 1 9 2 8 3 6 4 7 5 5 7 64 8 74 9 65 10 66 11 4 12 2 15
REMARK SMILES IDX 1 16 3 17 67 18 68 19 69 20 73 21 70 22 72 23 71 24 11 25
REMARK SMILES IDX 12 26 13 27 14 28 15 30 16 31 17 32 63 33 18 34 62 35 19 36
REMARK SMILES IDX 20 37 21 38 56 39 22 40 61 41 55 42 57 43 23 44 60 45 54 46
REMARK SMILES IDX 53 47 24 49 46 50 31 51 45 52 32 53 35 54 44 55 58 56 33 57
REMARK SMILES IDX 34 58 43 60 59 61 36 62 25 63 26 64 30 65 27 66 29 67 28 68
REMARK SMILES IDX 47 69 48 70 52 71 49 72 51 73 50 74 37 75 38 76 42 77 39 78
REMARK SMILES IDX 41 79 40 80
REMARK H PARENT 8 6 4 13 4 14 13 29 57 48 35 59
REMARK Flexibility Score: inf
ROOT
ATOM      1  C   UNL A   1      31.886  30.263  26.868  1.00  0.00     0.023 C 
ENDROOT
BRANCH   1   2
ATOM      2  C   UNL A   1      33.297  29.750  26.578  1.00  0.00     0.116 C 
BRANCH   2   3
ATOM      3  N   UNL A   1      33.543  29.718  25.159  1.00  0.00    -0.351 N 
ATOM      4  C   UNL A   1      33.376  28.758  24.220  1.00  0.00     0.281 C 
ATOM      5  O   UNL A   1      33.907  29.021  23.127  1.00  0.00    -0.268 OA
ATOM      6  H   UNL A   1      33.903  30.562  24.802  1.00  0.00     0.163 HD
BRANCH   4   7
ATOM      7  C   UNL A   1      32.602  27.380  24.408  1.00  0.00     0.176 C 
ATOM      8  C   UNL A   1      33.003  26.648  25.702  1.00  0.00     0.080 C 
ATOM      9  C   UNL A   1      32.873  26.386  23.263  1.00  0.00     0.094 C 
ATOM     10  C   UNL A   1      33.709  25.344  25.326  1.00  0.00     0.022 C 
ATOM     11  C   UNL A   1      33.816  25.313  23.805  1.00  0.00     0.058 C 
BRANCH   7  12
ATOM     12  N   UNL A   1      31.187  27.821  24.577  1.00  0.00    -0.332 N 
ATOM     13  H   UNL A   1      30.698  27.051  25.032  1.00  0.00     0.347 HD
ATOM     14  H   UNL A   1      31.292  28.701  25.083  1.00  0.00     0.347 HD
BRANCH  12  15
ATOM     15  C   UNL A   1      30.369  28.211  23.440  1.00  0.00     0.176 C 
ATOM     16  C   UNL A   1      29.120  27.324  23.457  1.00  0.00     0.075 C 
ATOM     17  C   UNL A   1      29.920  29.675  23.513  1.00  0.00     0.075 C 
ENDBRANCH  12  15
ENDBRANCH   7  12
BRANCH  11  18
ATOM     18  S   UNL A   1      33.640  23.668  22.992  1.00  0.00    -0.122 SA
BRANCH  18  19
ATOM     19  C   UNL A   1      34.892  22.696  23.803  1.00  0.00     0.011 A 
ATOM     20  C   UNL A   1      36.240  23.023  23.709  1.00  0.00     0.035 A 
ATOM     21  C   UNL A   1      34.514  21.586  24.558  1.00  0.00     0.035 A 
ATOM     22  C   UNL A   1      37.162  22.184  24.312  1.00  0.00     0.112 A 
ATOM     23  C   UNL A   1      35.510  20.814  25.131  1.00  0.00     0.112 A 
ATOM     24  N   UNL A   1      36.827  21.081  25.013  1.00  0.00    -0.265 NA
ENDBRANCH  18  19
ENDBRANCH  11  18
ENDBRANCH   4   7
ENDBRANCH   2   3
ENDBRANCH   1   2
BRANCH   1  25
ATOM     25  C   UNL A   1      31.722  31.774  26.705  1.00  0.00     0.023 C 
BRANCH  25  26
ATOM     26  C   UNL A   1      32.846  32.603  27.315  1.00  0.00     0.116 C 
BRANCH  26  27
ATOM     27  N   UNL A   1      32.446  33.952  27.696  1.00  0.00    -0.352 N 
ATOM     28  C   UNL A   1      33.059  34.789  28.596  1.00  0.00     0.251 C 
ATOM     29  H   UNL A   1      31.639  34.305  27.254  1.00  0.00     0.163 HD
ATOM     30  O   UNL A   1      32.575  35.878  28.880  1.00  0.00    -0.269 OA
BRANCH  28  31
ATOM     31  C   UNL A   1      34.289  34.321  29.258  1.00  0.00     0.039 A 
ATOM     32  C   UNL A   1      34.182  33.608  30.453  1.00  0.00     0.014 A 
ATOM     33  C   UNL A   1      35.529  34.502  28.640  1.00  0.00     0.014 A 
ATOM     34  C   UNL A   1      35.317  33.006  30.993  1.00  0.00     0.010 A 
ATOM     35  C   UNL A   1      36.642  33.838  29.137  1.00  0.00     0.010 A 
ATOM     36  C   UNL A   1      36.546  33.082  30.315  1.00  0.00    -0.014 A 
BRANCH  36  37
ATOM     37  C   UNL A   1      37.746  32.374  30.817  1.00  0.00     0.031 A 
ATOM     38  C   UNL A   1      38.496  32.919  31.998  1.00  0.00     0.074 A 
ATOM     39  C   UNL A   1      38.201  31.288  30.166  1.00  0.00     0.049 A 
ATOM     40  N   UNL A   1      39.598  32.479  32.550  1.00  0.00    -0.248 NA
ATOM     41  C   UNL A   1      37.952  34.136  32.622  1.00  0.00     0.031 C 
ATOM     42  C   UNL A   1      37.585  30.685  28.981  1.00  0.00     0.029 A 
ATOM     43  N   UNL A   1      39.294  30.496  30.411  1.00  0.00    -0.354 N 
ATOM     44  C   UNL A   1      39.891  33.377  33.567  1.00  0.00     0.074 A 
ATOM     45  C   UNL A   1      38.882  34.414  33.522  1.00  0.00     0.031 C 
ATOM     46  C   UNL A   1      38.286  29.595  28.629  1.00  0.00     0.029 A 
ATOM     47  C   UNL A   1      39.418  29.444  29.538  1.00  0.00     0.049 A 
ATOM     48  H   UNL A   1      39.930  30.666  31.144  1.00  0.00     0.167 HD
ATOM     49  C   UNL A   1      40.896  33.335  34.472  1.00  0.00     0.031 A 
ATOM     50  C   UNL A   1      40.339  28.464  29.480  1.00  0.00     0.031 A 
ATOM     51  C   UNL A   1      41.888  32.296  34.529  1.00  0.00     0.049 A 
ATOM     52  C   UNL A   1      41.452  28.442  30.489  1.00  0.00     0.074 A 
ATOM     53  C   UNL A   1      42.907  32.123  35.448  1.00  0.00     0.029 A 
ATOM     54  N   UNL A   1      41.982  31.250  33.622  1.00  0.00    -0.354 N 
ATOM     55  N   UNL A   1      41.678  29.261  31.488  1.00  0.00    -0.248 NA
ATOM     56  C   UNL A   1      42.431  27.354  30.365  1.00  0.00     0.031 C 
ATOM     57  C   UNL A   1      43.644  30.994  35.073  1.00  0.00     0.029 A 
ATOM     58  C   UNL A   1      43.057  30.441  33.947  1.00  0.00     0.049 A 
ATOM     59  H   UNL A   1      41.375  31.106  32.861  1.00  0.00     0.167 HD
ATOM     60  C   UNL A   1      42.808  28.771  32.129  1.00  0.00     0.074 A 
ATOM     61  C   UNL A   1      43.216  27.581  31.410  1.00  0.00     0.031 C 
ATOM     62  C   UNL A   1      43.447  29.262  33.218  1.00  0.00     0.031 A 
BRANCH  49  63
ATOM     63  C   UNL A   1      40.966  34.461  35.465  1.00  0.00    -0.014 A 
ATOM     64  C   UNL A   1      41.751  35.599  35.219  1.00  0.00     0.009 A 
ATOM     65  C   UNL A   1      40.245  34.378  36.666  1.00  0.00     0.009 A 
ATOM     66  C   UNL A   1      41.854  36.608  36.179  1.00  0.00     0.001 A 
ATOM     67  C   UNL A   1      40.325  35.403  37.611  1.00  0.00     0.001 A 
ATOM     68  C   UNL A   1      41.140  36.509  37.373  1.00  0.00     0.000 A 
ENDBRANCH  49  63
BRANCH  50  69
ATOM     69  C   UNL A   1      40.222  27.394  28.458  1.00  0.00    -0.014 A 
ATOM     70  C   UNL A   1      40.834  27.552  27.205  1.00  0.00     0.009 A 
ATOM     71  C   UNL A   1      39.512  26.214  28.725  1.00  0.00     0.009 A 
ATOM     72  C   UNL A   1      40.722  26.557  26.232  1.00  0.00     0.001 A 
ATOM     73  C   UNL A   1      39.420  25.211  27.758  1.00  0.00     0.001 A 
ATOM     74  C   UNL A   1      40.019  25.385  26.511  1.00  0.00     0.000 A 
ENDBRANCH  50  69
BRANCH  62  75
ATOM     75  C   UNL A   1      44.635  28.491  33.717  1.00  0.00    -0.014 A 
ATOM     76  C   UNL A   1      44.486  27.447  34.645  1.00  0.00     0.009 A 
ATOM     77  C   UNL A   1      45.914  28.789  33.225  1.00  0.00     0.009 A 
ATOM     78  C   UNL A   1      45.603  26.737  35.088  1.00  0.00     0.001 A 
ATOM     79  C   UNL A   1      47.024  28.060  33.652  1.00  0.00     0.001 A 
ATOM     80  C   UNL A   1      46.869  27.041  34.589  1.00  0.00     0.000 A 
ENDBRANCH  62  75
ENDBRANCH  36  37
ENDBRANCH  28  31
ENDBRANCH  26  27
ENDBRANCH  25  26
ENDBRANCH   1  25
TORSDOF 15
ENDMDL
MODEL 3
REMARK VINA RESULT:     -11.1      1.021      6.082
REMARK SMILES CC(C)[NH2+][C@@]1(C(=O)NCCCCNC(=O)c2ccc(-c3c4nc(c(-c5ccccc5)c5ccc([nH]5)c(-c5ccccc5)c5nc(c(-c6ccccc6)c6ccc3[nH]6)C=C5)C=C4)cc2)CC[C@@H](Sc2ccncc2)C1
REMARK SMILES IDX 10 1 9 2 8 3 6 4 7 5 5 7 64 8 74 9 65 10 66 11 4 12 2 15
REMARK SMILES IDX 1 16 3 17 67 18 68 19 69 20 73 21 70 22 72 23 71 24 11 25
REMARK SMILES IDX 12 26 13 27 14 28 15 30 16 31 17 32 63 33 18 34 62 35 19 36
REMARK SMILES IDX 20 37 21 38 56 39 22 40 61 41 55 42 57 43 23 44 60 45 54 46
REMARK SMILES IDX 53 47 24 49 46 50 31 51 45 52 32 53 35 54 44 55 58 56 33 57
REMARK SMILES IDX 34 58 43 60 59 61 36 62 25 63 26 64 30 65 27 66 29 67 28 68
REMARK SMILES IDX 47 69 48 70 52 71 49 72 51 73 50 74 37 75 38 76 42 77 39 78
REMARK SMILES IDX 41 79 40 80
REMARK H PARENT 8 6 4 13 4 14 13 29 57 48 35 59
REMARK Flexibility Score: inf
ROOT
ATOM      1  C   UNL A   1      32.061  29.978  27.036  1.00  0.00     0.023 C 
ENDROOT
BRANCH   1   2
ATOM      2  C   UNL A   1      33.415  29.270  26.969  1.00  0.00     0.116 C 
BRANCH   2   3
ATOM      3  N   UNL A   1      33.898  29.229  25.613  1.00  0.00    -0.351 N 
ATOM      4  C   UNL A   1      33.523  28.515  24.526  1.00  0.00     0.281 C 
ATOM      5  O   UNL A   1      34.320  28.585  23.574  1.00  0.00    -0.268 OA
ATOM      6  H   UNL A   1      34.650  29.841  25.443  1.00  0.00     0.163 HD
BRANCH   4   7
ATOM      7  C   UNL A   1      32.209  27.626  24.389  1.00  0.00     0.176 C 
ATOM      8  C   UNL A   1      32.195  26.791  23.095  1.00  0.00     0.080 C 
ATOM      9  C   UNL A   1      30.921  28.471  24.357  1.00  0.00     0.094 C 
ATOM     10  C   UNL A   1      31.052  27.288  22.207  1.00  0.00     0.022 C 
ATOM     11  C   UNL A   1      30.419  28.481  22.914  1.00  0.00     0.058 C 
BRANCH   7  12
ATOM     12  N   UNL A   1      32.343  26.670  25.525  1.00  0.00    -0.332 N 
ATOM     13  H   UNL A   1      33.333  26.651  25.770  1.00  0.00     0.347 HD
ATOM     14  H   UNL A   1      31.677  27.042  26.203  1.00  0.00     0.347 HD
BRANCH  12  15
ATOM     15  C   UNL A   1      31.924  25.282  25.407  1.00  0.00     0.176 C 
ATOM     16  C   UNL A   1      33.015  24.425  26.056  1.00  0.00     0.075 C 
ATOM     17  C   UNL A   1      30.600  25.004  26.128  1.00  0.00     0.075 C 
ENDBRANCH  12  15
ENDBRANCH   7  12
BRANCH  11  18
ATOM     18  S   UNL A   1      28.593  28.673  22.750  1.00  0.00    -0.122 SA
BRANCH  18  19
ATOM     19  C   UNL A   1      28.417  30.397  22.340  1.00  0.00     0.011 A 
ATOM     20  C   UNL A   1      28.553  31.390  23.303  1.00  0.00     0.035 A 
ATOM     21  C   UNL A   1      28.146  30.763  21.022  1.00  0.00     0.035 A 
ATOM     22  C   UNL A   1      28.338  32.705  22.925  1.00  0.00     0.112 A 
ATOM     23  C   UNL A   1      27.956  32.105  20.741  1.00  0.00     0.112 A 
ATOM     24  N   UNL A   1      28.034  33.083  21.667  1.00  0.00    -0.265 NA
ENDBRANCH  18  19
ENDBRANCH  11  18
ENDBRANCH   4   7
ENDBRANCH   2   3
ENDBRANCH   1   2
BRANCH   1  25
ATOM     25  C   UNL A   1      32.091  31.433  26.570  1.00  0.00     0.023 C 
BRANCH  25  26
ATOM     26  C   UNL A   1      33.080  32.319  27.318  1.00  0.00     0.116 C 
BRANCH  26  27
ATOM     27  N   UNL A   1      32.600  33.674  27.554  1.00  0.00    -0.352 N 
ATOM     28  C   UNL A   1      33.074  34.588  28.464  1.00  0.00     0.251 C 
ATOM     29  H   UNL A   1      31.846  33.969  26.994  1.00  0.00     0.163 HD
ATOM     30  O   UNL A   1      32.530  35.675  28.612  1.00  0.00    -0.269 OA
BRANCH  28  31
ATOM     31  C   UNL A   1      34.225  34.207  29.301  1.00  0.00     0.039 A 
ATOM     32  C   UNL A   1      33.991  33.531  30.500  1.00  0.00     0.014 A 
ATOM     33  C   UNL A   1      35.527  34.428  28.845  1.00  0.00     0.014 A 
ATOM     34  C   UNL A   1      35.070  33.007  31.209  1.00  0.00     0.010 A 
ATOM     35  C   UNL A   1      36.593  33.840  29.512  1.00  0.00     0.010 A 
ATOM     36  C   UNL A   1      36.374  33.122  30.697  1.00  0.00    -0.014 A 
BRANCH  36  37
ATOM     37  C   UNL A   1      37.528  32.493  31.382  1.00  0.00     0.031 A 
ATOM     38  C   UNL A   1      38.225  31.323  30.752  1.00  0.00     0.074 A 
ATOM     39  C   UNL A   1      37.896  32.928  32.602  1.00  0.00     0.049 A 
ATOM     40  N   UNL A   1      39.212  30.602  31.219  1.00  0.00    -0.248 NA
ATOM     41  C   UNL A   1      37.727  30.887  29.437  1.00  0.00     0.031 C 
ATOM     42  C   UNL A   1      37.271  34.028  33.339  1.00  0.00     0.029 A 
ATOM     43  N   UNL A   1      38.891  32.490  33.439  1.00  0.00    -0.354 N 
ATOM     44  C   UNL A   1      39.436  29.615  30.268  1.00  0.00     0.074 A 
ATOM     45  C   UNL A   1      38.449  29.798  29.226  1.00  0.00     0.031 C 
ATOM     46  C   UNL A   1      37.924  34.206  34.499  1.00  0.00     0.029 A 
ATOM     47  C   UNL A   1      38.986  33.210  34.604  1.00  0.00     0.049 A 
ATOM     48  H   UNL A   1      39.480  31.731  33.226  1.00  0.00     0.167 HD
ATOM     49  C   UNL A   1      40.390  28.655  30.251  1.00  0.00     0.031 A 
ATOM     50  C   UNL A   1      39.839  33.086  35.638  1.00  0.00     0.031 A 
ATOM     51  C   UNL A   1      41.382  28.485  31.277  1.00  0.00     0.049 A 
ATOM     52  C   UNL A   1      40.883  32.007  35.602  1.00  0.00     0.074 A 
ATOM     53  C   UNL A   1      42.433  27.587  31.321  1.00  0.00     0.029 A 
ATOM     54  N   UNL A   1      41.441  29.232  32.443  1.00  0.00    -0.354 N 
ATOM     55  N   UNL A   1      41.127  31.123  34.664  1.00  0.00    -0.248 NA
ATOM     56  C   UNL A   1      41.775  31.916  36.765  1.00  0.00     0.031 C 
ATOM     57  C   UNL A   1      43.106  27.765  32.536  1.00  0.00     0.029 A 
ATOM     58  C   UNL A   1      42.498  28.802  33.226  1.00  0.00     0.049 A 
ATOM     59  H   UNL A   1      40.823  29.961  32.680  1.00  0.00     0.167 HD
ATOM     60  C   UNL A   1      42.217  30.389  35.111  1.00  0.00     0.074 A 
ATOM     61  C   UNL A   1      42.592  30.937  36.400  1.00  0.00     0.031 C 
ATOM     62  C   UNL A   1      42.854  29.358  34.506  1.00  0.00     0.031 A 
BRANCH  49  63
ATOM     63  C   UNL A   1      40.386  27.713  29.080  1.00  0.00    -0.014 A 
ATOM     64  C   UNL A   1      39.646  26.520  29.109  1.00  0.00     0.009 A 
ATOM     65  C   UNL A   1      41.140  28.018  27.937  1.00  0.00     0.009 A 
ATOM     66  C   UNL A   1      39.703  25.626  28.038  1.00  0.00     0.001 A 
ATOM     67  C   UNL A   1      41.171  27.137  26.854  1.00  0.00     0.001 A 
ATOM     68  C   UNL A   1      40.464  25.936  26.911  1.00  0.00     0.000 A 
ENDBRANCH  49  63
BRANCH  50  69
ATOM     69  C   UNL A   1      39.772  34.038  36.774  1.00  0.00    -0.014 A 
ATOM     70  C   UNL A   1      38.992  33.732  37.901  1.00  0.00     0.009 A 
ATOM     71  C   UNL A   1      40.486  35.246  36.748  1.00  0.00     0.009 A 
ATOM     72  C   UNL A   1      38.913  34.625  38.971  1.00  0.00     0.001 A 
ATOM     73  C   UNL A   1      40.423  36.127  37.830  1.00  0.00     0.001 A 
ATOM     74  C   UNL A   1      39.632  35.820  38.937  1.00  0.00     0.000 A 
ENDBRANCH  50  69
BRANCH  62  75
ATOM     75  C   UNL A   1      44.042  28.778  35.217  1.00  0.00    -0.014 A 
ATOM     76  C   UNL A   1      43.903  27.698  36.103  1.00  0.00     0.009 A 
ATOM     77  C   UNL A   1      45.322  29.295  34.966  1.00  0.00     0.009 A 
ATOM     78  C   UNL A   1      45.023  27.168  36.746  1.00  0.00     0.001 A 
ATOM     79  C   UNL A   1      46.442  28.746  35.591  1.00  0.00     0.001 A 
ATOM     80  C   UNL A   1      46.290  27.689  36.487  1.00  0.00     0.000 A 
ENDBRANCH  62  75
ENDBRANCH  36  37
ENDBRANCH  28  31
ENDBRANCH  26  27
ENDBRANCH  25  26
ENDBRANCH   1  25
TORSDOF 15
ENDMDL
