MODEL 1
REMARK VINA RESULT:     -11.2      0.000      0.000
REMARK SMILES C[C@H](C(=O)NCCCCNC(=O)c1ccc(-c2c3nc(c(-c4ccccc4)c4ccc([nH]4)c(-c4ccccc4)c4nc(c(-c5ccccc5)c5ccc2[nH]5)C=C4)C=C3)cc1)c1ccc(-c2ccccc2)c(F)c1
REMARK SMILES IDX 7 1 6 2 5 3 3 4 4 5 2 7 1 8 61 9 62 10 73 11 63 12 71 13
REMARK SMILES IDX 64 14 72 15 65 16 66 17 70 18 67 19 69 20 68 21 8 22 9 23
REMARK SMILES IDX 10 24 11 25 12 27 13 28 14 29 60 30 15 31 59 32 16 33 17 34
REMARK SMILES IDX 18 35 53 36 19 37 58 38 52 39 54 40 20 41 57 42 51 43 50 44
REMARK SMILES IDX 21 46 43 47 28 48 42 49 29 50 32 51 41 52 55 53 30 54 31 55
REMARK SMILES IDX 40 57 56 58 33 59 22 60 23 61 27 62 24 63 26 64 25 65 44 66
REMARK SMILES IDX 45 67 49 68 46 69 48 70 47 71 34 72 35 73 39 74 36 75 38 76
REMARK SMILES IDX 37 77
REMARK H PARENT 5 6 10 26 54 45 32 56
REMARK Flexibility Score: inf
ROOT
ATOM      1  C   UNL A   1      36.143  21.089  24.931  1.00  0.00     0.023 C 
ENDROOT
BRANCH   1   2
ATOM      2  C   UNL A   1      35.218  21.269  26.141  1.00  0.00     0.116 C 
BRANCH   2   3
ATOM      3  N   UNL A   1      33.872  20.840  25.825  1.00  0.00    -0.356 N 
ATOM      4  C   UNL A   1      32.831  21.398  25.152  1.00  0.00     0.227 C 
ATOM      5  O   UNL A   1      31.771  20.769  25.280  1.00  0.00    -0.274 OA
ATOM      6  H   UNL A   1      33.664  19.943  26.176  1.00  0.00     0.163 HD
BRANCH   4   7
ATOM      7  C   UNL A   1      32.924  22.607  24.184  1.00  0.00     0.105 C 
ATOM      8  C   UNL A   1      31.824  22.403  23.115  1.00  0.00     0.023 C 
BRANCH   7   9
ATOM      9  C   UNL A   1      32.860  24.017  24.777  1.00  0.00    -0.033 A 
ATOM     10  C   UNL A   1      32.271  24.335  26.011  1.00  0.00     0.005 A 
ATOM     11  C   UNL A   1      33.325  25.099  24.030  1.00  0.00     0.044 A 
ATOM     12  C   UNL A   1      32.242  25.660  26.499  1.00  0.00     0.012 A 
ATOM     13  C   UNL A   1      33.388  26.391  24.556  1.00  0.00     0.131 A 
ATOM     14  C   UNL A   1      32.857  26.717  25.809  1.00  0.00     0.017 A 
ATOM     15  F   UNL A   1      34.037  27.306  23.818  1.00  0.00    -0.206 F 
BRANCH  14  16
ATOM     16  C   UNL A   1      32.977  28.082  26.375  1.00  0.00    -0.015 A 
ATOM     17  C   UNL A   1      34.214  28.592  26.812  1.00  0.00     0.009 A 
ATOM     18  C   UNL A   1      31.873  28.956  26.433  1.00  0.00     0.009 A 
ATOM     19  C   UNL A   1      34.346  29.918  27.245  1.00  0.00     0.001 A 
ATOM     20  C   UNL A   1      32.005  30.284  26.849  1.00  0.00     0.001 A 
ATOM     21  C   UNL A   1      33.244  30.767  27.248  1.00  0.00     0.000 A 
ENDBRANCH  14  16
ENDBRANCH   7   9
ENDBRANCH   4   7
ENDBRANCH   2   3
ENDBRANCH   1   2
BRANCH   1  22
ATOM     22  C   UNL A   1      36.729  22.391  24.388  1.00  0.00     0.023 C 
BRANCH  22  23
ATOM     23  C   UNL A   1      37.629  23.118  25.379  1.00  0.00     0.116 C 
BRANCH  23  24
ATOM     24  N   UNL A   1      38.879  22.423  25.673  1.00  0.00    -0.352 N 
ATOM     25  C   UNL A   1      39.960  22.913  26.374  1.00  0.00     0.251 C 
ATOM     26  H   UNL A   1      38.958  21.502  25.334  1.00  0.00     0.163 HD
ATOM     27  O   UNL A   1      40.984  22.255  26.523  1.00  0.00    -0.269 OA
BRANCH  25  28
ATOM     28  C   UNL A   1      39.874  24.289  26.897  1.00  0.00     0.039 A 
ATOM     29  C   UNL A   1      39.274  24.506  28.139  1.00  0.00     0.014 A 
ATOM     30  C   UNL A   1      40.530  25.321  26.225  1.00  0.00     0.014 A 
ATOM     31  C   UNL A   1      39.423  25.746  28.761  1.00  0.00     0.010 A 
ATOM     32  C   UNL A   1      40.747  26.523  26.882  1.00  0.00     0.010 A 
ATOM     33  C   UNL A   1      40.210  26.742  28.162  1.00  0.00    -0.014 A 
BRANCH  33  34
ATOM     34  C   UNL A   1      40.506  28.029  28.838  1.00  0.00     0.031 A 
ATOM     35  C   UNL A   1      41.798  28.186  29.586  1.00  0.00     0.074 A 
ATOM     36  C   UNL A   1      39.571  28.997  28.895  1.00  0.00     0.049 A 
ATOM     37  N   UNL A   1      42.166  29.128  30.416  1.00  0.00    -0.248 NA
ATOM     38  C   UNL A   1      42.787  27.109  29.416  1.00  0.00     0.031 C 
ATOM     39  C   UNL A   1      38.255  28.954  28.253  1.00  0.00     0.029 A 
ATOM     40  N   UNL A   1      39.579  30.204  29.550  1.00  0.00    -0.354 N 
ATOM     41  C   UNL A   1      43.401  28.725  30.911  1.00  0.00     0.074 A 
ATOM     42  C   UNL A   1      43.701  27.443  30.314  1.00  0.00     0.031 C 
ATOM     43  C   UNL A   1      37.592  30.089  28.530  1.00  0.00     0.029 A 
ATOM     44  C   UNL A   1      38.415  30.919  29.404  1.00  0.00     0.049 A 
ATOM     45  H   UNL A   1      40.347  30.527  30.075  1.00  0.00     0.167 HD
ATOM     46  C   UNL A   1      44.217  29.371  31.775  1.00  0.00     0.031 A 
ATOM     47  C   UNL A   1      38.048  32.104  29.926  1.00  0.00     0.031 A 
ATOM     48  C   UNL A   1      43.942  30.669  32.326  1.00  0.00     0.049 A 
ATOM     49  C   UNL A   1      38.995  32.834  30.835  1.00  0.00     0.074 A 
ATOM     50  C   UNL A   1      44.739  31.444  33.150  1.00  0.00     0.029 A 
ATOM     51  N   UNL A   1      42.782  31.391  32.092  1.00  0.00    -0.354 N 
ATOM     52  N   UNL A   1      40.177  32.463  31.261  1.00  0.00    -0.248 NA
ATOM     53  C   UNL A   1      38.561  34.150  31.328  1.00  0.00     0.031 C 
ATOM     54  C   UNL A   1      44.049  32.628  33.434  1.00  0.00     0.029 A 
ATOM     55  C   UNL A   1      42.839  32.602  32.757  1.00  0.00     0.049 A 
ATOM     56  H   UNL A   1      42.028  31.085  31.536  1.00  0.00     0.167 HD
ATOM     57  C   UNL A   1      40.641  33.508  32.049  1.00  0.00     0.074 A 
ATOM     58  C   UNL A   1      39.615  34.531  32.037  1.00  0.00     0.031 C 
ATOM     59  C   UNL A   1      41.813  33.611  32.720  1.00  0.00     0.031 A 
BRANCH  46  60
ATOM     60  C   UNL A   1      45.480  28.664  32.178  1.00  0.00    -0.014 A 
ATOM     61  C   UNL A   1      45.513  27.812  33.294  1.00  0.00     0.009 A 
ATOM     62  C   UNL A   1      46.655  28.865  31.440  1.00  0.00     0.009 A 
ATOM     63  C   UNL A   1      46.712  27.218  33.692  1.00  0.00     0.001 A 
ATOM     64  C   UNL A   1      47.846  28.245  31.822  1.00  0.00     0.001 A 
ATOM     65  C   UNL A   1      47.876  27.434  32.956  1.00  0.00     0.000 A 
ENDBRANCH  46  60
BRANCH  47  66
ATOM     66  C   UNL A   1      36.726  32.687  29.581  1.00  0.00    -0.014 A 
ATOM     67  C   UNL A   1      36.546  33.345  28.355  1.00  0.00     0.009 A 
ATOM     68  C   UNL A   1      35.638  32.577  30.460  1.00  0.00     0.009 A 
ATOM     69  C   UNL A   1      35.307  33.899  28.023  1.00  0.00     0.001 A 
ATOM     70  C   UNL A   1      34.395  33.113  30.116  1.00  0.00     0.001 A 
ATOM     71  C   UNL A   1      34.232  33.779  28.903  1.00  0.00     0.000 A 
ENDBRANCH  47  66
BRANCH  59  72
ATOM     72  C   UNL A   1      42.074  34.891  33.459  1.00  0.00    -0.014 A 
ATOM     73  C   UNL A   1      41.573  35.100  34.752  1.00  0.00     0.009 A 
ATOM     74  C   UNL A   1      42.890  35.872  32.873  1.00  0.00     0.009 A 
ATOM     75  C   UNL A   1      41.870  36.278  35.438  1.00  0.00     0.001 A 
ATOM     76  C   UNL A   1      43.202  37.039  33.570  1.00  0.00     0.001 A 
ATOM     77  C   UNL A   1      42.689  37.243  34.851  1.00  0.00     0.000 A 
ENDBRANCH  59  72
ENDBRANCH  33  34
ENDBRANCH  25  28
ENDBRANCH  23  24
ENDBRANCH  22  23
ENDBRANCH   1  22
TORSDOF 13
ENDMDL
MODEL 2
REMARK VINA RESULT:     -11.2      3.134      8.157
REMARK SMILES C[C@H](C(=O)NCCCCNC(=O)c1ccc(-c2c3nc(c(-c4ccccc4)c4ccc([nH]4)c(-c4ccccc4)c4nc(c(-c5ccccc5)c5ccc2[nH]5)C=C4)C=C3)cc1)c1ccc(-c2ccccc2)c(F)c1
REMARK SMILES IDX 7 1 6 2 5 3 3 4 4 5 2 7 1 8 61 9 62 10 73 11 63 12 71 13
REMARK SMILES IDX 64 14 72 15 65 16 66 17 70 18 67 19 69 20 68 21 8 22 9 23
REMARK SMILES IDX 10 24 11 25 12 27 13 28 14 29 60 30 15 31 59 32 16 33 17 34
REMARK SMILES IDX 18 35 53 36 19 37 58 38 52 39 54 40 20 41 57 42 51 43 50 44
REMARK SMILES IDX 21 46 43 47 28 48 42 49 29 50 32 51 41 52 55 53 30 54 31 55
REMARK SMILES IDX 40 57 56 58 33 59 22 60 23 61 27 62 24 63 26 64 25 65 44 66
REMARK SMILES IDX 45 67 49 68 46 69 48 70 47 71 34 72 35 73 39 74 36 75 38 76
REMARK SMILES IDX 37 77
REMARK H PARENT 5 6 10 26 54 45 32 56
REMARK Flexibility Score: inf
ROOT
ATOM      1  C   UNL A   1      32.814  29.551  25.045  1.00  0.00     0.023 C 
ENDROOT
BRANCH   1   2
ATOM      2  C   UNL A   1      33.174  29.290  23.577  1.00  0.00     0.116 C 
BRANCH   2   3
ATOM      3  N   UNL A   1      32.034  28.765  22.855  1.00  0.00    -0.356 N 
ATOM      4  C   UNL A   1      31.266  27.651  22.977  1.00  0.00     0.227 C 
ATOM      5  O   UNL A   1      30.497  27.479  22.020  1.00  0.00    -0.274 OA
ATOM      6  H   UNL A   1      31.752  29.345  22.111  1.00  0.00     0.163 HD
BRANCH   4   7
ATOM      7  C   UNL A   1      31.195  26.731  24.224  1.00  0.00     0.105 C 
ATOM      8  C   UNL A   1      29.918  25.872  24.070  1.00  0.00     0.023 C 
BRANCH   7   9
ATOM      9  C   UNL A   1      32.410  25.857  24.550  1.00  0.00    -0.033 A 
ATOM     10  C   UNL A   1      32.787  25.470  25.845  1.00  0.00     0.005 A 
ATOM     11  C   UNL A   1      33.278  25.477  23.525  1.00  0.00     0.044 A 
ATOM     12  C   UNL A   1      33.924  24.664  26.076  1.00  0.00     0.012 A 
ATOM     13  C   UNL A   1      34.341  24.598  23.743  1.00  0.00     0.131 A 
ATOM     14  C   UNL A   1      34.698  24.155  25.020  1.00  0.00     0.017 A 
ATOM     15  F   UNL A   1      34.979  24.151  22.650  1.00  0.00    -0.206 F 
BRANCH  14  16
ATOM     16  C   UNL A   1      35.798  23.182  25.229  1.00  0.00    -0.015 A 
ATOM     17  C   UNL A   1      35.648  21.821  24.905  1.00  0.00     0.009 A 
ATOM     18  C   UNL A   1      37.065  23.590  25.692  1.00  0.00     0.009 A 
ATOM     19  C   UNL A   1      36.720  20.925  25.000  1.00  0.00     0.001 A 
ATOM     20  C   UNL A   1      38.141  22.702  25.772  1.00  0.00     0.001 A 
ATOM     21  C   UNL A   1      37.970  21.370  25.419  1.00  0.00     0.000 A 
ENDBRANCH  14  16
ENDBRANCH   7   9
ENDBRANCH   4   7
ENDBRANCH   2   3
ENDBRANCH   1   2
BRANCH   1  22
ATOM     22  C   UNL A   1      33.845  29.032  26.047  1.00  0.00     0.023 C 
BRANCH  22  23
ATOM     23  C   UNL A   1      33.438  29.228  27.502  1.00  0.00     0.116 C 
BRANCH  23  24
ATOM     24  N   UNL A   1      33.628  30.587  27.998  1.00  0.00    -0.352 N 
ATOM     25  C   UNL A   1      34.790  31.141  28.490  1.00  0.00     0.251 C 
ATOM     26  H   UNL A   1      32.838  31.175  27.978  1.00  0.00     0.163 HD
ATOM     27  O   UNL A   1      34.825  32.286  28.927  1.00  0.00    -0.269 OA
BRANCH  25  28
ATOM     28  C   UNL A   1      35.992  30.288  28.534  1.00  0.00     0.039 A 
ATOM     29  C   UNL A   1      36.852  30.272  27.433  1.00  0.00     0.014 A 
ATOM     30  C   UNL A   1      36.334  29.643  29.722  1.00  0.00     0.014 A 
ATOM     31  C   UNL A   1      38.114  29.689  27.561  1.00  0.00     0.010 A 
ATOM     32  C   UNL A   1      37.618  29.139  29.872  1.00  0.00     0.010 A 
ATOM     33  C   UNL A   1      38.526  29.172  28.799  1.00  0.00    -0.014 A 
BRANCH  33  34
ATOM     34  C   UNL A   1      39.899  28.659  29.024  1.00  0.00     0.031 A 
ATOM     35  C   UNL A   1      40.966  29.601  29.501  1.00  0.00     0.074 A 
ATOM     36  C   UNL A   1      40.218  27.397  28.676  1.00  0.00     0.049 A 
ATOM     37  N   UNL A   1      42.262  29.425  29.559  1.00  0.00    -0.248 NA
ATOM     38  C   UNL A   1      40.518  30.939  29.920  1.00  0.00     0.031 C 
ATOM     39  C   UNL A   1      39.288  26.393  28.155  1.00  0.00     0.029 A 
ATOM     40  N   UNL A   1      41.429  26.751  28.687  1.00  0.00    -0.354 N 
ATOM     41  C   UNL A   1      42.785  30.647  29.962  1.00  0.00     0.074 A 
ATOM     42  C   UNL A   1      41.673  31.561  30.102  1.00  0.00     0.031 C 
ATOM     43  C   UNL A   1      39.959  25.254  27.914  1.00  0.00     0.029 A 
ATOM     44  C   UNL A   1      41.371  25.460  28.220  1.00  0.00     0.049 A 
ATOM     45  H   UNL A   1      42.262  27.173  29.000  1.00  0.00     0.167 HD
ATOM     46  C   UNL A   1      44.074  30.977  30.206  1.00  0.00     0.031 A 
ATOM     47  C   UNL A   1      42.347  24.550  28.047  1.00  0.00     0.031 A 
ATOM     48  C   UNL A   1      45.172  30.053  30.117  1.00  0.00     0.049 A 
ATOM     49  C   UNL A   1      43.764  24.916  28.383  1.00  0.00     0.074 A 
ATOM     50  C   UNL A   1      46.506  30.267  30.418  1.00  0.00     0.029 A 
ATOM     51  N   UNL A   1      45.056  28.733  29.712  1.00  0.00    -0.354 N 
ATOM     52  N   UNL A   1      44.240  26.062  28.804  1.00  0.00    -0.248 NA
ATOM     53  C   UNL A   1      44.777  23.862  28.228  1.00  0.00     0.031 C 
ATOM     54  C   UNL A   1      47.202  29.078  30.171  1.00  0.00     0.029 A 
ATOM     55  C   UNL A   1      46.294  28.118  29.752  1.00  0.00     0.049 A 
ATOM     56  H   UNL A   1      44.217  28.299  29.435  1.00  0.00     0.167 HD
ATOM     57  C   UNL A   1      45.601  25.861  28.991  1.00  0.00     0.074 A 
ATOM     58  C   UNL A   1      45.874  24.481  28.642  1.00  0.00     0.031 C 
ATOM     59  C   UNL A   1      46.541  26.741  29.415  1.00  0.00     0.031 A 
BRANCH  46  60
ATOM     60  C   UNL A   1      44.355  32.404  30.581  1.00  0.00    -0.014 A 
ATOM     61  C   UNL A   1      44.641  33.371  29.604  1.00  0.00     0.009 A 
ATOM     62  C   UNL A   1      44.346  32.783  31.931  1.00  0.00     0.009 A 
ATOM     63  C   UNL A   1      44.965  34.676  29.976  1.00  0.00     0.001 A 
ATOM     64  C   UNL A   1      44.640  34.096  32.299  1.00  0.00     0.001 A 
ATOM     65  C   UNL A   1      44.964  35.038  31.323  1.00  0.00     0.000 A 
ENDBRANCH  46  60
BRANCH  47  66
ATOM     66  C   UNL A   1      42.011  23.190  27.553  1.00  0.00    -0.014 A 
ATOM     67  C   UNL A   1      42.226  22.857  26.207  1.00  0.00     0.009 A 
ATOM     68  C   UNL A   1      41.494  22.215  28.420  1.00  0.00     0.009 A 
ATOM     69  C   UNL A   1      41.911  21.582  25.732  1.00  0.00     0.001 A 
ATOM     70  C   UNL A   1      41.201  20.934  27.947  1.00  0.00     0.001 A 
ATOM     71  C   UNL A   1      41.403  20.620  26.605  1.00  0.00     0.000 A 
ENDBRANCH  47  66
BRANCH  59  72
ATOM     72  C   UNL A   1      47.942  26.229  29.573  1.00  0.00    -0.014 A 
ATOM     73  C   UNL A   1      48.425  25.807  30.820  1.00  0.00     0.009 A 
ATOM     74  C   UNL A   1      48.765  26.107  28.442  1.00  0.00     0.009 A 
ATOM     75  C   UNL A   1      49.716  25.288  30.934  1.00  0.00     0.001 A 
ATOM     76  C   UNL A   1      50.046  25.569  28.556  1.00  0.00     0.001 A 
ATOM     77  C   UNL A   1      50.522  25.164  29.802  1.00  0.00     0.000 A 
ENDBRANCH  59  72
ENDBRANCH  33  34
ENDBRANCH  25  28
ENDBRANCH  23  24
ENDBRANCH  22  23
ENDBRANCH   1  22
TORSDOF 13
ENDMDL
MODEL 3
REMARK VINA RESULT:     -11.1      3.429      7.889
REMARK SMILES C[C@H](C(=O)NCCCCNC(=O)c1ccc(-c2c3nc(c(-c4ccccc4)c4ccc([nH]4)c(-c4ccccc4)c4nc(c(-c5ccccc5)c5ccc2[nH]5)C=C4)C=C3)cc1)c1ccc(-c2ccccc2)c(F)c1
REMARK SMILES IDX 7 1 6 2 5 3 3 4 4 5 2 7 1 8 61 9 62 10 73 11 63 12 71 13
REMARK SMILES IDX 64 14 72 15 65 16 66 17 70 18 67 19 69 20 68 21 8 22 9 23
REMARK SMILES IDX 10 24 11 25 12 27 13 28 14 29 60 30 15 31 59 32 16 33 17 34
REMARK SMILES IDX 18 35 53 36 19 37 58 38 52 39 54 40 20 41 57 42 51 43 50 44
REMARK SMILES IDX 21 46 43 47 28 48 42 49 29 50 32 51 41 52 55 53 30 54 31 55
REMARK SMILES IDX 40 57 56 58 33 59 22 60 23 61 27 62 24 63 26 64 25 65 44 66
REMARK SMILES IDX 45 67 49 68 46 69 48 70 47 71 34 72 35 73 39 74 36 75 38 76
REMARK SMILES IDX 37 77
REMARK H PARENT 5 6 10 26 54 45 32 56
REMARK Flexibility Score: inf
ROOT
ATOM      1  C   UNL A   1      31.696  27.549  27.113  1.00  0.00     0.023 C 
ENDROOT
BRANCH   1   2
ATOM      2  C   UNL A   1      32.671  26.490  26.583  1.00  0.00     0.116 C 
BRANCH   2   3
ATOM      3  N   UNL A   1      32.010  25.210  26.440  1.00  0.00    -0.356 N 
ATOM      4  C   UNL A   1      31.294  24.618  25.448  1.00  0.00     0.227 C 
ATOM      5  O   UNL A   1      30.728  23.575  25.808  1.00  0.00    -0.274 OA
ATOM      6  H   UNL A   1      32.099  24.642  27.240  1.00  0.00     0.163 HD
BRANCH   4   7
ATOM      7  C   UNL A   1      31.269  25.060  23.962  1.00  0.00     0.105 C 
ATOM      8  C   UNL A   1      30.489  23.971  23.188  1.00  0.00     0.023 C 
BRANCH   7   9
ATOM      9  C   UNL A   1      30.738  26.457  23.630  1.00  0.00    -0.033 A 
ATOM     10  C   UNL A   1      31.541  27.549  23.265  1.00  0.00     0.005 A 
ATOM     11  C   UNL A   1      29.377  26.728  23.779  1.00  0.00     0.044 A 
ATOM     12  C   UNL A   1      30.986  28.814  22.975  1.00  0.00     0.012 A 
ATOM     13  C   UNL A   1      28.818  27.949  23.395  1.00  0.00     0.131 A 
ATOM     14  C   UNL A   1      29.598  29.031  22.973  1.00  0.00     0.017 A 
ATOM     15  F   UNL A   1      27.478  28.019  23.398  1.00  0.00    -0.206 F 
BRANCH  14  16
ATOM     16  C   UNL A   1      28.986  30.304  22.521  1.00  0.00    -0.015 A 
ATOM     17  C   UNL A   1      28.911  31.426  23.366  1.00  0.00     0.009 A 
ATOM     18  C   UNL A   1      28.517  30.469  21.202  1.00  0.00     0.009 A 
ATOM     19  C   UNL A   1      28.433  32.659  22.904  1.00  0.00     0.001 A 
ATOM     20  C   UNL A   1      28.054  31.701  20.733  1.00  0.00     0.001 A 
ATOM     21  C   UNL A   1      28.019  32.799  21.583  1.00  0.00     0.000 A 
ENDBRANCH  14  16
ENDBRANCH   7   9
ENDBRANCH   4   7
ENDBRANCH   2   3
ENDBRANCH   1   2
BRANCH   1  22
ATOM     22  C   UNL A   1      32.098  28.989  26.794  1.00  0.00     0.023 C 
BRANCH  22  23
ATOM     23  C   UNL A   1      33.518  29.337  27.220  1.00  0.00     0.116 C 
BRANCH  23  24
ATOM     24  N   UNL A   1      33.653  30.654  27.833  1.00  0.00    -0.352 N 
ATOM     25  C   UNL A   1      34.764  31.170  28.466  1.00  0.00     0.251 C 
ATOM     26  H   UNL A   1      32.863  31.240  27.790  1.00  0.00     0.163 HD
ATOM     27  O   UNL A   1      34.752  32.278  28.991  1.00  0.00    -0.269 OA
BRANCH  25  28
ATOM     28  C   UNL A   1      35.965  30.318  28.549  1.00  0.00     0.039 A 
ATOM     29  C   UNL A   1      36.871  30.320  27.486  1.00  0.00     0.014 A 
ATOM     30  C   UNL A   1      36.255  29.655  29.741  1.00  0.00     0.014 A 
ATOM     31  C   UNL A   1      38.127  29.737  27.660  1.00  0.00     0.010 A 
ATOM     32  C   UNL A   1      37.533  29.151  29.939  1.00  0.00     0.010 A 
ATOM     33  C   UNL A   1      38.486  29.201  28.907  1.00  0.00    -0.014 A 
BRANCH  33  34
ATOM     34  C   UNL A   1      39.849  28.686  29.184  1.00  0.00     0.031 A 
ATOM     35  C   UNL A   1      40.878  29.609  29.771  1.00  0.00     0.074 A 
ATOM     36  C   UNL A   1      40.200  27.447  28.789  1.00  0.00     0.049 A 
ATOM     37  N   UNL A   1      42.169  29.439  29.894  1.00  0.00    -0.248 NA
ATOM     38  C   UNL A   1      40.393  30.920  30.233  1.00  0.00     0.031 C 
ATOM     39  C   UNL A   1      39.312  26.466  28.162  1.00  0.00     0.029 A 
ATOM     40  N   UNL A   1      41.415  26.810  28.836  1.00  0.00    -0.354 N 
ATOM     41  C   UNL A   1      42.656  30.642  30.391  1.00  0.00     0.074 A 
ATOM     42  C   UNL A   1      41.529  31.539  30.514  1.00  0.00     0.031 C 
ATOM     43  C   UNL A   1      40.006  25.346  27.902  1.00  0.00     0.029 A 
ATOM     44  C   UNL A   1      41.397  25.545  28.300  1.00  0.00     0.049 A 
ATOM     45  H   UNL A   1      42.225  27.220  29.218  1.00  0.00     0.167 HD
ATOM     46  C   UNL A   1      43.926  30.967  30.726  1.00  0.00     0.031 A 
ATOM     47  C   UNL A   1      42.390  24.652  28.136  1.00  0.00     0.031 A 
ATOM     48  C   UNL A   1      45.037  30.057  30.653  1.00  0.00     0.049 A 
ATOM     49  C   UNL A   1      43.782  25.010  28.572  1.00  0.00     0.074 A 
ATOM     50  C   UNL A   1      46.349  30.264  31.041  1.00  0.00     0.029 A 
ATOM     51  N   UNL A   1      44.957  28.759  30.172  1.00  0.00    -0.354 N 
ATOM     52  N   UNL A   1      44.222  26.135  29.079  1.00  0.00    -0.248 NA
ATOM     53  C   UNL A   1      44.813  23.972  28.420  1.00  0.00     0.031 C 
ATOM     54  C   UNL A   1      47.069  29.095  30.773  1.00  0.00     0.029 A 
ATOM     55  C   UNL A   1      46.197  28.152  30.251  1.00  0.00     0.049 A 
ATOM     56  H   UNL A   1      44.139  28.334  29.825  1.00  0.00     0.167 HD
ATOM     57  C   UNL A   1      45.572  25.934  29.333  1.00  0.00     0.074 A 
ATOM     58  C   UNL A   1      45.878  24.576  28.929  1.00  0.00     0.031 C 
ATOM     59  C   UNL A   1      46.476  26.796  29.857  1.00  0.00     0.031 A 
BRANCH  46  60
ATOM     60  C   UNL A   1      44.171  32.374  31.191  1.00  0.00    -0.014 A 
ATOM     61  C   UNL A   1      44.013  32.733  32.540  1.00  0.00     0.009 A 
ATOM     62  C   UNL A   1      44.550  33.356  30.265  1.00  0.00     0.009 A 
ATOM     63  C   UNL A   1      44.179  34.060  32.940  1.00  0.00     0.001 A 
ATOM     64  C   UNL A   1      44.745  34.676  30.673  1.00  0.00     0.001 A 
ATOM     65  C   UNL A   1      44.545  35.030  32.007  1.00  0.00     0.000 A 
ENDBRANCH  46  60
BRANCH  47  66
ATOM     66  C   UNL A   1      42.097  23.318  27.551  1.00  0.00    -0.014 A 
ATOM     67  C   UNL A   1      42.399  23.057  26.206  1.00  0.00     0.009 A 
ATOM     68  C   UNL A   1      41.534  22.298  28.333  1.00  0.00     0.009 A 
ATOM     69  C   UNL A   1      42.125  21.806  25.648  1.00  0.00     0.001 A 
ATOM     70  C   UNL A   1      41.281  21.041  27.777  1.00  0.00     0.001 A 
ATOM     71  C   UNL A   1      41.570  20.798  26.436  1.00  0.00     0.000 A 
ENDBRANCH  47  66
BRANCH  59  72
ATOM     72  C   UNL A   1      47.871  26.286  30.069  1.00  0.00    -0.014 A 
ATOM     73  C   UNL A   1      48.833  26.353  29.050  1.00  0.00     0.009 A 
ATOM     74  C   UNL A   1      48.242  25.795  31.330  1.00  0.00     0.009 A 
ATOM     75  C   UNL A   1      50.137  25.919  29.287  1.00  0.00     0.001 A 
ATOM     76  C   UNL A   1      49.553  25.382  31.570  1.00  0.00     0.001 A 
ATOM     77  C   UNL A   1      50.498  25.440  30.547  1.00  0.00     0.000 A 
ENDBRANCH  59  72
ENDBRANCH  33  34
ENDBRANCH  25  28
ENDBRANCH  23  24
ENDBRANCH  22  23
ENDBRANCH   1  22
TORSDOF 13
ENDMDL
