MODEL 1
REMARK VINA RESULT:     -14.0      0.000      0.000
REMARK SMILES Cc1c(C(=O)NCCCCNC(=O)c2ccc(-c3c4nc(c(-c5ccccc5)c5ccc([nH]5)c(-c5ccccc5)c5nc(c(-c6ccccc6)c6ccc3[nH]6)C=C5)C=C4)cc2)cccc1-n1c(C)cc(/C=C2/C(=O)NC(=S)N=C2O)c1C
REMARK SMILES IDX 8 1 7 2 6 3 4 4 5 5 3 7 1 8 2 9 65 10 62 11 64 12 63 13
REMARK SMILES IDX 66 14 67 15 81 16 68 17 69 18 70 19 82 20 71 21 72 22 73 23
REMARK SMILES IDX 79 24 74 25 75 26 78 27 76 28 77 30 80 31 9 33 10 34 11 35
REMARK SMILES IDX 12 36 13 38 14 39 15 40 61 41 16 42 60 43 17 44 18 45 19 46
REMARK SMILES IDX 54 47 20 48 59 49 53 50 55 51 21 52 58 53 52 54 51 55 22 57
REMARK SMILES IDX 44 58 29 59 43 60 30 61 33 62 42 63 56 64 31 65 32 66 41 68
REMARK SMILES IDX 57 69 34 70 23 71 24 72 28 73 25 74 27 75 26 76 45 77 46 78
REMARK SMILES IDX 50 79 47 80 49 81 48 82 35 83 36 84 40 85 37 86 39 87 38 88
REMARK H PARENT 6 6 75 29 80 32 11 37 55 56 33 67
REMARK Flexibility Score: inf
ROOT
ATOM      1  C   UNL A   1      32.906  29.396  27.025  1.00  0.00     0.023 C 
ENDROOT
BRANCH   1   2
ATOM      2  C   UNL A   1      34.265  28.810  26.590  1.00  0.00     0.116 C 
BRANCH   2   3
ATOM      3  N   UNL A   1      34.402  28.791  25.149  1.00  0.00    -0.352 N 
ATOM      4  C   UNL A   1      33.839  28.150  24.081  1.00  0.00     0.251 C 
ATOM      5  O   UNL A   1      34.296  28.545  22.998  1.00  0.00    -0.269 OA
ATOM      6  H   UNL A   1      35.101  29.419  24.854  1.00  0.00     0.163 HD
BRANCH   4   7
ATOM      7  C   UNL A   1      32.766  27.082  24.033  1.00  0.00     0.044 A 
ATOM      8  C   UNL A   1      34.012  25.025  24.936  1.00  0.00     0.047 C 
ATOM      9  C   UNL A   1      32.810  25.712  24.379  1.00  0.00    -0.014 A 
ATOM     10  C   UNL A   1      31.665  24.908  24.105  1.00  0.00     0.049 A 
ATOM     11  C   UNL A   1      31.576  27.550  23.407  1.00  0.00     0.014 A 
ATOM     12  C   UNL A   1      30.522  25.396  23.472  1.00  0.00     0.027 A 
ATOM     13  C   UNL A   1      30.481  26.731  23.120  1.00  0.00     0.003 A 
BRANCH  10  14
ATOM     14  N   UNL A   1      31.703  23.510  24.331  1.00  0.00    -0.318 N 
ATOM     15  C   UNL A   1      31.539  22.895  25.559  1.00  0.00     0.020 A 
ATOM     16  C   UNL A   1      32.172  22.576  23.406  1.00  0.00     0.027 A 
ATOM     17  C   UNL A   1      31.285  23.639  26.823  1.00  0.00     0.065 C 
ATOM     18  C   UNL A   1      31.695  21.540  25.356  1.00  0.00     0.031 A 
ATOM     19  C   UNL A   1      32.073  21.328  24.002  1.00  0.00    -0.003 A 
ATOM     20  C   UNL A   1      32.722  23.018  22.088  1.00  0.00     0.065 C 
BRANCH  19  21
ATOM     21  C   UNL A   1      32.466  20.049  23.502  1.00  0.00     0.029 C 
ATOM     22  C   UNL A   1      32.759  18.884  24.110  1.00  0.00     0.102 C 
ATOM     23  C   UNL A   1      32.978  17.721  23.210  1.00  0.00     0.262 C 
ATOM     24  C   UNL A   1      32.823  18.540  25.530  1.00  0.00     0.226 C 
ATOM     25  O   UNL A   1      33.186  17.807  22.005  1.00  0.00    -0.269 OA
ATOM     26  N   UNL A   1      32.884  16.508  23.837  1.00  0.00    -0.297 N 
ATOM     27  N   UNL A   1      32.787  17.362  26.038  1.00  0.00    -0.184 NA
ATOM     28  C   UNL A   1      32.715  16.296  25.182  1.00  0.00     0.203 C 
ATOM     29  H   UNL A   1      32.942  15.709  23.265  1.00  0.00     0.172 HD
ATOM     30  S   UNL A   1      32.489  14.716  25.696  1.00  0.00    -0.038 S 
BRANCH  24  31
ATOM     31  O   UNL A   1      33.006  19.551  26.381  1.00  0.00    -0.493 OA
ATOM     32  H   UNL A   1      33.481  19.413  27.177  1.00  0.00     0.295 HD
ENDBRANCH  24  31
ENDBRANCH  19  21
ENDBRANCH  10  14
ENDBRANCH   4   7
ENDBRANCH   2   3
ENDBRANCH   1   2
BRANCH   1  33
ATOM     33  C   UNL A   1      32.886  30.898  27.301  1.00  0.00     0.023 C 
BRANCH  33  34
ATOM     34  C   UNL A   1      34.277  31.478  27.469  1.00  0.00     0.116 C 
BRANCH  34  35
ATOM     35  N   UNL A   1      34.610  31.974  28.796  1.00  0.00    -0.352 N 
ATOM     36  C   UNL A   1      35.481  31.434  29.735  1.00  0.00     0.251 C 
ATOM     37  H   UNL A   1      34.158  32.806  29.065  1.00  0.00     0.163 HD
ATOM     38  O   UNL A   1      35.560  31.928  30.848  1.00  0.00    -0.269 OA
BRANCH  36  39
ATOM     39  C   UNL A   1      36.422  30.347  29.336  1.00  0.00     0.039 A 
ATOM     40  C   UNL A   1      36.665  29.321  30.256  1.00  0.00     0.014 A 
ATOM     41  C   UNL A   1      37.223  30.457  28.206  1.00  0.00     0.014 A 
ATOM     42  C   UNL A   1      37.863  28.611  30.189  1.00  0.00     0.010 A 
ATOM     43  C   UNL A   1      38.469  29.869  28.217  1.00  0.00     0.010 A 
ATOM     44  C   UNL A   1      38.814  28.990  29.243  1.00  0.00    -0.014 A 
BRANCH  44  45
ATOM     45  C   UNL A   1      40.210  28.578  29.285  1.00  0.00     0.031 A 
ATOM     46  C   UNL A   1      40.618  27.302  28.672  1.00  0.00     0.074 A 
ATOM     47  C   UNL A   1      41.140  29.398  29.820  1.00  0.00     0.049 A 
ATOM     48  N   UNL A   1      41.695  26.664  28.979  1.00  0.00    -0.248 NA
ATOM     49  C   UNL A   1      39.799  26.612  27.683  1.00  0.00     0.031 C 
ATOM     50  C   UNL A   1      42.594  29.281  29.744  1.00  0.00     0.029 A 
ATOM     51  N   UNL A   1      40.926  30.402  30.762  1.00  0.00    -0.354 N 
ATOM     52  C   UNL A   1      41.847  25.645  28.072  1.00  0.00     0.074 A 
ATOM     53  C   UNL A   1      40.613  25.616  27.323  1.00  0.00     0.031 C 
ATOM     54  C   UNL A   1      43.136  29.961  30.767  1.00  0.00     0.029 A 
ATOM     55  C   UNL A   1      42.047  30.416  31.615  1.00  0.00     0.049 A 
ATOM     56  H   UNL A   1      40.138  30.991  30.820  1.00  0.00     0.167 HD
ATOM     57  C   UNL A   1      43.045  25.004  27.982  1.00  0.00     0.031 A 
ATOM     58  C   UNL A   1      41.894  30.101  32.935  1.00  0.00     0.031 A 
ATOM     59  C   UNL A   1      43.986  25.455  29.008  1.00  0.00     0.049 A 
ATOM     60  C   UNL A   1      42.580  28.812  33.352  1.00  0.00     0.074 A 
ATOM     61  C   UNL A   1      45.077  26.308  29.021  1.00  0.00     0.029 A 
ATOM     62  N   UNL A   1      43.657  25.236  30.336  1.00  0.00    -0.354 N 
ATOM     63  N   UNL A   1      43.244  28.029  32.546  1.00  0.00    -0.248 NA
ATOM     64  C   UNL A   1      42.483  28.258  34.705  1.00  0.00     0.031 C 
ATOM     65  C   UNL A   1      45.382  26.617  30.381  1.00  0.00     0.029 A 
ATOM     66  C   UNL A   1      44.489  25.934  31.187  1.00  0.00     0.049 A 
ATOM     67  H   UNL A   1      42.921  24.654  30.635  1.00  0.00     0.167 HD
ATOM     68  C   UNL A   1      43.609  26.892  33.214  1.00  0.00     0.074 A 
ATOM     69  C   UNL A   1      43.117  27.082  34.566  1.00  0.00     0.031 C 
ATOM     70  C   UNL A   1      44.251  25.848  32.616  1.00  0.00     0.031 A 
BRANCH  57  71
ATOM     71  C   UNL A   1      43.427  24.109  26.831  1.00  0.00    -0.014 A 
ATOM     72  C   UNL A   1      43.310  22.716  26.968  1.00  0.00     0.009 A 
ATOM     73  C   UNL A   1      43.944  24.566  25.606  1.00  0.00     0.009 A 
ATOM     74  C   UNL A   1      43.765  21.832  25.978  1.00  0.00     0.001 A 
ATOM     75  C   UNL A   1      44.440  23.691  24.631  1.00  0.00     0.001 A 
ATOM     76  C   UNL A   1      44.358  22.320  24.822  1.00  0.00     0.000 A 
ENDBRANCH  57  71
BRANCH  58  77
ATOM     77  C   UNL A   1      40.604  30.605  33.494  1.00  0.00    -0.014 A 
ATOM     78  C   UNL A   1      40.469  31.996  33.694  1.00  0.00     0.009 A 
ATOM     79  C   UNL A   1      39.444  29.821  33.452  1.00  0.00     0.009 A 
ATOM     80  C   UNL A   1      39.210  32.601  33.700  1.00  0.00     0.001 A 
ATOM     81  C   UNL A   1      38.183  30.430  33.482  1.00  0.00     0.001 A 
ATOM     82  C   UNL A   1      38.068  31.818  33.559  1.00  0.00     0.000 A 
ENDBRANCH  58  77
BRANCH  70  83
ATOM     83  C   UNL A   1      44.688  24.625  33.365  1.00  0.00    -0.014 A 
ATOM     84  C   UNL A   1      46.031  24.404  33.701  1.00  0.00     0.009 A 
ATOM     85  C   UNL A   1      43.772  23.590  33.640  1.00  0.00     0.009 A 
ATOM     86  C   UNL A   1      46.431  23.221  34.334  1.00  0.00     0.001 A 
ATOM     87  C   UNL A   1      44.173  22.400  34.251  1.00  0.00     0.001 A 
ATOM     88  C   UNL A   1      45.503  22.220  34.608  1.00  0.00     0.000 A 
ENDBRANCH  70  83
ENDBRANCH  44  45
ENDBRANCH  36  39
ENDBRANCH  34  35
ENDBRANCH  33  34
ENDBRANCH   1  33
TORSDOF 14
ENDMDL
MODEL 2
REMARK VINA RESULT:     -13.9      1.802      2.983
REMARK SMILES Cc1c(C(=O)NCCCCNC(=O)c2ccc(-c3c4nc(c(-c5ccccc5)c5ccc([nH]5)c(-c5ccccc5)c5nc(c(-c6ccccc6)c6ccc3[nH]6)C=C5)C=C4)cc2)cccc1-n1c(C)cc(/C=C2/C(=O)NC(=S)N=C2O)c1C
REMARK SMILES IDX 8 1 7 2 6 3 4 4 5 5 3 7 1 8 2 9 65 10 62 11 64 12 63 13
REMARK SMILES IDX 66 14 67 15 81 16 68 17 69 18 70 19 82 20 71 21 72 22 73 23
REMARK SMILES IDX 79 24 74 25 75 26 78 27 76 28 77 30 80 31 9 33 10 34 11 35
REMARK SMILES IDX 12 36 13 38 14 39 15 40 61 41 16 42 60 43 17 44 18 45 19 46
REMARK SMILES IDX 54 47 20 48 59 49 53 50 55 51 21 52 58 53 52 54 51 55 22 57
REMARK SMILES IDX 44 58 29 59 43 60 30 61 33 62 42 63 56 64 31 65 32 66 41 68
REMARK SMILES IDX 57 69 34 70 23 71 24 72 28 73 25 74 27 75 26 76 45 77 46 78
REMARK SMILES IDX 50 79 47 80 49 81 48 82 35 83 36 84 40 85 37 86 39 87 38 88
REMARK H PARENT 6 6 75 29 80 32 11 37 55 56 33 67
REMARK Flexibility Score: inf
ROOT
ATOM      1  C   UNL A   1      32.656  31.129  26.503  1.00  0.00     0.023 C 
ENDROOT
BRANCH   1   2
ATOM      2  C   UNL A   1      31.528  30.216  25.979  1.00  0.00     0.116 C 
BRANCH   2   3
ATOM      3  N   UNL A   1      31.726  29.865  24.589  1.00  0.00    -0.352 N 
ATOM      4  C   UNL A   1      32.163  28.792  23.863  1.00  0.00     0.251 C 
ATOM      5  O   UNL A   1      32.091  28.989  22.640  1.00  0.00    -0.269 OA
ATOM      6  H   UNL A   1      31.476  30.612  23.999  1.00  0.00     0.163 HD
BRANCH   4   7
ATOM      7  C   UNL A   1      32.685  27.446  24.320  1.00  0.00     0.044 A 
ATOM      8  C   UNL A   1      31.032  25.822  23.212  1.00  0.00     0.047 C 
ATOM      9  C   UNL A   1      32.211  26.138  24.072  1.00  0.00    -0.014 A 
ATOM     10  C   UNL A   1      32.837  25.051  24.748  1.00  0.00     0.049 A 
ATOM     11  C   UNL A   1      33.750  27.578  25.257  1.00  0.00     0.014 A 
ATOM     12  C   UNL A   1      33.866  25.218  25.675  1.00  0.00     0.027 A 
ATOM     13  C   UNL A   1      34.324  26.496  25.931  1.00  0.00     0.003 A 
BRANCH  10  14
ATOM     14  N   UNL A   1      32.324  23.737  24.617  1.00  0.00    -0.318 N 
ATOM     15  C   UNL A   1      31.343  23.180  25.418  1.00  0.00     0.020 A 
ATOM     16  C   UNL A   1      32.913  22.735  23.845  1.00  0.00     0.027 A 
ATOM     17  C   UNL A   1      30.680  23.909  26.533  1.00  0.00     0.065 C 
ATOM     18  C   UNL A   1      31.168  21.879  24.996  1.00  0.00     0.031 A 
ATOM     19  C   UNL A   1      32.137  21.596  23.994  1.00  0.00    -0.003 A 
ATOM     20  C   UNL A   1      34.194  22.989  23.115  1.00  0.00     0.065 C 
BRANCH  19  21
ATOM     21  C   UNL A   1      32.333  20.287  23.457  1.00  0.00     0.029 C 
ATOM     22  C   UNL A   1      32.644  19.107  24.025  1.00  0.00     0.102 C 
ATOM     23  C   UNL A   1      32.603  17.925  23.124  1.00  0.00     0.262 C 
ATOM     24  C   UNL A   1      32.943  18.768  25.415  1.00  0.00     0.226 C 
ATOM     25  O   UNL A   1      32.590  17.986  21.900  1.00  0.00    -0.269 OA
ATOM     26  N   UNL A   1      32.535  16.727  23.782  1.00  0.00    -0.297 N 
ATOM     27  N   UNL A   1      32.913  17.600  25.946  1.00  0.00    -0.184 NA
ATOM     28  C   UNL A   1      32.602  16.536  25.140  1.00  0.00     0.203 C 
ATOM     29  H   UNL A   1      32.426  15.922  23.227  1.00  0.00     0.172 HD
ATOM     30  S   UNL A   1      32.356  14.983  25.720  1.00  0.00    -0.038 S 
BRANCH  24  31
ATOM     31  O   UNL A   1      33.357  19.766  26.197  1.00  0.00    -0.493 OA
ATOM     32  H   UNL A   1      34.067  20.312  25.924  1.00  0.00     0.295 HD
ENDBRANCH  24  31
ENDBRANCH  19  21
ENDBRANCH  10  14
ENDBRANCH   4   7
ENDBRANCH   2   3
ENDBRANCH   1   2
BRANCH   1  33
ATOM     33  C   UNL A   1      33.742  30.440  27.326  1.00  0.00     0.023 C 
BRANCH  33  34
ATOM     34  C   UNL A   1      34.511  31.409  28.204  1.00  0.00     0.116 C 
BRANCH  34  35
ATOM     35  N   UNL A   1      33.812  32.627  28.583  1.00  0.00    -0.352 N 
ATOM     36  C   UNL A   1      34.157  33.566  29.548  1.00  0.00     0.251 C 
ATOM     37  H   UNL A   1      32.980  32.812  28.089  1.00  0.00     0.163 HD
ATOM     38  O   UNL A   1      33.393  34.481  29.809  1.00  0.00    -0.269 OA
BRANCH  36  39
ATOM     39  C   UNL A   1      35.520  33.541  30.154  1.00  0.00     0.039 A 
ATOM     40  C   UNL A   1      36.555  34.180  29.462  1.00  0.00     0.014 A 
ATOM     41  C   UNL A   1      35.823  32.715  31.229  1.00  0.00     0.014 A 
ATOM     42  C   UNL A   1      37.871  33.765  29.663  1.00  0.00     0.010 A 
ATOM     43  C   UNL A   1      37.096  32.195  31.328  1.00  0.00     0.010 A 
ATOM     44  C   UNL A   1      38.110  32.678  30.501  1.00  0.00    -0.014 A 
BRANCH  44  45
ATOM     45  C   UNL A   1      39.363  31.935  30.532  1.00  0.00     0.031 A 
ATOM     46  C   UNL A   1      39.476  30.657  29.808  1.00  0.00     0.074 A 
ATOM     47  C   UNL A   1      40.439  32.452  31.163  1.00  0.00     0.049 A 
ATOM     48  N   UNL A   1      40.352  29.751  30.075  1.00  0.00    -0.248 NA
ATOM     49  C   UNL A   1      38.559  30.278  28.740  1.00  0.00     0.031 C 
ATOM     50  C   UNL A   1      41.823  31.990  31.107  1.00  0.00     0.029 A 
ATOM     51  N   UNL A   1      40.432  33.391  32.192  1.00  0.00    -0.354 N 
ATOM     52  C   UNL A   1      40.293  28.809  29.077  1.00  0.00     0.074 A 
ATOM     53  C   UNL A   1      39.123  29.150  28.303  1.00  0.00     0.031 C 
ATOM     54  C   UNL A   1      42.468  32.424  32.202  1.00  0.00     0.029 A 
ATOM     55  C   UNL A   1      41.485  33.055  33.066  1.00  0.00     0.049 A 
ATOM     56  H   UNL A   1      39.809  34.147  32.291  1.00  0.00     0.167 HD
ATOM     57  C   UNL A   1      41.304  27.905  28.952  1.00  0.00     0.031 A 
ATOM     58  C   UNL A   1      41.203  32.672  34.347  1.00  0.00     0.031 A 
ATOM     59  C   UNL A   1      42.280  28.020  30.036  1.00  0.00     0.049 A 
ATOM     60  C   UNL A   1      41.539  31.223  34.652  1.00  0.00     0.074 A 
ATOM     61  C   UNL A   1      43.543  28.575  30.153  1.00  0.00     0.029 A 
ATOM     62  N   UNL A   1      41.850  27.772  31.329  1.00  0.00    -0.354 N 
ATOM     63  N   UNL A   1      42.028  30.375  33.788  1.00  0.00    -0.248 NA
ATOM     64  C   UNL A   1      41.251  30.592  35.943  1.00  0.00     0.031 C 
ATOM     65  C   UNL A   1      43.853  28.679  31.542  1.00  0.00     0.029 A 
ATOM     66  C   UNL A   1      42.788  28.167  32.260  1.00  0.00     0.049 A 
ATOM     67  H   UNL A   1      40.983  27.364  31.555  1.00  0.00     0.167 HD
ATOM     68  C   UNL A   1      42.078  29.128  34.352  1.00  0.00     0.074 A 
ATOM     69  C   UNL A   1      41.587  29.313  35.705  1.00  0.00     0.031 C 
ATOM     70  C   UNL A   1      42.474  28.017  33.669  1.00  0.00     0.031 A 
BRANCH  57  71
ATOM     71  C   UNL A   1      41.508  27.049  27.728  1.00  0.00    -0.014 A 
ATOM     72  C   UNL A   1      41.538  25.650  27.857  1.00  0.00     0.009 A 
ATOM     73  C   UNL A   1      41.716  27.552  26.431  1.00  0.00     0.009 A 
ATOM     74  C   UNL A   1      41.847  24.811  26.777  1.00  0.00     0.001 A 
ATOM     75  C   UNL A   1      42.068  26.725  25.357  1.00  0.00     0.001 A 
ATOM     76  C   UNL A   1      42.142  25.351  25.532  1.00  0.00     0.000 A 
ENDBRANCH  57  71
BRANCH  58  77
ATOM     77  C   UNL A   1      40.050  33.425  34.924  1.00  0.00    -0.014 A 
ATOM     78  C   UNL A   1      38.748  33.032  34.546  1.00  0.00     0.009 A 
ATOM     79  C   UNL A   1      40.203  34.208  36.076  1.00  0.00     0.009 A 
ATOM     80  C   UNL A   1      37.653  33.286  35.376  1.00  0.00     0.001 A 
ATOM     81  C   UNL A   1      39.099  34.481  36.892  1.00  0.00     0.001 A 
ATOM     82  C   UNL A   1      37.838  33.982  36.567  1.00  0.00     0.000 A 
ENDBRANCH  58  77
BRANCH  70  83
ATOM     83  C   UNL A   1      42.569  26.663  34.306  1.00  0.00    -0.014 A 
ATOM     84  C   UNL A   1      43.645  25.800  34.053  1.00  0.00     0.009 A 
ATOM     85  C   UNL A   1      41.505  26.160  35.082  1.00  0.00     0.009 A 
ATOM     86  C   UNL A   1      43.680  24.511  34.597  1.00  0.00     0.001 A 
ATOM     87  C   UNL A   1      41.527  24.867  35.607  1.00  0.00     0.001 A 
ATOM     88  C   UNL A   1      42.621  24.045  35.372  1.00  0.00     0.000 A 
ENDBRANCH  70  83
ENDBRANCH  44  45
ENDBRANCH  36  39
ENDBRANCH  34  35
ENDBRANCH  33  34
ENDBRANCH   1  33
TORSDOF 14
ENDMDL
MODEL 3
REMARK VINA RESULT:     -13.8      2.528      3.321
REMARK SMILES Cc1c(C(=O)NCCCCNC(=O)c2ccc(-c3c4nc(c(-c5ccccc5)c5ccc([nH]5)c(-c5ccccc5)c5nc(c(-c6ccccc6)c6ccc3[nH]6)C=C5)C=C4)cc2)cccc1-n1c(C)cc(/C=C2/C(=O)NC(=S)N=C2O)c1C
REMARK SMILES IDX 8 1 7 2 6 3 4 4 5 5 3 7 1 8 2 9 65 10 62 11 64 12 63 13
REMARK SMILES IDX 66 14 67 15 81 16 68 17 69 18 70 19 82 20 71 21 72 22 73 23
REMARK SMILES IDX 79 24 74 25 75 26 78 27 76 28 77 30 80 31 9 33 10 34 11 35
REMARK SMILES IDX 12 36 13 38 14 39 15 40 61 41 16 42 60 43 17 44 18 45 19 46
REMARK SMILES IDX 54 47 20 48 59 49 53 50 55 51 21 52 58 53 52 54 51 55 22 57
REMARK SMILES IDX 44 58 29 59 43 60 30 61 33 62 42 63 56 64 31 65 32 66 41 68
REMARK SMILES IDX 57 69 34 70 23 71 24 72 28 73 25 74 27 75 26 76 45 77 46 78
REMARK SMILES IDX 50 79 47 80 49 81 48 82 35 83 36 84 40 85 37 86 39 87 38 88
REMARK H PARENT 6 6 75 29 80 32 11 37 55 56 33 67
REMARK Flexibility Score: inf
ROOT
ATOM      1  C   UNL A   1      31.776  29.240  26.196  1.00  0.00     0.023 C 
ENDROOT
BRANCH   1   2
ATOM      2  C   UNL A   1      32.791  28.165  25.755  1.00  0.00     0.116 C 
BRANCH   2   3
ATOM      3  N   UNL A   1      33.134  28.297  24.355  1.00  0.00    -0.352 N 
ATOM      4  C   UNL A   1      33.363  27.482  23.282  1.00  0.00     0.251 C 
ATOM      5  O   UNL A   1      33.583  28.122  22.241  1.00  0.00    -0.269 OA
ATOM      6  H   UNL A   1      33.231  29.245  24.105  1.00  0.00     0.163 HD
BRANCH   4   7
ATOM      7  C   UNL A   1      33.370  25.971  23.182  1.00  0.00     0.044 A 
ATOM      8  C   UNL A   1      34.803  25.302  25.206  1.00  0.00     0.047 C 
ATOM      9  C   UNL A   1      33.997  24.995  23.987  1.00  0.00    -0.014 A 
ATOM     10  C   UNL A   1      33.934  23.632  23.573  1.00  0.00     0.049 A 
ATOM     11  C   UNL A   1      32.737  25.514  21.991  1.00  0.00     0.014 A 
ATOM     12  C   UNL A   1      33.321  23.221  22.389  1.00  0.00     0.027 A 
ATOM     13  C   UNL A   1      32.719  24.174  21.592  1.00  0.00     0.003 A 
BRANCH  10  14
ATOM     14  N   UNL A   1      34.641  22.634  24.288  1.00  0.00    -0.318 N 
ATOM     15  C   UNL A   1      34.210  22.032  25.456  1.00  0.00     0.020 A 
ATOM     16  C   UNL A   1      35.980  22.308  24.067  1.00  0.00     0.027 A 
ATOM     17  C   UNL A   1      32.917  22.355  26.119  1.00  0.00     0.065 C 
ATOM     18  C   UNL A   1      35.203  21.160  25.851  1.00  0.00     0.031 A 
ATOM     19  C   UNL A   1      36.312  21.313  24.973  1.00  0.00    -0.003 A 
ATOM     20  C   UNL A   1      36.789  23.052  23.053  1.00  0.00     0.065 C 
BRANCH  19  21
ATOM     21  C   UNL A   1      37.567  20.669  25.197  1.00  0.00     0.029 C 
ATOM     22  C   UNL A   1      38.731  21.100  25.719  1.00  0.00     0.102 C 
ATOM     23  C   UNL A   1      39.772  20.059  25.924  1.00  0.00     0.262 C 
ATOM     24  C   UNL A   1      39.128  22.423  26.200  1.00  0.00     0.226 C 
ATOM     25  O   UNL A   1      39.752  18.946  25.410  1.00  0.00    -0.269 OA
ATOM     26  N   UNL A   1      40.765  20.430  26.791  1.00  0.00    -0.297 N 
ATOM     27  N   UNL A   1      40.117  22.696  26.971  1.00  0.00    -0.184 NA
ATOM     28  C   UNL A   1      40.921  21.663  27.374  1.00  0.00     0.203 C 
ATOM     29  H   UNL A   1      41.433  19.744  27.019  1.00  0.00     0.172 HD
ATOM     30  S   UNL A   1      42.139  21.834  28.512  1.00  0.00    -0.038 S 
BRANCH  24  31
ATOM     31  O   UNL A   1      38.432  23.461  25.734  1.00  0.00    -0.493 OA
ATOM     32  H   UNL A   1      38.860  24.123  25.228  1.00  0.00     0.295 HD
ENDBRANCH  24  31
ENDBRANCH  19  21
ENDBRANCH  10  14
ENDBRANCH   4   7
ENDBRANCH   2   3
ENDBRANCH   1   2
BRANCH   1  33
ATOM     33  C   UNL A   1      32.369  30.487  26.848  1.00  0.00     0.023 C 
BRANCH  33  34
ATOM     34  C   UNL A   1      33.795  30.276  27.320  1.00  0.00     0.116 C 
BRANCH  34  35
ATOM     35  N   UNL A   1      34.319  31.269  28.245  1.00  0.00    -0.352 N 
ATOM     36  C   UNL A   1      35.464  31.210  29.032  1.00  0.00     0.251 C 
ATOM     37  H   UNL A   1      33.792  32.097  28.325  1.00  0.00     0.163 HD
ATOM     38  O   UNL A   1      35.697  32.098  29.836  1.00  0.00    -0.269 OA
BRANCH  36  39
ATOM     39  C   UNL A   1      36.477  30.143  28.787  1.00  0.00     0.039 A 
ATOM     40  C   UNL A   1      36.714  29.219  29.812  1.00  0.00     0.014 A 
ATOM     41  C   UNL A   1      37.338  30.192  27.698  1.00  0.00     0.014 A 
ATOM     42  C   UNL A   1      37.946  28.570  29.876  1.00  0.00     0.010 A 
ATOM     43  C   UNL A   1      38.608  29.674  27.831  1.00  0.00     0.010 A 
ATOM     44  C   UNL A   1      38.932  28.911  28.953  1.00  0.00    -0.014 A 
BRANCH  44  45
ATOM     45  C   UNL A   1      40.342  28.579  29.109  1.00  0.00     0.031 A 
ATOM     46  C   UNL A   1      40.888  27.373  28.462  1.00  0.00     0.074 A 
ATOM     47  C   UNL A   1      41.161  29.413  29.785  1.00  0.00     0.049 A 
ATOM     48  N   UNL A   1      41.969  26.779  28.835  1.00  0.00    -0.248 NA
ATOM     49  C   UNL A   1      40.214  26.706  27.354  1.00  0.00     0.031 C 
ATOM     50  C   UNL A   1      42.620  29.386  29.848  1.00  0.00     0.029 A 
ATOM     51  N   UNL A   1      40.793  30.336  30.760  1.00  0.00    -0.354 N 
ATOM     52  C   UNL A   1      42.273  25.835  27.886  1.00  0.00     0.074 A 
ATOM     53  C   UNL A   1      41.122  25.786  27.017  1.00  0.00     0.031 C 
ATOM     54  C   UNL A   1      43.016  30.025  30.960  1.00  0.00     0.029 A 
ATOM     55  C   UNL A   1      41.823  30.357  31.721  1.00  0.00     0.049 A 
ATOM     56  H   UNL A   1      39.967  30.873  30.776  1.00  0.00     0.167 HD
ATOM     57  C   UNL A   1      43.513  25.272  27.878  1.00  0.00     0.031 A 
ATOM     58  C   UNL A   1      41.565  29.944  32.997  1.00  0.00     0.031 A 
ATOM     59  C   UNL A   1      44.320  25.706  29.019  1.00  0.00     0.049 A 
ATOM     60  C   UNL A   1      42.289  28.672  33.400  1.00  0.00     0.074 A 
ATOM     61  C   UNL A   1      45.348  26.617  29.194  1.00  0.00     0.029 A 
ATOM     62  N   UNL A   1      43.880  25.378  30.290  1.00  0.00    -0.354 N 
ATOM     63  N   UNL A   1      43.077  27.986  32.617  1.00  0.00    -0.248 NA
ATOM     64  C   UNL A   1      42.098  28.022  34.699  1.00  0.00     0.031 C 
ATOM     65  C   UNL A   1      45.499  26.850  30.594  1.00  0.00     0.029 A 
ATOM     66  C   UNL A   1      44.579  26.063  31.263  1.00  0.00     0.049 A 
ATOM     67  H   UNL A   1      43.157  24.735  30.477  1.00  0.00     0.167 HD
ATOM     68  C   UNL A   1      43.448  26.828  33.247  1.00  0.00     0.074 A 
ATOM     69  C   UNL A   1      42.816  26.897  34.552  1.00  0.00     0.031 C 
ATOM     70  C   UNL A   1      44.210  25.867  32.653  1.00  0.00     0.031 A 
BRANCH  57  71
ATOM     71  C   UNL A   1      44.061  24.482  26.717  1.00  0.00    -0.014 A 
ATOM     72  C   UNL A   1      43.236  24.213  25.612  1.00  0.00     0.009 A 
ATOM     73  C   UNL A   1      45.358  23.941  26.663  1.00  0.00     0.009 A 
ATOM     74  C   UNL A   1      43.651  23.380  24.562  1.00  0.00     0.001 A 
ATOM     75  C   UNL A   1      45.765  23.074  25.641  1.00  0.00     0.001 A 
ATOM     76  C   UNL A   1      44.905  22.786  24.591  1.00  0.00     0.000 A 
ENDBRANCH  57  71
BRANCH  58  77
ATOM     77  C   UNL A   1      40.197  30.334  33.454  1.00  0.00    -0.014 A 
ATOM     78  C   UNL A   1      39.945  31.702  33.692  1.00  0.00     0.009 A 
ATOM     79  C   UNL A   1      39.105  29.474  33.277  1.00  0.00     0.009 A 
ATOM     80  C   UNL A   1      38.649  32.218  33.605  1.00  0.00     0.001 A 
ATOM     81  C   UNL A   1      37.806  29.992  33.215  1.00  0.00     0.001 A 
ATOM     82  C   UNL A   1      37.584  31.365  33.331  1.00  0.00     0.000 A 
ENDBRANCH  58  77
BRANCH  70  83
ATOM     83  C   UNL A   1      44.651  24.623  33.364  1.00  0.00    -0.014 A 
ATOM     84  C   UNL A   1      43.731  23.673  33.831  1.00  0.00     0.009 A 
ATOM     85  C   UNL A   1      46.005  24.435  33.704  1.00  0.00     0.009 A 
ATOM     86  C   UNL A   1      44.155  22.555  34.559  1.00  0.00     0.001 A 
ATOM     87  C   UNL A   1      46.428  23.332  34.449  1.00  0.00     0.001 A 
ATOM     88  C   UNL A   1      45.502  22.386  34.869  1.00  0.00     0.000 A 
ENDBRANCH  70  83
ENDBRANCH  44  45
ENDBRANCH  36  39
ENDBRANCH  34  35
ENDBRANCH  33  34
ENDBRANCH   1  33
TORSDOF 14
ENDMDL
