MODEL 1
REMARK VINA RESULT:      -9.5      0.000      0.000
REMARK SMILES O=C(CCCNc1ccccc1SC(F)F)NCCCCNC(=O)c1ccc(-c2c3nc(c(-c4ccccc4)c4ccc([nH]4)c(-c4ccccc4)c4nc(c(-c5ccccc5)c5ccc2[nH]5)C=C4)C=C3)cc1
REMARK SMILES IDX 1 1 2 2 17 3 3 5 4 6 5 7 6 8 7 10 8 11 12 12 9 13 11 14
REMARK SMILES IDX 10 15 13 16 14 17 15 18 16 19 18 20 19 21 20 22 21 23 22 24
REMARK SMILES IDX 23 25 24 27 25 28 26 29 72 30 27 31 71 32 28 33 29 34 30 35
REMARK SMILES IDX 65 36 31 37 70 38 64 39 66 40 32 41 69 42 63 43 62 44 33 46
REMARK SMILES IDX 55 47 40 48 54 49 41 50 44 51 53 52 67 53 42 54 43 55 52 57
REMARK SMILES IDX 68 58 45 59 34 60 35 61 39 62 36 63 38 64 37 65 56 66 57 67
REMARK SMILES IDX 61 68 58 69 60 70 59 71 46 72 47 73 51 74 48 75 50 76 49 77
REMARK H PARENT 17 4 6 9 22 26 66 45 44 56
REMARK Flexibility Score: inf
ROOT
ATOM      1  O   UNL A   1      34.299  24.697  25.558  1.00  0.00    -0.275 OA
ATOM      2  C   UNL A   1      33.937  23.643  26.072  1.00  0.00     0.220 C 
ATOM      3  N   UNL A   1      34.729  22.519  26.155  1.00  0.00    -0.356 N 
ATOM      4  H   UNL A   1      34.351  21.697  26.542  1.00  0.00     0.163 HD
ENDROOT
BRANCH   2   5
ATOM      5  C   UNL A   1      32.568  23.500  26.708  1.00  0.00     0.102 C 
BRANCH   5   6
ATOM      6  C   UNL A   1      31.398  23.496  25.721  1.00  0.00     0.031 C 
BRANCH   6   7
ATOM      7  C   UNL A   1      30.599  24.797  25.624  1.00  0.00     0.113 C 
BRANCH   7   8
ATOM      8  N   UNL A   1      31.356  25.837  24.947  1.00  0.00    -0.384 N 
ATOM      9  H   UNL A   1      31.765  25.625  24.078  1.00  0.00     0.160 HD
BRANCH   8  10
ATOM     10  C   UNL A   1      31.533  27.118  25.467  1.00  0.00     0.048 A 
ATOM     11  C   UNL A   1      31.508  27.179  26.887  1.00  0.00     0.027 A 
ATOM     12  C   UNL A   1      31.794  28.315  24.766  1.00  0.00     0.036 A 
ATOM     13  C   UNL A   1      31.713  28.359  27.600  1.00  0.00     0.002 A 
ATOM     14  C   UNL A   1      31.968  29.509  25.516  1.00  0.00     0.017 A 
ATOM     15  C   UNL A   1      31.930  29.535  26.910  1.00  0.00     0.001 A 
BRANCH  12  16
ATOM     16  S   UNL A   1      32.045  28.629  23.017  1.00  0.00    -0.053 SA
BRANCH  16  17
ATOM     17  C   UNL A   1      33.589  27.875  22.520  1.00  0.00     0.405 C 
ATOM     18  F   UNL A   1      34.570  28.812  22.477  1.00  0.00    -0.198 F 
ATOM     19  F   UNL A   1      34.010  26.867  23.316  1.00  0.00    -0.198 F 
ENDBRANCH  16  17
ENDBRANCH  12  16
ENDBRANCH   8  10
ENDBRANCH   7   8
ENDBRANCH   6   7
ENDBRANCH   5   6
ENDBRANCH   2   5
BRANCH   3  20
ATOM     20  C   UNL A   1      36.103  22.510  25.690  1.00  0.00     0.116 C 
BRANCH  20  21
ATOM     21  C   UNL A   1      36.330  21.516  24.548  1.00  0.00     0.023 C 
BRANCH  21  22
ATOM     22  C   UNL A   1      37.284  20.363  24.866  1.00  0.00     0.023 C 
BRANCH  22  23
ATOM     23  C   UNL A   1      38.538  20.756  25.640  1.00  0.00     0.116 C 
BRANCH  23  24
ATOM     24  N   UNL A   1      39.583  19.749  25.610  1.00  0.00    -0.352 N 
ATOM     25  C   UNL A   1      40.896  19.826  26.013  1.00  0.00     0.251 C 
ATOM     26  H   UNL A   1      39.310  18.877  25.245  1.00  0.00     0.163 HD
ATOM     27  O   UNL A   1      41.643  18.871  25.840  1.00  0.00    -0.269 OA
BRANCH  25  28
ATOM     28  C   UNL A   1      41.433  21.072  26.615  1.00  0.00     0.039 A 
ATOM     29  C   UNL A   1      41.930  22.058  25.759  1.00  0.00     0.014 A 
ATOM     30  C   UNL A   1      41.462  21.275  27.997  1.00  0.00     0.014 A 
ATOM     31  C   UNL A   1      42.384  23.271  26.281  1.00  0.00     0.010 A 
ATOM     32  C   UNL A   1      41.843  22.515  28.512  1.00  0.00     0.010 A 
ATOM     33  C   UNL A   1      42.304  23.529  27.659  1.00  0.00    -0.014 A 
BRANCH  33  34
ATOM     34  C   UNL A   1      42.686  24.856  28.212  1.00  0.00     0.031 A 
ATOM     35  C   UNL A   1      41.653  25.931  28.408  1.00  0.00     0.074 A 
ATOM     36  C   UNL A   1      43.978  25.113  28.497  1.00  0.00     0.049 A 
ATOM     37  N   UNL A   1      41.810  27.159  28.839  1.00  0.00    -0.248 NA
ATOM     38  C   UNL A   1      40.266  25.593  28.054  1.00  0.00     0.031 C 
ATOM     39  C   UNL A   1      45.088  24.172  28.325  1.00  0.00     0.029 A 
ATOM     40  N   UNL A   1      44.580  26.245  28.989  1.00  0.00    -0.354 N 
ATOM     41  C   UNL A   1      40.548  27.738  28.800  1.00  0.00     0.074 A 
ATOM     42  C   UNL A   1      39.647  26.748  28.252  1.00  0.00     0.031 C 
ATOM     43  C   UNL A   1      46.227  24.755  28.730  1.00  0.00     0.029 A 
ATOM     44  C   UNL A   1      45.939  26.124  29.147  1.00  0.00     0.049 A 
ATOM     45  H   UNL A   1      44.083  27.067  29.207  1.00  0.00     0.167 HD
ATOM     46  C   UNL A   1      40.167  28.976  29.199  1.00  0.00     0.031 A 
ATOM     47  C   UNL A   1      46.857  27.014  29.570  1.00  0.00     0.031 A 
ATOM     48  C   UNL A   1      41.061  29.965  29.743  1.00  0.00     0.049 A 
ATOM     49  C   UNL A   1      46.414  28.394  29.975  1.00  0.00     0.074 A 
ATOM     50  C   UNL A   1      40.760  31.231  30.216  1.00  0.00     0.029 A 
ATOM     51  N   UNL A   1      42.431  29.804  29.879  1.00  0.00    -0.354 N 
ATOM     52  N   UNL A   1      45.206  28.903  29.990  1.00  0.00    -0.248 NA
ATOM     53  C   UNL A   1      47.463  29.317  30.432  1.00  0.00     0.031 C 
ATOM     54  C   UNL A   1      41.954  31.857  30.583  1.00  0.00     0.029 A 
ATOM     55  C   UNL A   1      42.992  30.958  30.401  1.00  0.00     0.049 A 
ATOM     56  H   UNL A   1      42.930  28.990  29.640  1.00  0.00     0.167 HD
ATOM     57  C   UNL A   1      45.347  30.194  30.484  1.00  0.00     0.074 A 
ATOM     58  C   UNL A   1      46.753  30.382  30.773  1.00  0.00     0.031 C 
ATOM     59  C   UNL A   1      44.394  31.137  30.683  1.00  0.00     0.031 A 
BRANCH  46  60
ATOM     60  C   UNL A   1      38.713  29.335  29.051  1.00  0.00    -0.014 A 
ATOM     61  C   UNL A   1      38.194  29.791  27.828  1.00  0.00     0.009 A 
ATOM     62  C   UNL A   1      37.841  29.180  30.140  1.00  0.00     0.009 A 
ATOM     63  C   UNL A   1      36.843  30.123  27.711  1.00  0.00     0.001 A 
ATOM     64  C   UNL A   1      36.483  29.481  30.011  1.00  0.00     0.001 A 
ATOM     65  C   UNL A   1      35.988  29.962  28.801  1.00  0.00     0.000 A 
ENDBRANCH  46  60
BRANCH  47  66
ATOM     66  C   UNL A   1      48.293  26.631  29.636  1.00  0.00    -0.014 A 
ATOM     67  C   UNL A   1      49.146  26.860  28.545  1.00  0.00     0.009 A 
ATOM     68  C   UNL A   1      48.816  26.024  30.789  1.00  0.00     0.009 A 
ATOM     69  C   UNL A   1      50.484  26.462  28.597  1.00  0.00     0.001 A 
ATOM     70  C   UNL A   1      50.161  25.658  30.850  1.00  0.00     0.001 A 
ATOM     71  C   UNL A   1      50.992  25.866  29.750  1.00  0.00     0.000 A 
ENDBRANCH  47  66
BRANCH  59  72
ATOM     72  C   UNL A   1      44.833  32.448  31.275  1.00  0.00    -0.014 A 
ATOM     73  C   UNL A   1      45.205  33.531  30.463  1.00  0.00     0.009 A 
ATOM     74  C   UNL A   1      44.837  32.613  32.669  1.00  0.00     0.009 A 
ATOM     75  C   UNL A   1      45.606  34.739  31.039  1.00  0.00     0.001 A 
ATOM     76  C   UNL A   1      45.206  33.831  33.240  1.00  0.00     0.001 A 
ATOM     77  C   UNL A   1      45.601  34.890  32.425  1.00  0.00     0.000 A 
ENDBRANCH  59  72
ENDBRANCH  33  34
ENDBRANCH  25  28
ENDBRANCH  23  24
ENDBRANCH  22  23
ENDBRANCH  21  22
ENDBRANCH  20  21
ENDBRANCH   3  20
TORSDOF 17
ENDMDL
MODEL 2
REMARK VINA RESULT:      -9.4      4.186      9.165
REMARK SMILES O=C(CCCNc1ccccc1SC(F)F)NCCCCNC(=O)c1ccc(-c2c3nc(c(-c4ccccc4)c4ccc([nH]4)c(-c4ccccc4)c4nc(c(-c5ccccc5)c5ccc2[nH]5)C=C4)C=C3)cc1
REMARK SMILES IDX 1 1 2 2 17 3 3 5 4 6 5 7 6 8 7 10 8 11 12 12 9 13 11 14
REMARK SMILES IDX 10 15 13 16 14 17 15 18 16 19 18 20 19 21 20 22 21 23 22 24
REMARK SMILES IDX 23 25 24 27 25 28 26 29 72 30 27 31 71 32 28 33 29 34 30 35
REMARK SMILES IDX 65 36 31 37 70 38 64 39 66 40 32 41 69 42 63 43 62 44 33 46
REMARK SMILES IDX 55 47 40 48 54 49 41 50 44 51 53 52 67 53 42 54 43 55 52 57
REMARK SMILES IDX 68 58 45 59 34 60 35 61 39 62 36 63 38 64 37 65 56 66 57 67
REMARK SMILES IDX 61 68 58 69 60 70 59 71 46 72 47 73 51 74 48 75 50 76 49 77
REMARK H PARENT 17 4 6 9 22 26 66 45 44 56
REMARK Flexibility Score: inf
ROOT
ATOM      1  O   UNL A   1      34.094  28.116  26.625  1.00  0.00    -0.275 OA
ATOM      2  C   UNL A   1      32.999  27.666  26.301  1.00  0.00     0.220 C 
ATOM      3  N   UNL A   1      31.807  28.321  26.517  1.00  0.00    -0.356 N 
ATOM      4  H   UNL A   1      30.966  27.874  26.270  1.00  0.00     0.163 HD
ENDROOT
BRANCH   2   5
ATOM      5  C   UNL A   1      32.869  26.337  25.584  1.00  0.00     0.102 C 
BRANCH   5   6
ATOM      6  C   UNL A   1      33.967  26.050  24.558  1.00  0.00     0.031 C 
BRANCH   6   7
ATOM      7  C   UNL A   1      33.620  25.027  23.473  1.00  0.00     0.113 C 
BRANCH   7   8
ATOM      8  N   UNL A   1      33.499  23.688  24.025  1.00  0.00    -0.384 N 
ATOM      9  H   UNL A   1      32.604  23.366  24.273  1.00  0.00     0.160 HD
BRANCH   8  10
ATOM     10  C   UNL A   1      34.586  22.838  24.219  1.00  0.00     0.048 A 
ATOM     11  C   UNL A   1      35.739  23.185  23.464  1.00  0.00     0.027 A 
ATOM     12  C   UNL A   1      34.691  21.746  25.107  1.00  0.00     0.036 A 
ATOM     13  C   UNL A   1      36.943  22.489  23.552  1.00  0.00     0.002 A 
ATOM     14  C   UNL A   1      35.920  21.035  25.155  1.00  0.00     0.017 A 
ATOM     15  C   UNL A   1      37.031  21.397  24.393  1.00  0.00     0.001 A 
BRANCH  12  16
ATOM     16  S   UNL A   1      33.538  21.090  26.315  1.00  0.00    -0.053 SA
BRANCH  16  17
ATOM     17  C   UNL A   1      33.471  22.215  27.705  1.00  0.00     0.405 C 
ATOM     18  F   UNL A   1      34.567  23.017  27.705  1.00  0.00    -0.198 F 
ATOM     19  F   UNL A   1      32.376  23.006  27.742  1.00  0.00    -0.198 F 
ENDBRANCH  16  17
ENDBRANCH  12  16
ENDBRANCH   8  10
ENDBRANCH   7   8
ENDBRANCH   6   7
ENDBRANCH   5   6
ENDBRANCH   2   5
BRANCH   3  20
ATOM     20  C   UNL A   1      31.753  29.649  27.099  1.00  0.00     0.116 C 
BRANCH  20  21
ATOM     21  C   UNL A   1      31.531  30.741  26.050  1.00  0.00     0.023 C 
BRANCH  21  22
ATOM     22  C   UNL A   1      31.303  32.147  26.610  1.00  0.00     0.023 C 
BRANCH  22  23
ATOM     23  C   UNL A   1      32.547  32.831  27.169  1.00  0.00     0.116 C 
BRANCH  23  24
ATOM     24  N   UNL A   1      32.307  34.179  27.651  1.00  0.00    -0.352 N 
ATOM     25  C   UNL A   1      33.009  34.928  28.566  1.00  0.00     0.251 C 
ATOM     26  H   UNL A   1      31.522  34.626  27.261  1.00  0.00     0.163 HD
ATOM     27  O   UNL A   1      32.599  36.036  28.888  1.00  0.00    -0.269 OA
BRANCH  25  28
ATOM     28  C   UNL A   1      34.236  34.390  29.205  1.00  0.00     0.039 A 
ATOM     29  C   UNL A   1      34.095  33.625  30.365  1.00  0.00     0.014 A 
ATOM     30  C   UNL A   1      35.510  34.636  28.687  1.00  0.00     0.014 A 
ATOM     31  C   UNL A   1      35.218  33.045  30.960  1.00  0.00     0.010 A 
ATOM     32  C   UNL A   1      36.622  33.995  29.236  1.00  0.00     0.010 A 
ATOM     33  C   UNL A   1      36.487  33.189  30.377  1.00  0.00    -0.014 A 
BRANCH  33  34
ATOM     34  C   UNL A   1      37.672  32.491  30.944  1.00  0.00     0.031 A 
ATOM     35  C   UNL A   1      38.343  33.003  32.188  1.00  0.00     0.074 A 
ATOM     36  C   UNL A   1      38.177  31.414  30.310  1.00  0.00     0.049 A 
ATOM     37  N   UNL A   1      39.409  32.547  32.801  1.00  0.00    -0.248 NA
ATOM     38  C   UNL A   1      37.755  34.197  32.817  1.00  0.00     0.031 C 
ATOM     39  C   UNL A   1      37.645  30.829  29.076  1.00  0.00     0.029 A 
ATOM     40  N   UNL A   1      39.256  30.620  30.612  1.00  0.00    -0.354 N 
ATOM     41  C   UNL A   1      39.621  33.400  33.877  1.00  0.00     0.074 A 
ATOM     42  C   UNL A   1      38.610  34.431  33.802  1.00  0.00     0.031 C 
ATOM     43  C   UNL A   1      38.381  29.756  28.745  1.00  0.00     0.029 A 
ATOM     44  C   UNL A   1      39.463  29.602  29.712  1.00  0.00     0.049 A 
ATOM     45  H   UNL A   1      39.829  30.766  31.401  1.00  0.00     0.167 HD
ATOM     46  C   UNL A   1      40.562  33.324  34.849  1.00  0.00     0.031 A 
ATOM     47  C   UNL A   1      40.419  28.656  29.661  1.00  0.00     0.031 A 
ATOM     48  C   UNL A   1      41.571  32.301  34.925  1.00  0.00     0.049 A 
ATOM     49  C   UNL A   1      41.473  28.613  30.733  1.00  0.00     0.074 A 
ATOM     50  C   UNL A   1      42.539  32.116  35.898  1.00  0.00     0.029 A 
ATOM     51  N   UNL A   1      41.749  31.294  33.989  1.00  0.00    -0.354 N 
ATOM     52  N   UNL A   1      41.621  29.391  31.778  1.00  0.00    -0.248 NA
ATOM     53  C   UNL A   1      42.485  27.553  30.623  1.00  0.00     0.031 C 
ATOM     54  C   UNL A   1      43.339  31.034  35.520  1.00  0.00     0.029 A 
ATOM     55  C   UNL A   1      42.829  30.503  34.347  1.00  0.00     0.049 A 
ATOM     56  H   UNL A   1      41.190  31.161  33.190  1.00  0.00     0.167 HD
ATOM     57  C   UNL A   1      42.723  28.897  32.464  1.00  0.00     0.074 A 
ATOM     58  C   UNL A   1      43.194  27.743  31.726  1.00  0.00     0.031 C 
ATOM     59  C   UNL A   1      43.292  29.358  33.605  1.00  0.00     0.031 A 
BRANCH  46  60
ATOM     60  C   UNL A   1      40.548  34.391  35.911  1.00  0.00    -0.014 A 
ATOM     61  C   UNL A   1      39.774  34.252  37.075  1.00  0.00     0.009 A 
ATOM     62  C   UNL A   1      41.347  35.536  35.763  1.00  0.00     0.009 A 
ATOM     63  C   UNL A   1      39.769  35.254  38.047  1.00  0.00     0.001 A 
ATOM     64  C   UNL A   1      41.366  36.521  36.752  1.00  0.00     0.001 A 
ATOM     65  C   UNL A   1      40.570  36.385  37.887  1.00  0.00     0.000 A 
ENDBRANCH  46  60
BRANCH  47  66
ATOM     66  C   UNL A   1      40.427  27.663  28.553  1.00  0.00    -0.014 A 
ATOM     67  C   UNL A   1      41.133  27.919  27.367  1.00  0.00     0.009 A 
ATOM     68  C   UNL A   1      39.719  26.456  28.673  1.00  0.00     0.009 A 
ATOM     69  C   UNL A   1      41.106  27.001  26.314  1.00  0.00     0.001 A 
ATOM     70  C   UNL A   1      39.719  25.527  27.631  1.00  0.00     0.001 A 
ATOM     71  C   UNL A   1      40.403  25.804  26.448  1.00  0.00     0.000 A 
ENDBRANCH  47  66
BRANCH  59  72
ATOM     72  C   UNL A   1      44.467  28.592  34.148  1.00  0.00    -0.014 A 
ATOM     73  C   UNL A   1      44.294  27.503  35.017  1.00  0.00     0.009 A 
ATOM     74  C   UNL A   1      45.767  28.944  33.752  1.00  0.00     0.009 A 
ATOM     75  C   UNL A   1      45.402  26.806  35.505  1.00  0.00     0.001 A 
ATOM     76  C   UNL A   1      46.869  28.226  34.215  1.00  0.00     0.001 A 
ATOM     77  C   UNL A   1      46.688  27.164  35.100  1.00  0.00     0.000 A 
ENDBRANCH  59  72
ENDBRANCH  33  34
ENDBRANCH  25  28
ENDBRANCH  23  24
ENDBRANCH  22  23
ENDBRANCH  21  22
ENDBRANCH  20  21
ENDBRANCH   3  20
TORSDOF 17
ENDMDL
MODEL 3
REMARK VINA RESULT:      -9.4      3.627      8.861
REMARK SMILES O=C(CCCNc1ccccc1SC(F)F)NCCCCNC(=O)c1ccc(-c2c3nc(c(-c4ccccc4)c4ccc([nH]4)c(-c4ccccc4)c4nc(c(-c5ccccc5)c5ccc2[nH]5)C=C4)C=C3)cc1
REMARK SMILES IDX 1 1 2 2 17 3 3 5 4 6 5 7 6 8 7 10 8 11 12 12 9 13 11 14
REMARK SMILES IDX 10 15 13 16 14 17 15 18 16 19 18 20 19 21 20 22 21 23 22 24
REMARK SMILES IDX 23 25 24 27 25 28 26 29 72 30 27 31 71 32 28 33 29 34 30 35
REMARK SMILES IDX 65 36 31 37 70 38 64 39 66 40 32 41 69 42 63 43 62 44 33 46
REMARK SMILES IDX 55 47 40 48 54 49 41 50 44 51 53 52 67 53 42 54 43 55 52 57
REMARK SMILES IDX 68 58 45 59 34 60 35 61 39 62 36 63 38 64 37 65 56 66 57 67
REMARK SMILES IDX 61 68 58 69 60 70 59 71 46 72 47 73 51 74 48 75 50 76 49 77
REMARK H PARENT 17 4 6 9 22 26 66 45 44 56
REMARK Flexibility Score: inf
ROOT
ATOM      1  O   UNL A   1      33.971  28.294  23.897  1.00  0.00    -0.275 OA
ATOM      2  C   UNL A   1      33.758  27.596  24.883  1.00  0.00     0.220 C 
ATOM      3  N   UNL A   1      33.461  28.102  26.130  1.00  0.00    -0.356 N 
ATOM      4  H   UNL A   1      33.347  27.478  26.883  1.00  0.00     0.163 HD
ENDROOT
BRANCH   2   5
ATOM      5  C   UNL A   1      33.769  26.083  24.802  1.00  0.00     0.102 C 
BRANCH   5   6
ATOM      6  C   UNL A   1      32.468  25.458  24.292  1.00  0.00     0.031 C 
BRANCH   6   7
ATOM      7  C   UNL A   1      32.265  23.976  24.615  1.00  0.00     0.113 C 
BRANCH   7   8
ATOM      8  N   UNL A   1      32.994  23.126  23.689  1.00  0.00    -0.384 N 
ATOM      9  H   UNL A   1      32.562  22.886  22.838  1.00  0.00     0.160 HD
BRANCH   8  10
ATOM     10  C   UNL A   1      34.272  22.632  23.945  1.00  0.00     0.048 A 
ATOM     11  C   UNL A   1      35.277  23.145  23.081  1.00  0.00     0.027 A 
ATOM     12  C   UNL A   1      34.680  21.761  24.977  1.00  0.00     0.036 A 
ATOM     13  C   UNL A   1      36.626  22.812  23.203  1.00  0.00     0.002 A 
ATOM     14  C   UNL A   1      36.055  21.414  25.059  1.00  0.00     0.017 A 
ATOM     15  C   UNL A   1      37.016  21.930  24.190  1.00  0.00     0.001 A 
BRANCH  12  16
ATOM     16  S   UNL A   1      33.764  21.026  26.334  1.00  0.00    -0.053 SA
BRANCH  16  17
ATOM     17  C   UNL A   1      33.850  22.129  27.740  1.00  0.00     0.405 C 
ATOM     18  F   UNL A   1      34.259  23.360  27.339  1.00  0.00    -0.198 F 
ATOM     19  F   UNL A   1      32.691  22.275  28.418  1.00  0.00    -0.198 F 
ENDBRANCH  16  17
ENDBRANCH  12  16
ENDBRANCH   8  10
ENDBRANCH   7   8
ENDBRANCH   6   7
ENDBRANCH   5   6
ENDBRANCH   2   5
BRANCH   3  20
ATOM     20  C   UNL A   1      33.309  29.525  26.367  1.00  0.00     0.116 C 
BRANCH  20  21
ATOM     21  C   UNL A   1      31.872  30.007  26.149  1.00  0.00     0.023 C 
BRANCH  21  22
ATOM     22  C   UNL A   1      31.589  31.441  26.600  1.00  0.00     0.023 C 
BRANCH  22  23
ATOM     23  C   UNL A   1      32.805  32.214  27.101  1.00  0.00     0.116 C 
BRANCH  23  24
ATOM     24  N   UNL A   1      32.487  33.530  27.625  1.00  0.00    -0.352 N 
ATOM     25  C   UNL A   1      33.189  34.326  28.500  1.00  0.00     0.251 C 
ATOM     26  H   UNL A   1      31.638  33.911  27.304  1.00  0.00     0.163 HD
ATOM     27  O   UNL A   1      32.711  35.390  28.873  1.00  0.00    -0.269 OA
BRANCH  25  28
ATOM     28  C   UNL A   1      34.503  33.890  29.034  1.00  0.00     0.039 A 
ATOM     29  C   UNL A   1      34.518  33.101  30.187  1.00  0.00     0.014 A 
ATOM     30  C   UNL A   1      35.708  34.253  28.427  1.00  0.00     0.014 A 
ATOM     31  C   UNL A   1      35.729  32.616  30.685  1.00  0.00     0.010 A 
ATOM     32  C   UNL A   1      36.910  33.706  28.879  1.00  0.00     0.010 A 
ATOM     33  C   UNL A   1      36.933  32.878  30.011  1.00  0.00    -0.014 A 
BRANCH  33  34
ATOM     34  C   UNL A   1      38.214  32.279  30.474  1.00  0.00     0.031 A 
ATOM     35  C   UNL A   1      38.700  30.975  29.904  1.00  0.00     0.074 A 
ATOM     36  C   UNL A   1      38.922  32.887  31.445  1.00  0.00     0.049 A 
ATOM     37  N   UNL A   1      39.771  30.285  30.215  1.00  0.00    -0.248 NA
ATOM     38  C   UNL A   1      37.867  30.351  28.864  1.00  0.00     0.031 C 
ATOM     39  C   UNL A   1      38.550  34.140  32.109  1.00  0.00     0.029 A 
ATOM     40  N   UNL A   1      40.103  32.533  32.050  1.00  0.00    -0.354 N 
ATOM     41  C   UNL A   1      39.733  29.147  29.419  1.00  0.00     0.074 A 
ATOM     42  C   UNL A   1      38.509  29.212  28.650  1.00  0.00     0.031 C 
ATOM     43  C   UNL A   1      39.496  34.461  33.005  1.00  0.00     0.029 A 
ATOM     44  C   UNL A   1      40.518  33.418  33.015  1.00  0.00     0.049 A 
ATOM     45  H   UNL A   1      40.606  31.719  31.813  1.00  0.00     0.167 HD
ATOM     46  C   UNL A   1      40.643  28.147  29.321  1.00  0.00     0.031 A 
ATOM     47  C   UNL A   1      41.591  33.394  33.827  1.00  0.00     0.031 A 
ATOM     48  C   UNL A   1      41.860  28.079  30.085  1.00  0.00     0.049 A 
ATOM     49  C   UNL A   1      42.568  32.255  33.723  1.00  0.00     0.074 A 
ATOM     50  C   UNL A   1      42.864  27.127  30.022  1.00  0.00     0.029 A 
ATOM     51  N   UNL A   1      42.237  28.992  31.056  1.00  0.00    -0.354 N 
ATOM     52  N   UNL A   1      42.549  31.220  32.919  1.00  0.00    -0.248 NA
ATOM     53  C   UNL A   1      43.723  32.289  34.633  1.00  0.00     0.031 C 
ATOM     54  C   UNL A   1      43.819  27.433  30.996  1.00  0.00     0.029 A 
ATOM     55  C   UNL A   1      43.444  28.611  31.620  1.00  0.00     0.049 A 
ATOM     56  H   UNL A   1      41.723  29.794  31.308  1.00  0.00     0.167 HD
ATOM     57  C   UNL A   1      43.699  30.496  33.206  1.00  0.00     0.074 A 
ATOM     58  C   UNL A   1      44.402  31.220  34.245  1.00  0.00     0.031 C 
ATOM     59  C   UNL A   1      44.135  29.337  32.656  1.00  0.00     0.031 A 
BRANCH  46  60
ATOM     60  C   UNL A   1      40.345  27.034  28.352  1.00  0.00    -0.014 A 
ATOM     61  C   UNL A   1      40.838  27.059  27.037  1.00  0.00     0.009 A 
ATOM     62  C   UNL A   1      39.591  25.926  28.771  1.00  0.00     0.009 A 
ATOM     63  C   UNL A   1      40.549  26.020  26.151  1.00  0.00     0.001 A 
ATOM     64  C   UNL A   1      39.331  24.872  27.893  1.00  0.00     0.001 A 
ATOM     65  C   UNL A   1      39.800  24.924  26.581  1.00  0.00     0.000 A 
ENDBRANCH  46  60
BRANCH  47  66
ATOM     66  C   UNL A   1      41.806  34.486  34.814  1.00  0.00    -0.014 A 
ATOM     67  C   UNL A   1      41.563  34.275  36.180  1.00  0.00     0.009 A 
ATOM     68  C   UNL A   1      42.245  35.751  34.391  1.00  0.00     0.009 A 
ATOM     69  C   UNL A   1      41.728  35.315  37.098  1.00  0.00     0.001 A 
ATOM     70  C   UNL A   1      42.440  36.780  35.315  1.00  0.00     0.001 A 
ATOM     71  C   UNL A   1      42.171  36.565  36.666  1.00  0.00     0.000 A 
ENDBRANCH  47  66
BRANCH  59  72
ATOM     72  C   UNL A   1      45.452  28.795  33.139  1.00  0.00    -0.014 A 
ATOM     73  C   UNL A   1      45.524  27.878  34.200  1.00  0.00     0.009 A 
ATOM     74  C   UNL A   1      46.639  29.180  32.495  1.00  0.00     0.009 A 
ATOM     75  C   UNL A   1      46.760  27.388  34.627  1.00  0.00     0.001 A 
ATOM     76  C   UNL A   1      47.868  28.663  32.902  1.00  0.00     0.001 A 
ATOM     77  C   UNL A   1      47.930  27.776  33.975  1.00  0.00     0.000 A 
ENDBRANCH  59  72
ENDBRANCH  33  34
ENDBRANCH  25  28
ENDBRANCH  23  24
ENDBRANCH  22  23
ENDBRANCH  21  22
ENDBRANCH  20  21
ENDBRANCH   3  20
TORSDOF 17
ENDMDL
