MODEL 1
REMARK VINA RESULT:     -11.7      0.000      0.000
REMARK SMILES Cc1c(Cl)cc2c(c1C)O[C@H](C(F)(F)F)C(C(=O)NCCCCNC(=O)c1ccc(-c3c4nc(c(-c5ccccc5)c5ccc([nH]5)c(-c5ccccc5)c5nc(c(-c6ccccc6)c6ccc3[nH]6)C=C5)C=C4)cc1)=C2
REMARK SMILES IDX 22 1 21 2 20 3 19 4 17 5 18 6 16 8 1 9 2 10 3 11 8 12 4 13
REMARK SMILES IDX 5 14 7 15 9 16 6 17 10 18 75 19 11 20 12 21 13 22 14 23
REMARK SMILES IDX 15 24 23 25 24 26 25 27 26 29 27 30 28 31 74 32 29 33 73 34
REMARK SMILES IDX 30 35 31 36 32 37 67 38 33 39 72 40 66 41 68 42 34 43 71 44
REMARK SMILES IDX 65 45 64 46 35 48 57 49 42 50 56 51 43 52 46 53 55 54 69 55
REMARK SMILES IDX 44 56 45 57 54 59 70 60 47 61 36 62 37 63 41 64 38 65 40 66
REMARK SMILES IDX 39 67 58 68 59 69 63 70 60 71 62 72 61 73 48 74 49 75 53 76
REMARK SMILES IDX 50 77 52 78 51 79
REMARK H PARENT 19 7 24 28 68 47 46 58
REMARK Flexibility Score: inf
ROOT
ATOM      1  C   UNL A   1      33.376  29.040  25.633  1.00  0.00     0.023 C 
ENDROOT
BRANCH   1   2
ATOM      2  C   UNL A   1      33.542  27.696  24.922  1.00  0.00     0.023 C 
BRANCH   2   3
ATOM      3  C   UNL A   1      32.244  27.125  24.358  1.00  0.00     0.116 C 
BRANCH   3   4
ATOM      4  N   UNL A   1      31.442  26.483  25.382  1.00  0.00    -0.352 N 
ATOM      5  C   UNL A   1      31.388  25.265  25.969  1.00  0.00     0.251 C 
ATOM      6  O   UNL A   1      30.506  25.134  26.824  1.00  0.00    -0.270 OA
ATOM      7  H   UNL A   1      30.761  27.093  25.747  1.00  0.00     0.163 HD
BRANCH   5   8
ATOM      8  C   UNL A   1      32.289  24.116  25.657  1.00  0.00     0.067 C 
ATOM      9  C   UNL A   1      37.264  19.908  25.024  1.00  0.00     0.046 C 
ATOM     10  C   UNL A   1      36.318  21.057  25.263  1.00  0.00    -0.026 A 
ATOM     11  C   UNL A   1      36.781  22.325  25.673  1.00  0.00     0.045 A 
ATOM     12  C   UNL A   1      34.926  20.873  25.074  1.00  0.00    -0.004 A 
ATOM     13  Cl  UNL A   1      38.459  22.667  25.917  1.00  0.00    -0.084 Cl
ATOM     14  C   UNL A   1      35.890  23.378  25.911  1.00  0.00     0.032 A 
ATOM     15  C   UNL A   1      34.050  21.951  25.315  1.00  0.00     0.131 A 
ATOM     16  C   UNL A   1      34.329  19.562  24.623  1.00  0.00     0.049 C 
ATOM     17  C   UNL A   1      34.521  23.193  25.738  1.00  0.00     0.019 A 
ATOM     18  O   UNL A   1      32.709  21.710  25.168  1.00  0.00    -0.475 OA
ATOM     19  C   UNL A   1      33.574  24.263  26.031  1.00  0.00     0.025 C 
ATOM     20  C   UNL A   1      31.863  22.869  24.937  1.00  0.00     0.314 C 
BRANCH  20  21
ATOM     21  C   UNL A   1      31.696  23.085  23.421  1.00  0.00     0.429 C 
ATOM     22  F   UNL A   1      32.640  23.943  22.958  1.00  0.00    -0.167 F 
ATOM     23  F   UNL A   1      31.844  21.939  22.716  1.00  0.00    -0.167 F 
ATOM     24  F   UNL A   1      30.488  23.595  23.094  1.00  0.00    -0.167 F 
ENDBRANCH  20  21
ENDBRANCH   5   8
ENDBRANCH   3   4
ENDBRANCH   2   3
ENDBRANCH   1   2
BRANCH   1  25
ATOM     25  C   UNL A   1      33.548  29.005  27.150  1.00  0.00     0.116 C 
BRANCH  25  26
ATOM     26  N   UNL A   1      33.571  30.320  27.777  1.00  0.00    -0.352 N 
ATOM     27  C   UNL A   1      34.618  30.920  28.433  1.00  0.00     0.251 C 
ATOM     28  H   UNL A   1      32.737  30.840  27.722  1.00  0.00     0.163 HD
ATOM     29  O   UNL A   1      34.490  32.016  28.968  1.00  0.00    -0.269 OA
BRANCH  27  30
ATOM     30  C   UNL A   1      35.892  30.187  28.527  1.00  0.00     0.039 A 
ATOM     31  C   UNL A   1      36.776  30.243  27.449  1.00  0.00     0.014 A 
ATOM     32  C   UNL A   1      36.248  29.552  29.720  1.00  0.00     0.014 A 
ATOM     33  C   UNL A   1      38.061  29.727  27.596  1.00  0.00     0.010 A 
ATOM     34  C   UNL A   1      37.549  29.091  29.884  1.00  0.00     0.010 A 
ATOM     35  C   UNL A   1      38.469  29.188  28.829  1.00  0.00    -0.014 A 
BRANCH  35  36
ATOM     36  C   UNL A   1      39.866  28.744  29.031  1.00  0.00     0.031 A 
ATOM     37  C   UNL A   1      40.858  29.656  29.688  1.00  0.00     0.074 A 
ATOM     38  C   UNL A   1      40.245  27.530  28.589  1.00  0.00     0.049 A 
ATOM     39  N   UNL A   1      42.117  29.436  29.964  1.00  0.00    -0.248 NA
ATOM     40  C   UNL A   1      40.379  30.994  30.067  1.00  0.00     0.031 C 
ATOM     41  C   UNL A   1      39.380  26.570  27.898  1.00  0.00     0.029 A 
ATOM     42  N   UNL A   1      41.457  26.892  28.667  1.00  0.00    -0.354 N 
ATOM     43  C   UNL A   1      42.582  30.606  30.546  1.00  0.00     0.074 A 
ATOM     44  C   UNL A   1      41.486  31.551  30.535  1.00  0.00     0.031 C 
ATOM     45  C   UNL A   1      40.076  25.446  27.661  1.00  0.00     0.029 A 
ATOM     46  C   UNL A   1      41.438  25.617  28.156  1.00  0.00     0.049 A 
ATOM     47  H   UNL A   1      42.261  27.308  29.052  1.00  0.00     0.167 HD
ATOM     48  C   UNL A   1      43.803  30.864  31.067  1.00  0.00     0.031 A 
ATOM     49  C   UNL A   1      42.407  24.684  28.112  1.00  0.00     0.031 A 
ATOM     50  C   UNL A   1      44.889  29.926  31.089  1.00  0.00     0.049 A 
ATOM     51  C   UNL A   1      43.760  24.998  28.683  1.00  0.00     0.074 A 
ATOM     52  C   UNL A   1      46.151  30.078  31.636  1.00  0.00     0.029 A 
ATOM     53  N   UNL A   1      44.838  28.654  30.539  1.00  0.00    -0.354 N 
ATOM     54  N   UNL A   1      44.167  26.093  29.277  1.00  0.00    -0.248 NA
ATOM     55  C   UNL A   1      44.781  23.947  28.581  1.00  0.00     0.031 C 
ATOM     56  C   UNL A   1      46.875  28.907  31.390  1.00  0.00     0.029 A 
ATOM     57  C   UNL A   1      46.052  28.015  30.720  1.00  0.00     0.049 A 
ATOM     58  H   UNL A   1      44.055  28.265  30.087  1.00  0.00     0.167 HD
ATOM     59  C   UNL A   1      45.487  25.857  29.636  1.00  0.00     0.074 A 
ATOM     60  C   UNL A   1      45.808  24.512  29.200  1.00  0.00     0.031 C 
ATOM     61  C   UNL A   1      46.353  26.681  30.274  1.00  0.00     0.031 A 
BRANCH  48  62
ATOM     62  C   UNL A   1      44.012  32.224  31.667  1.00  0.00    -0.014 A 
ATOM     63  C   UNL A   1      43.712  32.466  33.017  1.00  0.00     0.009 A 
ATOM     64  C   UNL A   1      44.520  33.268  30.882  1.00  0.00     0.009 A 
ATOM     65  C   UNL A   1      43.883  33.739  33.561  1.00  0.00     0.001 A 
ATOM     66  C   UNL A   1      44.711  34.536  31.435  1.00  0.00     0.001 A 
ATOM     67  C   UNL A   1      44.383  34.772  32.771  1.00  0.00     0.000 A 
ENDBRANCH  48  62
BRANCH  49  68
ATOM     68  C   UNL A   1      42.112  23.343  27.550  1.00  0.00    -0.014 A 
ATOM     69  C   UNL A   1      42.458  23.050  26.222  1.00  0.00     0.009 A 
ATOM     70  C   UNL A   1      41.510  22.349  28.334  1.00  0.00     0.009 A 
ATOM     71  C   UNL A   1      42.195  21.788  25.686  1.00  0.00     0.001 A 
ATOM     72  C   UNL A   1      41.263  21.082  27.799  1.00  0.00     0.001 A 
ATOM     73  C   UNL A   1      41.601  20.804  26.475  1.00  0.00     0.000 A 
ENDBRANCH  49  68
BRANCH  61  74
ATOM     74  C   UNL A   1      47.728  26.151  30.549  1.00  0.00    -0.014 A 
ATOM     75  C   UNL A   1      48.714  26.161  29.552  1.00  0.00     0.009 A 
ATOM     76  C   UNL A   1      48.059  25.707  31.838  1.00  0.00     0.009 A 
ATOM     77  C   UNL A   1      50.007  25.718  29.839  1.00  0.00     0.001 A 
ATOM     78  C   UNL A   1      49.357  25.285  32.126  1.00  0.00     0.001 A 
ATOM     79  C   UNL A   1      50.328  25.287  31.126  1.00  0.00     0.000 A 
ENDBRANCH  61  74
ENDBRANCH  35  36
ENDBRANCH  27  30
ENDBRANCH  25  26
ENDBRANCH   1  25
TORSDOF 12
ENDMDL
MODEL 2
REMARK VINA RESULT:     -11.7      2.689      7.617
REMARK SMILES Cc1c(Cl)cc2c(c1C)O[C@H](C(F)(F)F)C(C(=O)NCCCCNC(=O)c1ccc(-c3c4nc(c(-c5ccccc5)c5ccc([nH]5)c(-c5ccccc5)c5nc(c(-c6ccccc6)c6ccc3[nH]6)C=C5)C=C4)cc1)=C2
REMARK SMILES IDX 22 1 21 2 20 3 19 4 17 5 18 6 16 8 1 9 2 10 3 11 8 12 4 13
REMARK SMILES IDX 5 14 7 15 9 16 6 17 10 18 75 19 11 20 12 21 13 22 14 23
REMARK SMILES IDX 15 24 23 25 24 26 25 27 26 29 27 30 28 31 74 32 29 33 73 34
REMARK SMILES IDX 30 35 31 36 32 37 67 38 33 39 72 40 66 41 68 42 34 43 71 44
REMARK SMILES IDX 65 45 64 46 35 48 57 49 42 50 56 51 43 52 46 53 55 54 69 55
REMARK SMILES IDX 44 56 45 57 54 59 70 60 47 61 36 62 37 63 41 64 38 65 40 66
REMARK SMILES IDX 39 67 58 68 59 69 63 70 60 71 62 72 61 73 48 74 49 75 53 76
REMARK SMILES IDX 50 77 52 78 51 79
REMARK H PARENT 19 7 24 28 68 47 46 58
REMARK Flexibility Score: inf
ROOT
ATOM      1  C   UNL A   1      36.133  23.541  26.040  1.00  0.00     0.023 C 
ENDROOT
BRANCH   1   2
ATOM      2  C   UNL A   1      35.254  22.289  26.052  1.00  0.00     0.023 C 
BRANCH   2   3
ATOM      3  C   UNL A   1      33.906  22.467  25.361  1.00  0.00     0.116 C 
BRANCH   3   4
ATOM      4  N   UNL A   1      34.054  22.761  23.948  1.00  0.00    -0.352 N 
ATOM      5  C   UNL A   1      33.768  23.795  23.123  1.00  0.00     0.251 C 
ATOM      6  O   UNL A   1      34.062  23.614  21.937  1.00  0.00    -0.270 OA
ATOM      7  H   UNL A   1      34.473  22.014  23.464  1.00  0.00     0.163 HD
BRANCH   5   8
ATOM      8  C   UNL A   1      33.142  25.084  23.540  1.00  0.00     0.067 C 
ATOM      9  C   UNL A   1      31.695  30.928  26.113  1.00  0.00     0.046 C 
ATOM     10  C   UNL A   1      32.251  29.590  25.697  1.00  0.00    -0.026 A 
ATOM     11  C   UNL A   1      33.376  29.024  26.333  1.00  0.00     0.045 A 
ATOM     12  C   UNL A   1      31.637  28.870  24.642  1.00  0.00    -0.004 A 
ATOM     13  Cl  UNL A   1      34.193  29.806  27.643  1.00  0.00    -0.084 Cl
ATOM     14  C   UNL A   1      33.895  27.790  25.925  1.00  0.00     0.032 A 
ATOM     15  C   UNL A   1      32.175  27.627  24.253  1.00  0.00     0.131 A 
ATOM     16  C   UNL A   1      30.422  29.378  23.905  1.00  0.00     0.049 C 
ATOM     17  C   UNL A   1      33.299  27.089  24.879  1.00  0.00     0.019 A 
ATOM     18  O   UNL A   1      31.579  26.992  23.194  1.00  0.00    -0.475 OA
ATOM     19  C   UNL A   1      33.856  25.827  24.406  1.00  0.00     0.025 C 
ATOM     20  C   UNL A   1      31.788  25.557  23.097  1.00  0.00     0.314 C 
BRANCH  20  21
ATOM     21  C   UNL A   1      30.637  24.824  23.811  1.00  0.00     0.429 C 
ATOM     22  F   UNL A   1      30.989  24.520  25.086  1.00  0.00    -0.167 F 
ATOM     23  F   UNL A   1      29.516  25.579  23.896  1.00  0.00    -0.167 F 
ATOM     24  F   UNL A   1      30.290  23.671  23.200  1.00  0.00    -0.167 F 
ENDBRANCH  20  21
ENDBRANCH   5   8
ENDBRANCH   3   4
ENDBRANCH   2   3
ENDBRANCH   1   2
BRANCH   1  25
ATOM     25  C   UNL A   1      37.306  23.509  25.062  1.00  0.00     0.116 C 
BRANCH  25  26
ATOM     26  N   UNL A   1      38.384  22.612  25.456  1.00  0.00    -0.352 N 
ATOM     27  C   UNL A   1      39.460  22.894  26.263  1.00  0.00     0.251 C 
ATOM     28  H   UNL A   1      38.335  21.694  25.102  1.00  0.00     0.163 HD
ATOM     29  O   UNL A   1      40.333  22.060  26.474  1.00  0.00    -0.269 OA
BRANCH  27  30
ATOM     30  C   UNL A   1      39.568  24.249  26.829  1.00  0.00     0.039 A 
ATOM     31  C   UNL A   1      39.068  24.479  28.111  1.00  0.00     0.014 A 
ATOM     32  C   UNL A   1      40.264  25.244  26.137  1.00  0.00     0.014 A 
ATOM     33  C   UNL A   1      39.339  25.693  28.739  1.00  0.00     0.010 A 
ATOM     34  C   UNL A   1      40.583  26.430  26.787  1.00  0.00     0.010 A 
ATOM     35  C   UNL A   1      40.135  26.657  28.097  1.00  0.00    -0.014 A 
BRANCH  35  36
ATOM     36  C   UNL A   1      40.525  27.900  28.800  1.00  0.00     0.031 A 
ATOM     37  C   UNL A   1      39.547  29.029  28.931  1.00  0.00     0.074 A 
ATOM     38  C   UNL A   1      41.774  28.021  29.287  1.00  0.00     0.049 A 
ATOM     39  N   UNL A   1      39.702  30.184  29.524  1.00  0.00    -0.248 NA
ATOM     40  C   UNL A   1      38.231  28.843  28.299  1.00  0.00     0.031 C 
ATOM     41  C   UNL A   1      42.827  27.007  29.185  1.00  0.00     0.029 A 
ATOM     42  N   UNL A   1      42.365  29.048  29.979  1.00  0.00    -0.354 N 
ATOM     43  C   UNL A   1      38.507  30.863  29.335  1.00  0.00     0.074 A 
ATOM     44  C   UNL A   1      37.657  30.015  28.529  1.00  0.00     0.031 C 
ATOM     45  C   UNL A   1      43.918  27.444  29.835  1.00  0.00     0.029 A 
ATOM     46  C   UNL A   1      43.651  28.774  30.374  1.00  0.00     0.049 A 
ATOM     47  H   UNL A   1      41.910  29.899  30.173  1.00  0.00     0.167 HD
ATOM     48  C   UNL A   1      38.139  32.075  29.813  1.00  0.00     0.031 A 
ATOM     49  C   UNL A   1      44.511  29.505  31.106  1.00  0.00     0.031 A 
ATOM     50  C   UNL A   1      38.975  32.915  30.622  1.00  0.00     0.049 A 
ATOM     51  C   UNL A   1      44.086  30.853  31.612  1.00  0.00     0.074 A 
ATOM     52  C   UNL A   1      38.677  34.140  31.191  1.00  0.00     0.029 A 
ATOM     53  N   UNL A   1      40.281  32.612  30.978  1.00  0.00    -0.354 N 
ATOM     54  N   UNL A   1      42.933  31.459  31.468  1.00  0.00    -0.248 NA
ATOM     55  C   UNL A   1      45.078  31.613  32.385  1.00  0.00     0.031 C 
ATOM     56  C   UNL A   1      39.812  34.593  31.870  1.00  0.00     0.029 A 
ATOM     57  C   UNL A   1      40.807  33.633  31.749  1.00  0.00     0.049 A 
ATOM     58  H   UNL A   1      40.761  31.792  30.721  1.00  0.00     0.167 HD
ATOM     59  C   UNL A   1      43.054  32.664  32.146  1.00  0.00     0.074 A 
ATOM     60  C   UNL A   1      44.390  32.699  32.708  1.00  0.00     0.031 C 
ATOM     61  C   UNL A   1      42.138  33.652  32.292  1.00  0.00     0.031 A 
BRANCH  48  62
ATOM     62  C   UNL A   1      36.757  32.548  29.470  1.00  0.00    -0.014 A 
ATOM     63  C   UNL A   1      35.682  32.312  30.342  1.00  0.00     0.009 A 
ATOM     64  C   UNL A   1      36.527  33.241  28.273  1.00  0.00     0.009 A 
ATOM     65  C   UNL A   1      34.394  32.731  30.005  1.00  0.00     0.001 A 
ATOM     66  C   UNL A   1      35.241  33.678  27.949  1.00  0.00     0.001 A 
ATOM     67  C   UNL A   1      34.175  33.415  28.810  1.00  0.00     0.000 A 
ENDBRANCH  48  62
BRANCH  49  68
ATOM     68  C   UNL A   1      45.844  28.950  31.449  1.00  0.00    -0.014 A 
ATOM     69  C   UNL A   1      46.006  28.193  32.619  1.00  0.00     0.009 A 
ATOM     70  C   UNL A   1      46.947  29.153  30.608  1.00  0.00     0.009 A 
ATOM     71  C   UNL A   1      47.253  27.658  32.947  1.00  0.00     0.001 A 
ATOM     72  C   UNL A   1      48.190  28.602  30.931  1.00  0.00     0.001 A 
ATOM     73  C   UNL A   1      48.343  27.859  32.101  1.00  0.00     0.000 A 
ENDBRANCH  49  68
BRANCH  61  74
ATOM     74  C   UNL A   1      42.542  34.849  33.099  1.00  0.00    -0.014 A 
ATOM     75  C   UNL A   1      43.170  35.946  32.491  1.00  0.00     0.009 A 
ATOM     76  C   UNL A   1      42.225  34.909  34.464  1.00  0.00     0.009 A 
ATOM     77  C   UNL A   1      43.488  37.078  33.244  1.00  0.00     0.001 A 
ATOM     78  C   UNL A   1      42.526  36.050  35.208  1.00  0.00     0.001 A 
ATOM     79  C   UNL A   1      43.161  37.132  34.598  1.00  0.00     0.000 A 
ENDBRANCH  61  74
ENDBRANCH  35  36
ENDBRANCH  27  30
ENDBRANCH  25  26
ENDBRANCH   1  25
TORSDOF 12
ENDMDL
MODEL 3
REMARK VINA RESULT:     -11.6      0.486      5.952
REMARK SMILES Cc1c(Cl)cc2c(c1C)O[C@H](C(F)(F)F)C(C(=O)NCCCCNC(=O)c1ccc(-c3c4nc(c(-c5ccccc5)c5ccc([nH]5)c(-c5ccccc5)c5nc(c(-c6ccccc6)c6ccc3[nH]6)C=C5)C=C4)cc1)=C2
REMARK SMILES IDX 22 1 21 2 20 3 19 4 17 5 18 6 16 8 1 9 2 10 3 11 8 12 4 13
REMARK SMILES IDX 5 14 7 15 9 16 6 17 10 18 75 19 11 20 12 21 13 22 14 23
REMARK SMILES IDX 15 24 23 25 24 26 25 27 26 29 27 30 28 31 74 32 29 33 73 34
REMARK SMILES IDX 30 35 31 36 32 37 67 38 33 39 72 40 66 41 68 42 34 43 71 44
REMARK SMILES IDX 65 45 64 46 35 48 57 49 42 50 56 51 43 52 46 53 55 54 69 55
REMARK SMILES IDX 44 56 45 57 54 59 70 60 47 61 36 62 37 63 41 64 38 65 40 66
REMARK SMILES IDX 39 67 58 68 59 69 63 70 60 71 62 72 61 73 48 74 49 75 53 76
REMARK SMILES IDX 50 77 52 78 51 79
REMARK H PARENT 19 7 24 28 68 47 46 58
REMARK Flexibility Score: inf
ROOT
ATOM      1  C   UNL A   1      33.495  29.153  25.707  1.00  0.00     0.023 C 
ENDROOT
BRANCH   1   2
ATOM      2  C   UNL A   1      33.653  27.872  24.885  1.00  0.00     0.023 C 
BRANCH   2   3
ATOM      3  C   UNL A   1      32.344  27.326  24.322  1.00  0.00     0.116 C 
BRANCH   3   4
ATOM      4  N   UNL A   1      31.527  26.708  25.350  1.00  0.00    -0.352 N 
ATOM      5  C   UNL A   1      31.447  25.497  25.947  1.00  0.00     0.251 C 
ATOM      6  O   UNL A   1      30.560  25.391  26.799  1.00  0.00    -0.270 OA
ATOM      7  H   UNL A   1      30.857  27.335  25.707  1.00  0.00     0.163 HD
BRANCH   5   8
ATOM      8  C   UNL A   1      32.326  24.328  25.647  1.00  0.00     0.067 C 
ATOM      9  C   UNL A   1      37.224  20.025  25.047  1.00  0.00     0.046 C 
ATOM     10  C   UNL A   1      36.300  21.194  25.274  1.00  0.00    -0.026 A 
ATOM     11  C   UNL A   1      36.786  22.460  25.662  1.00  0.00     0.045 A 
ATOM     12  C   UNL A   1      34.904  21.032  25.097  1.00  0.00    -0.004 A 
ATOM     13  Cl  UNL A   1      38.472  22.777  25.890  1.00  0.00    -0.084 Cl
ATOM     14  C   UNL A   1      35.916  23.532  25.889  1.00  0.00     0.032 A 
ATOM     15  C   UNL A   1      34.048  22.128  25.327  1.00  0.00     0.131 A 
ATOM     16  C   UNL A   1      34.281  19.724  24.671  1.00  0.00     0.049 C 
ATOM     17  C   UNL A   1      34.542  23.368  25.727  1.00  0.00     0.019 A 
ATOM     18  O   UNL A   1      32.701  21.908  25.192  1.00  0.00    -0.475 OA
ATOM     19  C   UNL A   1      33.616  24.458  26.010  1.00  0.00     0.025 C 
ATOM     20  C   UNL A   1      31.875  23.078  24.948  1.00  0.00     0.314 C 
BRANCH  20  21
ATOM     21  C   UNL A   1      31.701  23.273  23.431  1.00  0.00     0.429 C 
ATOM     22  F   UNL A   1      31.950  22.112  22.773  1.00  0.00    -0.167 F 
ATOM     23  F   UNL A   1      30.440  23.637  23.098  1.00  0.00    -0.167 F 
ATOM     24  F   UNL A   1      32.529  24.213  22.924  1.00  0.00    -0.167 F 
ENDBRANCH  20  21
ENDBRANCH   5   8
ENDBRANCH   3   4
ENDBRANCH   2   3
ENDBRANCH   1   2
BRANCH   1  25
ATOM     25  C   UNL A   1      33.859  29.032  27.185  1.00  0.00     0.116 C 
BRANCH  25  26
ATOM     26  N   UNL A   1      33.832  30.296  27.910  1.00  0.00    -0.352 N 
ATOM     27  C   UNL A   1      34.847  30.869  28.638  1.00  0.00     0.251 C 
ATOM     28  H   UNL A   1      32.986  30.799  27.871  1.00  0.00     0.163 HD
ATOM     29  O   UNL A   1      34.676  31.918  29.250  1.00  0.00    -0.269 OA
BRANCH  27  30
ATOM     30  C   UNL A   1      36.136  30.162  28.711  1.00  0.00     0.039 A 
ATOM     31  C   UNL A   1      37.007  30.248  27.624  1.00  0.00     0.014 A 
ATOM     32  C   UNL A   1      36.518  29.522  29.893  1.00  0.00     0.014 A 
ATOM     33  C   UNL A   1      38.305  29.758  27.754  1.00  0.00     0.010 A 
ATOM     34  C   UNL A   1      37.829  29.087  30.039  1.00  0.00     0.010 A 
ATOM     35  C   UNL A   1      38.736  29.215  28.976  1.00  0.00    -0.014 A 
BRANCH  35  36
ATOM     36  C   UNL A   1      40.144  28.798  29.159  1.00  0.00     0.031 A 
ATOM     37  C   UNL A   1      40.582  27.423  28.752  1.00  0.00     0.074 A 
ATOM     38  C   UNL A   1      41.018  29.651  29.727  1.00  0.00     0.049 A 
ATOM     39  N   UNL A   1      41.772  26.886  28.821  1.00  0.00    -0.248 NA
ATOM     40  C   UNL A   1      39.544  26.529  28.215  1.00  0.00     0.031 C 
ATOM     41  C   UNL A   1      40.702  31.000  30.202  1.00  0.00     0.029 A 
ATOM     42  N   UNL A   1      42.358  29.510  29.988  1.00  0.00    -0.354 N 
ATOM     43  C   UNL A   1      41.627  25.594  28.340  1.00  0.00     0.074 A 
ATOM     44  C   UNL A   1      40.225  25.408  28.032  1.00  0.00     0.031 C 
ATOM     45  C   UNL A   1      41.827  31.581  30.650  1.00  0.00     0.029 A 
ATOM     46  C   UNL A   1      42.933  30.638  30.521  1.00  0.00     0.049 A 
ATOM     47  H   UNL A   1      42.857  28.681  29.812  1.00  0.00     0.167 HD
ATOM     48  C   UNL A   1      42.579  24.652  28.145  1.00  0.00     0.031 A 
ATOM     49  C   UNL A   1      44.214  30.889  30.848  1.00  0.00     0.031 A 
ATOM     50  C   UNL A   1      43.971  24.836  28.439  1.00  0.00     0.049 A 
ATOM     51  C   UNL A   1      45.251  29.824  30.638  1.00  0.00     0.074 A 
ATOM     52  C   UNL A   1      45.021  23.957  28.235  1.00  0.00     0.029 A 
ATOM     53  N   UNL A   1      44.510  25.984  29.001  1.00  0.00    -0.354 N 
ATOM     54  N   UNL A   1      45.105  28.623  30.133  1.00  0.00    -0.248 NA
ATOM     55  C   UNL A   1      46.626  30.151  31.038  1.00  0.00     0.031 C 
ATOM     56  C   UNL A   1      46.192  24.563  28.700  1.00  0.00     0.029 A 
ATOM     57  C   UNL A   1      45.875  25.831  29.164  1.00  0.00     0.049 A 
ATOM     58  H   UNL A   1      43.997  26.786  29.246  1.00  0.00     0.167 HD
ATOM     59  C   UNL A   1      46.372  28.057  30.137  1.00  0.00     0.074 A 
ATOM     60  C   UNL A   1      47.275  29.049  30.688  1.00  0.00     0.031 C 
ATOM     61  C   UNL A   1      46.754  26.826  29.719  1.00  0.00     0.031 A 
BRANCH  48  62
ATOM     62  C   UNL A   1      42.129  23.339  27.574  1.00  0.00    -0.014 A 
ATOM     63  C   UNL A   1      41.499  22.383  28.385  1.00  0.00     0.009 A 
ATOM     64  C   UNL A   1      42.331  23.058  26.215  1.00  0.00     0.009 A 
ATOM     65  C   UNL A   1      41.108  21.154  27.853  1.00  0.00     0.001 A 
ATOM     66  C   UNL A   1      41.918  21.835  25.681  1.00  0.00     0.001 A 
ATOM     67  C   UNL A   1      41.316  20.881  26.502  1.00  0.00     0.000 A 
ENDBRANCH  48  62
BRANCH  49  68
ATOM     68  C   UNL A   1      44.594  32.229  31.360  1.00  0.00    -0.014 A 
ATOM     69  C   UNL A   1      44.631  32.464  32.743  1.00  0.00     0.009 A 
ATOM     70  C   UNL A   1      44.940  33.265  30.481  1.00  0.00     0.009 A 
ATOM     71  C   UNL A   1      44.997  33.717  33.236  1.00  0.00     0.001 A 
ATOM     72  C   UNL A   1      45.322  34.513  30.979  1.00  0.00     0.001 A 
ATOM     73  C   UNL A   1      45.346  34.741  32.355  1.00  0.00     0.000 A 
ENDBRANCH  49  68
BRANCH  61  74
ATOM     74  C   UNL A   1      48.209  26.483  29.829  1.00  0.00    -0.014 A 
ATOM     75  C   UNL A   1      48.699  25.779  30.939  1.00  0.00     0.009 A 
ATOM     76  C   UNL A   1      49.082  26.805  28.779  1.00  0.00     0.009 A 
ATOM     77  C   UNL A   1      50.045  25.415  31.000  1.00  0.00     0.001 A 
ATOM     78  C   UNL A   1      50.422  26.422  28.836  1.00  0.00     0.001 A 
ATOM     79  C   UNL A   1      50.904  25.731  29.948  1.00  0.00     0.000 A 
ENDBRANCH  61  74
ENDBRANCH  35  36
ENDBRANCH  27  30
ENDBRANCH  25  26
ENDBRANCH   1  25
TORSDOF 12
ENDMDL
