MODEL 1
REMARK VINA RESULT:     -12.4      0.000      0.000
REMARK SMILES Cc1cccc(-c2cccc(O)c2)c1C(=O)NCCCCNC(=O)c1ccc(-c2c3nc(c(-c4ccccc4)c4ccc([nH]4)c(-c4ccccc4)c4nc(c(-c5ccccc5)c5ccc2[nH]5)C=C4)C=C3)cc1
REMARK SMILES IDX 19 1 18 2 17 3 15 4 16 5 14 7 1 8 2 9 3 10 4 11 6 12 5 13
REMARK SMILES IDX 7 14 8 15 13 16 9 17 11 18 10 19 12 20 20 22 21 23 22 24
REMARK SMILES IDX 23 25 24 27 25 28 26 29 72 30 27 31 71 32 28 33 29 34 30 35
REMARK SMILES IDX 65 36 31 37 70 38 64 39 66 40 32 41 69 42 63 43 62 44 33 46
REMARK SMILES IDX 55 47 40 48 54 49 41 50 44 51 53 52 67 53 42 54 43 55 52 57
REMARK SMILES IDX 68 58 45 59 34 60 35 61 39 62 36 63 38 64 37 65 56 66 57 67
REMARK SMILES IDX 61 68 58 69 60 70 59 71 46 72 47 73 51 74 48 75 50 76 49 77
REMARK H PARENT 17 6 12 21 22 26 66 45 44 56
REMARK Flexibility Score: inf
ROOT
ATOM      1  C   UNL A   1      31.791  29.827  26.774  1.00  0.00     0.023 C 
ENDROOT
BRANCH   1   2
ATOM      2  C   UNL A   1      32.211  28.446  27.307  1.00  0.00     0.116 C 
BRANCH   2   3
ATOM      3  N   UNL A   1      31.240  27.434  26.956  1.00  0.00    -0.352 N 
ATOM      4  C   UNL A   1      30.882  26.623  25.916  1.00  0.00     0.252 C 
ATOM      5  O   UNL A   1      29.870  25.990  26.235  1.00  0.00    -0.269 OA
ATOM      6  H   UNL A   1      30.638  27.277  27.719  1.00  0.00     0.163 HD
BRANCH   4   7
ATOM      7  C   UNL A   1      31.544  26.387  24.556  1.00  0.00     0.050 A 
ATOM      8  C   UNL A   1      33.619  24.964  25.279  1.00  0.00     0.045 C 
ATOM      9  C   UNL A   1      32.674  25.560  24.283  1.00  0.00    -0.038 A 
ATOM     10  C   UNL A   1      33.090  25.315  22.949  1.00  0.00     0.004 A 
ATOM     11  C   UNL A   1      32.506  25.948  21.873  1.00  0.00     0.001 A 
ATOM     12  C   UNL A   1      30.987  27.092  23.422  1.00  0.00    -0.005 A 
ATOM     13  C   UNL A   1      31.492  26.851  22.116  1.00  0.00     0.009 A 
BRANCH  12  14
ATOM     14  C   UNL A   1      29.931  28.140  23.452  1.00  0.00    -0.014 A 
ATOM     15  C   UNL A   1      30.255  29.509  23.495  1.00  0.00     0.009 A 
ATOM     16  C   UNL A   1      28.576  27.794  23.301  1.00  0.00     0.055 A 
ATOM     17  C   UNL A   1      29.261  30.492  23.458  1.00  0.00     0.004 A 
ATOM     18  C   UNL A   1      27.595  28.781  23.221  1.00  0.00     0.116 A 
ATOM     19  C   UNL A   1      27.925  30.128  23.316  1.00  0.00     0.046 A 
BRANCH  18  20
ATOM     20  O   UNL A   1      26.306  28.379  23.029  1.00  0.00    -0.508 OA
ATOM     21  H   UNL A   1      25.606  28.825  23.464  1.00  0.00     0.293 HD
ENDBRANCH  18  20
ENDBRANCH  12  14
ENDBRANCH   4   7
ENDBRANCH   2   3
ENDBRANCH   1   2
BRANCH   1  22
ATOM     22  C   UNL A   1      32.643  31.002  27.255  1.00  0.00     0.023 C 
BRANCH  22  23
ATOM     23  C   UNL A   1      34.133  30.720  27.235  1.00  0.00     0.116 C 
BRANCH  23  24
ATOM     24  N   UNL A   1      34.946  31.667  27.991  1.00  0.00    -0.352 N 
ATOM     25  C   UNL A   1      36.146  31.458  28.651  1.00  0.00     0.251 C 
ATOM     26  H   UNL A   1      34.592  32.585  28.039  1.00  0.00     0.163 HD
ATOM     27  O   UNL A   1      36.666  32.369  29.291  1.00  0.00    -0.269 OA
BRANCH  25  28
ATOM     28  C   UNL A   1      36.883  30.184  28.445  1.00  0.00     0.039 A 
ATOM     29  C   UNL A   1      36.981  29.318  29.540  1.00  0.00     0.014 A 
ATOM     30  C   UNL A   1      37.710  30.011  27.342  1.00  0.00     0.014 A 
ATOM     31  C   UNL A   1      38.105  28.509  29.660  1.00  0.00     0.010 A 
ATOM     32  C   UNL A   1      38.889  29.317  27.519  1.00  0.00     0.010 A 
ATOM     33  C   UNL A   1      39.122  28.638  28.718  1.00  0.00    -0.014 A 
BRANCH  33  34
ATOM     34  C   UNL A   1      40.505  28.263  28.990  1.00  0.00     0.031 A 
ATOM     35  C   UNL A   1      41.064  27.005  28.457  1.00  0.00     0.074 A 
ATOM     36  C   UNL A   1      41.301  29.100  29.693  1.00  0.00     0.049 A 
ATOM     37  N   UNL A   1      42.074  26.384  28.967  1.00  0.00    -0.248 NA
ATOM     38  C   UNL A   1      40.471  26.301  27.325  1.00  0.00     0.031 C 
ATOM     39  C   UNL A   1      42.756  29.048  29.827  1.00  0.00     0.029 A 
ATOM     40  N   UNL A   1      40.941  30.092  30.585  1.00  0.00    -0.354 N 
ATOM     41  C   UNL A   1      42.461  25.420  28.065  1.00  0.00     0.074 A 
ATOM     42  C   UNL A   1      41.363  25.328  27.130  1.00  0.00     0.031 C 
ATOM     43  C   UNL A   1      43.122  29.770  30.901  1.00  0.00     0.029 A 
ATOM     44  C   UNL A   1      41.908  30.184  31.585  1.00  0.00     0.049 A 
ATOM     45  H   UNL A   1      40.130  30.646  30.525  1.00  0.00     0.167 HD
ATOM     46  C   UNL A   1      43.732  24.930  28.114  1.00  0.00     0.031 A 
ATOM     47  C   UNL A   1      41.622  29.895  32.891  1.00  0.00     0.031 A 
ATOM     48  C   UNL A   1      44.456  25.415  29.292  1.00  0.00     0.049 A 
ATOM     49  C   UNL A   1      42.379  28.694  33.430  1.00  0.00     0.074 A 
ATOM     50  C   UNL A   1      45.435  26.378  29.471  1.00  0.00     0.029 A 
ATOM     51  N   UNL A   1      43.988  25.092  30.561  1.00  0.00    -0.354 N 
ATOM     52  N   UNL A   1      43.015  27.836  32.682  1.00  0.00    -0.248 NA
ATOM     53  C   UNL A   1      42.435  28.336  34.847  1.00  0.00     0.031 C 
ATOM     54  C   UNL A   1      45.490  26.696  30.854  1.00  0.00     0.029 A 
ATOM     55  C   UNL A   1      44.571  25.903  31.516  1.00  0.00     0.049 A 
ATOM     56  H   UNL A   1      43.331  24.384  30.753  1.00  0.00     0.167 HD
ATOM     57  C   UNL A   1      43.527  26.832  33.459  1.00  0.00     0.074 A 
ATOM     58  C   UNL A   1      43.154  27.199  34.813  1.00  0.00     0.031 C 
ATOM     59  C   UNL A   1      44.196  25.773  32.918  1.00  0.00     0.031 A 
BRANCH  46  60
ATOM     60  C   UNL A   1      44.413  24.269  26.931  1.00  0.00    -0.014 A 
ATOM     61  C   UNL A   1      44.836  22.929  27.034  1.00  0.00     0.009 A 
ATOM     62  C   UNL A   1      44.751  24.915  25.730  1.00  0.00     0.009 A 
ATOM     63  C   UNL A   1      45.628  22.317  26.052  1.00  0.00     0.001 A 
ATOM     64  C   UNL A   1      45.566  24.322  24.755  1.00  0.00     0.001 A 
ATOM     65  C   UNL A   1      46.017  23.024  24.923  1.00  0.00     0.000 A 
ENDBRANCH  46  60
BRANCH  47  66
ATOM     66  C   UNL A   1      40.241  30.270  33.303  1.00  0.00    -0.014 A 
ATOM     67  C   UNL A   1      39.932  31.639  33.432  1.00  0.00     0.009 A 
ATOM     68  C   UNL A   1      39.186  29.351  33.217  1.00  0.00     0.009 A 
ATOM     69  C   UNL A   1      38.610  32.085  33.355  1.00  0.00     0.001 A 
ATOM     70  C   UNL A   1      37.861  29.803  33.148  1.00  0.00     0.001 A 
ATOM     71  C   UNL A   1      37.577  31.167  33.181  1.00  0.00     0.000 A 
ENDBRANCH  47  66
BRANCH  59  72
ATOM     72  C   UNL A   1      44.616  24.526  33.654  1.00  0.00    -0.014 A 
ATOM     73  C   UNL A   1      43.754  23.465  33.963  1.00  0.00     0.009 A 
ATOM     74  C   UNL A   1      45.987  24.333  33.934  1.00  0.00     0.009 A 
ATOM     75  C   UNL A   1      44.233  22.289  34.559  1.00  0.00     0.001 A 
ATOM     76  C   UNL A   1      46.475  23.147  34.488  1.00  0.00     0.001 A 
ATOM     77  C   UNL A   1      45.592  22.126  34.812  1.00  0.00     0.000 A 
ENDBRANCH  59  72
ENDBRANCH  33  34
ENDBRANCH  25  28
ENDBRANCH  23  24
ENDBRANCH  22  23
ENDBRANCH   1  22
TORSDOF 13
ENDMDL
MODEL 2
REMARK VINA RESULT:     -12.3      1.876      3.018
REMARK SMILES Cc1cccc(-c2cccc(O)c2)c1C(=O)NCCCCNC(=O)c1ccc(-c2c3nc(c(-c4ccccc4)c4ccc([nH]4)c(-c4ccccc4)c4nc(c(-c5ccccc5)c5ccc2[nH]5)C=C4)C=C3)cc1
REMARK SMILES IDX 19 1 18 2 17 3 15 4 16 5 14 7 1 8 2 9 3 10 4 11 6 12 5 13
REMARK SMILES IDX 7 14 8 15 13 16 9 17 11 18 10 19 12 20 20 22 21 23 22 24
REMARK SMILES IDX 23 25 24 27 25 28 26 29 72 30 27 31 71 32 28 33 29 34 30 35
REMARK SMILES IDX 65 36 31 37 70 38 64 39 66 40 32 41 69 42 63 43 62 44 33 46
REMARK SMILES IDX 55 47 40 48 54 49 41 50 44 51 53 52 67 53 42 54 43 55 52 57
REMARK SMILES IDX 68 58 45 59 34 60 35 61 39 62 36 63 38 64 37 65 56 66 57 67
REMARK SMILES IDX 61 68 58 69 60 70 59 71 46 72 47 73 51 74 48 75 50 76 49 77
REMARK H PARENT 17 6 12 21 22 26 66 45 44 56
REMARK Flexibility Score: inf
ROOT
ATOM      1  C   UNL A   1      32.999  28.900  26.527  1.00  0.00     0.023 C 
ENDROOT
BRANCH   1   2
ATOM      2  C   UNL A   1      32.011  28.448  27.616  1.00  0.00     0.116 C 
BRANCH   2   3
ATOM      3  N   UNL A   1      31.134  27.408  27.125  1.00  0.00    -0.352 N 
ATOM      4  C   UNL A   1      30.915  26.643  26.014  1.00  0.00     0.252 C 
ATOM      5  O   UNL A   1      29.919  25.937  26.206  1.00  0.00    -0.269 OA
ATOM      6  H   UNL A   1      30.480  27.172  27.822  1.00  0.00     0.163 HD
BRANCH   4   7
ATOM      7  C   UNL A   1      31.702  26.526  24.706  1.00  0.00     0.050 A 
ATOM      8  C   UNL A   1      33.756  25.120  25.514  1.00  0.00     0.045 C 
ATOM      9  C   UNL A   1      32.882  25.756  24.481  1.00  0.00    -0.038 A 
ATOM     10  C   UNL A   1      33.423  25.621  23.176  1.00  0.00     0.004 A 
ATOM     11  C   UNL A   1      32.913  26.312  22.098  1.00  0.00     0.001 A 
ATOM     12  C   UNL A   1      31.222  27.294  23.578  1.00  0.00    -0.005 A 
ATOM     13  C   UNL A   1      31.848  27.163  22.309  1.00  0.00     0.009 A 
BRANCH  12  14
ATOM     14  C   UNL A   1      30.129  28.304  23.584  1.00  0.00    -0.014 A 
ATOM     15  C   UNL A   1      30.394  29.672  23.775  1.00  0.00     0.009 A 
ATOM     16  C   UNL A   1      28.811  27.933  23.263  1.00  0.00     0.055 A 
ATOM     17  C   UNL A   1      29.372  30.625  23.717  1.00  0.00     0.004 A 
ATOM     18  C   UNL A   1      27.806  28.893  23.164  1.00  0.00     0.116 A 
ATOM     19  C   UNL A   1      28.073  30.236  23.405  1.00  0.00     0.046 A 
BRANCH  18  20
ATOM     20  O   UNL A   1      26.559  28.472  22.804  1.00  0.00    -0.508 OA
ATOM     21  H   UNL A   1      26.260  28.589  21.923  1.00  0.00     0.293 HD
ENDBRANCH  18  20
ENDBRANCH  12  14
ENDBRANCH   4   7
ENDBRANCH   2   3
ENDBRANCH   1   2
BRANCH   1  22
ATOM     22  C   UNL A   1      34.478  28.791  26.898  1.00  0.00     0.023 C 
BRANCH  22  23
ATOM     23  C   UNL A   1      35.038  30.045  27.541  1.00  0.00     0.116 C 
BRANCH  23  24
ATOM     24  N   UNL A   1      34.184  31.223  27.432  1.00  0.00    -0.352 N 
ATOM     25  C   UNL A   1      34.220  32.400  28.162  1.00  0.00     0.251 C 
ATOM     26  H   UNL A   1      33.482  31.175  26.743  1.00  0.00     0.163 HD
ATOM     27  O   UNL A   1      33.376  33.272  27.969  1.00  0.00    -0.269 OA
BRANCH  25  28
ATOM     28  C   UNL A   1      35.375  32.673  29.056  1.00  0.00     0.039 A 
ATOM     29  C   UNL A   1      36.444  33.397  28.516  1.00  0.00     0.014 A 
ATOM     30  C   UNL A   1      35.535  31.972  30.245  1.00  0.00     0.014 A 
ATOM     31  C   UNL A   1      37.729  33.148  28.984  1.00  0.00     0.010 A 
ATOM     32  C   UNL A   1      36.815  31.618  30.620  1.00  0.00     0.010 A 
ATOM     33  C   UNL A   1      37.911  32.140  29.929  1.00  0.00    -0.014 A 
BRANCH  33  34
ATOM     34  C   UNL A   1      39.181  31.447  30.112  1.00  0.00     0.031 A 
ATOM     35  C   UNL A   1      39.423  30.137  29.478  1.00  0.00     0.074 A 
ATOM     36  C   UNL A   1      40.169  32.035  30.825  1.00  0.00     0.049 A 
ATOM     37  N   UNL A   1      40.283  29.272  29.901  1.00  0.00    -0.248 NA
ATOM     38  C   UNL A   1      38.650  29.664  28.335  1.00  0.00     0.031 C 
ATOM     39  C   UNL A   1      41.578  31.650  30.886  1.00  0.00     0.029 A 
ATOM     40  N   UNL A   1      40.072  33.018  31.791  1.00  0.00    -0.354 N 
ATOM     41  C   UNL A   1      40.411  28.311  28.925  1.00  0.00     0.074 A 
ATOM     42  C   UNL A   1      39.292  28.532  28.039  1.00  0.00     0.031 C 
ATOM     43  C   UNL A   1      42.133  32.195  31.982  1.00  0.00     0.029 A 
ATOM     44  C   UNL A   1      41.067  32.822  32.747  1.00  0.00     0.049 A 
ATOM     45  H   UNL A   1      39.406  33.742  31.803  1.00  0.00     0.167 HD
ATOM     46  C   UNL A   1      41.540  27.547  28.883  1.00  0.00     0.031 A 
ATOM     47  C   UNL A   1      40.767  32.514  34.045  1.00  0.00     0.031 A 
ATOM     48  C   UNL A   1      42.393  27.774  30.052  1.00  0.00     0.049 A 
ATOM     49  C   UNL A   1      41.250  31.140  34.475  1.00  0.00     0.074 A 
ATOM     50  C   UNL A   1      43.570  28.480  30.242  1.00  0.00     0.029 A 
ATOM     51  N   UNL A   1      41.906  27.478  31.320  1.00  0.00    -0.354 N 
ATOM     52  N   UNL A   1      41.650  30.216  33.647  1.00  0.00    -0.248 NA
ATOM     53  C   UNL A   1      41.269  30.681  35.864  1.00  0.00     0.031 C 
ATOM     54  C   UNL A   1      43.742  28.680  31.637  1.00  0.00     0.029 A 
ATOM     55  C   UNL A   1      42.688  28.069  32.293  1.00  0.00     0.049 A 
ATOM     56  H   UNL A   1      41.113  26.922  31.500  1.00  0.00     0.167 HD
ATOM     57  C   UNL A   1      41.947  29.071  34.337  1.00  0.00     0.074 A 
ATOM     58  C   UNL A   1      41.712  29.417  35.727  1.00  0.00     0.031 C 
ATOM     59  C   UNL A   1      42.341  27.929  33.702  1.00  0.00     0.031 A 
BRANCH  46  60
ATOM     60  C   UNL A   1      42.015  26.834  27.631  1.00  0.00    -0.014 A 
ATOM     61  C   UNL A   1      42.578  27.583  26.579  1.00  0.00     0.009 A 
ATOM     62  C   UNL A   1      41.863  25.461  27.378  1.00  0.00     0.009 A 
ATOM     63  C   UNL A   1      42.869  27.015  25.329  1.00  0.00     0.001 A 
ATOM     64  C   UNL A   1      42.123  24.889  26.124  1.00  0.00     0.001 A 
ATOM     65  C   UNL A   1      42.614  25.671  25.093  1.00  0.00     0.000 A 
ENDBRANCH  46  60
BRANCH  47  66
ATOM     66  C   UNL A   1      39.520  33.159  34.545  1.00  0.00    -0.014 A 
ATOM     67  C   UNL A   1      38.297  32.489  34.345  1.00  0.00     0.009 A 
ATOM     68  C   UNL A   1      39.570  34.193  35.490  1.00  0.00     0.009 A 
ATOM     69  C   UNL A   1      37.189  32.764  35.150  1.00  0.00     0.001 A 
ATOM     70  C   UNL A   1      38.453  34.471  36.290  1.00  0.00     0.001 A 
ATOM     71  C   UNL A   1      37.278  33.735  36.144  1.00  0.00     0.000 A 
ENDBRANCH  47  66
BRANCH  59  72
ATOM     72  C   UNL A   1      42.491  26.572  34.341  1.00  0.00    -0.014 A 
ATOM     73  C   UNL A   1      41.515  25.965  35.142  1.00  0.00     0.009 A 
ATOM     74  C   UNL A   1      43.618  25.787  34.008  1.00  0.00     0.009 A 
ATOM     75  C   UNL A   1      41.678  24.657  35.622  1.00  0.00     0.001 A 
ATOM     76  C   UNL A   1      43.764  24.469  34.446  1.00  0.00     0.001 A 
ATOM     77  C   UNL A   1      42.795  23.906  35.266  1.00  0.00     0.000 A 
ENDBRANCH  59  72
ENDBRANCH  33  34
ENDBRANCH  25  28
ENDBRANCH  23  24
ENDBRANCH  22  23
ENDBRANCH   1  22
TORSDOF 13
ENDMDL
MODEL 3
REMARK VINA RESULT:     -12.1      3.431      8.250
REMARK SMILES Cc1cccc(-c2cccc(O)c2)c1C(=O)NCCCCNC(=O)c1ccc(-c2c3nc(c(-c4ccccc4)c4ccc([nH]4)c(-c4ccccc4)c4nc(c(-c5ccccc5)c5ccc2[nH]5)C=C4)C=C3)cc1
REMARK SMILES IDX 19 1 18 2 17 3 15 4 16 5 14 7 1 8 2 9 3 10 4 11 6 12 5 13
REMARK SMILES IDX 7 14 8 15 13 16 9 17 11 18 10 19 12 20 20 22 21 23 22 24
REMARK SMILES IDX 23 25 24 27 25 28 26 29 72 30 27 31 71 32 28 33 29 34 30 35
REMARK SMILES IDX 65 36 31 37 70 38 64 39 66 40 32 41 69 42 63 43 62 44 33 46
REMARK SMILES IDX 55 47 40 48 54 49 41 50 44 51 53 52 67 53 42 54 43 55 52 57
REMARK SMILES IDX 68 58 45 59 34 60 35 61 39 62 36 63 38 64 37 65 56 66 57 67
REMARK SMILES IDX 61 68 58 69 60 70 59 71 46 72 47 73 51 74 48 75 50 76 49 77
REMARK H PARENT 17 6 12 21 22 26 66 45 44 56
REMARK Flexibility Score: inf
ROOT
ATOM      1  C   UNL A   1      37.799  23.725  25.845  1.00  0.00     0.023 C 
ENDROOT
BRANCH   1   2
ATOM      2  C   UNL A   1      36.408  23.898  25.209  1.00  0.00     0.116 C 
BRANCH   2   3
ATOM      3  N   UNL A   1      35.362  23.523  26.134  1.00  0.00    -0.352 N 
ATOM      4  C   UNL A   1      34.003  23.396  26.203  1.00  0.00     0.252 C 
ATOM      5  O   UNL A   1      33.691  23.074  27.355  1.00  0.00    -0.269 OA
ATOM      6  H   UNL A   1      35.761  23.277  27.000  1.00  0.00     0.163 HD
BRANCH   4   7
ATOM      7  C   UNL A   1      32.926  23.539  25.124  1.00  0.00     0.050 A 
ATOM      8  C   UNL A   1      33.222  21.269  23.856  1.00  0.00     0.045 C 
ATOM      9  C   UNL A   1      32.520  22.550  24.181  1.00  0.00    -0.038 A 
ATOM     10  C   UNL A   1      31.403  22.769  23.333  1.00  0.00     0.004 A 
ATOM     11  C   UNL A   1      30.739  23.977  23.296  1.00  0.00     0.001 A 
ATOM     12  C   UNL A   1      32.261  24.820  25.025  1.00  0.00    -0.005 A 
ATOM     13  C   UNL A   1      31.190  24.997  24.108  1.00  0.00     0.009 A 
BRANCH  12  14
ATOM     14  C   UNL A   1      32.608  26.067  25.759  1.00  0.00    -0.014 A 
ATOM     15  C   UNL A   1      33.725  26.845  25.401  1.00  0.00     0.009 A 
ATOM     16  C   UNL A   1      31.748  26.577  26.749  1.00  0.00     0.055 A 
ATOM     17  C   UNL A   1      34.011  28.048  26.053  1.00  0.00     0.004 A 
ATOM     18  C   UNL A   1      32.016  27.799  27.362  1.00  0.00     0.116 A 
ATOM     19  C   UNL A   1      33.151  28.532  27.034  1.00  0.00     0.046 A 
BRANCH  18  20
ATOM     20  O   UNL A   1      31.118  28.258  28.281  1.00  0.00    -0.508 OA
ATOM     21  H   UNL A   1      30.682  27.656  28.852  1.00  0.00     0.293 HD
ENDBRANCH  18  20
ENDBRANCH  12  14
ENDBRANCH   4   7
ENDBRANCH   2   3
ENDBRANCH   1   2
BRANCH   1  22
ATOM     22  C   UNL A   1      38.298  22.284  25.949  1.00  0.00     0.023 C 
BRANCH  22  23
ATOM     23  C   UNL A   1      39.698  22.167  26.519  1.00  0.00     0.116 C 
BRANCH  23  24
ATOM     24  N   UNL A   1      40.454  21.007  26.055  1.00  0.00    -0.352 N 
ATOM     25  C   UNL A   1      41.820  20.784  26.087  1.00  0.00     0.251 C 
ATOM     26  H   UNL A   1      39.916  20.281  25.664  1.00  0.00     0.163 HD
ATOM     27  O   UNL A   1      42.291  19.762  25.594  1.00  0.00    -0.269 OA
BRANCH  25  28
ATOM     28  C   UNL A   1      42.695  21.700  26.864  1.00  0.00     0.039 A 
ATOM     29  C   UNL A   1      42.565  21.680  28.257  1.00  0.00     0.014 A 
ATOM     30  C   UNL A   1      43.359  22.749  26.240  1.00  0.00     0.014 A 
ATOM     31  C   UNL A   1      42.805  22.847  28.973  1.00  0.00     0.010 A 
ATOM     32  C   UNL A   1      43.464  23.945  26.920  1.00  0.00     0.010 A 
ATOM     33  C   UNL A   1      43.102  24.011  28.268  1.00  0.00    -0.014 A 
BRANCH  33  34
ATOM     34  C   UNL A   1      42.871  25.346  28.810  1.00  0.00     0.031 A 
ATOM     35  C   UNL A   1      41.712  26.147  28.372  1.00  0.00     0.074 A 
ATOM     36  C   UNL A   1      43.695  25.833  29.765  1.00  0.00     0.049 A 
ATOM     37  N   UNL A   1      41.650  27.435  28.440  1.00  0.00    -0.248 NA
ATOM     38  C   UNL A   1      40.537  25.550  27.747  1.00  0.00     0.031 C 
ATOM     39  C   UNL A   1      43.479  26.997  30.623  1.00  0.00     0.029 A 
ATOM     40  N   UNL A   1      44.998  25.473  30.051  1.00  0.00    -0.354 N 
ATOM     41  C   UNL A   1      40.346  27.796  28.195  1.00  0.00     0.074 A 
ATOM     42  C   UNL A   1      39.730  26.609  27.649  1.00  0.00     0.031 C 
ATOM     43  C   UNL A   1      44.660  27.390  31.132  1.00  0.00     0.029 A 
ATOM     44  C   UNL A   1      45.697  26.592  30.498  1.00  0.00     0.049 A 
ATOM     45  H   UNL A   1      45.374  24.568  29.953  1.00  0.00     0.167 HD
ATOM     46  C   UNL A   1      39.892  29.004  28.635  1.00  0.00     0.031 A 
ATOM     47  C   UNL A   1      46.748  27.113  29.795  1.00  0.00     0.031 A 
ATOM     48  C   UNL A   1      40.978  29.828  29.173  1.00  0.00     0.049 A 
ATOM     49  C   UNL A   1      46.497  28.515  29.270  1.00  0.00     0.074 A 
ATOM     50  C   UNL A   1      41.371  30.153  30.461  1.00  0.00     0.029 A 
ATOM     51  N   UNL A   1      42.020  30.213  28.337  1.00  0.00    -0.354 N 
ATOM     52  N   UNL A   1      45.322  29.078  29.224  1.00  0.00    -0.248 NA
ATOM     53  C   UNL A   1      47.540  29.373  28.706  1.00  0.00     0.031 C 
ATOM     54  C   UNL A   1      42.697  30.658  30.401  1.00  0.00     0.029 A 
ATOM     55  C   UNL A   1      43.094  30.670  29.076  1.00  0.00     0.049 A 
ATOM     56  H   UNL A   1      41.996  30.167  27.353  1.00  0.00     0.167 HD
ATOM     57  C   UNL A   1      45.418  30.308  28.631  1.00  0.00     0.074 A 
ATOM     58  C   UNL A   1      46.833  30.458  28.341  1.00  0.00     0.031 C 
ATOM     59  C   UNL A   1      44.321  31.089  28.410  1.00  0.00     0.031 A 
BRANCH  46  60
ATOM     60  C   UNL A   1      38.424  29.306  28.866  1.00  0.00    -0.014 A 
ATOM     61  C   UNL A   1      37.646  29.812  27.806  1.00  0.00     0.009 A 
ATOM     62  C   UNL A   1      37.764  29.206  30.102  1.00  0.00     0.009 A 
ATOM     63  C   UNL A   1      36.337  30.281  27.997  1.00  0.00     0.001 A 
ATOM     64  C   UNL A   1      36.468  29.697  30.310  1.00  0.00     0.001 A 
ATOM     65  C   UNL A   1      35.758  30.249  29.257  1.00  0.00     0.000 A 
ENDBRANCH  46  60
BRANCH  47  66
ATOM     66  C   UNL A   1      47.569  26.088  29.090  1.00  0.00    -0.014 A 
ATOM     67  C   UNL A   1      47.278  25.815  27.739  1.00  0.00     0.009 A 
ATOM     68  C   UNL A   1      48.803  25.670  29.606  1.00  0.00     0.009 A 
ATOM     69  C   UNL A   1      48.241  25.250  26.898  1.00  0.00     0.001 A 
ATOM     70  C   UNL A   1      49.762  25.095  28.762  1.00  0.00     0.001 A 
ATOM     71  C   UNL A   1      49.494  24.918  27.405  1.00  0.00     0.000 A 
ENDBRANCH  47  66
BRANCH  59  72
ATOM     72  C   UNL A   1      44.289  32.353  27.589  1.00  0.00    -0.014 A 
ATOM     73  C   UNL A   1      44.519  32.402  26.208  1.00  0.00     0.009 A 
ATOM     74  C   UNL A   1      43.865  33.552  28.206  1.00  0.00     0.009 A 
ATOM     75  C   UNL A   1      44.374  33.597  25.489  1.00  0.00     0.001 A 
ATOM     76  C   UNL A   1      43.676  34.733  27.487  1.00  0.00     0.001 A 
ATOM     77  C   UNL A   1      43.942  34.759  26.125  1.00  0.00     0.000 A 
ENDBRANCH  59  72
ENDBRANCH  33  34
ENDBRANCH  25  28
ENDBRANCH  23  24
ENDBRANCH  22  23
ENDBRANCH   1  22
TORSDOF 13
ENDMDL
