MODEL 1
REMARK VINA RESULT:     -12.2      0.000      0.000
REMARK SMILES O=C(NCCCCNC(=O)c1ccc(Cn2ccc3ccc(Br)cc32)nc1)c1ccc(-c2c3nc(c(-c4ccccc4)c4ccc([nH]4)c(-c4ccccc4)c4nc(c(-c5ccccc5)c5ccc2[nH]5)C=C4)C=C3)cc1
REMARK SMILES IDX 5 1 4 2 3 3 1 4 2 5 28 7 29 8 75 9 30 10 74 11 31 12 32 13
REMARK SMILES IDX 33 14 68 15 34 16 73 17 67 18 69 19 35 20 72 21 66 22 65 23
REMARK SMILES IDX 36 25 58 26 43 27 57 28 44 29 47 30 56 31 70 32 45 33 46 34
REMARK SMILES IDX 55 36 71 37 48 38 37 39 38 40 42 41 39 42 41 43 40 44 59 45
REMARK SMILES IDX 60 46 64 47 61 48 63 49 62 50 49 51 50 52 54 53 51 54 53 55
REMARK SMILES IDX 52 56 6 57 7 58 8 59 9 60 10 62 11 63 12 64 27 65 13 66
REMARK SMILES IDX 26 67 14 68 15 69 16 70 17 71 25 72 18 73 19 74 24 75 20 76
REMARK SMILES IDX 22 77 21 78 23 79
REMARK H PARENT 3 6 69 24 47 35 8 61
REMARK Flexibility Score: inf
ROOT
ATOM      1  C   UNL A   1      32.372  29.969  27.183  1.00  0.00     0.023 C 
ENDROOT
BRANCH   1   2
ATOM      2  C   UNL A   1      33.820  30.409  27.322  1.00  0.00     0.116 C 
BRANCH   2   3
ATOM      3  N   UNL A   1      34.009  31.605  28.151  1.00  0.00    -0.352 N 
ATOM      4  O   UNL A   1      34.841  32.655  30.002  1.00  0.00    -0.269 OA
ATOM      5  C   UNL A   1      34.986  31.818  29.112  1.00  0.00     0.251 C 
ATOM      6  H   UNL A   1      33.369  32.340  28.009  1.00  0.00     0.163 HD
BRANCH   5   7
ATOM      7  C   UNL A   1      36.224  31.026  29.031  1.00  0.00     0.039 A 
ATOM      8  C   UNL A   1      37.476  31.579  28.756  1.00  0.00     0.014 A 
ATOM      9  C   UNL A   1      36.098  29.677  29.329  1.00  0.00     0.014 A 
ATOM     10  C   UNL A   1      38.598  30.759  28.870  1.00  0.00     0.010 A 
ATOM     11  C   UNL A   1      37.200  28.969  29.707  1.00  0.00     0.010 A 
ATOM     12  C   UNL A   1      38.451  29.451  29.371  1.00  0.00    -0.014 A 
BRANCH  12  13
ATOM     13  C   UNL A   1      39.589  28.576  29.616  1.00  0.00     0.031 A 
ATOM     14  C   UNL A   1      39.968  28.455  31.040  1.00  0.00     0.074 A 
ATOM     15  C   UNL A   1      40.169  27.811  28.661  1.00  0.00     0.049 A 
ATOM     16  N   UNL A   1      40.994  28.990  31.605  1.00  0.00    -0.248 NA
ATOM     17  C   UNL A   1      39.027  27.818  31.975  1.00  0.00     0.031 C 
ATOM     18  C   UNL A   1      39.749  27.593  27.267  1.00  0.00     0.029 A 
ATOM     19  N   UNL A   1      41.235  26.973  28.772  1.00  0.00    -0.354 N 
ATOM     20  C   UNL A   1      40.957  28.580  32.930  1.00  0.00     0.074 A 
ATOM     21  C   UNL A   1      39.639  28.033  33.142  1.00  0.00     0.031 C 
ATOM     22  C   UNL A   1      40.386  26.517  26.756  1.00  0.00     0.029 A 
ATOM     23  C   UNL A   1      41.404  26.105  27.699  1.00  0.00     0.049 A 
ATOM     24  H   UNL A   1      41.837  26.979  29.551  1.00  0.00     0.167 HD
ATOM     25  C   UNL A   1      42.103  28.489  33.657  1.00  0.00     0.031 A 
ATOM     26  C   UNL A   1      42.331  25.125  27.584  1.00  0.00     0.031 A 
ATOM     27  C   UNL A   1      43.192  29.175  33.003  1.00  0.00     0.049 A 
ATOM     28  C   UNL A   1      43.435  25.470  28.505  1.00  0.00     0.074 A 
ATOM     29  C   UNL A   1      43.425  30.479  32.615  1.00  0.00     0.029 A 
ATOM     30  N   UNL A   1      44.058  28.396  32.269  1.00  0.00    -0.354 N 
ATOM     31  N   UNL A   1      44.208  26.504  28.341  1.00  0.00    -0.248 NA
ATOM     32  C   UNL A   1      43.405  24.912  29.845  1.00  0.00     0.031 C 
ATOM     33  C   UNL A   1      44.087  30.378  31.357  1.00  0.00     0.029 A 
ATOM     34  C   UNL A   1      44.308  29.026  31.079  1.00  0.00     0.049 A 
ATOM     35  H   UNL A   1      44.432  27.531  32.553  1.00  0.00     0.167 HD
ATOM     36  C   UNL A   1      44.395  27.003  29.621  1.00  0.00     0.074 A 
ATOM     37  C   UNL A   1      43.982  25.917  30.510  1.00  0.00     0.031 C 
ATOM     38  C   UNL A   1      44.590  28.338  29.833  1.00  0.00     0.031 A 
BRANCH  25  39
ATOM     39  C   UNL A   1      42.339  27.433  34.709  1.00  0.00    -0.014 A 
ATOM     40  C   UNL A   1      41.868  27.530  36.031  1.00  0.00     0.009 A 
ATOM     41  C   UNL A   1      42.815  26.173  34.302  1.00  0.00     0.009 A 
ATOM     42  C   UNL A   1      41.847  26.433  36.895  1.00  0.00     0.001 A 
ATOM     43  C   UNL A   1      42.757  25.062  35.151  1.00  0.00     0.001 A 
ATOM     44  C   UNL A   1      42.268  25.192  36.446  1.00  0.00     0.000 A 
ENDBRANCH  25  39
BRANCH  26  45
ATOM     45  C   UNL A   1      42.175  23.762  27.031  1.00  0.00    -0.014 A 
ATOM     46  C   UNL A   1      41.225  22.882  27.579  1.00  0.00     0.009 A 
ATOM     47  C   UNL A   1      43.173  23.219  26.205  1.00  0.00     0.009 A 
ATOM     48  C   UNL A   1      41.313  21.501  27.367  1.00  0.00     0.001 A 
ATOM     49  C   UNL A   1      43.262  21.837  25.996  1.00  0.00     0.001 A 
ATOM     50  C   UNL A   1      42.344  20.977  26.594  1.00  0.00     0.000 A 
ENDBRANCH  26  45
BRANCH  38  51
ATOM     51  C   UNL A   1      44.893  29.220  28.639  1.00  0.00    -0.014 A 
ATOM     52  C   UNL A   1      46.235  29.558  28.401  1.00  0.00     0.009 A 
ATOM     53  C   UNL A   1      43.906  29.855  27.864  1.00  0.00     0.009 A 
ATOM     54  C   UNL A   1      46.582  30.512  27.443  1.00  0.00     0.001 A 
ATOM     55  C   UNL A   1      44.256  30.791  26.881  1.00  0.00     0.001 A 
ATOM     56  C   UNL A   1      45.593  31.127  26.681  1.00  0.00     0.000 A 
ENDBRANCH  38  51
ENDBRANCH  12  13
ENDBRANCH   5   7
ENDBRANCH   2   3
ENDBRANCH   1   2
BRANCH   1  57
ATOM     57  C   UNL A   1      31.691  30.374  25.870  1.00  0.00     0.023 C 
BRANCH  57  58
ATOM     58  C   UNL A   1      31.918  29.468  24.657  1.00  0.00     0.116 C 
BRANCH  58  59
ATOM     59  N   UNL A   1      31.100  29.825  23.508  1.00  0.00    -0.352 N 
ATOM     60  C   UNL A   1      30.440  28.998  22.631  1.00  0.00     0.252 C 
ATOM     61  H   UNL A   1      31.008  30.789  23.335  1.00  0.00     0.163 HD
ATOM     62  O   UNL A   1      29.886  29.452  21.637  1.00  0.00    -0.269 OA
BRANCH  60  63
ATOM     63  C   UNL A   1      30.435  27.552  22.874  1.00  0.00     0.058 A 
ATOM     64  C   UNL A   1      29.589  26.949  23.805  1.00  0.00     0.017 A 
ATOM     65  C   UNL A   1      31.327  26.763  22.177  1.00  0.00     0.125 A 
ATOM     66  C   UNL A   1      29.701  25.577  24.034  1.00  0.00     0.026 A 
ATOM     67  N   UNL A   1      31.482  25.443  22.419  1.00  0.00    -0.259 NA
ATOM     68  C   UNL A   1      30.661  24.852  23.327  1.00  0.00     0.060 A 
BRANCH  68  69
ATOM     69  C   UNL A   1      30.826  23.365  23.531  1.00  0.00     0.178 C 
BRANCH  69  70
ATOM     70  N   UNL A   1      31.449  23.065  24.817  1.00  0.00    -0.341 N 
ATOM     71  C   UNL A   1      30.763  22.912  25.996  1.00  0.00     0.087 A 
ATOM     72  C   UNL A   1      32.806  22.907  25.038  1.00  0.00     0.049 A 
ATOM     73  C   UNL A   1      31.673  22.594  26.979  1.00  0.00     0.028 A 
ATOM     74  C   UNL A   1      32.964  22.565  26.384  1.00  0.00    -0.000 A 
ATOM     75  C   UNL A   1      33.906  23.002  24.167  1.00  0.00     0.042 A 
ATOM     76  C   UNL A   1      34.257  22.278  26.869  1.00  0.00     0.011 A 
ATOM     77  C   UNL A   1      35.169  22.683  24.666  1.00  0.00     0.020 A 
ATOM     78  C   UNL A   1      35.351  22.326  25.996  1.00  0.00     0.016 A 
ATOM     79  Br  UNL A   1      36.657  22.719  23.494  1.00  0.00    -0.051 Br
ENDBRANCH  69  70
ENDBRANCH  68  69
ENDBRANCH  60  63
ENDBRANCH  58  59
ENDBRANCH  57  58
ENDBRANCH   1  57
TORSDOF 13
ENDMDL
MODEL 2
REMARK VINA RESULT:     -12.1      3.119      8.030
REMARK SMILES O=C(NCCCCNC(=O)c1ccc(Cn2ccc3ccc(Br)cc32)nc1)c1ccc(-c2c3nc(c(-c4ccccc4)c4ccc([nH]4)c(-c4ccccc4)c4nc(c(-c5ccccc5)c5ccc2[nH]5)C=C4)C=C3)cc1
REMARK SMILES IDX 5 1 4 2 3 3 1 4 2 5 28 7 29 8 75 9 30 10 74 11 31 12 32 13
REMARK SMILES IDX 33 14 68 15 34 16 73 17 67 18 69 19 35 20 72 21 66 22 65 23
REMARK SMILES IDX 36 25 58 26 43 27 57 28 44 29 47 30 56 31 70 32 45 33 46 34
REMARK SMILES IDX 55 36 71 37 48 38 37 39 38 40 42 41 39 42 41 43 40 44 59 45
REMARK SMILES IDX 60 46 64 47 61 48 63 49 62 50 49 51 50 52 54 53 51 54 53 55
REMARK SMILES IDX 52 56 6 57 7 58 8 59 9 60 10 62 11 63 12 64 27 65 13 66
REMARK SMILES IDX 26 67 14 68 15 69 16 70 17 71 25 72 18 73 19 74 24 75 20 76
REMARK SMILES IDX 22 77 21 78 23 79
REMARK H PARENT 3 6 69 24 47 35 8 61
REMARK Flexibility Score: inf
ROOT
ATOM      1  C   UNL A   1      37.823  22.198  25.111  1.00  0.00     0.023 C 
ENDROOT
BRANCH   1   2
ATOM      2  C   UNL A   1      38.756  22.024  26.298  1.00  0.00     0.116 C 
BRANCH   2   3
ATOM      3  N   UNL A   1      40.153  21.764  25.934  1.00  0.00    -0.352 N 
ATOM      4  O   UNL A   1      42.233  22.477  25.314  1.00  0.00    -0.269 OA
ATOM      5  C   UNL A   1      41.216  22.654  25.983  1.00  0.00     0.251 C 
ATOM      6  H   UNL A   1      40.360  20.854  25.619  1.00  0.00     0.163 HD
BRANCH   5   7
ATOM      7  C   UNL A   1      41.108  23.817  26.878  1.00  0.00     0.039 A 
ATOM      8  C   UNL A   1      41.921  24.007  27.996  1.00  0.00     0.014 A 
ATOM      9  C   UNL A   1      40.187  24.784  26.502  1.00  0.00     0.014 A 
ATOM     10  C   UNL A   1      41.839  25.225  28.671  1.00  0.00     0.010 A 
ATOM     11  C   UNL A   1      40.314  26.053  26.984  1.00  0.00     0.010 A 
ATOM     12  C   UNL A   1      41.042  26.257  28.141  1.00  0.00    -0.014 A 
BRANCH  12  13
ATOM     13  C   UNL A   1      40.991  27.587  28.733  1.00  0.00     0.031 A 
ATOM     14  C   UNL A   1      41.909  28.566  28.110  1.00  0.00     0.074 A 
ATOM     15  C   UNL A   1      40.086  27.961  29.668  1.00  0.00     0.049 A 
ATOM     16  N   UNL A   1      43.006  29.012  28.616  1.00  0.00    -0.248 NA
ATOM     17  C   UNL A   1      41.682  28.966  26.713  1.00  0.00     0.031 C 
ATOM     18  C   UNL A   1      38.933  27.211  30.191  1.00  0.00     0.029 A 
ATOM     19  N   UNL A   1      39.954  29.161  30.293  1.00  0.00    -0.354 N 
ATOM     20  C   UNL A   1      43.507  29.922  27.697  1.00  0.00     0.074 A 
ATOM     21  C   UNL A   1      42.766  29.708  26.478  1.00  0.00     0.031 C 
ATOM     22  C   UNL A   1      38.097  28.047  30.846  1.00  0.00     0.029 A 
ATOM     23  C   UNL A   1      38.753  29.331  30.973  1.00  0.00     0.049 A 
ATOM     24  H   UNL A   1      40.652  29.855  30.266  1.00  0.00     0.167 HD
ATOM     25  C   UNL A   1      44.304  30.947  28.104  1.00  0.00     0.031 A 
ATOM     26  C   UNL A   1      38.332  30.447  31.615  1.00  0.00     0.031 A 
ATOM     27  C   UNL A   1      44.791  30.728  29.446  1.00  0.00     0.049 A 
ATOM     28  C   UNL A   1      39.539  31.240  31.929  1.00  0.00     0.074 A 
ATOM     29  C   UNL A   1      45.561  29.757  30.053  1.00  0.00     0.029 A 
ATOM     30  N   UNL A   1      44.115  31.370  30.457  1.00  0.00    -0.354 N 
ATOM     31  N   UNL A   1      40.453  30.852  32.772  1.00  0.00    -0.248 NA
ATOM     32  C   UNL A   1      39.948  32.264  30.986  1.00  0.00     0.031 C 
ATOM     33  C   UNL A   1      44.970  29.565  31.336  1.00  0.00     0.029 A 
ATOM     34  C   UNL A   1      43.929  30.486  31.487  1.00  0.00     0.049 A 
ATOM     35  H   UNL A   1      43.814  32.308  30.443  1.00  0.00     0.167 HD
ATOM     36  C   UNL A   1      41.650  31.227  32.180  1.00  0.00     0.074 A 
ATOM     37  C   UNL A   1      41.272  32.196  31.152  1.00  0.00     0.031 C 
ATOM     38  C   UNL A   1      42.792  30.506  32.387  1.00  0.00     0.031 A 
BRANCH  25  39
ATOM     39  C   UNL A   1      44.285  32.318  27.473  1.00  0.00    -0.014 A 
ATOM     40  C   UNL A   1      44.601  32.560  26.124  1.00  0.00     0.009 A 
ATOM     41  C   UNL A   1      43.670  33.371  28.174  1.00  0.00     0.009 A 
ATOM     42  C   UNL A   1      44.302  33.772  25.496  1.00  0.00     0.001 A 
ATOM     43  C   UNL A   1      43.331  34.572  27.538  1.00  0.00     0.001 A 
ATOM     44  C   UNL A   1      43.644  34.769  26.197  1.00  0.00     0.000 A 
ENDBRANCH  25  39
BRANCH  26  45
ATOM     45  C   UNL A   1      36.979  31.041  31.649  1.00  0.00    -0.014 A 
ATOM     46  C   UNL A   1      36.329  31.388  30.451  1.00  0.00     0.009 A 
ATOM     47  C   UNL A   1      36.473  31.573  32.847  1.00  0.00     0.009 A 
ATOM     48  C   UNL A   1      35.258  32.289  30.445  1.00  0.00     0.001 A 
ATOM     49  C   UNL A   1      35.403  32.478  32.839  1.00  0.00     0.001 A 
ATOM     50  C   UNL A   1      34.810  32.851  31.635  1.00  0.00     0.000 A 
ENDBRANCH  26  45
BRANCH  38  51
ATOM     51  C   UNL A   1      42.800  29.472  33.495  1.00  0.00    -0.014 A 
ATOM     52  C   UNL A   1      42.216  28.224  33.226  1.00  0.00     0.009 A 
ATOM     53  C   UNL A   1      43.196  29.744  34.816  1.00  0.00     0.009 A 
ATOM     54  C   UNL A   1      42.012  27.287  34.241  1.00  0.00     0.001 A 
ATOM     55  C   UNL A   1      43.019  28.792  35.830  1.00  0.00     0.001 A 
ATOM     56  C   UNL A   1      42.415  27.570  35.542  1.00  0.00     0.000 A 
ENDBRANCH  38  51
ENDBRANCH  12  13
ENDBRANCH   5   7
ENDBRANCH   2   3
ENDBRANCH   1   2
BRANCH   1  57
ATOM     57  C   UNL A   1      36.728  21.132  24.980  1.00  0.00     0.023 C 
BRANCH  57  58
ATOM     58  C   UNL A   1      35.426  21.373  25.747  1.00  0.00     0.116 C 
BRANCH  58  59
ATOM     59  N   UNL A   1      34.563  20.203  25.804  1.00  0.00    -0.352 N 
ATOM     60  C   UNL A   1      33.254  20.078  25.407  1.00  0.00     0.252 C 
ATOM     61  H   UNL A   1      34.974  19.390  26.178  1.00  0.00     0.163 HD
ATOM     62  O   UNL A   1      32.625  19.050  25.631  1.00  0.00    -0.269 OA
BRANCH  60  63
ATOM     63  C   UNL A   1      32.596  21.207  24.741  1.00  0.00     0.058 A 
ATOM     64  C   UNL A   1      32.692  21.430  23.367  1.00  0.00     0.017 A 
ATOM     65  C   UNL A   1      31.881  22.101  25.512  1.00  0.00     0.125 A 
ATOM     66  C   UNL A   1      32.101  22.571  22.822  1.00  0.00     0.026 A 
ATOM     67  N   UNL A   1      31.343  23.234  25.009  1.00  0.00    -0.259 NA
ATOM     68  C   UNL A   1      31.437  23.456  23.671  1.00  0.00     0.060 A 
BRANCH  68  69
ATOM     69  C   UNL A   1      30.777  24.705  23.138  1.00  0.00     0.178 C 
BRANCH  69  70
ATOM     70  N   UNL A   1      31.749  25.772  22.914  1.00  0.00    -0.341 N 
ATOM     71  C   UNL A   1      32.437  25.961  21.741  1.00  0.00     0.087 A 
ATOM     72  C   UNL A   1      32.125  26.728  23.840  1.00  0.00     0.049 A 
ATOM     73  C   UNL A   1      33.221  27.083  21.886  1.00  0.00     0.028 A 
ATOM     74  C   UNL A   1      33.018  27.591  23.198  1.00  0.00    -0.000 A 
ATOM     75  C   UNL A   1      31.734  26.932  25.176  1.00  0.00     0.042 A 
ATOM     76  C   UNL A   1      33.513  28.709  23.900  1.00  0.00     0.011 A 
ATOM     77  C   UNL A   1      32.216  28.062  25.837  1.00  0.00     0.020 A 
ATOM     78  C   UNL A   1      33.093  28.942  25.215  1.00  0.00     0.016 A 
ATOM     79  Br  UNL A   1      31.639  28.407  27.607  1.00  0.00    -0.051 Br
ENDBRANCH  69  70
ENDBRANCH  68  69
ENDBRANCH  60  63
ENDBRANCH  58  59
ENDBRANCH  57  58
ENDBRANCH   1  57
TORSDOF 13
ENDMDL
MODEL 3
REMARK VINA RESULT:     -12.1      3.155      8.325
REMARK SMILES O=C(NCCCCNC(=O)c1ccc(Cn2ccc3ccc(Br)cc32)nc1)c1ccc(-c2c3nc(c(-c4ccccc4)c4ccc([nH]4)c(-c4ccccc4)c4nc(c(-c5ccccc5)c5ccc2[nH]5)C=C4)C=C3)cc1
REMARK SMILES IDX 5 1 4 2 3 3 1 4 2 5 28 7 29 8 75 9 30 10 74 11 31 12 32 13
REMARK SMILES IDX 33 14 68 15 34 16 73 17 67 18 69 19 35 20 72 21 66 22 65 23
REMARK SMILES IDX 36 25 58 26 43 27 57 28 44 29 47 30 56 31 70 32 45 33 46 34
REMARK SMILES IDX 55 36 71 37 48 38 37 39 38 40 42 41 39 42 41 43 40 44 59 45
REMARK SMILES IDX 60 46 64 47 61 48 63 49 62 50 49 51 50 52 54 53 51 54 53 55
REMARK SMILES IDX 52 56 6 57 7 58 8 59 9 60 10 62 11 63 12 64 27 65 13 66
REMARK SMILES IDX 26 67 14 68 15 69 16 70 17 71 25 72 18 73 19 74 24 75 20 76
REMARK SMILES IDX 22 77 21 78 23 79
REMARK H PARENT 3 6 69 24 47 35 8 61
REMARK Flexibility Score: inf
ROOT
ATOM      1  C   UNL A   1      36.851  22.509  25.424  1.00  0.00     0.023 C 
ENDROOT
BRANCH   1   2
ATOM      2  C   UNL A   1      38.353  22.745  25.447  1.00  0.00     0.116 C 
BRANCH   2   3
ATOM      3  N   UNL A   1      39.062  22.008  26.499  1.00  0.00    -0.352 N 
ATOM      4  O   UNL A   1      40.856  21.710  27.881  1.00  0.00    -0.269 OA
ATOM      5  C   UNL A   1      40.078  22.478  27.318  1.00  0.00     0.251 C 
ATOM      6  H   UNL A   1      38.785  21.073  26.639  1.00  0.00     0.163 HD
BRANCH   5   7
ATOM      7  C   UNL A   1      40.192  23.931  27.517  1.00  0.00     0.039 A 
ATOM      8  C   UNL A   1      39.160  24.830  27.246  1.00  0.00     0.014 A 
ATOM      9  C   UNL A   1      41.381  24.371  28.081  1.00  0.00     0.014 A 
ATOM     10  C   UNL A   1      39.326  26.160  27.630  1.00  0.00     0.010 A 
ATOM     11  C   UNL A   1      41.421  25.586  28.698  1.00  0.00     0.010 A 
ATOM     12  C   UNL A   1      40.459  26.527  28.381  1.00  0.00    -0.014 A 
BRANCH  12  13
ATOM     13  C   UNL A   1      40.647  27.873  28.907  1.00  0.00     0.031 A 
ATOM     14  C   UNL A   1      41.735  28.633  28.255  1.00  0.00     0.074 A 
ATOM     15  C   UNL A   1      39.816  28.453  29.804  1.00  0.00     0.049 A 
ATOM     16  N   UNL A   1      42.891  28.897  28.761  1.00  0.00    -0.248 NA
ATOM     17  C   UNL A   1      41.600  28.996  26.836  1.00  0.00     0.031 C 
ATOM     18  C   UNL A   1      38.539  27.954  30.340  1.00  0.00     0.029 A 
ATOM     19  N   UNL A   1      39.900  29.688  30.368  1.00  0.00    -0.354 N 
ATOM     20  C   UNL A   1      43.560  29.651  27.809  1.00  0.00     0.074 A 
ATOM     21  C   UNL A   1      42.805  29.514  26.587  1.00  0.00     0.031 C 
ATOM     22  C   UNL A   1      37.864  28.961  30.937  1.00  0.00     0.029 A 
ATOM     23  C   UNL A   1      38.743  30.109  31.014  1.00  0.00     0.049 A 
ATOM     24  H   UNL A   1      40.713  30.240  30.320  1.00  0.00     0.167 HD
ATOM     25  C   UNL A   1      44.527  30.532  28.181  1.00  0.00     0.031 A 
ATOM     26  C   UNL A   1      38.528  31.314  31.593  1.00  0.00     0.031 A 
ATOM     27  C   UNL A   1      44.952  30.298  29.541  1.00  0.00     0.049 A 
ATOM     28  C   UNL A   1      39.857  31.889  31.893  1.00  0.00     0.074 A 
ATOM     29  C   UNL A   1      45.523  29.234  30.211  1.00  0.00     0.029 A 
ATOM     30  N   UNL A   1      44.394  31.104  30.507  1.00  0.00    -0.354 N 
ATOM     31  N   UNL A   1      40.675  31.383  32.770  1.00  0.00    -0.248 NA
ATOM     32  C   UNL A   1      40.457  32.771  30.908  1.00  0.00     0.031 C 
ATOM     33  C   UNL A   1      44.893  29.220  31.489  1.00  0.00     0.029 A 
ATOM     34  C   UNL A   1      44.038  30.322  31.574  1.00  0.00     0.049 A 
ATOM     35  H   UNL A   1      44.271  32.078  30.441  1.00  0.00     0.167 HD
ATOM     36  C   UNL A   1      41.926  31.503  32.186  1.00  0.00     0.074 A 
ATOM     37  C   UNL A   1      41.743  32.470  31.104  1.00  0.00     0.031 C 
ATOM     38  C   UNL A   1      42.914  30.597  32.449  1.00  0.00     0.031 A 
BRANCH  25  39
ATOM     39  C   UNL A   1      44.767  31.849  27.485  1.00  0.00    -0.014 A 
ATOM     40  C   UNL A   1      43.895  32.950  27.576  1.00  0.00     0.009 A 
ATOM     41  C   UNL A   1      46.038  32.098  26.936  1.00  0.00     0.009 A 
ATOM     42  C   UNL A   1      44.271  34.233  27.169  1.00  0.00     0.001 A 
ATOM     43  C   UNL A   1      46.433  33.389  26.565  1.00  0.00     0.001 A 
ATOM     44  C   UNL A   1      45.550  34.457  26.687  1.00  0.00     0.000 A 
ENDBRANCH  25  39
BRANCH  26  45
ATOM     45  C   UNL A   1      37.306  32.147  31.571  1.00  0.00    -0.014 A 
ATOM     46  C   UNL A   1      37.385  33.523  31.853  1.00  0.00     0.009 A 
ATOM     47  C   UNL A   1      36.039  31.541  31.609  1.00  0.00     0.009 A 
ATOM     48  C   UNL A   1      36.248  34.250  32.228  1.00  0.00     0.001 A 
ATOM     49  C   UNL A   1      34.903  32.268  31.987  1.00  0.00     0.001 A 
ATOM     50  C   UNL A   1      35.013  33.617  32.317  1.00  0.00     0.000 A 
ENDBRANCH  26  45
BRANCH  38  51
ATOM     51  C   UNL A   1      42.720  29.637  33.606  1.00  0.00    -0.014 A 
ATOM     52  C   UNL A   1      41.923  28.502  33.386  1.00  0.00     0.009 A 
ATOM     53  C   UNL A   1      43.143  29.901  34.922  1.00  0.00     0.009 A 
ATOM     54  C   UNL A   1      41.540  27.671  34.440  1.00  0.00     0.001 A 
ATOM     55  C   UNL A   1      42.782  29.050  35.976  1.00  0.00     0.001 A 
ATOM     56  C   UNL A   1      41.971  27.944  35.735  1.00  0.00     0.000 A 
ENDBRANCH  38  51
ENDBRANCH  12  13
ENDBRANCH   5   7
ENDBRANCH   2   3
ENDBRANCH   1   2
BRANCH   1  57
ATOM     57  C   UNL A   1      36.120  23.084  24.204  1.00  0.00     0.023 C 
BRANCH  57  58
ATOM     58  C   UNL A   1      35.176  24.263  24.449  1.00  0.00     0.116 C 
BRANCH  58  59
ATOM     59  N   UNL A   1      34.144  24.399  23.431  1.00  0.00    -0.352 N 
ATOM     60  C   UNL A   1      33.160  25.352  23.326  1.00  0.00     0.252 C 
ATOM     61  H   UNL A   1      34.154  23.716  22.723  1.00  0.00     0.163 HD
ATOM     62  O   UNL A   1      32.288  25.260  22.469  1.00  0.00    -0.269 OA
BRANCH  60  63
ATOM     63  C   UNL A   1      33.136  26.467  24.277  1.00  0.00     0.058 A 
ATOM     64  C   UNL A   1      33.583  27.747  23.948  1.00  0.00     0.017 A 
ATOM     65  C   UNL A   1      32.683  26.230  25.559  1.00  0.00     0.125 A 
ATOM     66  C   UNL A   1      33.601  28.734  24.934  1.00  0.00     0.026 A 
ATOM     67  N   UNL A   1      32.737  27.160  26.539  1.00  0.00    -0.259 NA
ATOM     68  C   UNL A   1      33.175  28.408  26.221  1.00  0.00     0.060 A 
BRANCH  68  69
ATOM     69  C   UNL A   1      33.169  29.436  27.328  1.00  0.00     0.178 C 
BRANCH  69  70
ATOM     70  N   UNL A   1      34.501  29.992  27.551  1.00  0.00    -0.341 N 
ATOM     71  C   UNL A   1      35.670  29.284  27.419  1.00  0.00     0.087 A 
ATOM     72  C   UNL A   1      34.778  31.292  27.935  1.00  0.00     0.049 A 
ATOM     73  C   UNL A   1      36.716  30.145  27.662  1.00  0.00     0.028 A 
ATOM     74  C   UNL A   1      36.169  31.421  27.966  1.00  0.00    -0.000 A 
ATOM     75  C   UNL A   1      33.929  32.375  28.225  1.00  0.00     0.042 A 
ATOM     76  C   UNL A   1      36.732  32.679  28.267  1.00  0.00     0.011 A 
ATOM     77  C   UNL A   1      34.513  33.615  28.489  1.00  0.00     0.020 A 
ATOM     78  C   UNL A   1      35.893  33.773  28.512  1.00  0.00     0.016 A 
ATOM     79  Br  UNL A   1      33.394  35.111  28.798  1.00  0.00    -0.051 Br
ENDBRANCH  69  70
ENDBRANCH  68  69
ENDBRANCH  60  63
ENDBRANCH  58  59
ENDBRANCH  57  58
ENDBRANCH   1  57
TORSDOF 13
ENDMDL
