MODEL 1
REMARK VINA RESULT:     -11.1      0.000      0.000
REMARK SMILES Cc1nc(-c2ccco2)nc(S)c1C(=O)NCCCCNC(=O)c1ccc(-c2c3nc(c(-c4ccccc4)c4ccc([nH]4)c(-c4ccccc4)c4nc(c(-c5ccccc5)c5ccc2[nH]5)C=C4)C=C3)cc1
REMARK SMILES IDX 19 1 18 2 17 3 16 4 14 5 15 6 13 8 1 9 2 10 3 11 4 12 11 13
REMARK SMILES IDX 10 14 5 15 6 16 9 17 7 18 8 19 12 20 20 22 21 23 22 24 23 26
REMARK SMILES IDX 24 27 25 28 71 29 26 30 70 31 27 32 28 33 29 34 64 35 30 36
REMARK SMILES IDX 69 37 63 38 65 39 31 40 68 41 62 42 61 43 32 45 54 46 39 47
REMARK SMILES IDX 53 48 40 49 43 50 52 51 66 52 41 53 42 54 51 56 67 57 44 58
REMARK SMILES IDX 33 59 34 60 38 61 35 62 37 63 36 64 55 65 56 66 60 67 57 68
REMARK SMILES IDX 59 69 58 70 45 71 46 72 50 73 47 74 49 75 48 76
REMARK H PARENT 16 7 12 21 21 25 65 44 43 55
REMARK Flexibility Score: inf
ROOT
ATOM      1  C   UNL A   1      37.386  21.470  24.626  1.00  0.00     0.023 C 
ENDROOT
BRANCH   1   2
ATOM      2  C   UNL A   1      36.934  22.907  24.396  1.00  0.00     0.023 C 
BRANCH   2   3
ATOM      3  C   UNL A   1      36.715  23.751  25.659  1.00  0.00     0.116 C 
BRANCH   3   4
ATOM      4  N   UNL A   1      35.453  24.449  25.546  1.00  0.00    -0.352 N 
ATOM      5  C   UNL A   1      34.180  24.053  25.229  1.00  0.00     0.255 C 
ATOM      6  O   UNL A   1      33.385  24.964  24.981  1.00  0.00    -0.269 OA
ATOM      7  H   UNL A   1      35.523  25.412  25.737  1.00  0.00     0.163 HD
BRANCH   5   8
ATOM      8  C   UNL A   1      33.662  22.661  25.212  1.00  0.00     0.093 A 
ATOM      9  C   UNL A   1      34.071  22.024  27.675  1.00  0.00     0.068 C 
ATOM     10  C   UNL A   1      33.655  21.760  26.271  1.00  0.00     0.055 A 
ATOM     11  N   UNL A   1      33.335  20.455  26.113  1.00  0.00    -0.230 NA
ATOM     12  C   UNL A   1      33.110  20.006  24.877  1.00  0.00     0.196 A 
ATOM     13  C   UNL A   1      33.356  22.082  23.967  1.00  0.00     0.110 A 
ATOM     14  N   UNL A   1      33.114  20.760  23.781  1.00  0.00    -0.218 NA
BRANCH  12  15
ATOM     15  C   UNL A   1      33.134  18.567  24.741  1.00  0.00     0.171 A 
ATOM     16  C   UNL A   1      33.968  17.691  24.074  1.00  0.00     0.054 A 
ATOM     17  O   UNL A   1      32.242  17.868  25.505  1.00  0.00    -0.461 OA
ATOM     18  C   UNL A   1      33.576  16.388  24.467  1.00  0.00     0.043 A 
ATOM     19  C   UNL A   1      32.514  16.550  25.325  1.00  0.00     0.196 A 
ENDBRANCH  12  15
BRANCH  13  20
ATOM     20  S   UNL A   1      33.200  23.003  22.434  1.00  0.00    -0.123 SA
ATOM     21  H   UNL A   1      33.984  24.113  22.491  1.00  0.00     0.110 HD
ENDBRANCH  13  20
ENDBRANCH   5   8
ENDBRANCH   3   4
ENDBRANCH   2   3
ENDBRANCH   1   2
BRANCH   1  22
ATOM     22  C   UNL A   1      38.487  21.329  25.658  1.00  0.00     0.116 C 
BRANCH  22  23
ATOM     23  N   UNL A   1      39.272  20.107  25.529  1.00  0.00    -0.352 N 
ATOM     24  C   UNL A   1      40.576  19.898  25.922  1.00  0.00     0.251 C 
ATOM     25  H   UNL A   1      38.817  19.342  25.109  1.00  0.00     0.163 HD
ATOM     26  O   UNL A   1      41.142  18.834  25.704  1.00  0.00    -0.269 OA
BRANCH  24  27
ATOM     27  C   UNL A   1      41.296  21.022  26.550  1.00  0.00     0.039 A 
ATOM     28  C   UNL A   1      41.223  21.203  27.932  1.00  0.00     0.014 A 
ATOM     29  C   UNL A   1      41.908  21.974  25.734  1.00  0.00     0.014 A 
ATOM     30  C   UNL A   1      41.572  22.432  28.469  1.00  0.00     0.010 A 
ATOM     31  C   UNL A   1      42.354  23.171  26.297  1.00  0.00     0.010 A 
ATOM     32  C   UNL A   1      42.130  23.434  27.657  1.00  0.00    -0.014 A 
BRANCH  32  33
ATOM     33  C   UNL A   1      42.454  24.751  28.257  1.00  0.00     0.031 A 
ATOM     34  C   UNL A   1      43.873  25.115  28.604  1.00  0.00     0.074 A 
ATOM     35  C   UNL A   1      41.466  25.652  28.417  1.00  0.00     0.049 A 
ATOM     36  N   UNL A   1      44.330  26.229  29.119  1.00  0.00    -0.248 NA
ATOM     37  C   UNL A   1      44.914  24.108  28.342  1.00  0.00     0.031 C 
ATOM     38  C   UNL A   1      40.058  25.424  28.083  1.00  0.00     0.029 A 
ATOM     39  N   UNL A   1      41.498  26.947  28.861  1.00  0.00    -0.354 N 
ATOM     40  C   UNL A   1      45.699  26.047  29.269  1.00  0.00     0.074 A 
ATOM     41  C   UNL A   1      46.002  24.711  28.804  1.00  0.00     0.031 C 
ATOM     42  C   UNL A   1      39.375  26.562  28.264  1.00  0.00     0.029 A 
ATOM     43  C   UNL A   1      40.278  27.574  28.801  1.00  0.00     0.049 A 
ATOM     44  H   UNL A   1      42.315  27.386  29.191  1.00  0.00     0.167 HD
ATOM     45  C   UNL A   1      46.619  26.917  29.748  1.00  0.00     0.031 A 
ATOM     46  C   UNL A   1      39.915  28.821  29.152  1.00  0.00     0.031 A 
ATOM     47  C   UNL A   1      46.318  28.252  30.189  1.00  0.00     0.049 A 
ATOM     48  C   UNL A   1      40.946  29.750  29.718  1.00  0.00     0.074 A 
ATOM     49  C   UNL A   1      47.188  29.210  30.681  1.00  0.00     0.029 A 
ATOM     50  N   UNL A   1      45.055  28.822  30.184  1.00  0.00    -0.354 N 
ATOM     51  N   UNL A   1      42.232  29.550  29.877  1.00  0.00    -0.248 NA
ATOM     52  C   UNL A   1      40.477  31.069  30.166  1.00  0.00     0.031 C 
ATOM     53  C   UNL A   1      46.444  30.343  31.018  1.00  0.00     0.029 A 
ATOM     54  C   UNL A   1      45.119  30.110  30.685  1.00  0.00     0.049 A 
ATOM     55  H   UNL A   1      44.235  28.376  29.871  1.00  0.00     0.167 HD
ATOM     56  C   UNL A   1      42.727  30.716  30.441  1.00  0.00     0.074 A 
ATOM     57  C   UNL A   1      41.609  31.628  30.575  1.00  0.00     0.031 C 
ATOM     58  C   UNL A   1      43.996  31.001  30.821  1.00  0.00     0.031 A 
BRANCH  45  59
ATOM     59  C   UNL A   1      48.046  26.456  29.844  1.00  0.00    -0.014 A 
ATOM     60  C   UNL A   1      48.897  26.595  28.735  1.00  0.00     0.009 A 
ATOM     61  C   UNL A   1      48.525  25.801  30.988  1.00  0.00     0.009 A 
ATOM     62  C   UNL A   1      50.193  26.078  28.764  1.00  0.00     0.001 A 
ATOM     63  C   UNL A   1      49.830  25.305  31.024  1.00  0.00     0.001 A 
ATOM     64  C   UNL A   1      50.660  25.436  29.911  1.00  0.00     0.000 A 
ENDBRANCH  45  59
BRANCH  46  65
ATOM     65  C   UNL A   1      38.501  29.240  28.980  1.00  0.00    -0.014 A 
ATOM     66  C   UNL A   1      38.053  29.742  27.747  1.00  0.00     0.009 A 
ATOM     67  C   UNL A   1      37.612  29.205  30.064  1.00  0.00     0.009 A 
ATOM     68  C   UNL A   1      36.753  30.229  27.611  1.00  0.00     0.001 A 
ATOM     69  C   UNL A   1      36.303  29.668  29.917  1.00  0.00     0.001 A 
ATOM     70  C   UNL A   1      35.878  30.189  28.695  1.00  0.00     0.000 A 
ENDBRANCH  46  65
BRANCH  58  71
ATOM     71  C   UNL A   1      44.254  32.353  31.416  1.00  0.00    -0.014 A 
ATOM     72  C   UNL A   1      44.632  33.421  30.587  1.00  0.00     0.009 A 
ATOM     73  C   UNL A   1      44.208  32.547  32.805  1.00  0.00     0.009 A 
ATOM     74  C   UNL A   1      44.971  34.657  31.139  1.00  0.00     0.001 A 
ATOM     75  C   UNL A   1      44.525  33.792  33.351  1.00  0.00     0.001 A 
ATOM     76  C   UNL A   1      44.914  34.842  32.520  1.00  0.00     0.000 A 
ENDBRANCH  58  71
ENDBRANCH  32  33
ENDBRANCH  24  27
ENDBRANCH  22  23
ENDBRANCH   1  22
TORSDOF 13
ENDMDL
MODEL 2
REMARK VINA RESULT:     -11.0      0.204      6.039
REMARK SMILES Cc1nc(-c2ccco2)nc(S)c1C(=O)NCCCCNC(=O)c1ccc(-c2c3nc(c(-c4ccccc4)c4ccc([nH]4)c(-c4ccccc4)c4nc(c(-c5ccccc5)c5ccc2[nH]5)C=C4)C=C3)cc1
REMARK SMILES IDX 19 1 18 2 17 3 16 4 14 5 15 6 13 8 1 9 2 10 3 11 4 12 11 13
REMARK SMILES IDX 10 14 5 15 6 16 9 17 7 18 8 19 12 20 20 22 21 23 22 24 23 26
REMARK SMILES IDX 24 27 25 28 71 29 26 30 70 31 27 32 28 33 29 34 64 35 30 36
REMARK SMILES IDX 69 37 63 38 65 39 31 40 68 41 62 42 61 43 32 45 54 46 39 47
REMARK SMILES IDX 53 48 40 49 43 50 52 51 66 52 41 53 42 54 51 56 67 57 44 58
REMARK SMILES IDX 33 59 34 60 38 61 35 62 37 63 36 64 55 65 56 66 60 67 57 68
REMARK SMILES IDX 59 69 58 70 45 71 46 72 50 73 47 74 49 75 48 76
REMARK H PARENT 16 7 12 21 21 25 65 44 43 55
REMARK Flexibility Score: inf
ROOT
ATOM      1  C   UNL A   1      37.413  21.457  24.660  1.00  0.00     0.023 C 
ENDROOT
BRANCH   1   2
ATOM      2  C   UNL A   1      36.939  22.887  24.436  1.00  0.00     0.023 C 
BRANCH   2   3
ATOM      3  C   UNL A   1      36.724  23.728  25.703  1.00  0.00     0.116 C 
BRANCH   3   4
ATOM      4  N   UNL A   1      35.474  24.448  25.585  1.00  0.00    -0.352 N 
ATOM      5  C   UNL A   1      34.198  24.075  25.257  1.00  0.00     0.255 C 
ATOM      6  O   UNL A   1      33.419  25.000  25.008  1.00  0.00    -0.269 OA
ATOM      7  H   UNL A   1      35.560  25.409  25.782  1.00  0.00     0.163 HD
BRANCH   5   8
ATOM      8  C   UNL A   1      33.657  22.691  25.229  1.00  0.00     0.093 A 
ATOM      9  C   UNL A   1      34.019  22.042  27.695  1.00  0.00     0.068 C 
ATOM     10  C   UNL A   1      33.620  21.788  26.285  1.00  0.00     0.055 A 
ATOM     11  N   UNL A   1      33.280  20.489  26.119  1.00  0.00    -0.230 NA
ATOM     12  C   UNL A   1      33.065  20.047  24.878  1.00  0.00     0.196 A 
ATOM     13  C   UNL A   1      33.358  22.121  23.978  1.00  0.00     0.110 A 
ATOM     14  N   UNL A   1      33.097  20.804  23.785  1.00  0.00    -0.218 NA
BRANCH  12  15
ATOM     15  C   UNL A   1      33.067  18.608  24.739  1.00  0.00     0.171 A 
ATOM     16  C   UNL A   1      33.774  17.734  23.937  1.00  0.00     0.054 A 
ATOM     17  O   UNL A   1      32.320  17.908  25.644  1.00  0.00    -0.461 OA
ATOM     18  C   UNL A   1      33.457  16.430  24.390  1.00  0.00     0.043 A 
ATOM     19  C   UNL A   1      32.558  16.590  25.420  1.00  0.00     0.196 A 
ENDBRANCH  12  15
BRANCH  13  20
ATOM     20  S   UNL A   1      33.241  23.049  22.445  1.00  0.00    -0.123 SA
ATOM     21  H   UNL A   1      32.234  23.957  22.542  1.00  0.00     0.110 HD
ENDBRANCH  13  20
ENDBRANCH   5   8
ENDBRANCH   3   4
ENDBRANCH   2   3
ENDBRANCH   1   2
BRANCH   1  22
ATOM     22  C   UNL A   1      38.519  21.329  25.688  1.00  0.00     0.116 C 
BRANCH  22  23
ATOM     23  N   UNL A   1      39.297  20.101  25.576  1.00  0.00    -0.352 N 
ATOM     24  C   UNL A   1      40.607  19.897  25.952  1.00  0.00     0.251 C 
ATOM     25  H   UNL A   1      38.832  19.327  25.184  1.00  0.00     0.163 HD
ATOM     26  O   UNL A   1      41.165  18.824  25.751  1.00  0.00    -0.269 OA
BRANCH  24  27
ATOM     27  C   UNL A   1      41.342  21.032  26.539  1.00  0.00     0.039 A 
ATOM     28  C   UNL A   1      41.243  21.286  27.908  1.00  0.00     0.014 A 
ATOM     29  C   UNL A   1      41.997  21.926  25.691  1.00  0.00     0.014 A 
ATOM     30  C   UNL A   1      41.612  22.532  28.390  1.00  0.00     0.010 A 
ATOM     31  C   UNL A   1      42.462  23.138  26.203  1.00  0.00     0.010 A 
ATOM     32  C   UNL A   1      42.213  23.477  27.542  1.00  0.00    -0.014 A 
BRANCH  32  33
ATOM     33  C   UNL A   1      42.559  24.815  28.081  1.00  0.00     0.031 A 
ATOM     34  C   UNL A   1      41.494  25.856  28.306  1.00  0.00     0.074 A 
ATOM     35  C   UNL A   1      43.832  25.060  28.442  1.00  0.00     0.049 A 
ATOM     36  N   UNL A   1      41.624  27.067  28.786  1.00  0.00    -0.248 NA
ATOM     37  C   UNL A   1      40.111  25.499  27.952  1.00  0.00     0.031 C 
ATOM     38  C   UNL A   1      44.942  24.114  28.303  1.00  0.00     0.029 A 
ATOM     39  N   UNL A   1      44.401  26.158  29.031  1.00  0.00    -0.354 N 
ATOM     40  C   UNL A   1      40.351  27.625  28.763  1.00  0.00     0.074 A 
ATOM     41  C   UNL A   1      39.462  26.626  28.211  1.00  0.00     0.031 C 
ATOM     42  C   UNL A   1      46.040  24.642  28.860  1.00  0.00     0.029 A 
ATOM     43  C   UNL A   1      45.733  25.992  29.321  1.00  0.00     0.049 A 
ATOM     44  H   UNL A   1      43.904  26.984  29.229  1.00  0.00     0.167 HD
ATOM     45  C   UNL A   1      39.961  28.855  29.170  1.00  0.00     0.031 A 
ATOM     46  C   UNL A   1      46.619  26.834  29.882  1.00  0.00     0.031 A 
ATOM     47  C   UNL A   1      40.844  29.838  29.739  1.00  0.00     0.049 A 
ATOM     48  C   UNL A   1      46.169  28.206  30.286  1.00  0.00     0.074 A 
ATOM     49  C   UNL A   1      40.536  31.110  30.189  1.00  0.00     0.029 A 
ATOM     50  N   UNL A   1      42.202  29.657  29.943  1.00  0.00    -0.354 N 
ATOM     51  N   UNL A   1      44.966  28.723  30.232  1.00  0.00    -0.248 NA
ATOM     52  C   UNL A   1      47.198  29.113  30.813  1.00  0.00     0.031 C 
ATOM     53  C   UNL A   1      41.717  31.717  30.623  1.00  0.00     0.029 A 
ATOM     54  C   UNL A   1      42.751  30.803  30.494  1.00  0.00     0.049 A 
ATOM     55  H   UNL A   1      42.702  28.837  29.730  1.00  0.00     0.167 HD
ATOM     56  C   UNL A   1      45.091  30.016  30.719  1.00  0.00     0.074 A 
ATOM     57  C   UNL A   1      46.481  30.196  31.085  1.00  0.00     0.031 C 
ATOM     58  C   UNL A   1      44.137  30.970  30.843  1.00  0.00     0.031 A 
BRANCH  45  59
ATOM     59  C   UNL A   1      38.516  29.232  29.002  1.00  0.00    -0.014 A 
ATOM     60  C   UNL A   1      38.064  29.717  27.764  1.00  0.00     0.009 A 
ATOM     61  C   UNL A   1      37.624  29.198  30.085  1.00  0.00     0.009 A 
ATOM     62  C   UNL A   1      36.753  30.173  27.615  1.00  0.00     0.001 A 
ATOM     63  C   UNL A   1      36.305  29.634  29.927  1.00  0.00     0.001 A 
ATOM     64  C   UNL A   1      35.873  30.128  28.696  1.00  0.00     0.000 A 
ENDBRANCH  45  59
BRANCH  46  65
ATOM     65  C   UNL A   1      48.021  26.386  30.078  1.00  0.00    -0.014 A 
ATOM     66  C   UNL A   1      48.957  26.503  29.037  1.00  0.00     0.009 A 
ATOM     67  C   UNL A   1      48.412  25.777  31.279  1.00  0.00     0.009 A 
ATOM     68  C   UNL A   1      50.247  25.993  29.184  1.00  0.00     0.001 A 
ATOM     69  C   UNL A   1      49.712  25.292  31.433  1.00  0.00     0.001 A 
ATOM     70  C   UNL A   1      50.625  25.390  30.383  1.00  0.00     0.000 A 
ENDBRANCH  46  65
BRANCH  58  71
ATOM     71  C   UNL A   1      44.554  32.299  31.401  1.00  0.00    -0.014 A 
ATOM     72  C   UNL A   1      45.028  33.300  30.539  1.00  0.00     0.009 A 
ATOM     73  C   UNL A   1      44.560  32.527  32.785  1.00  0.00     0.009 A 
ATOM     74  C   UNL A   1      45.511  34.503  31.054  1.00  0.00     0.001 A 
ATOM     75  C   UNL A   1      45.022  33.741  33.295  1.00  0.00     0.001 A 
ATOM     76  C   UNL A   1      45.505  34.723  32.431  1.00  0.00     0.000 A 
ENDBRANCH  58  71
ENDBRANCH  32  33
ENDBRANCH  24  27
ENDBRANCH  22  23
ENDBRANCH   1  22
TORSDOF 13
ENDMDL
MODEL 3
REMARK VINA RESULT:     -11.0      4.159      9.144
REMARK SMILES Cc1nc(-c2ccco2)nc(S)c1C(=O)NCCCCNC(=O)c1ccc(-c2c3nc(c(-c4ccccc4)c4ccc([nH]4)c(-c4ccccc4)c4nc(c(-c5ccccc5)c5ccc2[nH]5)C=C4)C=C3)cc1
REMARK SMILES IDX 19 1 18 2 17 3 16 4 14 5 15 6 13 8 1 9 2 10 3 11 4 12 11 13
REMARK SMILES IDX 10 14 5 15 6 16 9 17 7 18 8 19 12 20 20 22 21 23 22 24 23 26
REMARK SMILES IDX 24 27 25 28 71 29 26 30 70 31 27 32 28 33 29 34 64 35 30 36
REMARK SMILES IDX 69 37 63 38 65 39 31 40 68 41 62 42 61 43 32 45 54 46 39 47
REMARK SMILES IDX 53 48 40 49 43 50 52 51 66 52 41 53 42 54 51 56 67 57 44 58
REMARK SMILES IDX 33 59 34 60 38 61 35 62 37 63 36 64 55 65 56 66 60 67 57 68
REMARK SMILES IDX 59 69 58 70 45 71 46 72 50 73 47 74 49 75 48 76
REMARK H PARENT 16 7 12 21 21 25 65 44 43 55
REMARK Flexibility Score: inf
ROOT
ATOM      1  C   UNL A   1      32.086  29.875  27.154  1.00  0.00     0.023 C 
ENDROOT
BRANCH   1   2
ATOM      2  C   UNL A   1      32.708  28.493  27.311  1.00  0.00     0.023 C 
BRANCH   2   3
ATOM      3  C   UNL A   1      34.057  28.282  26.610  1.00  0.00     0.116 C 
BRANCH   3   4
ATOM      4  N   UNL A   1      34.029  27.020  25.904  1.00  0.00    -0.352 N 
ATOM      5  C   UNL A   1      33.198  26.488  24.954  1.00  0.00     0.255 C 
ATOM      6  O   UNL A   1      33.325  25.278  24.751  1.00  0.00    -0.269 OA
ATOM      7  H   UNL A   1      34.763  26.415  26.159  1.00  0.00     0.163 HD
BRANCH   5   8
ATOM      8  C   UNL A   1      32.216  27.229  24.119  1.00  0.00     0.093 A 
ATOM      9  C   UNL A   1      33.840  28.653  22.714  1.00  0.00     0.068 C 
ATOM     10  C   UNL A   1      32.497  28.206  23.171  1.00  0.00     0.055 A 
ATOM     11  N   UNL A   1      31.530  28.957  22.594  1.00  0.00    -0.230 NA
ATOM     12  C   UNL A   1      30.276  28.810  23.025  1.00  0.00     0.196 A 
ATOM     13  C   UNL A   1      30.854  27.129  24.453  1.00  0.00     0.110 A 
ATOM     14  N   UNL A   1      29.885  27.931  23.943  1.00  0.00    -0.218 NA
BRANCH  12  15
ATOM     15  C   UNL A   1      29.374  29.872  22.638  1.00  0.00     0.171 A 
ATOM     16  C   UNL A   1      28.698  30.847  23.345  1.00  0.00     0.054 A 
ATOM     17  O   UNL A   1      29.213  30.076  21.296  1.00  0.00    -0.461 OA
ATOM     18  C   UNL A   1      28.108  31.703  22.383  1.00  0.00     0.043 A 
ATOM     19  C   UNL A   1      28.439  31.182  21.153  1.00  0.00     0.196 A 
ENDBRANCH  12  15
BRANCH  13  20
ATOM     20  S   UNL A   1      30.173  25.905  25.576  1.00  0.00    -0.123 SA
ATOM     21  H   UNL A   1      28.843  26.134  25.742  1.00  0.00     0.110 HD
ENDBRANCH  13  20
ENDBRANCH   5   8
ENDBRANCH   3   4
ENDBRANCH   2   3
ENDBRANCH   1   2
BRANCH   1  22
ATOM     22  C   UNL A   1      33.086  31.011  27.223  1.00  0.00     0.116 C 
BRANCH  22  23
ATOM     23  N   UNL A   1      32.481  32.328  27.386  1.00  0.00    -0.352 N 
ATOM     24  C   UNL A   1      33.012  33.423  28.032  1.00  0.00     0.251 C 
ATOM     25  H   UNL A   1      31.588  32.447  26.990  1.00  0.00     0.163 HD
ATOM     26  O   UNL A   1      32.373  34.463  28.148  1.00  0.00    -0.269 OA
BRANCH  24  27
ATOM     27  C   UNL A   1      34.347  33.285  28.644  1.00  0.00     0.039 A 
ATOM     28  C   UNL A   1      35.478  33.682  27.930  1.00  0.00     0.014 A 
ATOM     29  C   UNL A   1      34.466  32.615  29.862  1.00  0.00     0.014 A 
ATOM     30  C   UNL A   1      36.723  33.220  28.330  1.00  0.00     0.010 A 
ATOM     31  C   UNL A   1      35.733  32.243  30.315  1.00  0.00     0.010 A 
ATOM     32  C   UNL A   1      36.863  32.485  29.520  1.00  0.00    -0.014 A 
BRANCH  32  33
ATOM     33  C   UNL A   1      38.203  31.973  29.897  1.00  0.00     0.031 A 
ATOM     34  C   UNL A   1      39.058  32.706  30.896  1.00  0.00     0.074 A 
ATOM     35  C   UNL A   1      38.614  30.796  29.388  1.00  0.00     0.049 A 
ATOM     36  N   UNL A   1      40.245  32.386  31.348  1.00  0.00    -0.248 NA
ATOM     37  C   UNL A   1      38.520  33.953  31.464  1.00  0.00     0.031 C 
ATOM     38  C   UNL A   1      37.855  29.980  28.438  1.00  0.00     0.029 A 
ATOM     39  N   UNL A   1      39.748  30.065  29.626  1.00  0.00    -0.354 N 
ATOM     40  C   UNL A   1      40.606  33.401  32.225  1.00  0.00     0.074 A 
ATOM     41  C   UNL A   1      39.520  34.357  32.236  1.00  0.00     0.031 C 
ATOM     42  C   UNL A   1      38.508  28.829  28.231  1.00  0.00     0.029 A 
ATOM     43  C   UNL A   1      39.766  28.860  28.968  1.00  0.00     0.049 A 
ATOM     44  H   UNL A   1      40.478  30.372  30.210  1.00  0.00     0.167 HD
ATOM     45  C   UNL A   1      41.738  33.521  32.958  1.00  0.00     0.031 A 
ATOM     46  C   UNL A   1      40.696  27.888  28.944  1.00  0.00     0.031 A 
ATOM     47  C   UNL A   1      42.806  32.559  32.962  1.00  0.00     0.049 A 
ATOM     48  C   UNL A   1      41.959  28.067  29.732  1.00  0.00     0.074 A 
ATOM     49  C   UNL A   1      43.989  32.592  33.680  1.00  0.00     0.029 A 
ATOM     50  N   UNL A   1      42.819  31.388  32.220  1.00  0.00    -0.354 N 
ATOM     51  N   UNL A   1      42.293  29.047  30.535  1.00  0.00    -0.248 NA
ATOM     52  C   UNL A   1      42.977  27.016  29.600  1.00  0.00     0.031 C 
ATOM     53  C   UNL A   1      44.739  31.463  33.337  1.00  0.00     0.029 A 
ATOM     54  C   UNL A   1      43.999  30.701  32.448  1.00  0.00     0.049 A 
ATOM     55  H   UNL A   1      42.097  31.089  31.622  1.00  0.00     0.167 HD
ATOM     56  C   UNL A   1      43.559  28.732  31.007  1.00  0.00     0.074 A 
ATOM     57  C   UNL A   1      43.923  27.459  30.419  1.00  0.00     0.031 C 
ATOM     58  C   UNL A   1      44.351  29.441  31.848  1.00  0.00     0.031 A 
BRANCH  45  59
ATOM     59  C   UNL A   1      41.903  34.748  33.810  1.00  0.00    -0.014 A 
ATOM     60  C   UNL A   1      42.581  35.865  33.295  1.00  0.00     0.009 A 
ATOM     61  C   UNL A   1      41.476  34.770  35.146  1.00  0.00     0.009 A 
ATOM     62  C   UNL A   1      42.840  36.973  34.103  1.00  0.00     0.001 A 
ATOM     63  C   UNL A   1      41.716  35.889  35.947  1.00  0.00     0.001 A 
ATOM     64  C   UNL A   1      42.404  36.987  35.428  1.00  0.00     0.000 A 
ENDBRANCH  45  59
BRANCH  46  65
ATOM     65  C   UNL A   1      40.453  26.671  28.130  1.00  0.00    -0.014 A 
ATOM     66  C   UNL A   1      40.953  26.579  26.821  1.00  0.00     0.009 A 
ATOM     67  C   UNL A   1      39.662  25.627  28.632  1.00  0.00     0.009 A 
ATOM     68  C   UNL A   1      40.642  25.479  26.019  1.00  0.00     0.001 A 
ATOM     69  C   UNL A   1      39.375  24.516  27.836  1.00  0.00     0.001 A 
ATOM     70  C   UNL A   1      39.855  24.448  26.529  1.00  0.00     0.000 A 
ENDBRANCH  46  65
BRANCH  58  71
ATOM     71  C   UNL A   1      45.691  28.862  32.191  1.00  0.00    -0.014 A 
ATOM     72  C   UNL A   1      46.805  29.157  31.389  1.00  0.00     0.009 A 
ATOM     73  C   UNL A   1      45.832  27.957  33.254  1.00  0.00     0.009 A 
ATOM     74  C   UNL A   1      48.035  28.547  31.639  1.00  0.00     0.001 A 
ATOM     75  C   UNL A   1      47.070  27.367  33.515  1.00  0.00     0.001 A 
ATOM     76  C   UNL A   1      48.166  27.656  32.703  1.00  0.00     0.000 A 
ENDBRANCH  58  71
ENDBRANCH  32  33
ENDBRANCH  24  27
ENDBRANCH  22  23
ENDBRANCH   1  22
TORSDOF 13
ENDMDL
