MODEL 1
REMARK VINA RESULT:     -12.0      0.000      0.000
REMARK SMILES CC(=O)N[C@H]1[C@@H](Oc2ccc(C)c(C)c2)O[C@H]2CO[C@H](c3ccco3)O[C@@H]2[C@H]1OCC(=O)NCCCCNC(=O)c1ccc(-c2c3nc(c(-c4ccccc4)c4ccc([nH]4)c(-c4ccccc4)c4nc(c(-c5ccccc5)c5ccc2[nH]5)C=C4)C=C3)cc1
REMARK SMILES IDX 34 1 33 2 31 3 32 4 30 6 29 7 28 8 5 9 6 10 16 11 27 12
REMARK SMILES IDX 17 13 26 14 18 15 20 16 19 17 4 18 1 19 2 20 3 21 7 23 8 24
REMARK SMILES IDX 9 25 15 26 10 27 13 28 11 29 14 30 12 31 21 32 22 33 25 34
REMARK SMILES IDX 23 35 24 36 35 37 36 38 37 39 38 40 39 41 40 43 41 44 42 45
REMARK SMILES IDX 88 46 43 47 87 48 44 49 45 50 46 51 81 52 47 53 86 54 80 55
REMARK SMILES IDX 82 56 48 57 85 58 79 59 78 60 49 62 71 63 56 64 70 65 57 66
REMARK SMILES IDX 60 67 69 68 83 69 58 70 59 71 68 73 84 74 61 75 50 76 51 77
REMARK SMILES IDX 55 78 52 79 54 80 53 81 72 82 73 83 77 84 74 85 76 86 75 87
REMARK SMILES IDX 62 88 63 89 67 90 64 91 66 92 65 93
REMARK H PARENT 33 5 4 22 38 42 82 61 60 72
REMARK Flexibility Score: inf
ROOT
ATOM      1  C   UNL A   1      39.292  23.409  26.843  1.00  0.00     0.116 C 
ENDROOT
BRANCH   1   2
ATOM      2  N   UNL A   1      38.426  22.340  26.372  1.00  0.00    -0.354 N 
ATOM      3  C   UNL A   1      37.309  22.403  25.593  1.00  0.00     0.246 C 
ATOM      4  O   UNL A   1      36.708  21.354  25.352  1.00  0.00    -0.272 OA
ATOM      5  H   UNL A   1      38.685  21.435  26.660  1.00  0.00     0.163 HD
BRANCH   3   6
ATOM      6  C   UNL A   1      36.825  23.745  25.031  1.00  0.00     0.260 C 
BRANCH   6   7
ATOM      7  O   UNL A   1      35.590  23.760  24.341  1.00  0.00    -0.363 OA
BRANCH   7   8
ATOM      8  C   UNL A   1      34.427  23.921  25.157  1.00  0.00     0.179 C 
ATOM      9  C   UNL A   1      33.840  25.325  24.926  1.00  0.00     0.182 C 
ATOM     10  C   UNL A   1      32.477  25.480  25.707  1.00  0.00     0.333 C 
ATOM     11  O   UNL A   1      31.555  24.405  25.520  1.00  0.00    -0.332 OA
ATOM     12  C   UNL A   1      33.327  22.907  24.825  1.00  0.00     0.184 C 
ATOM     13  C   UNL A   1      32.133  23.126  25.758  1.00  0.00     0.180 C 
ATOM     14  O   UNL A   1      33.769  21.559  24.883  1.00  0.00    -0.337 OA
ATOM     15  C   UNL A   1      31.075  22.051  25.491  1.00  0.00     0.199 C 
ATOM     16  C   UNL A   1      32.692  20.735  24.437  1.00  0.00     0.319 C 
ATOM     17  O   UNL A   1      31.642  20.746  25.403  1.00  0.00    -0.343 OA
BRANCH   9  18
ATOM     18  N   UNL A   1      33.815  25.831  23.514  1.00  0.00    -0.345 N 
ATOM     19  C   UNL A   1      31.673  25.298  22.263  1.00  0.00     0.114 C 
ATOM     20  C   UNL A   1      33.096  25.762  22.371  1.00  0.00     0.217 C 
ATOM     21  O   UNL A   1      33.661  26.178  21.352  1.00  0.00    -0.275 OA
ATOM     22  H   UNL A   1      34.594  26.415  23.369  1.00  0.00     0.164 HD
ENDBRANCH   9  18
BRANCH  10  23
ATOM     23  O   UNL A   1      31.851  26.768  25.573  1.00  0.00    -0.463 OA
BRANCH  23  24
ATOM     24  C   UNL A   1      32.497  27.906  25.969  1.00  0.00     0.123 A 
ATOM     25  C   UNL A   1      33.788  27.984  26.475  1.00  0.00     0.047 A 
ATOM     26  C   UNL A   1      31.736  29.075  25.909  1.00  0.00     0.050 A 
ATOM     27  C   UNL A   1      34.223  29.142  27.116  1.00  0.00     0.007 A 
ATOM     28  C   UNL A   1      32.197  30.281  26.471  1.00  0.00    -0.045 A 
ATOM     29  C   UNL A   1      33.413  30.281  27.174  1.00  0.00    -0.048 A 
ATOM     30  C   UNL A   1      31.372  31.521  26.260  1.00  0.00     0.045 C 
ATOM     31  C   UNL A   1      33.892  31.455  27.981  1.00  0.00     0.044 C 
ENDBRANCH  23  24
ENDBRANCH  10  23
BRANCH  16  32
ATOM     32  C   UNL A   1      33.150  19.335  24.246  1.00  0.00     0.159 A 
ATOM     33  C   UNL A   1      32.574  18.263  23.590  1.00  0.00     0.051 A 
ATOM     34  O   UNL A   1      34.408  18.998  24.660  1.00  0.00    -0.464 OA
ATOM     35  C   UNL A   1      33.529  17.221  23.607  1.00  0.00     0.042 A 
ATOM     36  C   UNL A   1      34.623  17.715  24.275  1.00  0.00     0.195 A 
ENDBRANCH  16  32
ENDBRANCH   7   8
ENDBRANCH   6   7
ENDBRANCH   3   6
ENDBRANCH   1   2
BRANCH   1  37
ATOM     37  C   UNL A   1      40.529  22.874  27.568  1.00  0.00     0.023 C 
BRANCH  37  38
ATOM     38  C   UNL A   1      40.932  21.439  27.259  1.00  0.00     0.023 C 
BRANCH  38  39
ATOM     39  C   UNL A   1      41.229  21.188  25.798  1.00  0.00     0.116 C 
BRANCH  39  40
ATOM     40  N   UNL A   1      42.530  20.567  25.602  1.00  0.00    -0.352 N 
ATOM     41  C   UNL A   1      43.775  21.148  25.622  1.00  0.00     0.251 C 
ATOM     42  H   UNL A   1      42.518  19.597  25.433  1.00  0.00     0.163 HD
ATOM     43  O   UNL A   1      44.766  20.517  25.268  1.00  0.00    -0.269 OA
BRANCH  41  44
ATOM     44  C   UNL A   1      43.909  22.555  26.051  1.00  0.00     0.039 A 
ATOM     45  C   UNL A   1      43.623  23.577  25.141  1.00  0.00     0.014 A 
ATOM     46  C   UNL A   1      44.285  22.862  27.360  1.00  0.00     0.014 A 
ATOM     47  C   UNL A   1      43.652  24.906  25.566  1.00  0.00     0.010 A 
ATOM     48  C   UNL A   1      44.215  24.173  27.806  1.00  0.00     0.010 A 
ATOM     49  C   UNL A   1      43.914  25.212  26.911  1.00  0.00    -0.014 A 
BRANCH  49  50
ATOM     50  C   UNL A   1      43.935  26.606  27.414  1.00  0.00     0.031 A 
ATOM     51  C   UNL A   1      45.252  27.326  27.529  1.00  0.00     0.074 A 
ATOM     52  C   UNL A   1      42.802  27.188  27.850  1.00  0.00     0.049 A 
ATOM     53  N   UNL A   1      45.518  28.481  28.083  1.00  0.00    -0.248 NA
ATOM     54  C   UNL A   1      46.432  26.635  26.983  1.00  0.00     0.031 C 
ATOM     55  C   UNL A   1      41.468  26.586  27.822  1.00  0.00     0.029 A 
ATOM     56  N   UNL A   1      42.598  28.419  28.422  1.00  0.00    -0.354 N 
ATOM     57  C   UNL A   1      46.895  28.633  27.986  1.00  0.00     0.074 A 
ATOM     58  C   UNL A   1      47.415  27.437  27.365  1.00  0.00     0.031 C 
ATOM     59  C   UNL A   1      40.582  27.457  28.335  1.00  0.00     0.029 A 
ATOM     60  C   UNL A   1      41.290  28.657  28.767  1.00  0.00     0.049 A 
ATOM     61  H   UNL A   1      43.321  29.071  28.569  1.00  0.00     0.167 HD
ATOM     62  C   UNL A   1      47.658  29.685  28.363  1.00  0.00     0.031 A 
ATOM     63  C   UNL A   1      40.729  29.719  29.376  1.00  0.00     0.031 A 
ATOM     64  C   UNL A   1      47.137  30.890  28.945  1.00  0.00     0.049 A 
ATOM     65  C   UNL A   1      41.597  30.881  29.774  1.00  0.00     0.074 A 
ATOM     66  C   UNL A   1      47.819  32.037  29.307  1.00  0.00     0.029 A 
ATOM     67  N   UNL A   1      45.800  31.104  29.241  1.00  0.00    -0.354 N 
ATOM     68  N   UNL A   1      42.892  31.030  29.632  1.00  0.00    -0.248 NA
ATOM     69  C   UNL A   1      40.923  32.023  30.408  1.00  0.00     0.031 C 
ATOM     70  C   UNL A   1      46.898  32.935  29.856  1.00  0.00     0.029 A 
ATOM     71  C   UNL A   1      45.638  32.364  29.790  1.00  0.00     0.049 A 
ATOM     72  H   UNL A   1      45.075  30.457  29.083  1.00  0.00     0.167 HD
ATOM     73  C   UNL A   1      43.182  32.297  30.124  1.00  0.00     0.074 A 
ATOM     74  C   UNL A   1      41.928  32.875  30.562  1.00  0.00     0.031 C 
ATOM     75  C   UNL A   1      44.379  32.927  30.200  1.00  0.00     0.031 A 
BRANCH  62  76
ATOM     76  C   UNL A   1      49.142  29.573  28.154  1.00  0.00    -0.014 A 
ATOM     77  C   UNL A   1      49.978  29.026  29.140  1.00  0.00     0.009 A 
ATOM     78  C   UNL A   1      49.709  29.996  26.942  1.00  0.00     0.009 A 
ATOM     79  C   UNL A   1      51.356  28.940  28.932  1.00  0.00     0.001 A 
ATOM     80  C   UNL A   1      51.084  29.881  26.724  1.00  0.00     0.001 A 
ATOM     81  C   UNL A   1      51.907  29.363  27.723  1.00  0.00     0.000 A 
ENDBRANCH  62  76
BRANCH  63  82
ATOM     82  C   UNL A   1      39.265  29.745  29.633  1.00  0.00    -0.014 A 
ATOM     83  C   UNL A   1      38.744  29.214  30.823  1.00  0.00     0.009 A 
ATOM     84  C   UNL A   1      38.381  30.287  28.688  1.00  0.00     0.009 A 
ATOM     85  C   UNL A   1      37.365  29.199  31.048  1.00  0.00     0.001 A 
ATOM     86  C   UNL A   1      37.005  30.295  28.928  1.00  0.00     0.001 A 
ATOM     87  C   UNL A   1      36.498  29.743  30.103  1.00  0.00     0.000 A 
ENDBRANCH  63  82
BRANCH  75  88
ATOM     88  C   UNL A   1      44.387  34.333  30.723  1.00  0.00    -0.014 A 
ATOM     89  C   UNL A   1      44.187  35.431  29.873  1.00  0.00     0.009 A 
ATOM     90  C   UNL A   1      44.534  34.554  32.102  1.00  0.00     0.009 A 
ATOM     91  C   UNL A   1      44.156  36.726  30.394  1.00  0.00     0.001 A 
ATOM     92  C   UNL A   1      44.477  35.847  32.622  1.00  0.00     0.001 A 
ATOM     93  C   UNL A   1      44.295  36.932  31.767  1.00  0.00     0.000 A 
ENDBRANCH  75  88
ENDBRANCH  49  50
ENDBRANCH  41  44
ENDBRANCH  39  40
ENDBRANCH  38  39
ENDBRANCH  37  38
ENDBRANCH   1  37
TORSDOF 17
ENDMDL
MODEL 2
REMARK VINA RESULT:     -11.5      3.676      4.637
REMARK SMILES CC(=O)N[C@H]1[C@@H](Oc2ccc(C)c(C)c2)O[C@H]2CO[C@H](c3ccco3)O[C@@H]2[C@H]1OCC(=O)NCCCCNC(=O)c1ccc(-c2c3nc(c(-c4ccccc4)c4ccc([nH]4)c(-c4ccccc4)c4nc(c(-c5ccccc5)c5ccc2[nH]5)C=C4)C=C3)cc1
REMARK SMILES IDX 34 1 33 2 31 3 32 4 30 6 29 7 28 8 5 9 6 10 16 11 27 12
REMARK SMILES IDX 17 13 26 14 18 15 20 16 19 17 4 18 1 19 2 20 3 21 7 23 8 24
REMARK SMILES IDX 9 25 15 26 10 27 13 28 11 29 14 30 12 31 21 32 22 33 25 34
REMARK SMILES IDX 23 35 24 36 35 37 36 38 37 39 38 40 39 41 40 43 41 44 42 45
REMARK SMILES IDX 88 46 43 47 87 48 44 49 45 50 46 51 81 52 47 53 86 54 80 55
REMARK SMILES IDX 82 56 48 57 85 58 79 59 78 60 49 62 71 63 56 64 70 65 57 66
REMARK SMILES IDX 60 67 69 68 83 69 58 70 59 71 68 73 84 74 61 75 50 76 51 77
REMARK SMILES IDX 55 78 52 79 54 80 53 81 72 82 73 83 77 84 74 85 76 86 75 87
REMARK SMILES IDX 62 88 63 89 67 90 64 91 66 92 65 93
REMARK H PARENT 33 5 4 22 38 42 82 61 60 72
REMARK Flexibility Score: inf
ROOT
ATOM      1  C   UNL A   1      39.237  23.404  26.902  1.00  0.00     0.116 C 
ENDROOT
BRANCH   1   2
ATOM      2  N   UNL A   1      38.779  22.523  25.840  1.00  0.00    -0.354 N 
ATOM      3  C   UNL A   1      37.616  22.548  25.128  1.00  0.00     0.246 C 
ATOM      4  O   UNL A   1      37.427  21.662  24.292  1.00  0.00    -0.272 OA
ATOM      5  H   UNL A   1      39.402  21.799  25.599  1.00  0.00     0.163 HD
BRANCH   3   6
ATOM      6  C   UNL A   1      36.580  23.653  25.365  1.00  0.00     0.260 C 
BRANCH   6   7
ATOM      7  O   UNL A   1      35.471  23.712  24.489  1.00  0.00    -0.363 OA
BRANCH   7   8
ATOM      8  C   UNL A   1      34.188  23.765  25.117  1.00  0.00     0.179 C 
ATOM      9  C   UNL A   1      33.446  25.026  24.640  1.00  0.00     0.182 C 
ATOM     10  C   UNL A   1      31.974  25.038  25.208  1.00  0.00     0.333 C 
ATOM     11  O   UNL A   1      31.255  23.815  25.033  1.00  0.00    -0.332 OA
ATOM     12  C   UNL A   1      33.309  22.560  24.767  1.00  0.00     0.184 C 
ATOM     13  C   UNL A   1      31.970  22.676  25.500  1.00  0.00     0.180 C 
ATOM     14  O   UNL A   1      33.928  21.313  25.048  1.00  0.00    -0.337 OA
ATOM     15  C   UNL A   1      31.130  21.424  25.227  1.00  0.00     0.199 C 
ATOM     16  C   UNL A   1      33.060  20.286  24.567  1.00  0.00     0.319 C 
ATOM     17  O   UNL A   1      31.886  20.225  25.376  1.00  0.00    -0.343 OA
BRANCH   9  18
ATOM     18  N   UNL A   1      33.561  25.378  23.187  1.00  0.00    -0.345 N 
ATOM     19  C   UNL A   1      34.013  27.836  22.751  1.00  0.00     0.114 C 
ATOM     20  C   UNL A   1      33.644  26.438  22.351  1.00  0.00     0.217 C 
ATOM     21  O   UNL A   1      33.453  26.197  21.153  1.00  0.00    -0.275 OA
ATOM     22  H   UNL A   1      33.582  24.549  22.657  1.00  0.00     0.164 HD
ENDBRANCH   9  18
BRANCH  10  23
ATOM     23  O   UNL A   1      31.195  26.189  24.836  1.00  0.00    -0.463 OA
BRANCH  23  24
ATOM     24  C   UNL A   1      31.566  27.443  25.231  1.00  0.00     0.123 A 
ATOM     25  C   UNL A   1      32.490  27.753  26.221  1.00  0.00     0.047 A 
ATOM     26  C   UNL A   1      30.884  28.490  24.609  1.00  0.00     0.050 A 
ATOM     27  C   UNL A   1      32.563  29.047  26.735  1.00  0.00     0.007 A 
ATOM     28  C   UNL A   1      31.014  29.820  25.055  1.00  0.00    -0.045 A 
ATOM     29  C   UNL A   1      31.785  30.079  26.201  1.00  0.00    -0.048 A 
ATOM     30  C   UNL A   1      30.342  30.903  24.258  1.00  0.00     0.045 C 
ATOM     31  C   UNL A   1      31.821  31.421  26.876  1.00  0.00     0.044 C 
ENDBRANCH  23  24
ENDBRANCH  10  23
BRANCH  16  32
ATOM     32  C   UNL A   1      33.740  18.966  24.610  1.00  0.00     0.159 A 
ATOM     33  C   UNL A   1      35.054  18.603  24.381  1.00  0.00     0.051 A 
ATOM     34  O   UNL A   1      33.037  17.885  25.062  1.00  0.00    -0.464 OA
ATOM     35  C   UNL A   1      35.156  17.232  24.710  1.00  0.00     0.042 A 
ATOM     36  C   UNL A   1      33.902  16.840  25.110  1.00  0.00     0.195 A 
ENDBRANCH  16  32
ENDBRANCH   7   8
ENDBRANCH   6   7
ENDBRANCH   3   6
ENDBRANCH   1   2
BRANCH   1  37
ATOM     37  C   UNL A   1      40.763  23.508  26.949  1.00  0.00     0.023 C 
BRANCH  37  38
ATOM     38  C   UNL A   1      41.541  22.463  26.162  1.00  0.00     0.023 C 
BRANCH  38  39
ATOM     39  C   UNL A   1      42.589  23.045  25.240  1.00  0.00     0.116 C 
BRANCH  39  40
ATOM     40  N   UNL A   1      43.923  22.550  25.546  1.00  0.00    -0.352 N 
ATOM     41  C   UNL A   1      44.819  23.006  26.483  1.00  0.00     0.251 C 
ATOM     42  H   UNL A   1      44.226  21.783  25.008  1.00  0.00     0.163 HD
ATOM     43  O   UNL A   1      45.973  22.589  26.500  1.00  0.00    -0.269 OA
BRANCH  41  44
ATOM     44  C   UNL A   1      44.387  24.027  27.459  1.00  0.00     0.039 A 
ATOM     45  C   UNL A   1      44.507  25.380  27.131  1.00  0.00     0.014 A 
ATOM     46  C   UNL A   1      43.834  23.644  28.683  1.00  0.00     0.014 A 
ATOM     47  C   UNL A   1      44.012  26.348  28.006  1.00  0.00     0.010 A 
ATOM     48  C   UNL A   1      43.253  24.600  29.503  1.00  0.00     0.010 A 
ATOM     49  C   UNL A   1      43.349  25.963  29.182  1.00  0.00    -0.014 A 
BRANCH  49  50
ATOM     50  C   UNL A   1      42.788  26.953  30.132  1.00  0.00     0.031 A 
ATOM     51  C   UNL A   1      43.425  27.117  31.486  1.00  0.00     0.074 A 
ATOM     52  C   UNL A   1      41.666  27.631  29.823  1.00  0.00     0.049 A 
ATOM     53  N   UNL A   1      43.010  27.804  32.518  1.00  0.00    -0.248 NA
ATOM     54  C   UNL A   1      44.676  26.375  31.720  1.00  0.00     0.031 C 
ATOM     55  C   UNL A   1      40.934  27.538  28.558  1.00  0.00     0.029 A 
ATOM     56  N   UNL A   1      40.933  28.522  30.566  1.00  0.00    -0.354 N 
ATOM     57  C   UNL A   1      43.925  27.546  33.530  1.00  0.00     0.074 A 
ATOM     58  C   UNL A   1      44.889  26.606  33.007  1.00  0.00     0.031 C 
ATOM     59  C   UNL A   1      39.869  28.356  28.606  1.00  0.00     0.029 A 
ATOM     60  C   UNL A   1      39.818  28.994  29.917  1.00  0.00     0.049 A 
ATOM     61  H   UNL A   1      41.184  28.799  31.477  1.00  0.00     0.167 HD
ATOM     62  C   UNL A   1      43.971  28.062  34.781  1.00  0.00     0.031 A 
ATOM     63  C   UNL A   1      38.855  29.836  30.340  1.00  0.00     0.031 A 
ATOM     64  C   UNL A   1      43.035  29.026  35.289  1.00  0.00     0.049 A 
ATOM     65  C   UNL A   1      38.935  30.405  31.729  1.00  0.00     0.074 A 
ATOM     66  C   UNL A   1      43.029  29.655  36.520  1.00  0.00     0.029 A 
ATOM     67  N   UNL A   1      41.943  29.506  34.584  1.00  0.00    -0.354 N 
ATOM     68  N   UNL A   1      39.834  30.189  32.659  1.00  0.00    -0.248 NA
ATOM     69  C   UNL A   1      37.873  31.342  32.123  1.00  0.00     0.031 C 
ATOM     70  C   UNL A   1      41.910  30.492  36.574  1.00  0.00     0.029 A 
ATOM     71  C   UNL A   1      41.249  30.419  35.359  1.00  0.00     0.049 A 
ATOM     72  H   UNL A   1      41.698  29.239  33.668  1.00  0.00     0.167 HD
ATOM     73  C   UNL A   1      39.467  30.990  33.733  1.00  0.00     0.074 A 
ATOM     74  C   UNL A   1      38.268  31.700  33.337  1.00  0.00     0.031 C 
ATOM     75  C   UNL A   1      40.071  31.129  34.938  1.00  0.00     0.031 A 
BRANCH  62  76
ATOM     76  C   UNL A   1      45.075  27.589  35.685  1.00  0.00    -0.014 A 
ATOM     77  C   UNL A   1      46.306  28.261  35.744  1.00  0.00     0.009 A 
ATOM     78  C   UNL A   1      44.871  26.471  36.507  1.00  0.00     0.009 A 
ATOM     79  C   UNL A   1      47.323  27.801  36.582  1.00  0.00     0.001 A 
ATOM     80  C   UNL A   1      45.880  26.030  37.366  1.00  0.00     0.001 A 
ATOM     81  C   UNL A   1      47.108  26.689  37.396  1.00  0.00     0.000 A 
ENDBRANCH  62  76
BRANCH  63  82
ATOM     82  C   UNL A   1      37.740  30.210  29.432  1.00  0.00    -0.014 A 
ATOM     83  C   UNL A   1      37.719  31.470  28.815  1.00  0.00     0.009 A 
ATOM     84  C   UNL A   1      36.685  29.319  29.186  1.00  0.00     0.009 A 
ATOM     85  C   UNL A   1      36.651  31.842  27.994  1.00  0.00     0.001 A 
ATOM     86  C   UNL A   1      35.632  29.682  28.344  1.00  0.00     0.001 A 
ATOM     87  C   UNL A   1      35.610  30.945  27.757  1.00  0.00     0.000 A 
ENDBRANCH  63  82
BRANCH  75  88
ATOM     88  C   UNL A   1      39.485  32.126  35.894  1.00  0.00    -0.014 A 
ATOM     89  C   UNL A   1      39.935  33.454  35.935  1.00  0.00     0.009 A 
ATOM     90  C   UNL A   1      38.419  31.740  36.722  1.00  0.00     0.009 A 
ATOM     91  C   UNL A   1      39.341  34.370  36.804  1.00  0.00     0.001 A 
ATOM     92  C   UNL A   1      37.811  32.665  37.571  1.00  0.00     0.001 A 
ATOM     93  C   UNL A   1      38.277  33.977  37.616  1.00  0.00     0.000 A 
ENDBRANCH  75  88
ENDBRANCH  49  50
ENDBRANCH  41  44
ENDBRANCH  39  40
ENDBRANCH  38  39
ENDBRANCH  37  38
ENDBRANCH   1  37
TORSDOF 17
ENDMDL
MODEL 3
REMARK VINA RESULT:     -11.3      4.650      7.441
REMARK SMILES CC(=O)N[C@H]1[C@@H](Oc2ccc(C)c(C)c2)O[C@H]2CO[C@H](c3ccco3)O[C@@H]2[C@H]1OCC(=O)NCCCCNC(=O)c1ccc(-c2c3nc(c(-c4ccccc4)c4ccc([nH]4)c(-c4ccccc4)c4nc(c(-c5ccccc5)c5ccc2[nH]5)C=C4)C=C3)cc1
REMARK SMILES IDX 34 1 33 2 31 3 32 4 30 6 29 7 28 8 5 9 6 10 16 11 27 12
REMARK SMILES IDX 17 13 26 14 18 15 20 16 19 17 4 18 1 19 2 20 3 21 7 23 8 24
REMARK SMILES IDX 9 25 15 26 10 27 13 28 11 29 14 30 12 31 21 32 22 33 25 34
REMARK SMILES IDX 23 35 24 36 35 37 36 38 37 39 38 40 39 41 40 43 41 44 42 45
REMARK SMILES IDX 88 46 43 47 87 48 44 49 45 50 46 51 81 52 47 53 86 54 80 55
REMARK SMILES IDX 82 56 48 57 85 58 79 59 78 60 49 62 71 63 56 64 70 65 57 66
REMARK SMILES IDX 60 67 69 68 83 69 58 70 59 71 68 73 84 74 61 75 50 76 51 77
REMARK SMILES IDX 55 78 52 79 54 80 53 81 72 82 73 83 77 84 74 85 76 86 75 87
REMARK SMILES IDX 62 88 63 89 67 90 64 91 66 92 65 93
REMARK H PARENT 33 5 4 22 38 42 82 61 60 72
REMARK Flexibility Score: inf
ROOT
ATOM      1  C   UNL A   1      46.710  26.200  24.869  1.00  0.00     0.116 C 
ENDROOT
BRANCH   1   2
ATOM      2  N   UNL A   1      46.734  24.763  25.092  1.00  0.00    -0.354 N 
ATOM      3  C   UNL A   1      45.764  23.942  25.585  1.00  0.00     0.246 C 
ATOM      4  O   UNL A   1      46.029  22.745  25.724  1.00  0.00    -0.272 OA
ATOM      5  H   UNL A   1      47.577  24.316  24.849  1.00  0.00     0.163 HD
BRANCH   3   6
ATOM      6  C   UNL A   1      44.383  24.499  25.953  1.00  0.00     0.260 C 
BRANCH   6   7
ATOM      7  O   UNL A   1      44.150  24.834  27.307  1.00  0.00    -0.363 OA
BRANCH   7   8
ATOM      8  C   UNL A   1      42.799  24.696  27.755  1.00  0.00     0.179 C 
ATOM      9  C   UNL A   1      42.071  26.041  27.581  1.00  0.00     0.182 C 
ATOM     10  C   UNL A   1      40.542  25.881  27.935  1.00  0.00     0.333 C 
ATOM     11  O   UNL A   1      39.898  24.765  27.317  1.00  0.00    -0.332 OA
ATOM     12  C   UNL A   1      42.016  23.648  26.956  1.00  0.00     0.184 C 
ATOM     13  C   UNL A   1      40.595  23.539  27.514  1.00  0.00     0.180 C 
ATOM     14  O   UNL A   1      42.644  22.375  26.932  1.00  0.00    -0.337 OA
ATOM     15  C   UNL A   1      39.843  22.424  26.779  1.00  0.00     0.199 C 
ATOM     16  C   UNL A   1      41.882  21.537  26.063  1.00  0.00     0.319 C 
ATOM     17  O   UNL A   1      40.622  21.236  26.662  1.00  0.00    -0.343 OA
BRANCH   9  18
ATOM     18  N   UNL A   1      42.347  26.809  26.324  1.00  0.00    -0.345 N 
ATOM     19  C   UNL A   1      42.354  29.328  26.632  1.00  0.00     0.114 C 
ATOM     20  C   UNL A   1      42.347  28.065  25.822  1.00  0.00     0.217 C 
ATOM     21  O   UNL A   1      42.407  28.154  24.589  1.00  0.00    -0.275 OA
ATOM     22  H   UNL A   1      42.623  26.181  25.618  1.00  0.00     0.164 HD
ENDBRANCH   9  18
BRANCH  10  23
ATOM     23  O   UNL A   1      39.769  27.089  27.825  1.00  0.00    -0.463 OA
BRANCH  23  24
ATOM     24  C   UNL A   1      39.377  27.775  28.940  1.00  0.00     0.123 A 
ATOM     25  C   UNL A   1      39.936  27.672  30.207  1.00  0.00     0.047 A 
ATOM     26  C   UNL A   1      38.262  28.598  28.771  1.00  0.00     0.050 A 
ATOM     27  C   UNL A   1      39.268  28.189  31.315  1.00  0.00     0.007 A 
ATOM     28  C   UNL A   1      37.624  29.205  29.871  1.00  0.00    -0.045 A 
ATOM     29  C   UNL A   1      38.076  28.908  31.167  1.00  0.00    -0.048 A 
ATOM     30  C   UNL A   1      36.505  30.171  29.595  1.00  0.00     0.045 C 
ATOM     31  C   UNL A   1      37.344  29.334  32.408  1.00  0.00     0.044 C 
ENDBRANCH  23  24
ENDBRANCH  10  23
BRANCH  16  32
ATOM     32  C   UNL A   1      42.602  20.265  25.800  1.00  0.00     0.159 A 
ATOM     33  C   UNL A   1      43.910  20.011  25.430  1.00  0.00     0.051 A 
ATOM     34  O   UNL A   1      41.962  19.086  26.062  1.00  0.00    -0.464 OA
ATOM     35  C   UNL A   1      44.074  18.607  25.469  1.00  0.00     0.042 A 
ATOM     36  C   UNL A   1      42.859  18.090  25.850  1.00  0.00     0.195 A 
ENDBRANCH  16  32
ENDBRANCH   7   8
ENDBRANCH   6   7
ENDBRANCH   3   6
ENDBRANCH   1   2
BRANCH   1  37
ATOM     37  C   UNL A   1      48.071  26.848  25.132  1.00  0.00     0.023 C 
BRANCH  37  38
ATOM     38  C   UNL A   1      49.282  25.926  25.102  1.00  0.00     0.023 C 
BRANCH  38  39
ATOM     39  C   UNL A   1      50.370  26.313  26.079  1.00  0.00     0.116 C 
BRANCH  39  40
ATOM     40  N   UNL A   1      50.628  25.263  27.053  1.00  0.00    -0.352 N 
ATOM     41  C   UNL A   1      50.046  25.065  28.282  1.00  0.00     0.251 C 
ATOM     42  H   UNL A   1      51.314  24.605  26.798  1.00  0.00     0.163 HD
ATOM     43  O   UNL A   1      50.498  24.230  29.060  1.00  0.00    -0.269 OA
BRANCH  41  44
ATOM     44  C   UNL A   1      48.883  25.886  28.672  1.00  0.00     0.039 A 
ATOM     45  C   UNL A   1      47.594  25.412  28.413  1.00  0.00     0.014 A 
ATOM     46  C   UNL A   1      49.067  27.108  29.322  1.00  0.00     0.014 A 
ATOM     47  C   UNL A   1      46.490  26.136  28.865  1.00  0.00     0.010 A 
ATOM     48  C   UNL A   1      47.975  27.773  29.858  1.00  0.00     0.010 A 
ATOM     49  C   UNL A   1      46.673  27.304  29.622  1.00  0.00    -0.014 A 
BRANCH  49  50
ATOM     50  C   UNL A   1      45.532  28.095  30.142  1.00  0.00     0.031 A 
ATOM     51  C   UNL A   1      45.180  29.400  29.481  1.00  0.00     0.074 A 
ATOM     52  C   UNL A   1      44.878  27.696  31.250  1.00  0.00     0.049 A 
ATOM     53  N   UNL A   1      44.329  30.318  29.862  1.00  0.00    -0.248 NA
ATOM     54  C   UNL A   1      45.913  29.734  28.247  1.00  0.00     0.031 C 
ATOM     55  C   UNL A   1      45.144  26.469  32.003  1.00  0.00     0.029 A 
ATOM     56  N   UNL A   1      43.862  28.300  31.947  1.00  0.00    -0.354 N 
ATOM     57  C   UNL A   1      44.455  31.349  28.939  1.00  0.00     0.074 A 
ATOM     58  C   UNL A   1      45.492  30.967  28.009  1.00  0.00     0.031 C 
ATOM     59  C   UNL A   1      44.297  26.401  33.045  1.00  0.00     0.029 A 
ATOM     60  C   UNL A   1      43.463  27.598  33.058  1.00  0.00     0.049 A 
ATOM     61  H   UNL A   1      43.455  29.154  31.675  1.00  0.00     0.167 HD
ATOM     62  C   UNL A   1      43.754  32.504  28.861  1.00  0.00     0.031 A 
ATOM     63  C   UNL A   1      42.539  27.895  33.992  1.00  0.00     0.031 A 
ATOM     64  C   UNL A   1      42.696  32.866  29.763  1.00  0.00     0.049 A 
ATOM     65  C   UNL A   1      41.764  29.179  33.876  1.00  0.00     0.074 A 
ATOM     66  C   UNL A   1      41.885  33.985  29.734  1.00  0.00     0.029 A 
ATOM     67  N   UNL A   1      42.299  32.106  30.851  1.00  0.00    -0.354 N 
ATOM     68  N   UNL A   1      41.860  30.122  32.970  1.00  0.00    -0.248 NA
ATOM     69  C   UNL A   1      40.748  29.434  34.906  1.00  0.00     0.031 C 
ATOM     70  C   UNL A   1      41.017  33.920  30.829  1.00  0.00     0.029 A 
ATOM     71  C   UNL A   1      41.258  32.738  31.509  1.00  0.00     0.049 A 
ATOM     72  H   UNL A   1      42.697  31.246  31.118  1.00  0.00     0.167 HD
ATOM     73  C   UNL A   1      40.893  31.062  33.299  1.00  0.00     0.074 A 
ATOM     74  C   UNL A   1      40.217  30.573  34.484  1.00  0.00     0.031 C 
ATOM     75  C   UNL A   1      40.587  32.225  32.673  1.00  0.00     0.031 A 
BRANCH  62  76
ATOM     76  C   UNL A   1      44.114  33.459  27.758  1.00  0.00    -0.014 A 
ATOM     77  C   UNL A   1      44.842  34.631  28.017  1.00  0.00     0.009 A 
ATOM     78  C   UNL A   1      43.743  33.167  26.437  1.00  0.00     0.009 A 
ATOM     79  C   UNL A   1      45.158  35.511  26.980  1.00  0.00     0.001 A 
ATOM     80  C   UNL A   1      44.086  34.035  25.397  1.00  0.00     0.001 A 
ATOM     81  C   UNL A   1      44.784  35.210  25.671  1.00  0.00     0.000 A 
ENDBRANCH  62  76
BRANCH  63  82
ATOM     82  C   UNL A   1      42.277  26.951  35.110  1.00  0.00    -0.014 A 
ATOM     83  C   UNL A   1      41.324  25.931  34.969  1.00  0.00     0.009 A 
ATOM     84  C   UNL A   1      42.965  27.072  36.326  1.00  0.00     0.009 A 
ATOM     85  C   UNL A   1      41.045  25.069  36.032  1.00  0.00     0.001 A 
ATOM     86  C   UNL A   1      42.704  26.192  37.379  1.00  0.00     0.001 A 
ATOM     87  C   UNL A   1      41.738  25.198  37.235  1.00  0.00     0.000 A 
ENDBRANCH  63  82
BRANCH  75  88
ATOM     88  C   UNL A   1      39.438  33.021  33.218  1.00  0.00    -0.014 A 
ATOM     89  C   UNL A   1      39.630  34.006  34.198  1.00  0.00     0.009 A 
ATOM     90  C   UNL A   1      38.152  32.823  32.691  1.00  0.00     0.009 A 
ATOM     91  C   UNL A   1      38.549  34.763  34.655  1.00  0.00     0.001 A 
ATOM     92  C   UNL A   1      37.079  33.597  33.131  1.00  0.00     0.001 A 
ATOM     93  C   UNL A   1      37.277  34.562  34.117  1.00  0.00     0.000 A 
ENDBRANCH  75  88
ENDBRANCH  49  50
ENDBRANCH  41  44
ENDBRANCH  39  40
ENDBRANCH  38  39
ENDBRANCH  37  38
ENDBRANCH   1  37
TORSDOF 17
ENDMDL
