MODEL 1
REMARK VINA RESULT:     -11.0      0.000      0.000
REMARK SMILES C[C@@H]1CCC[N@@H+]([C@@H]2CCC[C@]([NH3+])(C(=O)NCCCCNC(=O)c3ccc(-c4c5nc(c(-c6ccccc6)c6ccc([nH]6)c(-c6ccccc6)c6nc(c(-c7ccccc7)c7ccc4[nH]7)C=C6)C=C5)cc3)C2)C1
REMARK SMILES IDX 18 1 17 2 16 3 15 4 13 5 14 6 11 8 7 9 8 10 71 11 9 12 10 13
REMARK SMILES IDX 6 14 1 15 2 16 3 17 72 18 4 19 5 20 12 22 19 26 20 27 21 28
REMARK SMILES IDX 22 30 23 31 24 32 70 33 25 34 69 35 26 36 27 37 28 38 63 39
REMARK SMILES IDX 29 40 68 41 62 42 64 43 30 44 67 45 61 46 60 47 31 49 53 50
REMARK SMILES IDX 38 51 52 52 39 53 42 54 51 55 65 56 40 57 41 58 50 60 66 61
REMARK SMILES IDX 43 62 32 63 33 64 37 65 34 66 36 67 35 68 54 69 55 70 59 71
REMARK SMILES IDX 56 72 58 73 57 74 44 75 45 76 49 77 46 78 48 79 47 80
REMARK H PARENT 15 7 6 21 12 23 12 24 12 25 20 29 64 48 42 59
REMARK Flexibility Score: inf
ROOT
ATOM      1  C   UNL A   1      32.260  28.922  26.439  1.00  0.00     0.023 C 
ENDROOT
BRANCH   1   2
ATOM      2  C   UNL A   1      32.587  28.759  24.961  1.00  0.00     0.023 C 
BRANCH   2   3
ATOM      3  C   UNL A   1      33.533  27.609  24.647  1.00  0.00     0.116 C 
BRANCH   3   4
ATOM      4  N   UNL A   1      33.674  27.367  23.219  1.00  0.00    -0.351 N 
ATOM      5  C   UNL A   1      33.510  26.215  22.485  1.00  0.00     0.281 C 
ATOM      6  O   UNL A   1      33.631  26.296  21.262  1.00  0.00    -0.268 OA
ATOM      7  H   UNL A   1      33.928  28.158  22.690  1.00  0.00     0.163 HD
BRANCH   5   8
ATOM      8  C   UNL A   1      33.230  24.868  23.214  1.00  0.00     0.179 C 
ATOM      9  C   UNL A   1      34.024  23.158  24.974  1.00  0.00     0.190 C 
ATOM     10  C   UNL A   1      33.639  22.029  23.991  1.00  0.00     0.065 C 
ATOM     11  C   UNL A   1      34.310  24.520  24.271  1.00  0.00     0.144 C 
ATOM     12  C   UNL A   1      32.771  22.428  22.810  1.00  0.00     0.013 C 
ATOM     13  C   UNL A   1      33.270  23.714  22.191  1.00  0.00     0.079 C 
BRANCH   9  14
ATOM     14  N   UNL A   1      35.049  22.784  25.978  1.00  0.00    -0.332 N 
ATOM     15  C   UNL A   1      37.266  19.803  24.925  1.00  0.00     0.013 C 
ATOM     16  C   UNL A   1      36.750  21.240  24.897  1.00  0.00     0.041 C 
ATOM     17  C   UNL A   1      37.867  22.242  25.206  1.00  0.00     0.015 C 
ATOM     18  C   UNL A   1      35.559  21.412  25.862  1.00  0.00     0.265 C 
ATOM     19  C   UNL A   1      37.334  23.664  25.353  1.00  0.00     0.062 C 
ATOM     20  C   UNL A   1      36.123  23.729  26.284  1.00  0.00     0.262 C 
ATOM     21  H   UNL A   1      34.457  22.840  26.808  1.00  0.00     0.348 HD
ENDBRANCH   9  14
BRANCH   8  22
ATOM     22  N   UNL A   1      31.946  25.014  23.954  1.00  0.00    -0.345 N 
ATOM     23  H   UNL A   1      31.219  24.474  23.485  1.00  0.00     0.345 HD
ATOM     24  H   UNL A   1      31.677  25.999  23.977  1.00  0.00     0.345 HD
ATOM     25  H   UNL A   1      32.063  24.672  24.908  1.00  0.00     0.345 HD
ENDBRANCH   8  22
ENDBRANCH   5   8
ENDBRANCH   3   4
ENDBRANCH   2   3
ENDBRANCH   1   2
BRANCH   1  26
ATOM     26  C   UNL A   1      33.469  29.100  27.351  1.00  0.00     0.116 C 
BRANCH  26  27
ATOM     27  N   UNL A   1      33.613  30.457  27.866  1.00  0.00    -0.352 N 
ATOM     28  C   UNL A   1      34.701  31.043  28.471  1.00  0.00     0.251 C 
ATOM     29  H   UNL A   1      32.822  31.035  27.766  1.00  0.00     0.163 HD
ATOM     30  O   UNL A   1      34.632  32.161  28.941  1.00  0.00    -0.269 OA
BRANCH  28  31
ATOM     31  C   UNL A   1      35.952  30.261  28.578  1.00  0.00     0.039 A 
ATOM     32  C   UNL A   1      36.832  30.253  27.495  1.00  0.00     0.014 A 
ATOM     33  C   UNL A   1      36.283  29.620  29.775  1.00  0.00     0.014 A 
ATOM     34  C   UNL A   1      38.094  29.679  27.645  1.00  0.00     0.010 A 
ATOM     35  C   UNL A   1      37.567  29.117  29.945  1.00  0.00     0.010 A 
ATOM     36  C   UNL A   1      38.489  29.157  28.888  1.00  0.00    -0.014 A 
BRANCH  36  37
ATOM     37  C   UNL A   1      39.878  28.692  29.117  1.00  0.00     0.031 A 
ATOM     38  C   UNL A   1      40.906  29.623  29.689  1.00  0.00     0.074 A 
ATOM     39  C   UNL A   1      40.232  27.451  28.727  1.00  0.00     0.049 A 
ATOM     40  N   UNL A   1      42.181  29.415  29.898  1.00  0.00    -0.248 NA
ATOM     41  C   UNL A   1      40.448  30.975  30.051  1.00  0.00     0.031 C 
ATOM     42  C   UNL A   1      39.339  26.467  28.108  1.00  0.00     0.029 A 
ATOM     43  N   UNL A   1      41.443  26.808  28.784  1.00  0.00    -0.354 N 
ATOM     44  C   UNL A   1      42.680  30.610  30.399  1.00  0.00     0.074 A 
ATOM     45  C   UNL A   1      41.582  31.553  30.421  1.00  0.00     0.031 C 
ATOM     46  C   UNL A   1      40.026  25.339  27.868  1.00  0.00     0.029 A 
ATOM     47  C   UNL A   1      41.413  25.531  28.276  1.00  0.00     0.049 A 
ATOM     48  H   UNL A   1      42.255  27.222  29.155  1.00  0.00     0.167 HD
ATOM     49  C   UNL A   1      43.935  30.892  30.820  1.00  0.00     0.031 A 
ATOM     50  C   UNL A   1      42.395  24.621  28.145  1.00  0.00     0.031 A 
ATOM     51  C   UNL A   1      45.024  29.953  30.808  1.00  0.00     0.049 A 
ATOM     52  C   UNL A   1      43.781  24.963  28.611  1.00  0.00     0.074 A 
ATOM     53  C   UNL A   1      46.314  30.123  31.279  1.00  0.00     0.029 A 
ATOM     54  N   UNL A   1      44.952  28.668  30.293  1.00  0.00    -0.354 N 
ATOM     55  N   UNL A   1      44.218  26.071  29.157  1.00  0.00    -0.248 NA
ATOM     56  C   UNL A   1      44.809  23.924  28.447  1.00  0.00     0.031 C 
ATOM     57  C   UNL A   1      47.037  28.958  31.003  1.00  0.00     0.029 A 
ATOM     58  C   UNL A   1      46.183  28.046  30.406  1.00  0.00     0.049 A 
ATOM     59  H   UNL A   1      44.145  28.260  29.903  1.00  0.00     0.167 HD
ATOM     60  C   UNL A   1      45.564  25.858  29.419  1.00  0.00     0.074 A 
ATOM     61  C   UNL A   1      45.867  24.508  28.990  1.00  0.00     0.031 C 
ATOM     62  C   UNL A   1      46.470  26.706  29.965  1.00  0.00     0.031 A 
BRANCH  49  63
ATOM     63  C   UNL A   1      44.197  32.283  31.326  1.00  0.00    -0.014 A 
ATOM     64  C   UNL A   1      44.608  33.306  30.457  1.00  0.00     0.009 A 
ATOM     65  C   UNL A   1      43.995  32.583  32.681  1.00  0.00     0.009 A 
ATOM     66  C   UNL A   1      44.844  34.593  30.941  1.00  0.00     0.001 A 
ATOM     67  C   UNL A   1      44.207  33.878  33.158  1.00  0.00     0.001 A 
ATOM     68  C   UNL A   1      44.638  34.879  32.290  1.00  0.00     0.000 A 
ENDBRANCH  49  63
BRANCH  50  69
ATOM     69  C   UNL A   1      42.101  23.289  27.554  1.00  0.00    -0.014 A 
ATOM     70  C   UNL A   1      42.282  23.064  26.182  1.00  0.00     0.009 A 
ATOM     71  C   UNL A   1      41.634  22.238  28.360  1.00  0.00     0.009 A 
ATOM     72  C   UNL A   1      41.979  21.821  25.622  1.00  0.00     0.001 A 
ATOM     73  C   UNL A   1      41.358  20.988  27.803  1.00  0.00     0.001 A 
ATOM     74  C   UNL A   1      41.521  20.782  26.433  1.00  0.00     0.000 A 
ENDBRANCH  50  69
BRANCH  62  75
ATOM     75  C   UNL A   1      47.869  26.189  30.144  1.00  0.00    -0.014 A 
ATOM     76  C   UNL A   1      48.779  26.177  29.076  1.00  0.00     0.009 A 
ATOM     77  C   UNL A   1      48.291  25.744  31.406  1.00  0.00     0.009 A 
ATOM     78  C   UNL A   1      50.077  25.697  29.262  1.00  0.00     0.001 A 
ATOM     79  C   UNL A   1      49.597  25.291  31.595  1.00  0.00     0.001 A 
ATOM     80  C   UNL A   1      50.485  25.260  30.522  1.00  0.00     0.000 A 
ENDBRANCH  62  75
ENDBRANCH  36  37
ENDBRANCH  28  31
ENDBRANCH  26  27
ENDBRANCH   1  26
TORSDOF 13
ENDMDL
MODEL 2
REMARK VINA RESULT:     -11.0      2.102      7.669
REMARK SMILES C[C@@H]1CCC[N@@H+]([C@@H]2CCC[C@]([NH3+])(C(=O)NCCCCNC(=O)c3ccc(-c4c5nc(c(-c6ccccc6)c6ccc([nH]6)c(-c6ccccc6)c6nc(c(-c7ccccc7)c7ccc4[nH]7)C=C6)C=C5)cc3)C2)C1
REMARK SMILES IDX 18 1 17 2 16 3 15 4 13 5 14 6 11 8 7 9 8 10 71 11 9 12 10 13
REMARK SMILES IDX 6 14 1 15 2 16 3 17 72 18 4 19 5 20 12 22 19 26 20 27 21 28
REMARK SMILES IDX 22 30 23 31 24 32 70 33 25 34 69 35 26 36 27 37 28 38 63 39
REMARK SMILES IDX 29 40 68 41 62 42 64 43 30 44 67 45 61 46 60 47 31 49 53 50
REMARK SMILES IDX 38 51 52 52 39 53 42 54 51 55 65 56 40 57 41 58 50 60 66 61
REMARK SMILES IDX 43 62 32 63 33 64 37 65 34 66 36 67 35 68 54 69 55 70 59 71
REMARK SMILES IDX 56 72 58 73 57 74 44 75 45 76 49 77 46 78 48 79 47 80
REMARK H PARENT 15 7 6 21 12 23 12 24 12 25 20 29 64 48 42 59
REMARK Flexibility Score: inf
ROOT
ATOM      1  C   UNL A   1      37.582  20.692  24.914  1.00  0.00     0.023 C 
ENDROOT
BRANCH   1   2
ATOM      2  C   UNL A   1      36.930  21.947  24.349  1.00  0.00     0.023 C 
BRANCH   2   3
ATOM      3  C   UNL A   1      36.441  22.932  25.401  1.00  0.00     0.116 C 
BRANCH   3   4
ATOM      4  N   UNL A   1      35.745  22.284  26.502  1.00  0.00    -0.351 N 
ATOM      5  C   UNL A   1      34.419  22.320  26.869  1.00  0.00     0.281 C 
ATOM      6  O   UNL A   1      34.071  21.619  27.821  1.00  0.00    -0.268 OA
ATOM      7  H   UNL A   1      36.316  21.726  27.080  1.00  0.00     0.163 HD
BRANCH   5   8
ATOM      8  C   UNL A   1      33.435  23.261  26.114  1.00  0.00     0.179 C 
ATOM      9  C   UNL A   1      32.950  25.647  25.265  1.00  0.00     0.190 C 
ATOM     10  C   UNL A   1      31.491  25.479  25.751  1.00  0.00     0.065 C 
ATOM     11  C   UNL A   1      33.959  24.716  26.004  1.00  0.00     0.144 C 
ATOM     12  C   UNL A   1      31.052  24.067  26.094  1.00  0.00     0.013 C 
ATOM     13  C   UNL A   1      32.114  23.360  26.905  1.00  0.00     0.079 C 
BRANCH   9  14
ATOM     14  N   UNL A   1      33.410  27.052  25.158  1.00  0.00    -0.332 N 
ATOM     15  C   UNL A   1      30.639  29.541  24.138  1.00  0.00     0.013 C 
ATOM     16  C   UNL A   1      31.389  28.587  25.065  1.00  0.00     0.041 C 
ATOM     17  C   UNL A   1      31.860  29.297  26.337  1.00  0.00     0.015 C 
ATOM     18  C   UNL A   1      32.567  27.920  24.326  1.00  0.00     0.265 C 
ATOM     19  C   UNL A   1      32.758  28.406  27.191  1.00  0.00     0.062 C 
ATOM     20  C   UNL A   1      33.863  27.746  26.364  1.00  0.00     0.262 C 
ATOM     21  H   UNL A   1      34.283  26.875  24.660  1.00  0.00     0.348 HD
ENDBRANCH   9  14
BRANCH   8  22
ATOM     22  N   UNL A   1      33.302  22.752  24.722  1.00  0.00    -0.345 N 
ATOM     23  H   UNL A   1      32.328  22.813  24.427  1.00  0.00     0.345 HD
ATOM     24  H   UNL A   1      33.608  21.779  24.685  1.00  0.00     0.345 HD
ATOM     25  H   UNL A   1      33.882  23.314  24.097  1.00  0.00     0.345 HD
ENDBRANCH   8  22
ENDBRANCH   5   8
ENDBRANCH   3   4
ENDBRANCH   2   3
ENDBRANCH   1   2
BRANCH   1  26
ATOM     26  C   UNL A   1      38.854  20.933  25.720  1.00  0.00     0.116 C 
BRANCH  26  27
ATOM     27  N   UNL A   1      39.785  19.812  25.684  1.00  0.00    -0.352 N 
ATOM     28  C   UNL A   1      41.117  19.782  26.027  1.00  0.00     0.251 C 
ATOM     29  H   UNL A   1      39.409  18.957  25.372  1.00  0.00     0.163 HD
ATOM     30  O   UNL A   1      41.790  18.786  25.845  1.00  0.00    -0.269 OA
BRANCH  28  31
ATOM     31  C   UNL A   1      41.729  21.008  26.584  1.00  0.00     0.039 A 
ATOM     32  C   UNL A   1      42.272  21.944  25.704  1.00  0.00     0.014 A 
ATOM     33  C   UNL A   1      41.682  21.259  27.958  1.00  0.00     0.014 A 
ATOM     34  C   UNL A   1      42.682  23.184  26.194  1.00  0.00     0.010 A 
ATOM     35  C   UNL A   1      42.022  22.520  28.431  1.00  0.00     0.010 A 
ATOM     36  C   UNL A   1      42.509  23.499  27.553  1.00  0.00    -0.014 A 
BRANCH  36  37
ATOM     37  C   UNL A   1      42.785  24.863  28.064  1.00  0.00     0.031 A 
ATOM     38  C   UNL A   1      44.168  25.242  28.506  1.00  0.00     0.074 A 
ATOM     39  C   UNL A   1      41.766  25.734  28.207  1.00  0.00     0.049 A 
ATOM     40  N   UNL A   1      44.584  26.362  29.039  1.00  0.00    -0.248 NA
ATOM     41  C   UNL A   1      45.217  24.220  28.354  1.00  0.00     0.031 C 
ATOM     42  C   UNL A   1      40.366  25.468  27.864  1.00  0.00     0.029 A 
ATOM     43  N   UNL A   1      41.750  27.017  28.691  1.00  0.00    -0.354 N 
ATOM     44  C   UNL A   1      45.935  26.175  29.299  1.00  0.00     0.074 A 
ATOM     45  C   UNL A   1      46.259  24.820  28.909  1.00  0.00     0.031 C 
ATOM     46  C   UNL A   1      39.635  26.563  28.124  1.00  0.00     0.029 A 
ATOM     47  C   UNL A   1      40.501  27.591  28.688  1.00  0.00     0.049 A 
ATOM     48  H   UNL A   1      42.556  27.483  29.009  1.00  0.00     0.167 HD
ATOM     49  C   UNL A   1      46.829  27.058  29.803  1.00  0.00     0.031 A 
ATOM     50  C   UNL A   1      40.098  28.807  29.102  1.00  0.00     0.031 A 
ATOM     51  C   UNL A   1      46.509  28.409  30.181  1.00  0.00     0.049 A 
ATOM     52  C   UNL A   1      41.108  29.764  29.666  1.00  0.00     0.074 A 
ATOM     53  C   UNL A   1      47.361  29.401  30.634  1.00  0.00     0.029 A 
ATOM     54  N   UNL A   1      45.236  28.954  30.156  1.00  0.00    -0.354 N 
ATOM     55  N   UNL A   1      42.399  29.599  29.831  1.00  0.00    -0.248 NA
ATOM     56  C   UNL A   1      40.608  31.078  30.094  1.00  0.00     0.031 C 
ATOM     57  C   UNL A   1      46.595  30.532  30.932  1.00  0.00     0.029 A 
ATOM     58  C   UNL A   1      45.274  30.259  30.616  1.00  0.00     0.049 A 
ATOM     59  H   UNL A   1      44.425  28.483  29.858  1.00  0.00     0.167 HD
ATOM     60  C   UNL A   1      42.866  30.791  30.364  1.00  0.00     0.074 A 
ATOM     61  C   UNL A   1      41.726  31.678  30.476  1.00  0.00     0.031 C 
ATOM     62  C   UNL A   1      44.128  31.124  30.730  1.00  0.00     0.031 A 
BRANCH  49  63
ATOM     63  C   UNL A   1      48.244  26.584  29.978  1.00  0.00    -0.014 A 
ATOM     64  C   UNL A   1      48.640  25.888  31.131  1.00  0.00     0.009 A 
ATOM     65  C   UNL A   1      49.185  26.802  28.959  1.00  0.00     0.009 A 
ATOM     66  C   UNL A   1      49.957  25.451  31.277  1.00  0.00     0.001 A 
ATOM     67  C   UNL A   1      50.495  26.340  29.096  1.00  0.00     0.001 A 
ATOM     68  C   UNL A   1      50.882  25.673  30.257  1.00  0.00     0.000 A 
ENDBRANCH  49  63
BRANCH  50  69
ATOM     69  C   UNL A   1      38.667  29.194  28.989  1.00  0.00    -0.014 A 
ATOM     70  C   UNL A   1      38.148  29.651  27.769  1.00  0.00     0.009 A 
ATOM     71  C   UNL A   1      37.816  29.112  30.103  1.00  0.00     0.009 A 
ATOM     72  C   UNL A   1      36.811  30.042  27.671  1.00  0.00     0.001 A 
ATOM     73  C   UNL A   1      36.473  29.478  29.995  1.00  0.00     0.001 A 
ATOM     74  C   UNL A   1      35.973  29.951  28.782  1.00  0.00     0.000 A 
ENDBRANCH  50  69
BRANCH  62  75
ATOM     75  C   UNL A   1      44.341  32.510  31.269  1.00  0.00    -0.014 A 
ATOM     76  C   UNL A   1      44.267  32.771  32.646  1.00  0.00     0.009 A 
ATOM     77  C   UNL A   1      44.658  33.558  30.392  1.00  0.00     0.009 A 
ATOM     78  C   UNL A   1      44.473  34.064  33.130  1.00  0.00     0.001 A 
ATOM     79  C   UNL A   1      44.891  34.843  30.881  1.00  0.00     0.001 A 
ATOM     80  C   UNL A   1      44.789  35.097  32.248  1.00  0.00     0.000 A 
ENDBRANCH  62  75
ENDBRANCH  36  37
ENDBRANCH  28  31
ENDBRANCH  26  27
ENDBRANCH   1  26
TORSDOF 13
ENDMDL
MODEL 3
REMARK VINA RESULT:     -10.9      2.087      7.578
REMARK SMILES C[C@@H]1CCC[N@@H+]([C@@H]2CCC[C@]([NH3+])(C(=O)NCCCCNC(=O)c3ccc(-c4c5nc(c(-c6ccccc6)c6ccc([nH]6)c(-c6ccccc6)c6nc(c(-c7ccccc7)c7ccc4[nH]7)C=C6)C=C5)cc3)C2)C1
REMARK SMILES IDX 18 1 17 2 16 3 15 4 13 5 14 6 11 8 7 9 8 10 71 11 9 12 10 13
REMARK SMILES IDX 6 14 1 15 2 16 3 17 72 18 4 19 5 20 12 22 19 26 20 27 21 28
REMARK SMILES IDX 22 30 23 31 24 32 70 33 25 34 69 35 26 36 27 37 28 38 63 39
REMARK SMILES IDX 29 40 68 41 62 42 64 43 30 44 67 45 61 46 60 47 31 49 53 50
REMARK SMILES IDX 38 51 52 52 39 53 42 54 51 55 65 56 40 57 41 58 50 60 66 61
REMARK SMILES IDX 43 62 32 63 33 64 37 65 34 66 36 67 35 68 54 69 55 70 59 71
REMARK SMILES IDX 56 72 58 73 57 74 44 75 45 76 49 77 46 78 48 79 47 80
REMARK H PARENT 15 7 6 21 12 23 12 24 12 25 20 29 64 48 42 59
REMARK Flexibility Score: inf
ROOT
ATOM      1  C   UNL A   1      37.359  21.148  24.750  1.00  0.00     0.023 C 
ENDROOT
BRANCH   1   2
ATOM      2  C   UNL A   1      36.407  19.976  24.951  1.00  0.00     0.023 C 
BRANCH   2   3
ATOM      3  C   UNL A   1      34.933  20.352  24.941  1.00  0.00     0.116 C 
BRANCH   3   4
ATOM      4  N   UNL A   1      34.464  20.834  26.232  1.00  0.00    -0.351 N 
ATOM      5  C   UNL A   1      33.577  21.837  26.545  1.00  0.00     0.281 C 
ATOM      6  O   UNL A   1      33.301  22.004  27.735  1.00  0.00    -0.268 OA
ATOM      7  H   UNL A   1      34.844  20.363  27.010  1.00  0.00     0.163 HD
BRANCH   5   8
ATOM      8  C   UNL A   1      33.001  22.739  25.415  1.00  0.00     0.179 C 
ATOM      9  C   UNL A   1      31.474  24.725  24.802  1.00  0.00     0.190 C 
ATOM     10  C   UNL A   1      30.949  23.899  23.605  1.00  0.00     0.065 C 
ATOM     11  C   UNL A   1      32.057  23.847  25.951  1.00  0.00     0.144 C 
ATOM     12  C   UNL A   1      31.750  22.664  23.233  1.00  0.00     0.013 C 
ATOM     13  C   UNL A   1      32.131  21.883  24.470  1.00  0.00     0.079 C 
BRANCH   9  14
ATOM     14  N   UNL A   1      30.552  25.784  25.278  1.00  0.00    -0.332 N 
ATOM     15  C   UNL A   1      32.302  28.658  27.173  1.00  0.00     0.013 C 
ATOM     16  C   UNL A   1      31.904  27.823  25.957  1.00  0.00     0.041 C 
ATOM     17  C   UNL A   1      31.167  28.669  24.915  1.00  0.00     0.015 C 
ATOM     18  C   UNL A   1      31.065  26.602  26.385  1.00  0.00     0.265 C 
ATOM     19  C   UNL A   1      30.611  27.817  23.777  1.00  0.00     0.062 C 
ATOM     20  C   UNL A   1      29.841  26.602  24.295  1.00  0.00     0.262 C 
ATOM     21  H   UNL A   1      29.816  25.176  25.639  1.00  0.00     0.348 HD
ENDBRANCH   9  14
BRANCH   8  22
ATOM     22  N   UNL A   1      34.145  23.435  24.765  1.00  0.00    -0.345 N 
ATOM     23  H   UNL A   1      34.106  23.288  23.757  1.00  0.00     0.345 HD
ATOM     24  H   UNL A   1      35.022  23.060  25.130  1.00  0.00     0.345 HD
ATOM     25  H   UNL A   1      34.094  24.434  24.966  1.00  0.00     0.345 HD
ENDBRANCH   8  22
ENDBRANCH   5   8
ENDBRANCH   3   4
ENDBRANCH   2   3
ENDBRANCH   1   2
BRANCH   1  26
ATOM     26  C   UNL A   1      38.539  21.193  25.715  1.00  0.00     0.116 C 
BRANCH  26  27
ATOM     27  N   UNL A   1      39.394  20.014  25.642  1.00  0.00    -0.352 N 
ATOM     28  C   UNL A   1      40.719  19.883  25.986  1.00  0.00     0.251 C 
ATOM     29  H   UNL A   1      38.962  19.198  25.299  1.00  0.00     0.163 HD
ATOM     30  O   UNL A   1      41.325  18.852  25.771  1.00  0.00    -0.269 OA
BRANCH  28  31
ATOM     31  C   UNL A   1      41.409  21.046  26.587  1.00  0.00     0.039 A 
ATOM     32  C   UNL A   1      42.009  21.978  25.740  1.00  0.00     0.014 A 
ATOM     33  C   UNL A   1      41.379  21.247  27.969  1.00  0.00     0.014 A 
ATOM     34  C   UNL A   1      42.499  23.169  26.276  1.00  0.00     0.010 A 
ATOM     35  C   UNL A   1      41.800  22.465  28.489  1.00  0.00     0.010 A 
ATOM     36  C   UNL A   1      42.347  23.443  27.646  1.00  0.00    -0.014 A 
BRANCH  36  37
ATOM     37  C   UNL A   1      42.711  24.767  28.207  1.00  0.00     0.031 A 
ATOM     38  C   UNL A   1      41.663  25.823  28.400  1.00  0.00     0.074 A 
ATOM     39  C   UNL A   1      44.006  25.042  28.463  1.00  0.00     0.049 A 
ATOM     40  N   UNL A   1      41.804  27.056  28.815  1.00  0.00    -0.248 NA
ATOM     41  C   UNL A   1      40.279  25.456  28.058  1.00  0.00     0.031 C 
ATOM     42  C   UNL A   1      45.126  24.119  28.266  1.00  0.00     0.029 A 
ATOM     43  N   UNL A   1      44.598  26.187  28.933  1.00  0.00    -0.354 N 
ATOM     44  C   UNL A   1      40.533  27.615  28.769  1.00  0.00     0.074 A 
ATOM     45  C   UNL A   1      39.643  26.603  28.244  1.00  0.00     0.031 C 
ATOM     46  C   UNL A   1      46.265  24.724  28.639  1.00  0.00     0.029 A 
ATOM     47  C   UNL A   1      45.964  26.087  29.060  1.00  0.00     0.049 A 
ATOM     48  H   UNL A   1      44.094  27.001  29.160  1.00  0.00     0.167 HD
ATOM     49  C   UNL A   1      40.140  28.854  29.148  1.00  0.00     0.031 A 
ATOM     50  C   UNL A   1      46.871  26.995  29.462  1.00  0.00     0.031 A 
ATOM     51  C   UNL A   1      41.023  29.857  29.679  1.00  0.00     0.049 A 
ATOM     52  C   UNL A   1      46.410  28.366  29.866  1.00  0.00     0.074 A 
ATOM     53  C   UNL A   1      40.708  31.117  30.156  1.00  0.00     0.029 A 
ATOM     54  N   UNL A   1      42.397  29.715  29.798  1.00  0.00    -0.354 N 
ATOM     55  N   UNL A   1      45.193  28.853  29.894  1.00  0.00    -0.248 NA
ATOM     56  C   UNL A   1      47.448  29.312  30.302  1.00  0.00     0.031 C 
ATOM     57  C   UNL A   1      41.897  31.758  30.517  1.00  0.00     0.029 A 
ATOM     58  C   UNL A   1      42.947  30.878  30.311  1.00  0.00     0.049 A 
ATOM     59  H   UNL A   1      42.906  28.910  29.552  1.00  0.00     0.167 HD
ATOM     60  C   UNL A   1      45.316  30.152  30.365  1.00  0.00     0.074 A 
ATOM     61  C   UNL A   1      46.724  30.371  30.631  1.00  0.00     0.031 C 
ATOM     62  C   UNL A   1      44.350  31.082  30.560  1.00  0.00     0.031 A 
BRANCH  49  63
ATOM     63  C   UNL A   1      38.685  29.194  28.992  1.00  0.00    -0.014 A 
ATOM     64  C   UNL A   1      37.789  29.059  30.064  1.00  0.00     0.009 A 
ATOM     65  C   UNL A   1      38.211  29.692  27.768  1.00  0.00     0.009 A 
ATOM     66  C   UNL A   1      36.440  29.383  29.903  1.00  0.00     0.001 A 
ATOM     67  C   UNL A   1      36.867  30.039  27.619  1.00  0.00     0.001 A 
ATOM     68  C   UNL A   1      35.982  29.877  28.683  1.00  0.00     0.000 A 
ENDBRANCH  49  63
BRANCH  50  69
ATOM     69  C   UNL A   1      48.313  26.635  29.513  1.00  0.00    -0.014 A 
ATOM     70  C   UNL A   1      49.143  26.869  28.407  1.00  0.00     0.009 A 
ATOM     71  C   UNL A   1      48.863  26.053  30.666  1.00  0.00     0.009 A 
ATOM     72  C   UNL A   1      50.491  26.504  28.444  1.00  0.00     0.001 A 
ATOM     73  C   UNL A   1      50.217  25.715  30.710  1.00  0.00     0.001 A 
ATOM     74  C   UNL A   1      51.028  25.932  29.597  1.00  0.00     0.000 A 
ENDBRANCH  50  69
BRANCH  62  75
ATOM     75  C   UNL A   1      44.783  32.415  31.103  1.00  0.00    -0.014 A 
ATOM     76  C   UNL A   1      44.873  32.639  32.485  1.00  0.00     0.009 A 
ATOM     77  C   UNL A   1      45.140  33.444  30.219  1.00  0.00     0.009 A 
ATOM     78  C   UNL A   1      45.282  33.882  32.972  1.00  0.00     0.001 A 
ATOM     79  C   UNL A   1      45.575  34.676  30.709  1.00  0.00     0.001 A 
ATOM     80  C   UNL A   1      45.637  34.897  32.084  1.00  0.00     0.000 A 
ENDBRANCH  62  75
ENDBRANCH  36  37
ENDBRANCH  28  31
ENDBRANCH  26  27
ENDBRANCH   1  26
TORSDOF 13
ENDMDL
