MODEL 1
REMARK VINA RESULT:     -10.8      0.000      0.000
REMARK SMILES COc1cc([C@@H]2[NH2+][C@@H](C(=O)NCCCCNC(=O)c3ccc(-c4c5nc(c(-c6ccccc6)c6ccc([nH]6)c(-c6ccccc6)c6nc(c(-c7ccccc7)c7ccc4[nH]7)C=C6)C=C5)cc3)CS2)cc(Cl)c1O
REMARK SMILES IDX 13 1 12 2 11 3 9 4 10 5 8 7 6 8 7 9 68 10 67 13 5 14 3 15
REMARK SMILES IDX 4 16 72 17 70 18 69 19 71 20 2 21 1 22 73 23 14 25 15 26
REMARK SMILES IDX 16 27 17 28 18 30 19 31 20 32 66 33 21 34 65 35 22 36 23 37
REMARK SMILES IDX 24 38 59 39 25 40 64 41 58 42 60 43 26 44 63 45 57 46 56 47
REMARK SMILES IDX 27 49 49 50 34 51 48 52 35 53 38 54 47 55 61 56 36 57 37 58
REMARK SMILES IDX 46 60 62 61 39 62 28 63 29 64 33 65 30 66 32 67 31 68 50 69
REMARK SMILES IDX 51 70 55 71 52 72 54 73 53 74 40 75 41 76 45 77 42 78 44 79
REMARK SMILES IDX 43 80
REMARK H PARENT 11 6 7 11 7 12 73 24 16 29 60 48 38 59
REMARK Flexibility Score: inf
ROOT
ATOM      1  C   UNL A   1      31.391  30.537  25.779  1.00  0.00     0.023 C 
ENDROOT
BRANCH   1   2
ATOM      2  C   UNL A   1      32.795  29.931  25.776  1.00  0.00     0.116 C 
BRANCH   2   3
ATOM      3  N   UNL A   1      33.291  29.753  24.425  1.00  0.00    -0.351 N 
ATOM      4  C   UNL A   1      33.303  28.643  23.635  1.00  0.00     0.279 C 
ATOM      5  O   UNL A   1      33.833  28.759  22.528  1.00  0.00    -0.268 OA
ATOM      6  H   UNL A   1      33.679  30.558  24.015  1.00  0.00     0.163 HD
BRANCH   4   7
ATOM      7  C   UNL A   1      32.638  27.330  24.108  1.00  0.00     0.283 C 
ATOM      8  C   UNL A   1      32.279  25.054  23.436  1.00  0.00     0.274 C 
ATOM      9  N   UNL A   1      33.247  26.155  23.423  1.00  0.00    -0.321 N 
ATOM     10  S   UNL A   1      30.653  25.777  23.160  1.00  0.00    -0.088 SA
ATOM     11  H   UNL A   1      33.477  26.399  22.459  1.00  0.00     0.348 HD
ATOM     12  H   UNL A   1      34.102  25.875  23.903  1.00  0.00     0.348 HD
ATOM     13  C   UNL A   1      31.122  27.380  23.851  1.00  0.00     0.151 C 
BRANCH   8  14
ATOM     14  C   UNL A   1      32.328  24.160  24.667  1.00  0.00     0.025 A 
ATOM     15  C   UNL A   1      33.511  23.076  26.506  1.00  0.00     0.162 A 
ATOM     16  C   UNL A   1      33.527  23.786  25.302  1.00  0.00     0.061 A 
ATOM     17  C   UNL A   1      32.303  22.748  27.118  1.00  0.00     0.176 A 
ATOM     18  C   UNL A   1      31.104  23.059  26.480  1.00  0.00     0.087 A 
ATOM     19  C   UNL A   1      31.117  23.753  25.264  1.00  0.00     0.035 A 
ATOM     20  Cl  UNL A   1      29.581  22.665  27.190  1.00  0.00    -0.080 Cl
BRANCH  15  21
ATOM     21  O   UNL A   1      34.713  22.821  27.115  1.00  0.00    -0.493 OA
ATOM     22  C   UNL A   1      35.805  23.019  26.213  1.00  0.00     0.278 C 
ENDBRANCH  15  21
BRANCH  17  23
ATOM     23  O   UNL A   1      32.304  22.174  28.361  1.00  0.00    -0.503 OA
ATOM     24  H   UNL A   1      31.497  22.054  28.822  1.00  0.00     0.293 HD
ENDBRANCH  17  23
ENDBRANCH   8  14
ENDBRANCH   4   7
ENDBRANCH   2   3
ENDBRANCH   1   2
BRANCH   1  25
ATOM     25  C   UNL A   1      31.261  31.882  26.507  1.00  0.00     0.023 C 
BRANCH  25  26
ATOM     26  C   UNL A   1      32.553  32.449  27.090  1.00  0.00     0.116 C 
BRANCH  26  27
ATOM     27  N   UNL A   1      32.383  33.773  27.662  1.00  0.00    -0.352 N 
ATOM     28  C   UNL A   1      33.178  34.446  28.555  1.00  0.00     0.251 C 
ATOM     29  H   UNL A   1      31.579  34.259  27.366  1.00  0.00     0.163 HD
ATOM     30  O   UNL A   1      32.792  35.518  29.024  1.00  0.00    -0.269 OA
BRANCH  28  31
ATOM     31  C   UNL A   1      34.479  33.889  28.984  1.00  0.00     0.039 A 
ATOM     32  C   UNL A   1      34.523  33.102  30.139  1.00  0.00     0.014 A 
ATOM     33  C   UNL A   1      35.658  34.156  28.281  1.00  0.00     0.014 A 
ATOM     34  C   UNL A   1      35.732  32.540  30.557  1.00  0.00     0.010 A 
ATOM     35  C   UNL A   1      36.850  33.540  28.660  1.00  0.00     0.010 A 
ATOM     36  C   UNL A   1      36.902  32.730  29.804  1.00  0.00    -0.014 A 
BRANCH  36  37
ATOM     37  C   UNL A   1      38.181  32.091  30.208  1.00  0.00     0.031 A 
ATOM     38  C   UNL A   1      39.113  32.785  31.164  1.00  0.00     0.074 A 
ATOM     39  C   UNL A   1      38.533  30.905  29.674  1.00  0.00     0.049 A 
ATOM     40  N   UNL A   1      40.284  32.395  31.606  1.00  0.00    -0.248 NA
ATOM     41  C   UNL A   1      38.687  34.098  31.672  1.00  0.00     0.031 C 
ATOM     42  C   UNL A   1      37.745  30.147  28.700  1.00  0.00     0.029 A 
ATOM     43  N   UNL A   1      39.650  30.133  29.870  1.00  0.00    -0.354 N 
ATOM     44  C   UNL A   1      40.737  33.418  32.429  1.00  0.00     0.074 A 
ATOM     45  C   UNL A   1      39.741  34.467  32.384  1.00  0.00     0.031 C 
ATOM     46  C   UNL A   1      38.392  29.009  28.403  1.00  0.00     0.029 A 
ATOM     47  C   UNL A   1      39.653  28.972  29.138  1.00  0.00     0.049 A 
ATOM     48  H   UNL A   1      40.380  30.387  30.480  1.00  0.00     0.167 HD
ATOM     49  C   UNL A   1      41.868  33.474  33.172  1.00  0.00     0.031 A 
ATOM     50  C   UNL A   1      40.567  27.986  29.060  1.00  0.00     0.031 A 
ATOM     51  C   UNL A   1      42.859  32.432  33.225  1.00  0.00     0.049 A 
ATOM     52  C   UNL A   1      41.816  28.070  29.892  1.00  0.00     0.074 A 
ATOM     53  C   UNL A   1      44.012  32.374  33.990  1.00  0.00     0.029 A 
ATOM     54  N   UNL A   1      42.815  31.264  32.478  1.00  0.00    -0.354 N 
ATOM     55  N   UNL A   1      42.194  29.012  30.721  1.00  0.00    -0.248 NA
ATOM     56  C   UNL A   1      42.756  26.945  29.789  1.00  0.00     0.031 C 
ATOM     57  C   UNL A   1      44.690  31.192  33.670  1.00  0.00     0.029 A 
ATOM     58  C   UNL A   1      43.931  30.490  32.748  1.00  0.00     0.049 A 
ATOM     59  H   UNL A   1      42.098  31.022  31.850  1.00  0.00     0.167 HD
ATOM     60  C   UNL A   1      43.401  28.583  31.258  1.00  0.00     0.074 A 
ATOM     61  C   UNL A   1      43.682  27.288  30.673  1.00  0.00     0.031 C 
ATOM     62  C   UNL A   1      44.203  29.205  32.155  1.00  0.00     0.031 A 
BRANCH  49  63
ATOM     63  C   UNL A   1      42.097  34.719  33.984  1.00  0.00    -0.014 A 
ATOM     64  C   UNL A   1      41.696  34.794  35.329  1.00  0.00     0.009 A 
ATOM     65  C   UNL A   1      42.740  35.825  33.406  1.00  0.00     0.009 A 
ATOM     66  C   UNL A   1      41.896  35.965  36.064  1.00  0.00     0.001 A 
ATOM     67  C   UNL A   1      42.965  36.983  34.152  1.00  0.00     0.001 A 
ATOM     68  C   UNL A   1      42.533  37.057  35.476  1.00  0.00     0.000 A 
ENDBRANCH  49  63
BRANCH  50  69
ATOM     69  C   UNL A   1      40.327  26.822  28.169  1.00  0.00    -0.014 A 
ATOM     70  C   UNL A   1      39.595  25.714  28.625  1.00  0.00     0.009 A 
ATOM     71  C   UNL A   1      40.826  26.812  26.857  1.00  0.00     0.009 A 
ATOM     72  C   UNL A   1      39.390  24.611  27.793  1.00  0.00     0.001 A 
ATOM     73  C   UNL A   1      40.595  25.721  26.018  1.00  0.00     0.001 A 
ATOM     74  C   UNL A   1      39.886  24.617  26.489  1.00  0.00     0.000 A 
ENDBRANCH  50  69
BRANCH  62  75
ATOM     75  C   UNL A   1      45.448  28.478  32.582  1.00  0.00    -0.014 A 
ATOM     76  C   UNL A   1      45.436  27.583  33.664  1.00  0.00     0.009 A 
ATOM     77  C   UNL A   1      46.642  28.669  31.871  1.00  0.00     0.009 A 
ATOM     78  C   UNL A   1      46.606  26.922  34.045  1.00  0.00     0.001 A 
ATOM     79  C   UNL A   1      47.803  27.986  32.237  1.00  0.00     0.001 A 
ATOM     80  C   UNL A   1      47.786  27.122  33.329  1.00  0.00     0.000 A 
ENDBRANCH  62  75
ENDBRANCH  36  37
ENDBRANCH  28  31
ENDBRANCH  26  27
ENDBRANCH  25  26
ENDBRANCH   1  25
TORSDOF 14
ENDMDL
MODEL 2
REMARK VINA RESULT:     -10.7      3.415      8.847
REMARK SMILES COc1cc([C@@H]2[NH2+][C@@H](C(=O)NCCCCNC(=O)c3ccc(-c4c5nc(c(-c6ccccc6)c6ccc([nH]6)c(-c6ccccc6)c6nc(c(-c7ccccc7)c7ccc4[nH]7)C=C6)C=C5)cc3)CS2)cc(Cl)c1O
REMARK SMILES IDX 13 1 12 2 11 3 9 4 10 5 8 7 6 8 7 9 68 10 67 13 5 14 3 15
REMARK SMILES IDX 4 16 72 17 70 18 69 19 71 20 2 21 1 22 73 23 14 25 15 26
REMARK SMILES IDX 16 27 17 28 18 30 19 31 20 32 66 33 21 34 65 35 22 36 23 37
REMARK SMILES IDX 24 38 59 39 25 40 64 41 58 42 60 43 26 44 63 45 57 46 56 47
REMARK SMILES IDX 27 49 49 50 34 51 48 52 35 53 38 54 47 55 61 56 36 57 37 58
REMARK SMILES IDX 46 60 62 61 39 62 28 63 29 64 33 65 30 66 32 67 31 68 50 69
REMARK SMILES IDX 51 70 55 71 52 72 54 73 53 74 40 75 41 76 45 77 42 78 44 79
REMARK SMILES IDX 43 80
REMARK H PARENT 11 6 7 11 7 12 73 24 16 29 60 48 38 59
REMARK Flexibility Score: inf
ROOT
ATOM      1  C   UNL A   1      36.315  20.268  25.018  1.00  0.00     0.023 C 
ENDROOT
BRANCH   1   2
ATOM      2  C   UNL A   1      36.047  21.680  25.544  1.00  0.00     0.116 C 
BRANCH   2   3
ATOM      3  N   UNL A   1      35.210  21.653  26.727  1.00  0.00    -0.351 N 
ATOM      4  C   UNL A   1      34.070  22.343  27.011  1.00  0.00     0.279 C 
ATOM      5  O   UNL A   1      33.577  22.162  28.126  1.00  0.00    -0.268 OA
ATOM      6  H   UNL A   1      35.512  21.042  27.436  1.00  0.00     0.163 HD
BRANCH   4   7
ATOM      7  C   UNL A   1      33.421  23.265  25.953  1.00  0.00     0.283 C 
ATOM      8  C   UNL A   1      31.500  24.657  25.594  1.00  0.00     0.274 C 
ATOM      9  N   UNL A   1      32.477  24.221  26.596  1.00  0.00    -0.321 N 
ATOM     10  S   UNL A   1      31.104  23.221  24.582  1.00  0.00    -0.088 SA
ATOM     11  H   UNL A   1      31.994  23.761  27.369  1.00  0.00     0.348 HD
ATOM     12  H   UNL A   1      32.988  25.026  26.960  1.00  0.00     0.348 HD
ATOM     13  C   UNL A   1      32.698  22.424  24.886  1.00  0.00     0.151 C 
BRANCH   8  14
ATOM     14  C   UNL A   1      31.911  25.867  24.768  1.00  0.00     0.025 A 
ATOM     15  C   UNL A   1      32.755  26.906  22.726  1.00  0.00     0.162 A 
ATOM     16  C   UNL A   1      32.520  25.768  23.502  1.00  0.00     0.061 A 
ATOM     17  C   UNL A   1      32.365  28.164  23.180  1.00  0.00     0.176 A 
ATOM     18  C   UNL A   1      31.812  28.294  24.452  1.00  0.00     0.087 A 
ATOM     19  C   UNL A   1      31.593  27.157  25.240  1.00  0.00     0.035 A 
ATOM     20  Cl  UNL A   1      31.322  29.831  25.066  1.00  0.00    -0.080 Cl
BRANCH  15  21
ATOM     21  O   UNL A   1      33.270  26.728  21.467  1.00  0.00    -0.493 OA
ATOM     22  C   UNL A   1      32.686  25.593  20.823  1.00  0.00     0.278 C 
ENDBRANCH  15  21
BRANCH  17  23
ATOM     23  O   UNL A   1      32.477  29.250  22.354  1.00  0.00    -0.503 OA
ATOM     24  H   UNL A   1      32.743  29.135  21.462  1.00  0.00     0.293 HD
ENDBRANCH  17  23
ENDBRANCH   8  14
ENDBRANCH   4   7
ENDBRANCH   2   3
ENDBRANCH   1   2
BRANCH   1  25
ATOM     25  C   UNL A   1      37.779  19.972  24.661  1.00  0.00     0.023 C 
BRANCH  25  26
ATOM     26  C   UNL A   1      38.807  20.314  25.736  1.00  0.00     0.116 C 
BRANCH  26  27
ATOM     27  N   UNL A   1      39.905  19.364  25.791  1.00  0.00    -0.352 N 
ATOM     28  C   UNL A   1      41.215  19.564  26.146  1.00  0.00     0.251 C 
ATOM     29  H   UNL A   1      39.674  18.440  25.537  1.00  0.00     0.163 HD
ATOM     30  O   UNL A   1      42.030  18.651  26.002  1.00  0.00    -0.269 OA
BRANCH  28  31
ATOM     31  C   UNL A   1      41.669  20.870  26.671  1.00  0.00     0.039 A 
ATOM     32  C   UNL A   1      42.083  21.850  25.763  1.00  0.00     0.014 A 
ATOM     33  C   UNL A   1      41.719  21.130  28.044  1.00  0.00     0.014 A 
ATOM     34  C   UNL A   1      42.492  23.103  26.226  1.00  0.00     0.010 A 
ATOM     35  C   UNL A   1      42.063  22.402  28.500  1.00  0.00     0.010 A 
ATOM     36  C   UNL A   1      42.459  23.400  27.597  1.00  0.00    -0.014 A 
BRANCH  36  37
ATOM     37  C   UNL A   1      42.839  24.748  28.096  1.00  0.00     0.031 A 
ATOM     38  C   UNL A   1      41.790  25.804  28.316  1.00  0.00     0.074 A 
ATOM     39  C   UNL A   1      44.137  25.042  28.304  1.00  0.00     0.049 A 
ATOM     40  N   UNL A   1      41.936  27.043  28.718  1.00  0.00    -0.248 NA
ATOM     41  C   UNL A   1      40.398  25.428  28.025  1.00  0.00     0.031 C 
ATOM     42  C   UNL A   1      45.259  24.126  28.086  1.00  0.00     0.029 A 
ATOM     43  N   UNL A   1      44.733  26.199  28.739  1.00  0.00    -0.354 N 
ATOM     44  C   UNL A   1      40.662  27.595  28.714  1.00  0.00     0.074 A 
ATOM     45  C   UNL A   1      39.763  26.574  28.220  1.00  0.00     0.031 C 
ATOM     46  C   UNL A   1      46.403  24.750  28.410  1.00  0.00     0.029 A 
ATOM     47  C   UNL A   1      46.100  26.116  28.827  1.00  0.00     0.049 A 
ATOM     48  H   UNL A   1      44.227  27.012  28.968  1.00  0.00     0.167 HD
ATOM     49  C   UNL A   1      40.269  28.831  29.103  1.00  0.00     0.031 A 
ATOM     50  C   UNL A   1      47.013  27.034  29.197  1.00  0.00     0.031 A 
ATOM     51  C   UNL A   1      41.158  29.848  29.599  1.00  0.00     0.049 A 
ATOM     52  C   UNL A   1      46.554  28.400  29.624  1.00  0.00     0.074 A 
ATOM     53  C   UNL A   1      40.846  31.113  30.069  1.00  0.00     0.029 A 
ATOM     54  N   UNL A   1      42.536  29.716  29.687  1.00  0.00    -0.354 N 
ATOM     55  N   UNL A   1      45.336  28.881  29.683  1.00  0.00    -0.248 NA
ATOM     56  C   UNL A   1      47.597  29.344  30.052  1.00  0.00     0.031 C 
ATOM     57  C   UNL A   1      42.041  31.764  30.396  1.00  0.00     0.029 A 
ATOM     58  C   UNL A   1      43.090  30.885  30.181  1.00  0.00     0.049 A 
ATOM     59  H   UNL A   1      43.043  28.913  29.434  1.00  0.00     0.167 HD
ATOM     60  C   UNL A   1      45.463  30.173  30.177  1.00  0.00     0.074 A 
ATOM     61  C   UNL A   1      46.875  30.393  30.418  1.00  0.00     0.031 C 
ATOM     62  C   UNL A   1      44.497  31.094  30.412  1.00  0.00     0.031 A 
BRANCH  49  63
ATOM     63  C   UNL A   1      38.803  29.153  28.995  1.00  0.00    -0.014 A 
ATOM     64  C   UNL A   1      37.940  28.989  30.091  1.00  0.00     0.009 A 
ATOM     65  C   UNL A   1      38.281  29.647  27.789  1.00  0.00     0.009 A 
ATOM     66  C   UNL A   1      36.577  29.272  29.969  1.00  0.00     0.001 A 
ATOM     67  C   UNL A   1      36.925  29.958  27.679  1.00  0.00     0.001 A 
ATOM     68  C   UNL A   1      36.072  29.759  28.764  1.00  0.00     0.000 A 
ENDBRANCH  49  63
BRANCH  50  69
ATOM     69  C   UNL A   1      48.457  26.684  29.197  1.00  0.00    -0.014 A 
ATOM     70  C   UNL A   1      49.055  26.123  30.336  1.00  0.00     0.009 A 
ATOM     71  C   UNL A   1      49.245  26.909  28.057  1.00  0.00     0.009 A 
ATOM     72  C   UNL A   1      50.418  25.817  30.341  1.00  0.00     0.001 A 
ATOM     73  C   UNL A   1      50.600  26.576  28.055  1.00  0.00     0.001 A 
ATOM     74  C   UNL A   1      51.188  26.039  29.199  1.00  0.00     0.000 A 
ENDBRANCH  50  69
BRANCH  62  75
ATOM     75  C   UNL A   1      44.932  32.414  30.986  1.00  0.00    -0.014 A 
ATOM     76  C   UNL A   1      45.125  33.538  30.168  1.00  0.00     0.009 A 
ATOM     77  C   UNL A   1      45.121  32.540  32.370  1.00  0.00     0.009 A 
ATOM     78  C   UNL A   1      45.534  34.753  30.723  1.00  0.00     0.001 A 
ATOM     79  C   UNL A   1      45.503  33.762  32.925  1.00  0.00     0.001 A 
ATOM     80  C   UNL A   1      45.719  34.864  32.100  1.00  0.00     0.000 A 
ENDBRANCH  62  75
ENDBRANCH  36  37
ENDBRANCH  28  31
ENDBRANCH  26  27
ENDBRANCH  25  26
ENDBRANCH   1  25
TORSDOF 14
ENDMDL
MODEL 3
REMARK VINA RESULT:     -10.6      4.149      9.172
REMARK SMILES COc1cc([C@@H]2[NH2+][C@@H](C(=O)NCCCCNC(=O)c3ccc(-c4c5nc(c(-c6ccccc6)c6ccc([nH]6)c(-c6ccccc6)c6nc(c(-c7ccccc7)c7ccc4[nH]7)C=C6)C=C5)cc3)CS2)cc(Cl)c1O
REMARK SMILES IDX 13 1 12 2 11 3 9 4 10 5 8 7 6 8 7 9 68 10 67 13 5 14 3 15
REMARK SMILES IDX 4 16 72 17 70 18 69 19 71 20 2 21 1 22 73 23 14 25 15 26
REMARK SMILES IDX 16 27 17 28 18 30 19 31 20 32 66 33 21 34 65 35 22 36 23 37
REMARK SMILES IDX 24 38 59 39 25 40 64 41 58 42 60 43 26 44 63 45 57 46 56 47
REMARK SMILES IDX 27 49 49 50 34 51 48 52 35 53 38 54 47 55 61 56 36 57 37 58
REMARK SMILES IDX 46 60 62 61 39 62 28 63 29 64 33 65 30 66 32 67 31 68 50 69
REMARK SMILES IDX 51 70 55 71 52 72 54 73 53 74 40 75 41 76 45 77 42 78 44 79
REMARK SMILES IDX 43 80
REMARK H PARENT 11 6 7 11 7 12 73 24 16 29 60 48 38 59
REMARK Flexibility Score: inf
ROOT
ATOM      1  C   UNL A   1      37.281  21.238  24.590  1.00  0.00     0.023 C 
ENDROOT
BRANCH   1   2
ATOM      2  C   UNL A   1      36.780  22.101  25.750  1.00  0.00     0.116 C 
BRANCH   2   3
ATOM      3  N   UNL A   1      35.702  21.449  26.467  1.00  0.00    -0.351 N 
ATOM      4  C   UNL A   1      34.376  21.757  26.527  1.00  0.00     0.279 C 
ATOM      5  O   UNL A   1      33.678  21.052  27.259  1.00  0.00    -0.268 OA
ATOM      6  H   UNL A   1      35.969  20.661  26.992  1.00  0.00     0.163 HD
BRANCH   4   7
ATOM      7  C   UNL A   1      33.794  22.908  25.675  1.00  0.00     0.283 C 
ATOM      8  C   UNL A   1      31.861  24.318  25.487  1.00  0.00     0.274 C 
ATOM      9  N   UNL A   1      32.757  23.655  26.441  1.00  0.00    -0.321 N 
ATOM     10  S   UNL A   1      31.618  23.180  24.112  1.00  0.00    -0.088 SA
ATOM     11  H   UNL A   1      32.222  23.008  27.021  1.00  0.00     0.348 HD
ATOM     12  H   UNL A   1      33.199  24.349  27.044  1.00  0.00     0.348 HD
ATOM     13  C   UNL A   1      33.207  22.356  24.365  1.00  0.00     0.151 C 
BRANCH   8  14
ATOM     14  C   UNL A   1      32.300  25.704  25.037  1.00  0.00     0.025 A 
ATOM     15  C   UNL A   1      32.151  27.649  23.571  1.00  0.00     0.162 A 
ATOM     16  C   UNL A   1      31.822  26.324  23.868  1.00  0.00     0.061 A 
ATOM     17  C   UNL A   1      32.942  28.395  24.443  1.00  0.00     0.176 A 
ATOM     18  C   UNL A   1      33.473  27.785  25.578  1.00  0.00     0.087 A 
ATOM     19  C   UNL A   1      33.160  26.451  25.868  1.00  0.00     0.035 A 
ATOM     20  Cl  UNL A   1      34.467  28.660  26.685  1.00  0.00    -0.080 Cl
BRANCH  15  21
ATOM     21  O   UNL A   1      31.580  28.219  22.462  1.00  0.00    -0.493 OA
ATOM     22  C   UNL A   1      30.154  28.240  22.566  1.00  0.00     0.278 C 
ENDBRANCH  15  21
BRANCH  17  23
ATOM     23  O   UNL A   1      33.144  29.728  24.208  1.00  0.00    -0.503 OA
ATOM     24  H   UNL A   1      32.410  30.301  24.102  1.00  0.00     0.293 HD
ENDBRANCH  17  23
ENDBRANCH   8  14
ENDBRANCH   4   7
ENDBRANCH   2   3
ENDBRANCH   1   2
BRANCH   1  25
ATOM     25  C   UNL A   1      37.973  19.930  25.001  1.00  0.00     0.023 C 
BRANCH  25  26
ATOM     26  C   UNL A   1      39.013  20.050  26.112  1.00  0.00     0.116 C 
BRANCH  26  27
ATOM     27  N   UNL A   1      40.100  19.096  25.976  1.00  0.00    -0.352 N 
ATOM     28  C   UNL A   1      41.454  19.302  26.038  1.00  0.00     0.251 C 
ATOM     29  H   UNL A   1      39.823  18.164  25.815  1.00  0.00     0.163 HD
ATOM     30  O   UNL A   1      42.223  18.378  25.765  1.00  0.00    -0.269 OA
BRANCH  28  31
ATOM     31  C   UNL A   1      42.006  20.625  26.400  1.00  0.00     0.039 A 
ATOM     32  C   UNL A   1      42.298  21.533  25.377  1.00  0.00     0.014 A 
ATOM     33  C   UNL A   1      42.266  20.971  27.730  1.00  0.00     0.014 A 
ATOM     34  C   UNL A   1      42.795  22.801  25.687  1.00  0.00     0.010 A 
ATOM     35  C   UNL A   1      42.699  22.260  28.042  1.00  0.00     0.010 A 
ATOM     36  C   UNL A   1      42.974  23.186  27.025  1.00  0.00    -0.014 A 
BRANCH  36  37
ATOM     37  C   UNL A   1      43.449  24.552  27.369  1.00  0.00     0.031 A 
ATOM     38  C   UNL A   1      42.472  25.616  27.790  1.00  0.00     0.074 A 
ATOM     39  C   UNL A   1      44.757  24.853  27.255  1.00  0.00     0.049 A 
ATOM     40  N   UNL A   1      42.698  26.870  28.099  1.00  0.00    -0.248 NA
ATOM     41  C   UNL A   1      41.053  25.231  27.849  1.00  0.00     0.031 C 
ATOM     42  C   UNL A   1      45.803  23.929  26.813  1.00  0.00     0.029 A 
ATOM     43  N   UNL A   1      45.428  26.025  27.494  1.00  0.00    -0.354 N 
ATOM     44  C   UNL A   1      41.454  27.422  28.374  1.00  0.00     0.074 A 
ATOM     45  C   UNL A   1      40.473  26.384  28.144  1.00  0.00     0.031 C 
ATOM     46  C   UNL A   1      46.986  24.563  26.836  1.00  0.00     0.029 A 
ATOM     47  C   UNL A   1      46.779  25.944  27.260  1.00  0.00     0.049 A 
ATOM     48  H   UNL A   1      44.984  26.847  27.805  1.00  0.00     0.167 HD
ATOM     49  C   UNL A   1      41.153  28.673  28.797  1.00  0.00     0.031 A 
ATOM     50  C   UNL A   1      47.745  26.876  27.371  1.00  0.00     0.031 A 
ATOM     51  C   UNL A   1      42.125  29.708  29.032  1.00  0.00     0.049 A 
ATOM     52  C   UNL A   1      47.388  28.257  27.842  1.00  0.00     0.074 A 
ATOM     53  C   UNL A   1      41.923  30.990  29.514  1.00  0.00     0.029 A 
ATOM     54  N   UNL A   1      43.486  29.579  28.798  1.00  0.00    -0.354 N 
ATOM     55  N   UNL A   1      46.215  28.742  28.167  1.00  0.00    -0.248 NA
ATOM     56  C   UNL A   1      48.494  29.216  27.976  1.00  0.00     0.031 C 
ATOM     57  C   UNL A   1      43.155  31.652  29.526  1.00  0.00     0.029 A 
ATOM     58  C   UNL A   1      44.132  30.765  29.104  1.00  0.00     0.049 A 
ATOM     59  H   UNL A   1      43.927  28.765  28.464  1.00  0.00     0.167 HD
ATOM     60  C   UNL A   1      46.443  30.051  28.569  1.00  0.00     0.074 A 
ATOM     61  C   UNL A   1      47.870  30.279  28.462  1.00  0.00     0.031 C 
ATOM     62  C   UNL A   1      45.551  30.981  28.989  1.00  0.00     0.031 A 
BRANCH  49  63
ATOM     63  C   UNL A   1      39.701  28.992  29.025  1.00  0.00    -0.014 A 
ATOM     64  C   UNL A   1      38.906  29.534  28.002  1.00  0.00     0.009 A 
ATOM     65  C   UNL A   1      39.113  28.727  30.272  1.00  0.00     0.009 A 
ATOM     66  C   UNL A   1      37.564  29.845  28.235  1.00  0.00     0.001 A 
ATOM     67  C   UNL A   1      37.763  29.010  30.493  1.00  0.00     0.001 A 
ATOM     68  C   UNL A   1      36.993  29.579  29.479  1.00  0.00     0.000 A 
ENDBRANCH  49  63
BRANCH  50  69
ATOM     69  C   UNL A   1      49.152  26.525  27.044  1.00  0.00    -0.014 A 
ATOM     70  C   UNL A   1      50.025  26.073  28.045  1.00  0.00     0.009 A 
ATOM     71  C   UNL A   1      49.628  26.640  25.729  1.00  0.00     0.009 A 
ATOM     72  C   UNL A   1      51.353  25.766  27.740  1.00  0.00     0.001 A 
ATOM     73  C   UNL A   1      50.948  26.306  25.421  1.00  0.00     0.001 A 
ATOM     74  C   UNL A   1      51.812  25.878  26.428  1.00  0.00     0.000 A 
ENDBRANCH  50  69
BRANCH  62  75
ATOM     75  C   UNL A   1      46.098  32.322  29.394  1.00  0.00    -0.014 A 
ATOM     76  C   UNL A   1      46.200  33.378  28.475  1.00  0.00     0.009 A 
ATOM     77  C   UNL A   1      46.488  32.539  30.725  1.00  0.00     0.009 A 
ATOM     78  C   UNL A   1      46.716  34.613  28.874  1.00  0.00     0.001 A 
ATOM     79  C   UNL A   1      46.977  33.783  31.126  1.00  0.00     0.001 A 
ATOM     80  C   UNL A   1      47.100  34.815  30.199  1.00  0.00     0.000 A 
ENDBRANCH  62  75
ENDBRANCH  36  37
ENDBRANCH  28  31
ENDBRANCH  26  27
ENDBRANCH  25  26
ENDBRANCH   1  25
TORSDOF 14
ENDMDL
