MODEL 1
REMARK VINA RESULT:     -11.8      0.000      0.000
REMARK SMILES O=C(NCCCCNC(=O)[C@@H]1CCC[N@@H+](Cc2cccc3ccccc23)C1)c1ccc(-c2c3nc(c(-c4ccccc4)c4ccc([nH]4)c(-c4ccccc4)c4nc(c(-c5ccccc5)c5ccc2[nH]5)C=C4)C=C3)cc1
REMARK SMILES IDX 5 1 4 2 3 3 1 4 2 5 28 7 29 8 75 9 30 10 74 11 31 12 32 13
REMARK SMILES IDX 33 14 68 15 34 16 73 17 67 18 69 19 35 20 72 21 66 22 65 23
REMARK SMILES IDX 36 25 58 26 43 27 57 28 44 29 47 30 56 31 70 32 45 33 46 34
REMARK SMILES IDX 55 36 71 37 48 38 37 39 38 40 42 41 39 42 41 43 40 44 59 45
REMARK SMILES IDX 60 46 64 47 61 48 63 49 62 50 49 51 50 52 54 53 51 54 53 55
REMARK SMILES IDX 52 56 6 57 7 58 8 59 9 60 10 62 11 63 12 64 27 65 13 66
REMARK SMILES IDX 15 67 14 68 16 70 17 71 18 72 26 73 19 74 21 75 25 76 20 77
REMARK SMILES IDX 22 78 24 79 23 80
REMARK H PARENT 3 6 69 24 47 35 8 61 15 69
REMARK Flexibility Score: inf
ROOT
ATOM      1  C   UNL A   1      37.751  20.856  24.823  1.00  0.00     0.023 C 
ENDROOT
BRANCH   1   2
ATOM      2  C   UNL A   1      38.941  20.921  25.764  1.00  0.00     0.116 C 
BRANCH   2   3
ATOM      3  N   UNL A   1      39.849  19.785  25.666  1.00  0.00    -0.352 N 
ATOM      4  O   UNL A   1      41.850  18.732  25.845  1.00  0.00    -0.269 OA
ATOM      5  C   UNL A   1      41.179  19.734  26.025  1.00  0.00     0.251 C 
ATOM      6  H   UNL A   1      39.466  18.954  25.300  1.00  0.00     0.163 HD
BRANCH   5   7
ATOM      7  C   UNL A   1      41.782  20.957  26.590  1.00  0.00     0.039 A 
ATOM      8  C   UNL A   1      41.817  21.132  27.974  1.00  0.00     0.014 A 
ATOM      9  C   UNL A   1      42.181  21.979  25.728  1.00  0.00     0.014 A 
ATOM     10  C   UNL A   1      42.067  22.393  28.489  1.00  0.00     0.010 A 
ATOM     11  C   UNL A   1      42.536  23.222  26.258  1.00  0.00     0.010 A 
ATOM     12  C   UNL A   1      42.433  23.451  27.638  1.00  0.00    -0.014 A 
BRANCH  12  13
ATOM     13  C   UNL A   1      42.731  24.775  28.237  1.00  0.00     0.031 A 
ATOM     14  C   UNL A   1      44.141  25.197  28.549  1.00  0.00     0.074 A 
ATOM     15  C   UNL A   1      41.708  25.628  28.432  1.00  0.00     0.049 A 
ATOM     16  N   UNL A   1      44.567  26.339  29.029  1.00  0.00    -0.248 NA
ATOM     17  C   UNL A   1      45.209  24.216  28.301  1.00  0.00     0.031 C 
ATOM     18  C   UNL A   1      40.299  25.328  28.157  1.00  0.00     0.029 A 
ATOM     19  N   UNL A   1      41.694  26.928  28.860  1.00  0.00    -0.354 N 
ATOM     20  C   UNL A   1      45.940  26.201  29.180  1.00  0.00     0.074 A 
ATOM     21  C   UNL A   1      46.280  24.863  28.744  1.00  0.00     0.031 C 
ATOM     22  C   UNL A   1      39.572  26.439  28.336  1.00  0.00     0.029 A 
ATOM     23  C   UNL A   1      40.448  27.502  28.813  1.00  0.00     0.049 A 
ATOM     24  H   UNL A   1      42.498  27.405  29.169  1.00  0.00     0.167 HD
ATOM     25  C   UNL A   1      46.835  27.107  29.645  1.00  0.00     0.031 A 
ATOM     26  C   UNL A   1      40.046  28.745  29.126  1.00  0.00     0.031 A 
ATOM     27  C   UNL A   1      46.495  28.445  30.055  1.00  0.00     0.049 A 
ATOM     28  C   UNL A   1      41.057  29.726  29.634  1.00  0.00     0.074 A 
ATOM     29  C   UNL A   1      47.335  29.447  30.513  1.00  0.00     0.029 A 
ATOM     30  N   UNL A   1      45.213  28.970  30.047  1.00  0.00    -0.354 N 
ATOM     31  N   UNL A   1      42.351  29.576  29.775  1.00  0.00    -0.248 NA
ATOM     32  C   UNL A   1      40.549  31.042  30.040  1.00  0.00     0.031 C 
ATOM     33  C   UNL A   1      46.553  30.567  30.819  1.00  0.00     0.029 A 
ATOM     34  C   UNL A   1      45.233  30.275  30.512  1.00  0.00     0.049 A 
ATOM     35  H   UNL A   1      44.406  28.488  29.756  1.00  0.00     0.167 HD
ATOM     36  C   UNL A   1      42.814  30.779  30.286  1.00  0.00     0.074 A 
ATOM     37  C   UNL A   1      41.666  31.656  30.403  1.00  0.00     0.031 C 
ATOM     38  C   UNL A   1      44.077  31.124  30.634  1.00  0.00     0.031 A 
BRANCH  25  39
ATOM     39  C   UNL A   1      48.266  26.667  29.777  1.00  0.00    -0.014 A 
ATOM     40  C   UNL A   1      48.727  25.996  30.919  1.00  0.00     0.009 A 
ATOM     41  C   UNL A   1      49.158  26.892  28.716  1.00  0.00     0.009 A 
ATOM     42  C   UNL A   1      50.059  25.584  31.007  1.00  0.00     0.001 A 
ATOM     43  C   UNL A   1      50.483  26.459  28.797  1.00  0.00     0.001 A 
ATOM     44  C   UNL A   1      50.935  25.812  29.946  1.00  0.00     0.000 A 
ENDBRANCH  25  39
BRANCH  26  45
ATOM     45  C   UNL A   1      38.620  29.117  28.969  1.00  0.00    -0.014 A 
ATOM     46  C   UNL A   1      37.743  29.045  30.060  1.00  0.00     0.009 A 
ATOM     47  C   UNL A   1      38.139  29.591  27.737  1.00  0.00     0.009 A 
ATOM     48  C   UNL A   1      36.408  29.430  29.919  1.00  0.00     0.001 A 
ATOM     49  C   UNL A   1      36.811  30.001  27.607  1.00  0.00     0.001 A 
ATOM     50  C   UNL A   1      35.946  29.915  28.695  1.00  0.00     0.000 A 
ENDBRANCH  26  45
BRANCH  38  51
ATOM     51  C   UNL A   1      44.270  32.514  31.162  1.00  0.00    -0.014 A 
ATOM     52  C   UNL A   1      44.530  33.586  30.292  1.00  0.00     0.009 A 
ATOM     53  C   UNL A   1      44.186  32.754  32.541  1.00  0.00     0.009 A 
ATOM     54  C   UNL A   1      44.739  34.868  30.801  1.00  0.00     0.001 A 
ATOM     55  C   UNL A   1      44.373  34.043  33.044  1.00  0.00     0.001 A 
ATOM     56  C   UNL A   1      44.659  35.095  32.175  1.00  0.00     0.000 A 
ENDBRANCH  38  51
ENDBRANCH  12  13
ENDBRANCH   5   7
ENDBRANCH   2   3
ENDBRANCH   1   2
BRANCH   1  57
ATOM     57  C   UNL A   1      37.068  22.188  24.550  1.00  0.00     0.023 C 
BRANCH  57  58
ATOM     58  C   UNL A   1      36.878  23.086  25.773  1.00  0.00     0.116 C 
BRANCH  58  59
ATOM     59  N   UNL A   1      36.032  24.218  25.474  1.00  0.00    -0.356 N 
ATOM     60  C   UNL A   1      34.713  24.369  25.215  1.00  0.00     0.228 C 
ATOM     61  H   UNL A   1      36.525  25.069  25.455  1.00  0.00     0.163 HD
ATOM     62  O   UNL A   1      34.386  25.529  24.922  1.00  0.00    -0.275 OA
BRANCH  60  63
ATOM     63  C   UNL A   1      33.618  23.301  25.362  1.00  0.00     0.133 C 
ATOM     64  C   UNL A   1      33.324  22.222  24.327  1.00  0.00     0.025 C 
ATOM     65  C   UNL A   1      32.286  23.985  25.744  1.00  0.00     0.276 C 
ATOM     66  C   UNL A   1      32.549  22.752  23.130  1.00  0.00     0.062 C 
ATOM     67  N   UNL A   1      31.567  24.530  24.582  1.00  0.00    -0.331 N 
ATOM     68  C   UNL A   1      31.298  23.516  23.553  1.00  0.00     0.262 C 
ATOM     69  H   UNL A   1      32.193  25.204  24.144  1.00  0.00     0.348 HD
BRANCH  67  70
ATOM     70  C   UNL A   1      30.351  25.285  24.980  1.00  0.00     0.299 C 
BRANCH  70  71
ATOM     71  C   UNL A   1      30.364  26.775  24.652  1.00  0.00     0.014 A 
ATOM     72  C   UNL A   1      29.798  27.179  23.427  1.00  0.00     0.010 A 
ATOM     73  C   UNL A   1      31.032  27.739  25.469  1.00  0.00    -0.010 A 
ATOM     74  C   UNL A   1      29.966  28.473  22.952  1.00  0.00     0.001 A 
ATOM     75  C   UNL A   1      31.192  29.056  24.966  1.00  0.00    -0.018 A 
ATOM     76  C   UNL A   1      31.569  27.471  26.753  1.00  0.00     0.009 A 
ATOM     77  C   UNL A   1      30.675  29.398  23.709  1.00  0.00     0.009 A 
ATOM     78  C   UNL A   1      31.880  30.023  25.719  1.00  0.00     0.009 A 
ATOM     79  C   UNL A   1      32.230  28.450  27.500  1.00  0.00     0.001 A 
ATOM     80  C   UNL A   1      32.391  29.725  26.979  1.00  0.00     0.001 A 
ENDBRANCH  70  71
ENDBRANCH  67  70
ENDBRANCH  60  63
ENDBRANCH  58  59
ENDBRANCH  57  58
ENDBRANCH   1  57
TORSDOF 13
ENDMDL
MODEL 2
REMARK VINA RESULT:     -11.7      0.297      5.909
REMARK SMILES O=C(NCCCCNC(=O)[C@@H]1CCC[N@@H+](Cc2cccc3ccccc23)C1)c1ccc(-c2c3nc(c(-c4ccccc4)c4ccc([nH]4)c(-c4ccccc4)c4nc(c(-c5ccccc5)c5ccc2[nH]5)C=C4)C=C3)cc1
REMARK SMILES IDX 5 1 4 2 3 3 1 4 2 5 28 7 29 8 75 9 30 10 74 11 31 12 32 13
REMARK SMILES IDX 33 14 68 15 34 16 73 17 67 18 69 19 35 20 72 21 66 22 65 23
REMARK SMILES IDX 36 25 58 26 43 27 57 28 44 29 47 30 56 31 70 32 45 33 46 34
REMARK SMILES IDX 55 36 71 37 48 38 37 39 38 40 42 41 39 42 41 43 40 44 59 45
REMARK SMILES IDX 60 46 64 47 61 48 63 49 62 50 49 51 50 52 54 53 51 54 53 55
REMARK SMILES IDX 52 56 6 57 7 58 8 59 9 60 10 62 11 63 12 64 27 65 13 66
REMARK SMILES IDX 15 67 14 68 16 70 17 71 18 72 26 73 19 74 21 75 25 76 20 77
REMARK SMILES IDX 22 78 24 79 23 80
REMARK H PARENT 3 6 69 24 47 35 8 61 15 69
REMARK Flexibility Score: inf
ROOT
ATOM      1  C   UNL A   1      37.728  20.726  25.001  1.00  0.00     0.023 C 
ENDROOT
BRANCH   1   2
ATOM      2  C   UNL A   1      38.999  20.915  25.808  1.00  0.00     0.116 C 
BRANCH   2   3
ATOM      3  N   UNL A   1      39.903  19.772  25.786  1.00  0.00    -0.352 N 
ATOM      4  O   UNL A   1      41.904  18.730  26.019  1.00  0.00    -0.269 OA
ATOM      5  C   UNL A   1      41.237  19.745  26.131  1.00  0.00     0.251 C 
ATOM      6  H   UNL A   1      39.513  18.917  25.491  1.00  0.00     0.163 HD
BRANCH   5   7
ATOM      7  C   UNL A   1      41.851  21.006  26.591  1.00  0.00     0.039 A 
ATOM      8  C   UNL A   1      41.874  21.303  27.954  1.00  0.00     0.014 A 
ATOM      9  C   UNL A   1      42.273  21.942  25.646  1.00  0.00     0.014 A 
ATOM     10  C   UNL A   1      42.136  22.602  28.357  1.00  0.00     0.010 A 
ATOM     11  C   UNL A   1      42.639  23.222  26.067  1.00  0.00     0.010 A 
ATOM     12  C   UNL A   1      42.525  23.575  27.420  1.00  0.00    -0.014 A 
BRANCH  12  13
ATOM     13  C   UNL A   1      42.834  24.944  27.901  1.00  0.00     0.031 A 
ATOM     14  C   UNL A   1      41.745  25.940  28.190  1.00  0.00     0.074 A 
ATOM     15  C   UNL A   1      44.121  25.255  28.143  1.00  0.00     0.049 A 
ATOM     16  N   UNL A   1      41.853  27.158  28.660  1.00  0.00    -0.248 NA
ATOM     17  C   UNL A   1      40.362  25.527  27.910  1.00  0.00     0.031 C 
ATOM     18  C   UNL A   1      45.261  24.364  27.907  1.00  0.00     0.029 A 
ATOM     19  N   UNL A   1      44.685  26.381  28.680  1.00  0.00    -0.354 N 
ATOM     20  C   UNL A   1      40.563  27.670  28.693  1.00  0.00     0.074 A 
ATOM     21  C   UNL A   1      39.685  26.633  28.192  1.00  0.00     0.031 C 
ATOM     22  C   UNL A   1      46.374  24.940  28.381  1.00  0.00     0.029 A 
ATOM     23  C   UNL A   1      46.039  26.269  28.878  1.00  0.00     0.049 A 
ATOM     24  H   UNL A   1      44.171  27.191  28.903  1.00  0.00     0.167 HD
ATOM     25  C   UNL A   1      40.149  28.895  29.099  1.00  0.00     0.031 A 
ATOM     26  C   UNL A   1      46.922  27.140  29.396  1.00  0.00     0.031 A 
ATOM     27  C   UNL A   1      41.023  29.915  29.619  1.00  0.00     0.049 A 
ATOM     28  C   UNL A   1      46.436  28.485  29.840  1.00  0.00     0.074 A 
ATOM     29  C   UNL A   1      40.696  31.177  30.084  1.00  0.00     0.029 A 
ATOM     30  N   UNL A   1      42.396  29.784  29.750  1.00  0.00    -0.354 N 
ATOM     31  N   UNL A   1      45.213  28.953  29.859  1.00  0.00    -0.248 NA
ATOM     32  C   UNL A   1      47.456  29.426  30.319  1.00  0.00     0.031 C 
ATOM     33  C   UNL A   1      41.878  31.825  30.460  1.00  0.00     0.029 A 
ATOM     34  C   UNL A   1      42.935  30.950  30.269  1.00  0.00     0.049 A 
ATOM     35  H   UNL A   1      42.913  28.982  29.510  1.00  0.00     0.167 HD
ATOM     36  C   UNL A   1      45.313  30.244  30.353  1.00  0.00     0.074 A 
ATOM     37  C   UNL A   1      46.714  30.474  30.646  1.00  0.00     0.031 C 
ATOM     38  C   UNL A   1      44.333  31.161  30.540  1.00  0.00     0.031 A 
BRANCH  25  39
ATOM     39  C   UNL A   1      38.688  29.218  28.958  1.00  0.00    -0.014 A 
ATOM     40  C   UNL A   1      38.140  29.626  27.732  1.00  0.00     0.009 A 
ATOM     41  C   UNL A   1      37.838  29.070  30.065  1.00  0.00     0.009 A 
ATOM     42  C   UNL A   1      36.775  29.904  27.627  1.00  0.00     0.001 A 
ATOM     43  C   UNL A   1      36.470  29.327  29.951  1.00  0.00     0.001 A 
ATOM     44  C   UNL A   1      35.940  29.751  28.734  1.00  0.00     0.000 A 
ENDBRANCH  25  39
BRANCH  26  45
ATOM     45  C   UNL A   1      48.349  26.757  29.512  1.00  0.00    -0.014 A 
ATOM     46  C   UNL A   1      48.814  26.082  30.649  1.00  0.00     0.009 A 
ATOM     47  C   UNL A   1      49.245  27.024  28.464  1.00  0.00     0.009 A 
ATOM     48  C   UNL A   1      50.151  25.690  30.740  1.00  0.00     0.001 A 
ATOM     49  C   UNL A   1      50.574  26.607  28.546  1.00  0.00     0.001 A 
ATOM     50  C   UNL A   1      51.027  25.945  29.685  1.00  0.00     0.000 A 
ENDBRANCH  26  45
BRANCH  38  51
ATOM     51  C   UNL A   1      44.755  32.487  31.098  1.00  0.00    -0.014 A 
ATOM     52  C   UNL A   1      45.170  33.527  30.250  1.00  0.00     0.009 A 
ATOM     53  C   UNL A   1      44.735  32.699  32.484  1.00  0.00     0.009 A 
ATOM     54  C   UNL A   1      45.590  34.745  30.785  1.00  0.00     0.001 A 
ATOM     55  C   UNL A   1      45.136  33.926  33.014  1.00  0.00     0.001 A 
ATOM     56  C   UNL A   1      45.572  34.943  32.166  1.00  0.00     0.000 A 
ENDBRANCH  38  51
ENDBRANCH  12  13
ENDBRANCH   5   7
ENDBRANCH   2   3
ENDBRANCH   1   2
BRANCH   1  57
ATOM     57  C   UNL A   1      37.010  22.010  24.612  1.00  0.00     0.023 C 
BRANCH  57  58
ATOM     58  C   UNL A   1      36.832  23.026  25.741  1.00  0.00     0.116 C 
BRANCH  58  59
ATOM     59  N   UNL A   1      35.992  24.128  25.337  1.00  0.00    -0.356 N 
ATOM     60  C   UNL A   1      34.676  24.257  25.050  1.00  0.00     0.228 C 
ATOM     61  H   UNL A   1      36.487  24.974  25.250  1.00  0.00     0.163 HD
ATOM     62  O   UNL A   1      34.354  25.388  24.655  1.00  0.00    -0.275 OA
BRANCH  60  63
ATOM     63  C   UNL A   1      33.577  23.207  25.275  1.00  0.00     0.133 C 
ATOM     64  C   UNL A   1      33.210  22.118  24.274  1.00  0.00     0.025 C 
ATOM     65  C   UNL A   1      32.279  23.915  25.724  1.00  0.00     0.276 C 
ATOM     66  C   UNL A   1      32.374  22.644  23.117  1.00  0.00     0.062 C 
ATOM     67  N   UNL A   1      31.501  24.454  24.597  1.00  0.00    -0.331 N 
ATOM     68  C   UNL A   1      31.160  23.431  23.600  1.00  0.00     0.262 C 
ATOM     69  H   UNL A   1      32.110  25.114  24.115  1.00  0.00     0.348 HD
BRANCH  67  70
ATOM     70  C   UNL A   1      30.321  25.232  25.054  1.00  0.00     0.299 C 
BRANCH  70  71
ATOM     71  C   UNL A   1      30.339  26.719  24.715  1.00  0.00     0.014 A 
ATOM     72  C   UNL A   1      29.752  27.119  23.499  1.00  0.00     0.010 A 
ATOM     73  C   UNL A   1      31.034  27.682  25.511  1.00  0.00    -0.010 A 
ATOM     74  C   UNL A   1      29.920  28.409  23.011  1.00  0.00     0.001 A 
ATOM     75  C   UNL A   1      31.194  28.995  24.995  1.00  0.00    -0.018 A 
ATOM     76  C   UNL A   1      31.595  27.419  26.785  1.00  0.00     0.009 A 
ATOM     77  C   UNL A   1      30.654  29.332  23.746  1.00  0.00     0.009 A 
ATOM     78  C   UNL A   1      31.906  29.961  25.726  1.00  0.00     0.009 A 
ATOM     79  C   UNL A   1      32.281  28.397  27.511  1.00  0.00     0.001 A 
ATOM     80  C   UNL A   1      32.442  29.667  26.977  1.00  0.00     0.001 A 
ENDBRANCH  70  71
ENDBRANCH  67  70
ENDBRANCH  60  63
ENDBRANCH  58  59
ENDBRANCH  57  58
ENDBRANCH   1  57
TORSDOF 13
ENDMDL
MODEL 3
REMARK VINA RESULT:     -11.6      3.356      8.841
REMARK SMILES O=C(NCCCCNC(=O)[C@@H]1CCC[N@@H+](Cc2cccc3ccccc23)C1)c1ccc(-c2c3nc(c(-c4ccccc4)c4ccc([nH]4)c(-c4ccccc4)c4nc(c(-c5ccccc5)c5ccc2[nH]5)C=C4)C=C3)cc1
REMARK SMILES IDX 5 1 4 2 3 3 1 4 2 5 28 7 29 8 75 9 30 10 74 11 31 12 32 13
REMARK SMILES IDX 33 14 68 15 34 16 73 17 67 18 69 19 35 20 72 21 66 22 65 23
REMARK SMILES IDX 36 25 58 26 43 27 57 28 44 29 47 30 56 31 70 32 45 33 46 34
REMARK SMILES IDX 55 36 71 37 48 38 37 39 38 40 42 41 39 42 41 43 40 44 59 45
REMARK SMILES IDX 60 46 64 47 61 48 63 49 62 50 49 51 50 52 54 53 51 54 53 55
REMARK SMILES IDX 52 56 6 57 7 58 8 59 9 60 10 62 11 63 12 64 27 65 13 66
REMARK SMILES IDX 15 67 14 68 16 70 17 71 18 72 26 73 19 74 21 75 25 76 20 77
REMARK SMILES IDX 22 78 24 79 23 80
REMARK H PARENT 3 6 69 24 47 35 8 61 15 69
REMARK Flexibility Score: inf
ROOT
ATOM      1  C   UNL A   1      32.124  31.080  26.869  1.00  0.00     0.023 C 
ENDROOT
BRANCH   1   2
ATOM      2  C   UNL A   1      33.182  32.096  27.260  1.00  0.00     0.116 C 
BRANCH   2   3
ATOM      3  N   UNL A   1      32.655  33.409  27.611  1.00  0.00    -0.352 N 
ATOM      4  O   UNL A   1      32.614  35.368  28.754  1.00  0.00    -0.269 OA
ATOM      5  C   UNL A   1      33.180  34.316  28.506  1.00  0.00     0.251 C 
ATOM      6  H   UNL A   1      31.826  33.680  27.153  1.00  0.00     0.163 HD
BRANCH   5   7
ATOM      7  C   UNL A   1      34.430  33.948  29.200  1.00  0.00     0.039 A 
ATOM      8  C   UNL A   1      35.654  34.380  28.689  1.00  0.00     0.014 A 
ATOM      9  C   UNL A   1      34.374  33.060  30.275  1.00  0.00     0.014 A 
ATOM     10  C   UNL A   1      36.820  33.775  29.128  1.00  0.00     0.010 A 
ATOM     11  C   UNL A   1      35.561  32.531  30.787  1.00  0.00     0.010 A 
ATOM     12  C   UNL A   1      36.788  32.847  30.184  1.00  0.00    -0.014 A 
BRANCH  12  13
ATOM     13  C   UNL A   1      38.065  32.253  30.648  1.00  0.00     0.031 A 
ATOM     14  C   UNL A   1      38.793  32.794  31.848  1.00  0.00     0.074 A 
ATOM     15  C   UNL A   1      38.528  31.162  30.008  1.00  0.00     0.049 A 
ATOM     16  N   UNL A   1      39.894  32.354  32.405  1.00  0.00    -0.248 NA
ATOM     17  C   UNL A   1      38.225  33.983  32.502  1.00  0.00     0.031 C 
ATOM     18  C   UNL A   1      37.898  30.544  28.837  1.00  0.00     0.029 A 
ATOM     19  N   UNL A   1      39.600  30.354  30.275  1.00  0.00    -0.354 N 
ATOM     20  C   UNL A   1      40.172  33.232  33.445  1.00  0.00     0.074 A 
ATOM     21  C   UNL A   1      39.128  34.234  33.442  1.00  0.00     0.031 C 
ATOM     22  C   UNL A   1      38.542  29.407  28.542  1.00  0.00     0.029 A 
ATOM     23  C   UNL A   1      39.673  29.259  29.450  1.00  0.00     0.049 A 
ATOM     24  H   UNL A   1      40.255  30.540  30.986  1.00  0.00     0.167 HD
ATOM     25  C   UNL A   1      41.209  33.207  34.318  1.00  0.00     0.031 A 
ATOM     26  C   UNL A   1      40.555  28.246  29.419  1.00  0.00     0.031 A 
ATOM     27  C   UNL A   1      42.232  32.194  34.332  1.00  0.00     0.049 A 
ATOM     28  C   UNL A   1      41.687  28.242  30.398  1.00  0.00     0.074 A 
ATOM     29  C   UNL A   1      43.307  32.065  35.196  1.00  0.00     0.029 A 
ATOM     30  N   UNL A   1      42.303  31.132  33.445  1.00  0.00    -0.354 N 
ATOM     31  N   UNL A   1      41.936  29.082  31.372  1.00  0.00    -0.248 NA
ATOM     32  C   UNL A   1      42.667  27.157  30.265  1.00  0.00     0.031 C 
ATOM     33  C   UNL A   1      44.050  30.945  34.806  1.00  0.00     0.029 A 
ATOM     34  C   UNL A   1      43.415  30.354  33.726  1.00  0.00     0.049 A 
ATOM     35  H   UNL A   1      41.660  30.957  32.721  1.00  0.00     0.167 HD
ATOM     36  C   UNL A   1      43.103  28.630  31.969  1.00  0.00     0.074 A 
ATOM     37  C   UNL A   1      43.494  27.424  31.265  1.00  0.00     0.031 C 
ATOM     38  C   UNL A   1      43.792  29.168  33.004  1.00  0.00     0.031 A 
BRANCH  25  39
ATOM     39  C   UNL A   1      41.311  34.332  35.308  1.00  0.00    -0.014 A 
ATOM     40  C   UNL A   1      40.731  34.247  36.583  1.00  0.00     0.009 A 
ATOM     41  C   UNL A   1      42.042  35.484  34.972  1.00  0.00     0.009 A 
ATOM     42  C   UNL A   1      40.856  35.302  37.489  1.00  0.00     0.001 A 
ATOM     43  C   UNL A   1      42.185  36.528  35.889  1.00  0.00     0.001 A 
ATOM     44  C   UNL A   1      41.585  36.440  37.143  1.00  0.00     0.000 A 
ENDBRANCH  25  39
BRANCH  26  45
ATOM     45  C   UNL A   1      40.394  27.163  28.419  1.00  0.00    -0.014 A 
ATOM     46  C   UNL A   1      39.616  26.034  28.713  1.00  0.00     0.009 A 
ATOM     47  C   UNL A   1      40.980  27.275  27.148  1.00  0.00     0.009 A 
ATOM     48  C   UNL A   1      39.436  25.033  27.757  1.00  0.00     0.001 A 
ATOM     49  C   UNL A   1      40.776  26.286  26.185  1.00  0.00     0.001 A 
ATOM     50  C   UNL A   1      40.009  25.164  26.492  1.00  0.00     0.000 A 
ENDBRANCH  26  45
BRANCH  38  51
ATOM     51  C   UNL A   1      45.031  28.440  33.432  1.00  0.00    -0.014 A 
ATOM     52  C   UNL A   1      46.284  28.767  32.888  1.00  0.00     0.009 A 
ATOM     53  C   UNL A   1      44.945  27.421  34.392  1.00  0.00     0.009 A 
ATOM     54  C   UNL A   1      47.423  28.060  33.272  1.00  0.00     0.001 A 
ATOM     55  C   UNL A   1      46.091  26.731  34.791  1.00  0.00     0.001 A 
ATOM     56  C   UNL A   1      47.326  27.044  34.224  1.00  0.00     0.000 A 
ENDBRANCH  38  51
ENDBRANCH  12  13
ENDBRANCH   5   7
ENDBRANCH   2   3
ENDBRANCH   1   2
BRANCH   1  57
ATOM     57  C   UNL A   1      32.491  29.627  27.136  1.00  0.00     0.023 C 
BRANCH  57  58
ATOM     58  C   UNL A   1      33.842  29.182  26.576  1.00  0.00     0.116 C 
BRANCH  58  59
ATOM     59  N   UNL A   1      33.943  27.743  26.514  1.00  0.00    -0.356 N 
ATOM     60  C   UNL A   1      33.365  26.789  25.750  1.00  0.00     0.228 C 
ATOM     61  H   UNL A   1      34.573  27.375  27.174  1.00  0.00     0.163 HD
ATOM     62  O   UNL A   1      33.669  25.630  26.073  1.00  0.00    -0.275 OA
BRANCH  60  63
ATOM     63  C   UNL A   1      32.500  27.008  24.500  1.00  0.00     0.133 C 
ATOM     64  C   UNL A   1      30.989  27.211  24.524  1.00  0.00     0.025 C 
ATOM     65  C   UNL A   1      32.828  25.920  23.453  1.00  0.00     0.276 C 
ATOM     66  C   UNL A   1      30.226  25.913  24.738  1.00  0.00     0.062 C 
ATOM     67  N   UNL A   1      32.115  24.657  23.696  1.00  0.00    -0.331 N 
ATOM     68  C   UNL A   1      30.657  24.829  23.756  1.00  0.00     0.262 C 
ATOM     69  H   UNL A   1      32.392  24.343  24.626  1.00  0.00     0.348 HD
BRANCH  67  70
ATOM     70  C   UNL A   1      32.532  23.588  22.753  1.00  0.00     0.299 C 
BRANCH  70  71
ATOM     71  C   UNL A   1      33.129  22.339  23.393  1.00  0.00     0.014 A 
ATOM     72  C   UNL A   1      32.267  21.249  23.627  1.00  0.00     0.010 A 
ATOM     73  C   UNL A   1      34.475  22.286  23.872  1.00  0.00    -0.010 A 
ATOM     74  C   UNL A   1      32.671  20.169  24.401  1.00  0.00     0.001 A 
ATOM     75  C   UNL A   1      34.868  21.173  24.661  1.00  0.00    -0.018 A 
ATOM     76  C   UNL A   1      35.454  23.281  23.631  1.00  0.00     0.009 A 
ATOM     77  C   UNL A   1      33.956  20.143  24.930  1.00  0.00     0.009 A 
ATOM     78  C   UNL A   1      36.169  21.102  25.187  1.00  0.00     0.009 A 
ATOM     79  C   UNL A   1      36.752  23.185  24.142  1.00  0.00     0.001 A 
ATOM     80  C   UNL A   1      37.107  22.098  24.926  1.00  0.00     0.001 A 
ENDBRANCH  70  71
ENDBRANCH  67  70
ENDBRANCH  60  63
ENDBRANCH  58  59
ENDBRANCH  57  58
ENDBRANCH   1  57
TORSDOF 13
ENDMDL
