MODEL 1
REMARK VINA RESULT:     -10.5      0.000      0.000
REMARK SMILES Cc1cc(C)n([C@H](C)[C@H](C)C(=O)NCCCCNC(=O)c2ccc(-c3c4nc(c(-c5ccccc5)c5ccc([nH]5)c(-c5ccccc5)c5nc(c(-c6ccccc6)c6ccc3[nH]6)C=C5)C=C4)cc2)n1
REMARK SMILES IDX 15 1 14 2 13 3 11 4 12 5 9 7 10 8 7 9 8 10 6 11 1 12 2 13
REMARK SMILES IDX 3 14 69 15 4 16 5 17 16 18 17 19 18 20 19 21 20 23 21 24
REMARK SMILES IDX 22 25 68 26 23 27 67 28 24 29 25 30 26 31 61 32 27 33 66 34
REMARK SMILES IDX 60 35 62 36 28 37 65 38 59 39 58 40 29 42 51 43 36 44 50 45
REMARK SMILES IDX 37 46 40 47 49 48 63 49 38 50 39 51 48 53 64 54 41 55 30 56
REMARK SMILES IDX 31 57 35 58 32 59 34 60 33 61 52 62 53 63 57 64 54 65 56 66
REMARK SMILES IDX 55 67 42 68 43 69 47 70 44 71 46 72 45 73
REMARK H PARENT 13 6 18 22 62 41 40 52
REMARK Flexibility Score: inf
ROOT
ATOM      1  C   UNL A   1      37.452  20.566  24.818  1.00  0.00     0.023 C 
ENDROOT
BRANCH   1   2
ATOM      2  C   UNL A   1      36.000  20.103  24.921  1.00  0.00     0.116 C 
BRANCH   2   3
ATOM      3  N   UNL A   1      35.877  18.657  24.963  1.00  0.00    -0.356 N 
ATOM      4  C   UNL A   1      34.937  17.826  24.435  1.00  0.00     0.224 C 
ATOM      5  O   UNL A   1      35.108  16.614  24.583  1.00  0.00    -0.275 OA
ATOM      6  H   UNL A   1      36.596  18.200  25.457  1.00  0.00     0.163 HD
BRANCH   4   7
ATOM      7  C   UNL A   1      33.710  18.354  23.700  1.00  0.00     0.100 C 
ATOM      8  C   UNL A   1      33.258  17.328  22.646  1.00  0.00     0.020 C 
BRANCH   7   9
ATOM      9  C   UNL A   1      32.568  18.864  24.624  1.00  0.00     0.116 C 
ATOM     10  C   UNL A   1      32.558  18.243  26.039  1.00  0.00     0.034 C 
BRANCH   9  11
ATOM     11  N   UNL A   1      32.580  20.340  24.737  1.00  0.00    -0.266 N 
ATOM     12  C   UNL A   1      32.497  23.059  27.006  1.00  0.00     0.069 C 
ATOM     13  C   UNL A   1      32.493  22.172  25.819  1.00  0.00     0.060 A 
ATOM     14  C   UNL A   1      32.156  22.481  24.489  1.00  0.00     0.048 A 
ATOM     15  N   UNL A   1      32.824  20.888  25.948  1.00  0.00    -0.178 NA
ATOM     16  C   UNL A   1      32.226  21.285  23.801  1.00  0.00     0.036 A 
ATOM     17  C   UNL A   1      31.961  21.019  22.369  1.00  0.00     0.066 C 
ENDBRANCH   9  11
ENDBRANCH   7   9
ENDBRANCH   4   7
ENDBRANCH   2   3
ENDBRANCH   1   2
BRANCH   1  18
ATOM     18  C   UNL A   1      38.514  19.467  24.974  1.00  0.00     0.023 C 
BRANCH  18  19
ATOM     19  C   UNL A   1      39.591  19.757  26.015  1.00  0.00     0.116 C 
BRANCH  19  20
ATOM     20  N   UNL A   1      40.848  19.079  25.729  1.00  0.00    -0.352 N 
ATOM     21  C   UNL A   1      42.117  19.623  25.694  1.00  0.00     0.251 C 
ATOM     22  H   UNL A   1      40.786  18.115  25.537  1.00  0.00     0.163 HD
ATOM     23  O   UNL A   1      43.014  19.067  25.079  1.00  0.00    -0.269 OA
BRANCH  21  24
ATOM     24  C   UNL A   1      42.380  20.886  26.409  1.00  0.00     0.039 A 
ATOM     25  C   UNL A   1      42.662  22.054  25.695  1.00  0.00     0.014 A 
ATOM     26  C   UNL A   1      42.357  20.897  27.804  1.00  0.00     0.014 A 
ATOM     27  C   UNL A   1      42.836  23.248  26.390  1.00  0.00     0.010 A 
ATOM     28  C   UNL A   1      42.438  22.091  28.488  1.00  0.00     0.010 A 
ATOM     29  C   UNL A   1      42.697  23.267  27.788  1.00  0.00    -0.014 A 
BRANCH  29  30
ATOM     30  C   UNL A   1      42.642  24.545  28.496  1.00  0.00     0.031 A 
ATOM     31  C   UNL A   1      41.427  25.351  28.193  1.00  0.00     0.074 A 
ATOM     32  C   UNL A   1      43.474  24.896  29.500  1.00  0.00     0.049 A 
ATOM     33  N   UNL A   1      41.370  26.479  27.567  1.00  0.00    -0.248 NA
ATOM     34  C   UNL A   1      40.108  24.772  28.500  1.00  0.00     0.031 C 
ATOM     35  C   UNL A   1      44.519  24.080  30.128  1.00  0.00     0.029 A 
ATOM     36  N   UNL A   1      43.481  26.029  30.260  1.00  0.00    -0.354 N 
ATOM     37  C   UNL A   1      40.030  26.859  27.581  1.00  0.00     0.074 A 
ATOM     38  C   UNL A   1      39.287  25.699  28.001  1.00  0.00     0.031 C 
ATOM     39  C   UNL A   1      44.886  24.641  31.303  1.00  0.00     0.029 A 
ATOM     40  C   UNL A   1      44.224  25.927  31.434  1.00  0.00     0.049 A 
ATOM     41  H   UNL A   1      43.001  26.848  30.002  1.00  0.00     0.167 HD
ATOM     42  C   UNL A   1      39.671  28.172  27.505  1.00  0.00     0.031 A 
ATOM     43  C   UNL A   1      44.273  26.821  32.453  1.00  0.00     0.031 A 
ATOM     44  C   UNL A   1      40.778  28.994  27.082  1.00  0.00     0.049 A 
ATOM     45  C   UNL A   1      43.795  28.117  31.929  1.00  0.00     0.074 A 
ATOM     46  C   UNL A   1      41.590  29.057  25.969  1.00  0.00     0.029 A 
ATOM     47  N   UNL A   1      41.428  29.689  28.073  1.00  0.00    -0.354 N 
ATOM     48  N   UNL A   1      44.458  28.832  31.069  1.00  0.00    -0.248 NA
ATOM     49  C   UNL A   1      42.383  28.436  32.053  1.00  0.00     0.031 C 
ATOM     50  C   UNL A   1      42.881  29.393  26.474  1.00  0.00     0.029 A 
ATOM     51  C   UNL A   1      42.774  29.593  27.852  1.00  0.00     0.049 A 
ATOM     52  H   UNL A   1      40.999  30.173  28.815  1.00  0.00     0.167 HD
ATOM     53  C   UNL A   1      43.485  29.344  30.226  1.00  0.00     0.074 A 
ATOM     54  C   UNL A   1      42.229  29.180  30.955  1.00  0.00     0.031 C 
ATOM     55  C   UNL A   1      43.760  29.577  28.909  1.00  0.00     0.031 A 
BRANCH  42  56
ATOM     56  C   UNL A   1      38.501  28.770  28.258  1.00  0.00    -0.014 A 
ATOM     57  C   UNL A   1      37.719  29.745  27.605  1.00  0.00     0.009 A 
ATOM     58  C   UNL A   1      38.329  28.659  29.649  1.00  0.00     0.009 A 
ATOM     59  C   UNL A   1      36.904  30.630  28.320  1.00  0.00     0.001 A 
ATOM     60  C   UNL A   1      37.481  29.512  30.362  1.00  0.00     0.001 A 
ATOM     61  C   UNL A   1      36.796  30.520  29.702  1.00  0.00     0.000 A 
ENDBRANCH  42  56
BRANCH  43  62
ATOM     62  C   UNL A   1      44.513  26.618  33.899  1.00  0.00    -0.014 A 
ATOM     63  C   UNL A   1      43.579  25.922  34.687  1.00  0.00     0.009 A 
ATOM     64  C   UNL A   1      45.787  26.847  34.448  1.00  0.00     0.009 A 
ATOM     65  C   UNL A   1      43.924  25.428  35.952  1.00  0.00     0.001 A 
ATOM     66  C   UNL A   1      46.130  26.358  35.714  1.00  0.00     0.001 A 
ATOM     67  C   UNL A   1      45.205  25.632  36.458  1.00  0.00     0.000 A 
ENDBRANCH  43  62
BRANCH  55  68
ATOM     68  C   UNL A   1      45.204  29.577  28.475  1.00  0.00    -0.014 A 
ATOM     69  C   UNL A   1      45.916  28.414  28.134  1.00  0.00     0.009 A 
ATOM     70  C   UNL A   1      45.820  30.820  28.265  1.00  0.00     0.009 A 
ATOM     71  C   UNL A   1      47.217  28.497  27.624  1.00  0.00     0.001 A 
ATOM     72  C   UNL A   1      47.108  30.904  27.734  1.00  0.00     0.001 A 
ATOM     73  C   UNL A   1      47.808  29.742  27.419  1.00  0.00     0.000 A 
ENDBRANCH  55  68
ENDBRANCH  29  30
ENDBRANCH  21  24
ENDBRANCH  19  20
ENDBRANCH  18  19
ENDBRANCH   1  18
TORSDOF 13
ENDMDL
MODEL 2
REMARK VINA RESULT:     -10.3      3.797      8.279
REMARK SMILES Cc1cc(C)n([C@H](C)[C@H](C)C(=O)NCCCCNC(=O)c2ccc(-c3c4nc(c(-c5ccccc5)c5ccc([nH]5)c(-c5ccccc5)c5nc(c(-c6ccccc6)c6ccc3[nH]6)C=C5)C=C4)cc2)n1
REMARK SMILES IDX 15 1 14 2 13 3 11 4 12 5 9 7 10 8 7 9 8 10 6 11 1 12 2 13
REMARK SMILES IDX 3 14 69 15 4 16 5 17 16 18 17 19 18 20 19 21 20 23 21 24
REMARK SMILES IDX 22 25 68 26 23 27 67 28 24 29 25 30 26 31 61 32 27 33 66 34
REMARK SMILES IDX 60 35 62 36 28 37 65 38 59 39 58 40 29 42 51 43 36 44 50 45
REMARK SMILES IDX 37 46 40 47 49 48 63 49 38 50 39 51 48 53 64 54 41 55 30 56
REMARK SMILES IDX 31 57 35 58 32 59 34 60 33 61 52 62 53 63 57 64 54 65 56 66
REMARK SMILES IDX 55 67 42 68 43 69 47 70 44 71 46 72 45 73
REMARK H PARENT 13 6 18 22 62 41 40 52
REMARK Flexibility Score: inf
ROOT
ATOM      1  C   UNL A   1      34.049  29.974  26.996  1.00  0.00     0.023 C 
ENDROOT
BRANCH   1   2
ATOM      2  C   UNL A   1      33.010  29.769  25.895  1.00  0.00     0.116 C 
BRANCH   2   3
ATOM      3  N   UNL A   1      33.614  29.530  24.596  1.00  0.00    -0.356 N 
ATOM      4  C   UNL A   1      33.118  28.931  23.479  1.00  0.00     0.224 C 
ATOM      5  O   UNL A   1      33.844  28.908  22.481  1.00  0.00    -0.275 OA
ATOM      6  H   UNL A   1      34.538  29.858  24.509  1.00  0.00     0.163 HD
BRANCH   4   7
ATOM      7  C   UNL A   1      31.733  28.297  23.447  1.00  0.00     0.100 C 
ATOM      8  C   UNL A   1      30.876  28.982  22.367  1.00  0.00     0.020 C 
BRANCH   7   9
ATOM      9  C   UNL A   1      31.730  26.744  23.372  1.00  0.00     0.116 C 
ATOM     10  C   UNL A   1      32.003  26.165  21.966  1.00  0.00     0.034 C 
BRANCH   9  11
ATOM     11  N   UNL A   1      32.684  26.153  24.338  1.00  0.00    -0.266 N 
ATOM     12  C   UNL A   1      35.478  24.004  24.685  1.00  0.00     0.069 C 
ATOM     13  C   UNL A   1      34.310  24.892  24.887  1.00  0.00     0.060 A 
ATOM     14  C   UNL A   1      33.583  25.139  26.067  1.00  0.00     0.048 A 
ATOM     15  N   UNL A   1      33.805  25.571  23.857  1.00  0.00    -0.178 NA
ATOM     16  C   UNL A   1      32.540  25.963  25.695  1.00  0.00     0.036 A 
ATOM     17  C   UNL A   1      31.457  26.529  26.531  1.00  0.00     0.066 C 
ENDBRANCH   9  11
ENDBRANCH   7   9
ENDBRANCH   4   7
ENDBRANCH   2   3
ENDBRANCH   1   2
BRANCH   1  18
ATOM     18  C   UNL A   1      33.897  31.259  27.822  1.00  0.00     0.023 C 
BRANCH  18  19
ATOM     19  C   UNL A   1      35.164  32.102  27.939  1.00  0.00     0.116 C 
BRANCH  19  20
ATOM     20  N   UNL A   1      35.316  32.711  29.255  1.00  0.00    -0.352 N 
ATOM     21  C   UNL A   1      36.050  32.243  30.326  1.00  0.00     0.251 C 
ATOM     22  H   UNL A   1      34.837  33.559  29.396  1.00  0.00     0.163 HD
ATOM     23  O   UNL A   1      35.798  32.614  31.462  1.00  0.00    -0.269 OA
BRANCH  21  24
ATOM     24  C   UNL A   1      37.148  31.286  30.086  1.00  0.00     0.039 A 
ATOM     25  C   UNL A   1      38.463  31.742  29.955  1.00  0.00     0.014 A 
ATOM     26  C   UNL A   1      36.855  29.926  29.980  1.00  0.00     0.014 A 
ATOM     27  C   UNL A   1      39.489  30.814  29.801  1.00  0.00     0.010 A 
ATOM     28  C   UNL A   1      37.876  29.002  29.920  1.00  0.00     0.010 A 
ATOM     29  C   UNL A   1      39.193  29.440  29.811  1.00  0.00    -0.014 A 
BRANCH  29  30
ATOM     30  C   UNL A   1      40.279  28.463  29.889  1.00  0.00     0.031 A 
ATOM     31  C   UNL A   1      40.820  28.272  31.263  1.00  0.00     0.074 A 
ATOM     32  C   UNL A   1      40.631  27.634  28.884  1.00  0.00     0.049 A 
ATOM     33  N   UNL A   1      41.996  28.587  31.695  1.00  0.00    -0.248 NA
ATOM     34  C   UNL A   1      39.905  27.800  32.317  1.00  0.00     0.031 C 
ATOM     35  C   UNL A   1      39.984  27.482  27.576  1.00  0.00     0.029 A 
ATOM     36  N   UNL A   1      41.583  26.657  28.863  1.00  0.00    -0.354 N 
ATOM     37  C   UNL A   1      42.045  28.164  33.021  1.00  0.00     0.074 A 
ATOM     38  C   UNL A   1      40.688  27.860  33.396  1.00  0.00     0.031 C 
ATOM     39  C   UNL A   1      40.399  26.331  26.998  1.00  0.00     0.029 A 
ATOM     40  C   UNL A   1      41.452  25.751  27.813  1.00  0.00     0.049 A 
ATOM     41  H   UNL A   1      42.300  26.596  29.533  1.00  0.00     0.167 HD
ATOM     42  C   UNL A   1      43.230  27.846  33.613  1.00  0.00     0.031 A 
ATOM     43  C   UNL A   1      42.139  24.596  27.636  1.00  0.00     0.031 A 
ATOM     44  C   UNL A   1      44.348  28.319  32.836  1.00  0.00     0.049 A 
ATOM     45  C   UNL A   1      43.359  24.674  28.465  1.00  0.00     0.074 A 
ATOM     46  C   UNL A   1      44.794  29.549  32.396  1.00  0.00     0.029 A 
ATOM     47  N   UNL A   1      44.990  27.379  32.066  1.00  0.00    -0.354 N 
ATOM     48  N   UNL A   1      44.349  25.478  28.211  1.00  0.00    -0.248 NA
ATOM     49  C   UNL A   1      43.313  24.145  29.818  1.00  0.00     0.031 C 
ATOM     50  C   UNL A   1      45.327  29.303  31.097  1.00  0.00     0.029 A 
ATOM     51  C   UNL A   1      45.251  27.933  30.843  1.00  0.00     0.049 A 
ATOM     52  H   UNL A   1      45.223  26.465  32.346  1.00  0.00     0.167 HD
ATOM     53  C   UNL A   1      44.761  25.921  29.457  1.00  0.00     0.074 A 
ATOM     54  C   UNL A   1      44.183  24.971  30.406  1.00  0.00     0.031 C 
ATOM     55  C   UNL A   1      45.280  27.175  29.611  1.00  0.00     0.031 A 
BRANCH  42  56
ATOM     56  C   UNL A   1      43.397  26.718  34.610  1.00  0.00    -0.014 A 
ATOM     57  C   UNL A   1      43.554  25.408  34.112  1.00  0.00     0.009 A 
ATOM     58  C   UNL A   1      43.095  26.834  35.979  1.00  0.00     0.009 A 
ATOM     59  C   UNL A   1      43.308  24.286  34.911  1.00  0.00     0.001 A 
ATOM     60  C   UNL A   1      42.893  25.715  36.791  1.00  0.00     0.001 A 
ATOM     61  C   UNL A   1      42.965  24.441  36.249  1.00  0.00     0.000 A 
ENDBRANCH  42  56
BRANCH  43  62
ATOM     62  C   UNL A   1      41.746  23.337  26.965  1.00  0.00    -0.014 A 
ATOM     63  C   UNL A   1      42.723  22.476  26.433  1.00  0.00     0.009 A 
ATOM     64  C   UNL A   1      40.440  22.834  27.104  1.00  0.00     0.009 A 
ATOM     65  C   UNL A   1      42.417  21.149  26.103  1.00  0.00     0.001 A 
ATOM     66  C   UNL A   1      40.133  21.509  26.769  1.00  0.00     0.001 A 
ATOM     67  C   UNL A   1      41.126  20.662  26.288  1.00  0.00     0.000 A 
ENDBRANCH  43  62
BRANCH  55  68
ATOM     68  C   UNL A   1      45.692  27.930  28.373  1.00  0.00    -0.014 A 
ATOM     69  C   UNL A   1      46.971  27.841  27.795  1.00  0.00     0.009 A 
ATOM     70  C   UNL A   1      44.700  28.646  27.687  1.00  0.00     0.009 A 
ATOM     71  C   UNL A   1      47.250  28.475  26.579  1.00  0.00     0.001 A 
ATOM     72  C   UNL A   1      44.972  29.257  26.463  1.00  0.00     0.001 A 
ATOM     73  C   UNL A   1      46.248  29.176  25.912  1.00  0.00     0.000 A 
ENDBRANCH  55  68
ENDBRANCH  29  30
ENDBRANCH  21  24
ENDBRANCH  19  20
ENDBRANCH  18  19
ENDBRANCH   1  18
TORSDOF 13
ENDMDL
MODEL 3
REMARK VINA RESULT:     -10.3      2.574      6.184
REMARK SMILES Cc1cc(C)n([C@H](C)[C@H](C)C(=O)NCCCCNC(=O)c2ccc(-c3c4nc(c(-c5ccccc5)c5ccc([nH]5)c(-c5ccccc5)c5nc(c(-c6ccccc6)c6ccc3[nH]6)C=C5)C=C4)cc2)n1
REMARK SMILES IDX 15 1 14 2 13 3 11 4 12 5 9 7 10 8 7 9 8 10 6 11 1 12 2 13
REMARK SMILES IDX 3 14 69 15 4 16 5 17 16 18 17 19 18 20 19 21 20 23 21 24
REMARK SMILES IDX 22 25 68 26 23 27 67 28 24 29 25 30 26 31 61 32 27 33 66 34
REMARK SMILES IDX 60 35 62 36 28 37 65 38 59 39 58 40 29 42 51 43 36 44 50 45
REMARK SMILES IDX 37 46 40 47 49 48 63 49 38 50 39 51 48 53 64 54 41 55 30 56
REMARK SMILES IDX 31 57 35 58 32 59 34 60 33 61 52 62 53 63 57 64 54 65 56 66
REMARK SMILES IDX 55 67 42 68 43 69 47 70 44 71 46 72 45 73
REMARK H PARENT 13 6 18 22 62 41 40 52
REMARK Flexibility Score: inf
ROOT
ATOM      1  C   UNL A   1      35.697  21.657  25.879  1.00  0.00     0.023 C 
ENDROOT
BRANCH   1   2
ATOM      2  C   UNL A   1      34.442  21.646  26.747  1.00  0.00     0.116 C 
BRANCH   2   3
ATOM      3  N   UNL A   1      33.580  20.511  26.469  1.00  0.00    -0.356 N 
ATOM      4  C   UNL A   1      32.801  20.226  25.391  1.00  0.00     0.224 C 
ATOM      5  O   UNL A   1      32.200  19.148  25.397  1.00  0.00    -0.275 OA
ATOM      6  H   UNL A   1      33.556  19.832  27.183  1.00  0.00     0.163 HD
BRANCH   4   7
ATOM      7  C   UNL A   1      32.652  21.192  24.221  1.00  0.00     0.100 C 
ATOM      8  C   UNL A   1      32.227  20.415  22.961  1.00  0.00     0.020 C 
BRANCH   7   9
ATOM      9  C   UNL A   1      31.782  22.445  24.519  1.00  0.00     0.116 C 
ATOM     10  C   UNL A   1      30.995  22.384  25.846  1.00  0.00     0.034 C 
BRANCH   9  11
ATOM     11  N   UNL A   1      32.590  23.686  24.486  1.00  0.00    -0.266 N 
ATOM     12  C   UNL A   1      33.320  26.699  26.199  1.00  0.00     0.069 C 
ATOM     13  C   UNL A   1      33.206  25.583  25.231  1.00  0.00     0.060 A 
ATOM     14  C   UNL A   1      33.565  25.556  23.871  1.00  0.00     0.048 A 
ATOM     15  N   UNL A   1      32.686  24.419  25.617  1.00  0.00    -0.178 NA
ATOM     16  C   UNL A   1      33.167  24.318  23.407  1.00  0.00     0.036 A 
ATOM     17  C   UNL A   1      33.289  23.752  22.044  1.00  0.00     0.066 C 
ENDBRANCH   9  11
ENDBRANCH   7   9
ENDBRANCH   4   7
ENDBRANCH   2   3
ENDBRANCH   1   2
BRANCH   1  18
ATOM     18  C   UNL A   1      36.269  23.044  25.551  1.00  0.00     0.023 C 
BRANCH  18  19
ATOM     19  C   UNL A   1      37.785  23.093  25.386  1.00  0.00     0.116 C 
BRANCH  19  20
ATOM     20  N   UNL A   1      38.478  22.162  26.268  1.00  0.00    -0.352 N 
ATOM     21  C   UNL A   1      39.588  22.404  27.052  1.00  0.00     0.251 C 
ATOM     22  H   UNL A   1      38.109  21.250  26.310  1.00  0.00     0.163 HD
ATOM     23  O   UNL A   1      40.293  21.481  27.431  1.00  0.00    -0.269 OA
BRANCH  21  24
ATOM     24  C   UNL A   1      39.918  23.792  27.429  1.00  0.00     0.039 A 
ATOM     25  C   UNL A   1      38.973  24.809  27.267  1.00  0.00     0.014 A 
ATOM     26  C   UNL A   1      41.187  24.076  27.936  1.00  0.00     0.014 A 
ATOM     27  C   UNL A   1      39.283  26.096  27.697  1.00  0.00     0.010 A 
ATOM     28  C   UNL A   1      41.462  25.327  28.445  1.00  0.00     0.010 A 
ATOM     29  C   UNL A   1      40.522  26.346  28.311  1.00  0.00    -0.014 A 
BRANCH  29  30
ATOM     30  C   UNL A   1      40.760  27.627  28.974  1.00  0.00     0.031 A 
ATOM     31  C   UNL A   1      41.885  28.410  28.391  1.00  0.00     0.074 A 
ATOM     32  C   UNL A   1      39.926  28.182  29.879  1.00  0.00     0.049 A 
ATOM     33  N   UNL A   1      43.015  28.694  28.947  1.00  0.00    -0.248 NA
ATOM     34  C   UNL A   1      41.801  28.807  26.974  1.00  0.00     0.031 C 
ATOM     35  C   UNL A   1      38.619  27.684  30.321  1.00  0.00     0.029 A 
ATOM     36  N   UNL A   1      40.019  29.385  30.516  1.00  0.00    -0.354 N 
ATOM     37  C   UNL A   1      43.706  29.484  28.032  1.00  0.00     0.074 A 
ATOM     38  C   UNL A   1      42.997  29.368  26.784  1.00  0.00     0.031 C 
ATOM     39  C   UNL A   1      37.949  28.674  30.954  1.00  0.00     0.029 A 
ATOM     40  C   UNL A   1      38.832  29.817  31.103  1.00  0.00     0.049 A 
ATOM     41  H   UNL A   1      40.854  29.905  30.557  1.00  0.00     0.167 HD
ATOM     42  C   UNL A   1      44.648  30.378  28.446  1.00  0.00     0.031 A 
ATOM     43  C   UNL A   1      38.582  31.032  31.650  1.00  0.00     0.031 A 
ATOM     44  C   UNL A   1      45.033  30.137  29.815  1.00  0.00     0.049 A 
ATOM     45  C   UNL A   1      39.886  31.661  31.947  1.00  0.00     0.074 A 
ATOM     46  C   UNL A   1      45.593  29.085  30.511  1.00  0.00     0.029 A 
ATOM     47  N   UNL A   1      44.473  30.967  30.756  1.00  0.00    -0.354 N 
ATOM     48  N   UNL A   1      40.690  31.240  32.877  1.00  0.00    -0.248 NA
ATOM     49  C   UNL A   1      40.488  32.518  30.939  1.00  0.00     0.031 C 
ATOM     50  C   UNL A   1      44.952  29.104  31.784  1.00  0.00     0.029 A 
ATOM     51  C   UNL A   1      44.095  30.206  31.827  1.00  0.00     0.049 A 
ATOM     52  H   UNL A   1      44.363  31.941  30.673  1.00  0.00     0.167 HD
ATOM     53  C   UNL A   1      41.954  31.378  32.327  1.00  0.00     0.074 A 
ATOM     54  C   UNL A   1      41.778  32.288  31.198  1.00  0.00     0.031 C 
ATOM     55  C   UNL A   1      42.955  30.511  32.663  1.00  0.00     0.031 A 
BRANCH  42  56
ATOM     56  C   UNL A   1      44.863  31.733  27.805  1.00  0.00    -0.014 A 
ATOM     57  C   UNL A   1      43.982  32.778  28.148  1.00  0.00     0.009 A 
ATOM     58  C   UNL A   1      45.668  31.940  26.670  1.00  0.00     0.009 A 
ATOM     59  C   UNL A   1      43.836  33.909  27.336  1.00  0.00     0.001 A 
ATOM     60  C   UNL A   1      45.557  33.089  25.882  1.00  0.00     0.001 A 
ATOM     61  C   UNL A   1      44.616  34.057  26.195  1.00  0.00     0.000 A 
ENDBRANCH  42  56
BRANCH  43  62
ATOM     62  C   UNL A   1      37.319  31.794  31.764  1.00  0.00    -0.014 A 
ATOM     63  C   UNL A   1      36.453  31.912  30.662  1.00  0.00     0.009 A 
ATOM     64  C   UNL A   1      36.819  32.156  33.027  1.00  0.00     0.009 A 
ATOM     65  C   UNL A   1      35.124  32.324  30.826  1.00  0.00     0.001 A 
ATOM     66  C   UNL A   1      35.492  32.573  33.190  1.00  0.00     0.001 A 
ATOM     67  C   UNL A   1      34.639  32.638  32.092  1.00  0.00     0.000 A 
ENDBRANCH  43  62
BRANCH  55  68
ATOM     68  C   UNL A   1      42.753  29.624  33.866  1.00  0.00    -0.014 A 
ATOM     69  C   UNL A   1      43.058  30.013  35.182  1.00  0.00     0.009 A 
ATOM     70  C   UNL A   1      42.094  28.402  33.669  1.00  0.00     0.009 A 
ATOM     71  C   UNL A   1      42.734  29.186  36.264  1.00  0.00     0.001 A 
ATOM     72  C   UNL A   1      41.749  27.589  34.749  1.00  0.00     0.001 A 
ATOM     73  C   UNL A   1      42.075  27.979  36.045  1.00  0.00     0.000 A 
ENDBRANCH  55  68
ENDBRANCH  29  30
ENDBRANCH  21  24
ENDBRANCH  19  20
ENDBRANCH  18  19
ENDBRANCH   1  18
TORSDOF 13
ENDMDL
