MODEL 1
REMARK VINA RESULT:     -11.5      0.000      0.000
REMARK SMILES CC(C)(C)OC(=O)N1CCC[C@](Cc2ccccc2)(C(=O)NCCCCNC(=O)c2ccc(-c3c4nc(c(-c5ccccc5)c5ccc([nH]5)c(-c5ccccc5)c5nc(c(-c6ccccc6)c6ccc3[nH]6)C=C5)C=C4)cc2)C1
REMARK SMILES IDX 24 1 23 2 22 3 20 4 21 5 12 7 8 8 9 9 78 10 10 11 11 12 6 13
REMARK SMILES IDX 7 14 5 15 2 16 1 17 3 18 4 19 13 20 14 21 15 22 19 23 16 24
REMARK SMILES IDX 18 25 17 26 25 27 26 28 27 29 28 30 29 32 30 33 31 34 77 35
REMARK SMILES IDX 32 36 76 37 33 38 34 39 35 40 70 41 36 42 75 43 69 44 71 45
REMARK SMILES IDX 37 46 74 47 68 48 67 49 38 51 60 52 45 53 59 54 46 55 49 56
REMARK SMILES IDX 58 57 72 58 47 59 48 60 57 62 73 63 50 64 39 65 40 66 44 67
REMARK SMILES IDX 41 68 43 69 42 70 61 71 62 72 66 73 63 74 65 75 64 76 51 77
REMARK SMILES IDX 52 78 56 79 53 80 55 81 54 82
REMARK H PARENT 22 6 27 31 71 50 49 61
REMARK Flexibility Score: inf
ROOT
ATOM      1  C   UNL A   1      37.393  22.472  24.620  1.00  0.00     0.023 C 
ENDROOT
BRANCH   1   2
ATOM      2  C   UNL A   1      35.941  22.815  24.921  1.00  0.00     0.116 C 
BRANCH   2   3
ATOM      3  N   UNL A   1      35.040  22.624  23.817  1.00  0.00    -0.356 N 
ATOM      4  C   UNL A   1      33.766  22.154  23.779  1.00  0.00     0.228 C 
ATOM      5  O   UNL A   1      33.142  22.484  22.762  1.00  0.00    -0.274 OA
ATOM      6  H   UNL A   1      35.410  22.877  22.940  1.00  0.00     0.163 HD
BRANCH   4   7
ATOM      7  C   UNL A   1      33.103  21.267  24.886  1.00  0.00     0.071 C 
ATOM      8  N   UNL A   1      31.976  22.775  26.585  1.00  0.00    -0.307 N 
ATOM      9  C   UNL A   1      32.700  22.190  27.703  1.00  0.00     0.123 C 
ATOM     10  C   UNL A   1      31.799  21.935  25.408  1.00  0.00     0.140 C 
ATOM     11  C   UNL A   1      34.076  21.676  27.316  1.00  0.00     0.023 C 
ATOM     12  C   UNL A   1      34.129  20.903  26.000  1.00  0.00     0.021 C 
BRANCH   8  13
ATOM     13  C   UNL A   1      31.478  24.068  26.693  1.00  0.00     0.410 C 
ATOM     14  O   UNL A   1      30.300  24.295  26.927  1.00  0.00    -0.224 OA
BRANCH  13  15
ATOM     15  O   UNL A   1      32.435  25.017  26.524  1.00  0.00    -0.444 OA
BRANCH  15  16
ATOM     16  C   UNL A   1      32.483  25.897  25.362  1.00  0.00     0.106 C 
ATOM     17  C   UNL A   1      33.971  26.002  24.988  1.00  0.00     0.056 C 
ATOM     18  C   UNL A   1      31.972  27.272  25.801  1.00  0.00     0.056 C 
ATOM     19  C   UNL A   1      31.724  25.414  24.118  1.00  0.00     0.056 C 
ENDBRANCH  15  16
ENDBRANCH  13  15
ENDBRANCH   8  13
BRANCH   7  20
ATOM     20  C   UNL A   1      32.714  19.938  24.093  1.00  0.00     0.054 C 
BRANCH  20  21
ATOM     21  C   UNL A   1      33.259  18.619  24.604  1.00  0.00    -0.047 A 
ATOM     22  C   UNL A   1      32.452  17.792  25.404  1.00  0.00     0.004 A 
ATOM     23  C   UNL A   1      34.544  18.179  24.269  1.00  0.00     0.004 A 
ATOM     24  C   UNL A   1      32.885  16.519  25.775  1.00  0.00     0.000 A 
ATOM     25  C   UNL A   1      34.970  16.901  24.627  1.00  0.00     0.000 A 
ATOM     26  C   UNL A   1      34.135  16.066  25.366  1.00  0.00     0.000 A 
ENDBRANCH  20  21
ENDBRANCH   7  20
ENDBRANCH   4   7
ENDBRANCH   2   3
ENDBRANCH   1   2
BRANCH   1  27
ATOM     27  C   UNL A   1      37.769  21.043  24.970  1.00  0.00     0.023 C 
BRANCH  27  28
ATOM     28  C   UNL A   1      38.893  20.909  25.991  1.00  0.00     0.116 C 
BRANCH  28  29
ATOM     29  N   UNL A   1      39.774  19.764  25.794  1.00  0.00    -0.352 N 
ATOM     30  C   UNL A   1      41.135  19.715  26.012  1.00  0.00     0.251 C 
ATOM     31  H   UNL A   1      39.351  18.935  25.471  1.00  0.00     0.163 HD
ATOM     32  O   UNL A   1      41.805  18.730  25.731  1.00  0.00    -0.269 OA
BRANCH  30  33
ATOM     33  C   UNL A   1      41.779  20.925  26.560  1.00  0.00     0.039 A 
ATOM     34  C   UNL A   1      42.256  21.900  25.685  1.00  0.00     0.014 A 
ATOM     35  C   UNL A   1      41.742  21.152  27.939  1.00  0.00     0.014 A 
ATOM     36  C   UNL A   1      42.609  23.151  26.191  1.00  0.00     0.010 A 
ATOM     37  C   UNL A   1      41.984  22.432  28.420  1.00  0.00     0.010 A 
ATOM     38  C   UNL A   1      42.421  23.445  27.553  1.00  0.00    -0.014 A 
BRANCH  38  39
ATOM     39  C   UNL A   1      42.681  24.804  28.095  1.00  0.00     0.031 A 
ATOM     40  C   UNL A   1      44.073  25.184  28.520  1.00  0.00     0.074 A 
ATOM     41  C   UNL A   1      41.662  25.672  28.264  1.00  0.00     0.049 A 
ATOM     42  N   UNL A   1      44.497  26.298  29.059  1.00  0.00    -0.248 NA
ATOM     43  C   UNL A   1      45.123  24.166  28.346  1.00  0.00     0.031 C 
ATOM     44  C   UNL A   1      40.257  25.412  27.939  1.00  0.00     0.029 A 
ATOM     45  N   UNL A   1      41.654  26.955  28.751  1.00  0.00    -0.354 N 
ATOM     46  C   UNL A   1      45.851  26.107  29.298  1.00  0.00     0.074 A 
ATOM     47  C   UNL A   1      46.164  24.749  28.917  1.00  0.00     0.031 C 
ATOM     48  C   UNL A   1      39.534  26.515  28.195  1.00  0.00     0.029 A 
ATOM     49  C   UNL A   1      40.411  27.542  28.745  1.00  0.00     0.049 A 
ATOM     50  H   UNL A   1      42.464  27.413  29.076  1.00  0.00     0.167 HD
ATOM     51  C   UNL A   1      46.764  26.991  29.765  1.00  0.00     0.031 A 
ATOM     52  C   UNL A   1      40.023  28.771  29.138  1.00  0.00     0.031 A 
ATOM     53  C   UNL A   1      46.458  28.344  30.136  1.00  0.00     0.049 A 
ATOM     54  C   UNL A   1      41.052  29.726  29.680  1.00  0.00     0.074 A 
ATOM     55  C   UNL A   1      47.320  29.335  30.572  1.00  0.00     0.029 A 
ATOM     56  N   UNL A   1      45.187  28.898  30.117  1.00  0.00    -0.354 N 
ATOM     57  N   UNL A   1      42.343  29.554  29.830  1.00  0.00    -0.248 NA
ATOM     58  C   UNL A   1      40.570  31.050  30.098  1.00  0.00     0.031 C 
ATOM     59  C   UNL A   1      46.562  30.469  30.875  1.00  0.00     0.029 A 
ATOM     60  C   UNL A   1      45.237  30.207  30.561  1.00  0.00     0.049 A 
ATOM     61  H   UNL A   1      44.369  28.428  29.831  1.00  0.00     0.167 HD
ATOM     62  C   UNL A   1      42.831  30.756  30.326  1.00  0.00     0.074 A 
ATOM     63  C   UNL A   1      41.700  31.654  30.434  1.00  0.00     0.031 C 
ATOM     64  C   UNL A   1      44.102  31.089  30.661  1.00  0.00     0.031 A 
BRANCH  51  65
ATOM     65  C   UNL A   1      48.183  26.510  29.898  1.00  0.00    -0.014 A 
ATOM     66  C   UNL A   1      48.630  25.875  31.070  1.00  0.00     0.009 A 
ATOM     67  C   UNL A   1      49.081  26.673  28.833  1.00  0.00     0.009 A 
ATOM     68  C   UNL A   1      49.956  25.453  31.185  1.00  0.00     0.001 A 
ATOM     69  C   UNL A   1      50.396  26.218  28.937  1.00  0.00     0.001 A 
ATOM     70  C   UNL A   1      50.836  25.620  30.117  1.00  0.00     0.000 A 
ENDBRANCH  51  65
BRANCH  52  71
ATOM     71  C   UNL A   1      38.597  29.183  29.023  1.00  0.00    -0.014 A 
ATOM     72  C   UNL A   1      38.093  29.683  27.812  1.00  0.00     0.009 A 
ATOM     73  C   UNL A   1      37.736  29.101  30.129  1.00  0.00     0.009 A 
ATOM     74  C   UNL A   1      36.771  30.125  27.720  1.00  0.00     0.001 A 
ATOM     75  C   UNL A   1      36.404  29.511  30.026  1.00  0.00     0.001 A 
ATOM     76  C   UNL A   1      35.927  30.035  28.825  1.00  0.00     0.000 A 
ENDBRANCH  52  71
BRANCH  64  77
ATOM     77  C   UNL A   1      44.346  32.494  31.136  1.00  0.00    -0.014 A 
ATOM     78  C   UNL A   1      44.607  33.538  30.235  1.00  0.00     0.009 A 
ATOM     79  C   UNL A   1      44.268  32.784  32.508  1.00  0.00     0.009 A 
ATOM     80  C   UNL A   1      44.822  34.836  30.703  1.00  0.00     0.001 A 
ATOM     81  C   UNL A   1      44.448  34.087  32.969  1.00  0.00     0.001 A 
ATOM     82  C   UNL A   1      44.736  35.110  32.067  1.00  0.00     0.000 A 
ENDBRANCH  64  77
ENDBRANCH  38  39
ENDBRANCH  30  33
ENDBRANCH  28  29
ENDBRANCH  27  28
ENDBRANCH   1  27
TORSDOF 16
ENDMDL
MODEL 2
REMARK VINA RESULT:     -11.4      2.009      3.274
REMARK SMILES CC(C)(C)OC(=O)N1CCC[C@](Cc2ccccc2)(C(=O)NCCCCNC(=O)c2ccc(-c3c4nc(c(-c5ccccc5)c5ccc([nH]5)c(-c5ccccc5)c5nc(c(-c6ccccc6)c6ccc3[nH]6)C=C5)C=C4)cc2)C1
REMARK SMILES IDX 24 1 23 2 22 3 20 4 21 5 12 7 8 8 9 9 78 10 10 11 11 12 6 13
REMARK SMILES IDX 7 14 5 15 2 16 1 17 3 18 4 19 13 20 14 21 15 22 19 23 16 24
REMARK SMILES IDX 18 25 17 26 25 27 26 28 27 29 28 30 29 32 30 33 31 34 77 35
REMARK SMILES IDX 32 36 76 37 33 38 34 39 35 40 70 41 36 42 75 43 69 44 71 45
REMARK SMILES IDX 37 46 74 47 68 48 67 49 38 51 60 52 45 53 59 54 46 55 49 56
REMARK SMILES IDX 58 57 72 58 47 59 48 60 57 62 73 63 50 64 39 65 40 66 44 67
REMARK SMILES IDX 41 68 43 69 42 70 61 71 62 72 66 73 63 74 65 75 64 76 51 77
REMARK SMILES IDX 52 78 56 79 53 80 55 81 54 82
REMARK H PARENT 22 6 27 31 71 50 49 61
REMARK Flexibility Score: inf
ROOT
ATOM      1  C   UNL A   1      36.350  23.137  23.512  1.00  0.00     0.023 C 
ENDROOT
BRANCH   1   2
ATOM      2  C   UNL A   1      34.878  23.328  23.854  1.00  0.00     0.116 C 
BRANCH   2   3
ATOM      3  N   UNL A   1      33.965  22.749  22.907  1.00  0.00    -0.356 N 
ATOM      4  C   UNL A   1      32.941  21.873  23.080  1.00  0.00     0.228 C 
ATOM      5  O   UNL A   1      32.114  21.883  22.159  1.00  0.00    -0.274 OA
ATOM      6  H   UNL A   1      34.106  23.035  21.975  1.00  0.00     0.163 HD
BRANCH   4   7
ATOM      7  C   UNL A   1      32.779  20.913  24.306  1.00  0.00     0.071 C 
ATOM      8  N   UNL A   1      32.371  22.300  26.390  1.00  0.00    -0.307 N 
ATOM      9  C   UNL A   1      33.484  21.696  27.106  1.00  0.00     0.123 C 
ATOM     10  C   UNL A   1      31.767  21.505  25.328  1.00  0.00     0.140 C 
ATOM     11  C   UNL A   1      34.612  21.255  26.188  1.00  0.00     0.023 C 
ATOM     12  C   UNL A   1      34.164  20.542  24.914  1.00  0.00     0.021 C 
BRANCH   8  13
ATOM     13  C   UNL A   1      31.928  23.566  26.754  1.00  0.00     0.410 C 
ATOM     14  O   UNL A   1      30.846  23.748  27.293  1.00  0.00    -0.224 OA
BRANCH  13  15
ATOM     15  O   UNL A   1      32.824  24.542  26.459  1.00  0.00    -0.444 OA
BRANCH  15  16
ATOM     16  C   UNL A   1      32.493  25.702  25.638  1.00  0.00     0.106 C 
ATOM     17  C   UNL A   1      33.837  26.376  25.319  1.00  0.00     0.056 C 
ATOM     18  C   UNL A   1      31.642  26.645  26.492  1.00  0.00     0.056 C 
ATOM     19  C   UNL A   1      31.792  25.405  24.304  1.00  0.00     0.056 C 
ENDBRANCH  15  16
ENDBRANCH  13  15
ENDBRANCH   8  13
BRANCH   7  20
ATOM     20  C   UNL A   1      32.139  19.606  23.653  1.00  0.00     0.054 C 
BRANCH  20  21
ATOM     21  C   UNL A   1      32.707  18.258  24.055  1.00  0.00    -0.047 A 
ATOM     22  C   UNL A   1      33.527  17.551  23.161  1.00  0.00     0.004 A 
ATOM     23  C   UNL A   1      32.464  17.710  25.319  1.00  0.00     0.004 A 
ATOM     24  C   UNL A   1      34.165  16.375  23.557  1.00  0.00     0.000 A 
ATOM     25  C   UNL A   1      33.113  16.543  25.720  1.00  0.00     0.000 A 
ATOM     26  C   UNL A   1      33.975  15.884  24.846  1.00  0.00     0.000 A 
ENDBRANCH  20  21
ENDBRANCH   7  20
ENDBRANCH   4   7
ENDBRANCH   2   3
ENDBRANCH   1   2
BRANCH   1  27
ATOM     27  C   UNL A   1      37.298  23.688  24.562  1.00  0.00     0.023 C 
BRANCH  27  28
ATOM     28  C   UNL A   1      37.605  22.734  25.711  1.00  0.00     0.116 C 
BRANCH  28  29
ATOM     29  N   UNL A   1      38.946  22.162  25.698  1.00  0.00    -0.352 N 
ATOM     30  C   UNL A   1      40.108  22.760  26.140  1.00  0.00     0.251 C 
ATOM     31  H   UNL A   1      39.031  21.250  25.337  1.00  0.00     0.163 HD
ATOM     32  O   UNL A   1      41.205  22.231  26.005  1.00  0.00    -0.269 OA
BRANCH  30  33
ATOM     33  C   UNL A   1      39.995  24.100  26.748  1.00  0.00     0.039 A 
ATOM     34  C   UNL A   1      39.507  24.221  28.048  1.00  0.00     0.014 A 
ATOM     35  C   UNL A   1      40.540  25.200  26.080  1.00  0.00     0.014 A 
ATOM     36  C   UNL A   1      39.656  25.436  28.718  1.00  0.00     0.010 A 
ATOM     37  C   UNL A   1      40.790  26.367  26.789  1.00  0.00     0.010 A 
ATOM     38  C   UNL A   1      40.349  26.499  28.115  1.00  0.00    -0.014 A 
BRANCH  38  39
ATOM     39  C   UNL A   1      40.621  27.762  28.849  1.00  0.00     0.031 A 
ATOM     40  C   UNL A   1      41.932  27.943  29.564  1.00  0.00     0.074 A 
ATOM     41  C   UNL A   1      39.672  28.718  28.926  1.00  0.00     0.049 A 
ATOM     42  N   UNL A   1      42.342  28.946  30.296  1.00  0.00    -0.248 NA
ATOM     43  C   UNL A   1      42.898  26.835  29.471  1.00  0.00     0.031 C 
ATOM     44  C   UNL A   1      38.340  28.648  28.320  1.00  0.00     0.029 A 
ATOM     45  N   UNL A   1      39.686  29.942  29.548  1.00  0.00    -0.354 N 
ATOM     46  C   UNL A   1      43.601  28.584  30.757  1.00  0.00     0.074 A 
ATOM     47  C   UNL A   1      43.857  27.242  30.287  1.00  0.00     0.031 C 
ATOM     48  C   UNL A   1      37.684  29.795  28.564  1.00  0.00     0.029 A 
ATOM     49  C   UNL A   1      38.527  30.661  29.380  1.00  0.00     0.049 A 
ATOM     50  H   UNL A   1      40.455  30.274  30.066  1.00  0.00     0.167 HD
ATOM     51  C   UNL A   1      44.482  29.312  31.482  1.00  0.00     0.031 A 
ATOM     52  C   UNL A   1      38.182  31.883  29.833  1.00  0.00     0.031 A 
ATOM     53  C   UNL A   1      44.233  30.649  31.943  1.00  0.00     0.049 A 
ATOM     54  C   UNL A   1      39.169  32.660  30.662  1.00  0.00     0.074 A 
ATOM     55  C   UNL A   1      45.080  31.492  32.642  1.00  0.00     0.029 A 
ATOM     56  N   UNL A   1      43.046  31.340  31.754  1.00  0.00    -0.354 N 
ATOM     57  N   UNL A   1      40.385  32.332  31.026  1.00  0.00    -0.248 NA
ATOM     58  C   UNL A   1      38.737  33.985  31.133  1.00  0.00     0.031 C 
ATOM     59  C   UNL A   1      44.384  32.669  32.928  1.00  0.00     0.029 A 
ATOM     60  C   UNL A   1      43.128  32.587  32.348  1.00  0.00     0.049 A 
ATOM     61  H   UNL A   1      42.261  30.994  31.271  1.00  0.00     0.167 HD
ATOM     62  C   UNL A   1      40.874  33.420  31.738  1.00  0.00     0.074 A 
ATOM     63  C   UNL A   1      39.830  34.424  31.739  1.00  0.00     0.031 C 
ATOM     64  C   UNL A   1      42.080  33.576  32.338  1.00  0.00     0.031 A 
BRANCH  51  65
ATOM     65  C   UNL A   1      45.798  28.665  31.819  1.00  0.00    -0.014 A 
ATOM     66  C   UNL A   1      46.910  28.793  30.970  1.00  0.00     0.009 A 
ATOM     67  C   UNL A   1      45.936  27.938  33.010  1.00  0.00     0.009 A 
ATOM     68  C   UNL A   1      48.119  28.170  31.287  1.00  0.00     0.001 A 
ATOM     69  C   UNL A   1      47.155  27.346  33.343  1.00  0.00     0.001 A 
ATOM     70  C   UNL A   1      48.242  27.451  32.476  1.00  0.00     0.000 A 
ENDBRANCH  51  65
BRANCH  52  71
ATOM     71  C   UNL A   1      36.850  32.459  29.506  1.00  0.00    -0.014 A 
ATOM     72  C   UNL A   1      35.745  32.224  30.340  1.00  0.00     0.009 A 
ATOM     73  C   UNL A   1      36.667  33.230  28.346  1.00  0.00     0.009 A 
ATOM     74  C   UNL A   1      34.482  32.716  30.002  1.00  0.00     0.001 A 
ATOM     75  C   UNL A   1      35.410  33.749  28.028  1.00  0.00     0.001 A 
ATOM     76  C   UNL A   1      34.316  33.482  28.850  1.00  0.00     0.000 A 
ENDBRANCH  52  71
BRANCH  64  77
ATOM     77  C   UNL A   1      42.354  34.893  33.008  1.00  0.00    -0.014 A 
ATOM     78  C   UNL A   1      41.905  35.161  34.310  1.00  0.00     0.009 A 
ATOM     79  C   UNL A   1      43.114  35.866  32.337  1.00  0.00     0.009 A 
ATOM     80  C   UNL A   1      42.180  36.391  34.912  1.00  0.00     0.001 A 
ATOM     81  C   UNL A   1      43.417  37.078  32.954  1.00  0.00     0.001 A 
ATOM     82  C   UNL A   1      42.941  37.345  34.236  1.00  0.00     0.000 A 
ENDBRANCH  64  77
ENDBRANCH  38  39
ENDBRANCH  30  33
ENDBRANCH  28  29
ENDBRANCH  27  28
ENDBRANCH   1  27
TORSDOF 16
ENDMDL
MODEL 3
REMARK VINA RESULT:     -11.4      3.985      8.856
REMARK SMILES CC(C)(C)OC(=O)N1CCC[C@](Cc2ccccc2)(C(=O)NCCCCNC(=O)c2ccc(-c3c4nc(c(-c5ccccc5)c5ccc([nH]5)c(-c5ccccc5)c5nc(c(-c6ccccc6)c6ccc3[nH]6)C=C5)C=C4)cc2)C1
REMARK SMILES IDX 24 1 23 2 22 3 20 4 21 5 12 7 8 8 9 9 78 10 10 11 11 12 6 13
REMARK SMILES IDX 7 14 5 15 2 16 1 17 3 18 4 19 13 20 14 21 15 22 19 23 16 24
REMARK SMILES IDX 18 25 17 26 25 27 26 28 27 29 28 30 29 32 30 33 31 34 77 35
REMARK SMILES IDX 32 36 76 37 33 38 34 39 35 40 70 41 36 42 75 43 69 44 71 45
REMARK SMILES IDX 37 46 74 47 68 48 67 49 38 51 60 52 45 53 59 54 46 55 49 56
REMARK SMILES IDX 58 57 72 58 47 59 48 60 57 62 73 63 50 64 39 65 40 66 44 67
REMARK SMILES IDX 41 68 43 69 42 70 61 71 62 72 66 73 63 74 65 75 64 76 51 77
REMARK SMILES IDX 52 78 56 79 53 80 55 81 54 82
REMARK H PARENT 22 6 27 31 71 50 49 61
REMARK Flexibility Score: inf
ROOT
ATOM      1  C   UNL A   1      34.652  30.611  27.546  1.00  0.00     0.023 C 
ENDROOT
BRANCH   1   2
ATOM      2  C   UNL A   1      34.235  29.159  27.357  1.00  0.00     0.116 C 
BRANCH   2   3
ATOM      3  N   UNL A   1      32.865  28.882  27.693  1.00  0.00    -0.356 N 
ATOM      4  C   UNL A   1      32.015  27.921  27.244  1.00  0.00     0.228 C 
ATOM      5  O   UNL A   1      31.062  27.704  28.003  1.00  0.00    -0.274 OA
ATOM      6  H   UNL A   1      32.477  29.492  28.362  1.00  0.00     0.163 HD
BRANCH   4   7
ATOM      7  C   UNL A   1      32.176  27.139  25.898  1.00  0.00     0.071 C 
ATOM      8  N   UNL A   1      30.831  28.314  24.097  1.00  0.00    -0.307 N 
ATOM      9  C   UNL A   1      30.085  27.112  23.757  1.00  0.00     0.123 C 
ATOM     10  C   UNL A   1      32.147  28.122  24.693  1.00  0.00     0.140 C 
ATOM     11  C   UNL A   1      29.903  26.173  24.938  1.00  0.00     0.023 C 
ATOM     12  C   UNL A   1      31.148  25.973  25.801  1.00  0.00     0.021 C 
BRANCH   8  13
ATOM     13  C   UNL A   1      30.281  29.561  23.825  1.00  0.00     0.410 C 
ATOM     14  O   UNL A   1      30.470  30.528  24.548  1.00  0.00    -0.224 OA
BRANCH  13  15
ATOM     15  O   UNL A   1      29.543  29.573  22.686  1.00  0.00    -0.444 OA
BRANCH  15  16
ATOM     16  C   UNL A   1      28.204  30.150  22.614  1.00  0.00     0.106 C 
ATOM     17  C   UNL A   1      27.240  28.987  22.902  1.00  0.00     0.056 C 
ATOM     18  C   UNL A   1      27.990  30.643  21.180  1.00  0.00     0.056 C 
ATOM     19  C   UNL A   1      27.897  31.269  23.619  1.00  0.00     0.056 C 
ENDBRANCH  15  16
ENDBRANCH  13  15
ENDBRANCH   8  13
BRANCH   7  20
ATOM     20  C   UNL A   1      33.642  26.521  26.017  1.00  0.00     0.054 C 
BRANCH  20  21
ATOM     21  C   UNL A   1      33.901  25.173  25.373  1.00  0.00    -0.047 A 
ATOM     22  C   UNL A   1      34.028  25.078  23.977  1.00  0.00     0.004 A 
ATOM     23  C   UNL A   1      34.055  24.014  26.141  1.00  0.00     0.004 A 
ATOM     24  C   UNL A   1      34.395  23.873  23.376  1.00  0.00     0.000 A 
ATOM     25  C   UNL A   1      34.437  22.814  25.541  1.00  0.00     0.000 A 
ATOM     26  C   UNL A   1      34.622  22.748  24.162  1.00  0.00     0.000 A 
ENDBRANCH  20  21
ENDBRANCH   7  20
ENDBRANCH   4   7
ENDBRANCH   2   3
ENDBRANCH   1   2
BRANCH   1  27
ATOM     27  C   UNL A   1      33.485  31.558  27.765  1.00  0.00     0.023 C 
BRANCH  27  28
ATOM     28  C   UNL A   1      33.712  32.980  27.265  1.00  0.00     0.116 C 
BRANCH  28  29
ATOM     29  N   UNL A   1      32.975  34.013  27.982  1.00  0.00    -0.352 N 
ATOM     30  C   UNL A   1      33.335  34.620  29.167  1.00  0.00     0.251 C 
ATOM     31  H   UNL A   1      32.128  34.310  27.576  1.00  0.00     0.163 HD
ATOM     32  O   UNL A   1      32.603  35.417  29.741  1.00  0.00    -0.269 OA
BRANCH  30  33
ATOM     33  C   UNL A   1      34.633  34.239  29.759  1.00  0.00     0.039 A 
ATOM     34  C   UNL A   1      34.654  33.434  30.897  1.00  0.00     0.014 A 
ATOM     35  C   UNL A   1      35.811  34.544  29.073  1.00  0.00     0.014 A 
ATOM     36  C   UNL A   1      35.857  32.850  31.293  1.00  0.00     0.010 A 
ATOM     37  C   UNL A   1      36.979  33.870  29.402  1.00  0.00     0.010 A 
ATOM     38  C   UNL A   1      37.016  33.016  30.516  1.00  0.00    -0.014 A 
BRANCH  38  39
ATOM     39  C   UNL A   1      38.282  32.314  30.852  1.00  0.00     0.031 A 
ATOM     40  C   UNL A   1      39.216  32.907  31.871  1.00  0.00     0.074 A 
ATOM     41  C   UNL A   1      38.621  31.182  30.201  1.00  0.00     0.049 A 
ATOM     42  N   UNL A   1      40.386  32.475  32.268  1.00  0.00    -0.248 NA
ATOM     43  C   UNL A   1      38.797  34.168  32.504  1.00  0.00     0.031 C 
ATOM     44  C   UNL A   1      37.829  30.528  29.157  1.00  0.00     0.029 A 
ATOM     45  N   UNL A   1      39.726  30.377  30.327  1.00  0.00    -0.354 N 
ATOM     46  C   UNL A   1      40.841  33.417  33.182  1.00  0.00     0.074 A 
ATOM     47  C   UNL A   1      39.861  34.477  33.225  1.00  0.00     0.031 C 
ATOM     48  C   UNL A   1      38.452  29.403  28.770  1.00  0.00     0.029 A 
ATOM     49  C   UNL A   1      39.707  29.278  29.502  1.00  0.00     0.049 A 
ATOM     50  H   UNL A   1      40.465  30.569  30.950  1.00  0.00     0.167 HD
ATOM     51  C   UNL A   1      41.961  33.390  33.942  1.00  0.00     0.031 A 
ATOM     52  C   UNL A   1      40.602  28.281  29.352  1.00  0.00     0.031 A 
ATOM     53  C   UNL A   1      42.932  32.332  33.907  1.00  0.00     0.049 A 
ATOM     54  C   UNL A   1      41.852  28.289  30.189  1.00  0.00     0.074 A 
ATOM     55  C   UNL A   1      44.074  32.185  34.674  1.00  0.00     0.029 A 
ATOM     56  N   UNL A   1      42.877  31.239  33.056  1.00  0.00    -0.354 N 
ATOM     57  N   UNL A   1      42.231  29.149  31.103  1.00  0.00    -0.248 NA
ATOM     58  C   UNL A   1      42.794  27.179  29.980  1.00  0.00     0.031 C 
ATOM     59  C   UNL A   1      44.742  31.035  34.244  1.00  0.00     0.029 A 
ATOM     60  C   UNL A   1      43.979  30.428  33.259  1.00  0.00     0.049 A 
ATOM     61  H   UNL A   1      42.159  31.066  32.403  1.00  0.00     0.167 HD
ATOM     62  C   UNL A   1      43.436  28.667  31.600  1.00  0.00     0.074 A 
ATOM     63  C   UNL A   1      43.714  27.431  30.899  1.00  0.00     0.031 C 
ATOM     64  C   UNL A   1      44.241  29.200  32.553  1.00  0.00     0.031 A 
BRANCH  51  65
ATOM     65  C   UNL A   1      42.188  34.547  34.876  1.00  0.00    -0.014 A 
ATOM     66  C   UNL A   1      42.910  35.681  34.469  1.00  0.00     0.009 A 
ATOM     67  C   UNL A   1      41.655  34.514  36.174  1.00  0.00     0.009 A 
ATOM     68  C   UNL A   1      43.129  36.738  35.354  1.00  0.00     0.001 A 
ATOM     69  C   UNL A   1      41.845  35.587  37.046  1.00  0.00     0.001 A 
ATOM     70  C   UNL A   1      42.592  36.693  36.640  1.00  0.00     0.000 A 
ENDBRANCH  51  65
BRANCH  52  71
ATOM     71  C   UNL A   1      40.348  27.181  28.383  1.00  0.00    -0.014 A 
ATOM     72  C   UNL A   1      39.623  26.042  28.769  1.00  0.00     0.009 A 
ATOM     73  C   UNL A   1      40.848  27.250  27.072  1.00  0.00     0.009 A 
ATOM     74  C   UNL A   1      39.436  24.983  27.877  1.00  0.00     0.001 A 
ATOM     75  C   UNL A   1      40.629  26.205  26.172  1.00  0.00     0.001 A 
ATOM     76  C   UNL A   1      39.934  25.066  26.579  1.00  0.00     0.000 A 
ENDBRANCH  52  71
BRANCH  64  77
ATOM     77  C   UNL A   1      45.476  28.428  32.925  1.00  0.00    -0.014 A 
ATOM     78  C   UNL A   1      46.708  28.668  32.296  1.00  0.00     0.009 A 
ATOM     79  C   UNL A   1      45.412  27.475  33.954  1.00  0.00     0.009 A 
ATOM     80  C   UNL A   1      47.842  27.942  32.667  1.00  0.00     0.001 A 
ATOM     81  C   UNL A   1      46.554  26.777  34.346  1.00  0.00     0.001 A 
ATOM     82  C   UNL A   1      47.765  27.003  33.695  1.00  0.00     0.000 A 
ENDBRANCH  64  77
ENDBRANCH  38  39
ENDBRANCH  30  33
ENDBRANCH  28  29
ENDBRANCH  27  28
ENDBRANCH   1  27
TORSDOF 16
ENDMDL
