MODEL 1
REMARK VINA RESULT:     -12.7      0.000      0.000
REMARK SMILES Cc1ccc2c(=O)c3cccc(CC(=O)NCCCCNC(=O)c4ccc(-c5c6nc(c(-c7ccccc7)c7ccc([nH]7)c(-c7ccccc7)c7nc(c(-c8ccccc8)c8ccc5[nH]8)C=C7)C=C6)cc4)c3oc2c1C
REMARK SMILES IDX 19 1 18 2 17 3 16 4 14 5 15 6 13 8 12 9 1 10 2 11 3 12 75 13
REMARK SMILES IDX 4 14 74 15 76 16 5 17 73 18 6 19 72 20 7 21 8 22 9 23 11 24
REMARK SMILES IDX 10 25 20 26 21 27 22 28 23 30 24 31 25 32 71 33 26 34 70 35
REMARK SMILES IDX 27 36 28 37 29 38 64 39 30 40 69 41 63 42 65 43 31 44 68 45
REMARK SMILES IDX 62 46 61 47 32 49 54 50 39 51 53 52 40 53 43 54 52 55 66 56
REMARK SMILES IDX 41 57 42 58 51 60 67 61 44 62 33 63 34 64 38 65 35 66 37 67
REMARK SMILES IDX 36 68 55 69 56 70 60 71 57 72 59 73 58 74 45 75 46 76 50 77
REMARK SMILES IDX 47 78 49 79 48 80
REMARK H PARENT 16 7 21 29 65 48 43 59
REMARK Flexibility Score: inf
ROOT
ATOM      1  C   UNL A   1      31.732  31.890  26.812  1.00  0.00     0.023 C 
ENDROOT
BRANCH   1   2
ATOM      2  C   UNL A   1      32.040  30.391  26.815  1.00  0.00     0.023 C 
BRANCH   2   3
ATOM      3  C   UNL A   1      33.508  30.029  26.585  1.00  0.00     0.116 C 
BRANCH   3   4
ATOM      4  N   UNL A   1      33.724  29.387  25.304  1.00  0.00    -0.356 N 
ATOM      5  C   UNL A   1      33.875  28.061  25.015  1.00  0.00     0.224 C 
ATOM      6  O   UNL A   1      34.011  27.738  23.832  1.00  0.00    -0.275 OA
ATOM      7  H   UNL A   1      33.767  29.994  24.530  1.00  0.00     0.163 HD
BRANCH   5   8
ATOM      8  C   UNL A   1      33.801  27.014  26.116  1.00  0.00     0.139 C 
BRANCH   8   9
ATOM      9  C   UNL A   1      32.671  26.016  25.976  1.00  0.00     0.005 A 
ATOM     10  C   UNL A   1      37.619  20.781  24.800  1.00  0.00     0.045 C 
ATOM     11  C   UNL A   1      36.197  21.218  25.032  1.00  0.00    -0.044 A 
ATOM     12  C   UNL A   1      35.182  20.247  24.981  1.00  0.00     0.005 A 
ATOM     13  C   UNL A   1      35.859  22.566  25.289  1.00  0.00    -0.005 A 
ATOM     14  C   UNL A   1      33.848  20.597  25.178  1.00  0.00     0.016 A 
ATOM     15  C   UNL A   1      34.503  22.911  25.481  1.00  0.00     0.141 A 
ATOM     16  C   UNL A   1      36.903  23.652  25.382  1.00  0.00     0.049 C 
ATOM     17  C   UNL A   1      33.516  21.928  25.422  1.00  0.00     0.066 A 
ATOM     18  O   UNL A   1      34.222  24.236  25.725  1.00  0.00    -0.455 OA
ATOM     19  C   UNL A   1      32.112  22.319  25.604  1.00  0.00     0.200 A 
ATOM     20  C   UNL A   1      32.913  24.640  25.814  1.00  0.00     0.142 A 
ATOM     21  O   UNL A   1      31.210  21.491  25.618  1.00  0.00    -0.288 OA
ATOM     22  C   UNL A   1      31.839  23.753  25.755  1.00  0.00     0.066 A 
ATOM     23  C   UNL A   1      30.520  24.212  25.835  1.00  0.00     0.016 A 
ATOM     24  C   UNL A   1      31.340  26.473  26.012  1.00  0.00     0.008 A 
ATOM     25  C   UNL A   1      30.272  25.576  25.952  1.00  0.00     0.001 A 
ENDBRANCH   8   9
ENDBRANCH   5   8
ENDBRANCH   3   4
ENDBRANCH   2   3
ENDBRANCH   1   2
BRANCH   1  26
ATOM     26  C   UNL A   1      32.821  32.782  27.392  1.00  0.00     0.116 C 
BRANCH  26  27
ATOM     27  N   UNL A   1      32.374  34.134  27.705  1.00  0.00    -0.352 N 
ATOM     28  C   UNL A   1      32.930  35.037  28.581  1.00  0.00     0.251 C 
ATOM     29  H   UNL A   1      31.569  34.440  27.228  1.00  0.00     0.163 HD
ATOM     30  O   UNL A   1      32.384  36.114  28.796  1.00  0.00    -0.269 OA
BRANCH  28  31
ATOM     31  C   UNL A   1      34.166  34.672  29.310  1.00  0.00     0.039 A 
ATOM     32  C   UNL A   1      35.413  34.800  28.699  1.00  0.00     0.014 A 
ATOM     33  C   UNL A   1      34.064  34.130  30.594  1.00  0.00     0.014 A 
ATOM     34  C   UNL A   1      36.529  34.217  29.290  1.00  0.00     0.010 A 
ATOM     35  C   UNL A   1      35.202  33.617  31.223  1.00  0.00     0.010 A 
ATOM     36  C   UNL A   1      36.433  33.599  30.548  1.00  0.00    -0.014 A 
BRANCH  36  37
ATOM     37  C   UNL A   1      37.626  32.915  31.109  1.00  0.00     0.031 A 
ATOM     38  C   UNL A   1      38.178  33.307  32.455  1.00  0.00     0.074 A 
ATOM     39  C   UNL A   1      38.165  31.875  30.443  1.00  0.00     0.049 A 
ATOM     40  N   UNL A   1      39.164  32.766  33.127  1.00  0.00    -0.248 NA
ATOM     41  C   UNL A   1      37.548  34.451  33.138  1.00  0.00     0.031 C 
ATOM     42  C   UNL A   1      37.717  31.391  29.136  1.00  0.00     0.029 A 
ATOM     43  N   UNL A   1      39.178  31.016  30.788  1.00  0.00    -0.354 N 
ATOM     44  C   UNL A   1      39.281  33.508  34.297  1.00  0.00     0.074 A 
ATOM     45  C   UNL A   1      38.285  34.555  34.236  1.00  0.00     0.031 C 
ATOM     46  C   UNL A   1      38.413  30.290  28.815  1.00  0.00     0.029 A 
ATOM     47  C   UNL A   1      39.388  30.019  29.868  1.00  0.00     0.049 A 
ATOM     48  H   UNL A   1      39.703  31.107  31.616  1.00  0.00     0.167 HD
ATOM     49  C   UNL A   1      40.132  33.327  35.334  1.00  0.00     0.031 A 
ATOM     50  C   UNL A   1      40.264  28.995  29.864  1.00  0.00     0.031 A 
ATOM     51  C   UNL A   1      41.115  32.278  35.407  1.00  0.00     0.049 A 
ATOM     52  C   UNL A   1      41.191  28.812  31.031  1.00  0.00     0.074 A 
ATOM     53  C   UNL A   1      42.028  32.028  36.417  1.00  0.00     0.029 A 
ATOM     54  N   UNL A   1      41.304  31.301  34.444  1.00  0.00    -0.354 N 
ATOM     55  N   UNL A   1      41.285  29.527  32.125  1.00  0.00    -0.248 NA
ATOM     56  C   UNL A   1      42.123  27.678  30.970  1.00  0.00     0.031 C 
ATOM     57  C   UNL A   1      42.793  30.919  36.050  1.00  0.00     0.029 A 
ATOM     58  C   UNL A   1      42.319  30.448  34.837  1.00  0.00     0.049 A 
ATOM     59  H   UNL A   1      40.792  31.226  33.606  1.00  0.00     0.167 HD
ATOM     60  C   UNL A   1      42.276  28.923  32.887  1.00  0.00     0.074 A 
ATOM     61  C   UNL A   1      42.736  27.770  32.142  1.00  0.00     0.031 C 
ATOM     62  C   UNL A   1      42.763  29.298  34.093  1.00  0.00     0.031 A 
BRANCH  49  63
ATOM     63  C   UNL A   1      40.053  34.282  36.491  1.00  0.00    -0.014 A 
ATOM     64  C   UNL A   1      39.209  33.996  37.576  1.00  0.00     0.009 A 
ATOM     65  C   UNL A   1      40.725  35.513  36.457  1.00  0.00     0.009 A 
ATOM     66  C   UNL A   1      39.025  34.932  38.596  1.00  0.00     0.001 A 
ATOM     67  C   UNL A   1      40.557  36.438  37.490  1.00  0.00     0.001 A 
ATOM     68  C   UNL A   1      39.700  36.151  38.552  1.00  0.00     0.000 A 
ENDBRANCH  49  63
BRANCH  50  69
ATOM     69  C   UNL A   1      40.285  28.059  28.711  1.00  0.00    -0.014 A 
ATOM     70  C   UNL A   1      39.568  26.853  28.765  1.00  0.00     0.009 A 
ATOM     71  C   UNL A   1      41.049  28.345  27.570  1.00  0.00     0.009 A 
ATOM     72  C   UNL A   1      39.632  25.942  27.710  1.00  0.00     0.001 A 
ATOM     73  C   UNL A   1      41.086  27.444  26.502  1.00  0.00     0.001 A 
ATOM     74  C   UNL A   1      40.386  26.241  26.577  1.00  0.00     0.000 A 
ENDBRANCH  50  69
BRANCH  62  75
ATOM     75  C   UNL A   1      43.837  28.449  34.711  1.00  0.00    -0.014 A 
ATOM     76  C   UNL A   1      45.184  28.696  34.400  1.00  0.00     0.009 A 
ATOM     77  C   UNL A   1      43.514  27.350  35.521  1.00  0.00     0.009 A 
ATOM     78  C   UNL A   1      46.186  27.855  34.883  1.00  0.00     0.001 A 
ATOM     79  C   UNL A   1      44.524  26.525  36.022  1.00  0.00     0.001 A 
ATOM     80  C   UNL A   1      45.856  26.773  35.696  1.00  0.00     0.000 A 
ENDBRANCH  62  75
ENDBRANCH  36  37
ENDBRANCH  28  31
ENDBRANCH  26  27
ENDBRANCH   1  26
TORSDOF 12
ENDMDL
MODEL 2
REMARK VINA RESULT:     -12.7      4.662      9.857
REMARK SMILES Cc1ccc2c(=O)c3cccc(CC(=O)NCCCCNC(=O)c4ccc(-c5c6nc(c(-c7ccccc7)c7ccc([nH]7)c(-c7ccccc7)c7nc(c(-c8ccccc8)c8ccc5[nH]8)C=C7)C=C6)cc4)c3oc2c1C
REMARK SMILES IDX 19 1 18 2 17 3 16 4 14 5 15 6 13 8 12 9 1 10 2 11 3 12 75 13
REMARK SMILES IDX 4 14 74 15 76 16 5 17 73 18 6 19 72 20 7 21 8 22 9 23 11 24
REMARK SMILES IDX 10 25 20 26 21 27 22 28 23 30 24 31 25 32 71 33 26 34 70 35
REMARK SMILES IDX 27 36 28 37 29 38 64 39 30 40 69 41 63 42 65 43 31 44 68 45
REMARK SMILES IDX 62 46 61 47 32 49 54 50 39 51 53 52 40 53 43 54 52 55 66 56
REMARK SMILES IDX 41 57 42 58 51 60 67 61 44 62 33 63 34 64 38 65 35 66 37 67
REMARK SMILES IDX 36 68 55 69 56 70 60 71 57 72 59 73 58 74 45 75 46 76 50 77
REMARK SMILES IDX 47 78 49 79 48 80
REMARK H PARENT 16 7 21 29 65 48 43 59
REMARK Flexibility Score: inf
ROOT
ATOM      1  C   UNL A   1      38.051  19.756  24.577  1.00  0.00     0.023 C 
ENDROOT
BRANCH   1   2
ATOM      2  C   UNL A   1      37.098  20.953  24.603  1.00  0.00     0.023 C 
BRANCH   2   3
ATOM      3  C   UNL A   1      37.323  21.937  25.752  1.00  0.00     0.116 C 
BRANCH   3   4
ATOM      4  N   UNL A   1      36.109  22.201  26.498  1.00  0.00    -0.356 N 
ATOM      5  C   UNL A   1      35.246  23.255  26.403  1.00  0.00     0.224 C 
ATOM      6  O   UNL A   1      34.244  23.250  27.122  1.00  0.00    -0.275 OA
ATOM      7  H   UNL A   1      35.871  21.523  27.171  1.00  0.00     0.163 HD
BRANCH   5   8
ATOM      8  C   UNL A   1      35.481  24.360  25.383  1.00  0.00     0.139 C 
BRANCH   8   9
ATOM      9  C   UNL A   1      34.511  24.375  24.220  1.00  0.00     0.005 A 
ATOM     10  C   UNL A   1      31.810  30.675  26.729  1.00  0.00     0.045 C 
ATOM     11  C   UNL A   1      31.886  29.604  25.672  1.00  0.00    -0.044 A 
ATOM     12  C   UNL A   1      31.030  29.699  24.561  1.00  0.00     0.005 A 
ATOM     13  C   UNL A   1      32.781  28.515  25.771  1.00  0.00    -0.005 A 
ATOM     14  C   UNL A   1      31.050  28.731  23.559  1.00  0.00     0.016 A 
ATOM     15  C   UNL A   1      32.789  27.536  24.753  1.00  0.00     0.141 A 
ATOM     16  C   UNL A   1      33.743  28.368  26.924  1.00  0.00     0.049 C 
ATOM     17  C   UNL A   1      31.927  27.653  23.664  1.00  0.00     0.066 A 
ATOM     18  O   UNL A   1      33.675  26.492  24.894  1.00  0.00    -0.455 OA
ATOM     19  C   UNL A   1      31.942  26.609  22.631  1.00  0.00     0.200 A 
ATOM     20  C   UNL A   1      33.649  25.461  23.987  1.00  0.00     0.142 A 
ATOM     21  O   UNL A   1      31.248  26.689  21.625  1.00  0.00    -0.288 OA
ATOM     22  C   UNL A   1      32.820  25.457  22.866  1.00  0.00     0.066 A 
ATOM     23  C   UNL A   1      32.818  24.378  21.976  1.00  0.00     0.016 A 
ATOM     24  C   UNL A   1      34.469  23.274  23.343  1.00  0.00     0.008 A 
ATOM     25  C   UNL A   1      33.636  23.281  22.224  1.00  0.00     0.001 A 
ENDBRANCH   8   9
ENDBRANCH   5   8
ENDBRANCH   3   4
ENDBRANCH   2   3
ENDBRANCH   1   2
BRANCH   1  26
ATOM     26  C   UNL A   1      38.736  19.438  25.899  1.00  0.00     0.116 C 
BRANCH  26  27
ATOM     27  N   UNL A   1      40.053  18.828  25.752  1.00  0.00    -0.352 N 
ATOM     28  C   UNL A   1      41.284  19.381  26.015  1.00  0.00     0.251 C 
ATOM     29  H   UNL A   1      40.060  17.901  25.422  1.00  0.00     0.163 HD
ATOM     30  O   UNL A   1      42.312  18.762  25.760  1.00  0.00    -0.269 OA
BRANCH  28  31
ATOM     31  C   UNL A   1      41.361  20.757  26.554  1.00  0.00     0.039 A 
ATOM     32  C   UNL A   1      41.419  21.854  25.694  1.00  0.00     0.014 A 
ATOM     33  C   UNL A   1      41.446  20.943  27.937  1.00  0.00     0.014 A 
ATOM     34  C   UNL A   1      41.750  23.106  26.201  1.00  0.00     0.010 A 
ATOM     35  C   UNL A   1      41.697  22.218  28.452  1.00  0.00     0.010 A 
ATOM     36  C   UNL A   1      41.915  23.299  27.583  1.00  0.00    -0.014 A 
BRANCH  36  37
ATOM     37  C   UNL A   1      42.349  24.630  28.080  1.00  0.00     0.031 A 
ATOM     38  C   UNL A   1      43.811  24.984  28.158  1.00  0.00     0.074 A 
ATOM     39  C   UNL A   1      41.419  25.558  28.380  1.00  0.00     0.049 A 
ATOM     40  N   UNL A   1      44.363  26.124  28.496  1.00  0.00    -0.248 NA
ATOM     41  C   UNL A   1      44.782  23.930  27.817  1.00  0.00     0.031 C 
ATOM     42  C   UNL A   1      39.971  25.342  28.336  1.00  0.00     0.029 A 
ATOM     43  N   UNL A   1      41.550  26.874  28.744  1.00  0.00    -0.354 N 
ATOM     44  C   UNL A   1      45.735  25.920  28.422  1.00  0.00     0.074 A 
ATOM     45  C   UNL A   1      45.939  24.542  28.033  1.00  0.00     0.031 C 
ATOM     46  C   UNL A   1      39.349  26.500  28.605  1.00  0.00     0.029 A 
ATOM     47  C   UNL A   1      40.350  27.524  28.889  1.00  0.00     0.049 A 
ATOM     48  H   UNL A   1      42.421  27.310  28.887  1.00  0.00     0.167 HD
ATOM     49  C   UNL A   1      46.736  26.803  28.645  1.00  0.00     0.031 A 
ATOM     50  C   UNL A   1      40.075  28.803  29.213  1.00  0.00     0.031 A 
ATOM     51  C   UNL A   1      46.540  28.180  29.017  1.00  0.00     0.049 A 
ATOM     52  C   UNL A   1      41.204  29.764  29.447  1.00  0.00     0.074 A 
ATOM     53  C   UNL A   1      47.500  29.143  29.275  1.00  0.00     0.029 A 
ATOM     54  N   UNL A   1      45.307  28.790  29.170  1.00  0.00    -0.354 N 
ATOM     55  N   UNL A   1      42.495  29.549  29.373  1.00  0.00    -0.248 NA
ATOM     56  C   UNL A   1      40.842  31.145  29.796  1.00  0.00     0.031 C 
ATOM     57  C   UNL A   1      46.847  30.330  29.617  1.00  0.00     0.029 A 
ATOM     58  C   UNL A   1      45.482  30.118  29.519  1.00  0.00     0.049 A 
ATOM     59  H   UNL A   1      44.437  28.346  29.047  1.00  0.00     0.167 HD
ATOM     60  C   UNL A   1      43.098  30.768  29.654  1.00  0.00     0.074 A 
ATOM     61  C   UNL A   1      42.033  31.724  29.876  1.00  0.00     0.031 C 
ATOM     62  C   UNL A   1      44.417  31.063  29.728  1.00  0.00     0.031 A 
BRANCH  49  63
ATOM     63  C   UNL A   1      48.152  26.323  28.498  1.00  0.00    -0.014 A 
ATOM     64  C   UNL A   1      48.732  26.239  27.222  1.00  0.00     0.009 A 
ATOM     65  C   UNL A   1      48.871  25.849  29.605  1.00  0.00     0.009 A 
ATOM     66  C   UNL A   1      49.998  25.673  27.055  1.00  0.00     0.001 A 
ATOM     67  C   UNL A   1      50.147  25.303  29.438  1.00  0.00     0.001 A 
ATOM     68  C   UNL A   1      50.703  25.207  28.163  1.00  0.00     0.000 A 
ENDBRANCH  49  63
BRANCH  50  69
ATOM     69  C   UNL A   1      38.659  29.239  29.319  1.00  0.00    -0.014 A 
ATOM     70  C   UNL A   1      37.996  29.768  28.199  1.00  0.00     0.009 A 
ATOM     71  C   UNL A   1      37.976  29.168  30.541  1.00  0.00     0.009 A 
ATOM     72  C   UNL A   1      36.686  30.235  28.305  1.00  0.00     0.001 A 
ATOM     73  C   UNL A   1      36.653  29.608  30.637  1.00  0.00     0.001 A 
ATOM     74  C   UNL A   1      36.013  30.149  29.523  1.00  0.00     0.000 A 
ENDBRANCH  50  69
BRANCH  62  75
ATOM     75  C   UNL A   1      44.803  32.480  30.038  1.00  0.00    -0.014 A 
ATOM     76  C   UNL A   1      44.961  32.882  31.374  1.00  0.00     0.009 A 
ATOM     77  C   UNL A   1      44.916  33.439  29.020  1.00  0.00     0.009 A 
ATOM     78  C   UNL A   1      45.218  34.217  31.686  1.00  0.00     0.001 A 
ATOM     79  C   UNL A   1      45.198  34.770  29.335  1.00  0.00     0.001 A 
ATOM     80  C   UNL A   1      45.341  35.158  30.666  1.00  0.00     0.000 A 
ENDBRANCH  62  75
ENDBRANCH  36  37
ENDBRANCH  28  31
ENDBRANCH  26  27
ENDBRANCH   1  26
TORSDOF 12
ENDMDL
MODEL 3
REMARK VINA RESULT:     -12.6      4.293      7.947
REMARK SMILES Cc1ccc2c(=O)c3cccc(CC(=O)NCCCCNC(=O)c4ccc(-c5c6nc(c(-c7ccccc7)c7ccc([nH]7)c(-c7ccccc7)c7nc(c(-c8ccccc8)c8ccc5[nH]8)C=C7)C=C6)cc4)c3oc2c1C
REMARK SMILES IDX 19 1 18 2 17 3 16 4 14 5 15 6 13 8 12 9 1 10 2 11 3 12 75 13
REMARK SMILES IDX 4 14 74 15 76 16 5 17 73 18 6 19 72 20 7 21 8 22 9 23 11 24
REMARK SMILES IDX 10 25 20 26 21 27 22 28 23 30 24 31 25 32 71 33 26 34 70 35
REMARK SMILES IDX 27 36 28 37 29 38 64 39 30 40 69 41 63 42 65 43 31 44 68 45
REMARK SMILES IDX 62 46 61 47 32 49 54 50 39 51 53 52 40 53 43 54 52 55 66 56
REMARK SMILES IDX 41 57 42 58 51 60 67 61 44 62 33 63 34 64 38 65 35 66 37 67
REMARK SMILES IDX 36 68 55 69 56 70 60 71 57 72 59 73 58 74 45 75 46 76 50 77
REMARK SMILES IDX 47 78 49 79 48 80
REMARK H PARENT 16 7 21 29 65 48 43 59
REMARK Flexibility Score: inf
ROOT
ATOM      1  C   UNL A   1      33.846  34.411  32.741  1.00  0.00     0.023 C 
ENDROOT
BRANCH   1   2
ATOM      2  C   UNL A   1      34.676  34.642  34.005  1.00  0.00     0.023 C 
BRANCH   2   3
ATOM      3  C   UNL A   1      35.960  33.816  34.100  1.00  0.00     0.116 C 
BRANCH   3   4
ATOM      4  N   UNL A   1      37.141  34.645  34.229  1.00  0.00    -0.356 N 
ATOM      5  C   UNL A   1      38.123  34.610  35.178  1.00  0.00     0.224 C 
ATOM      6  O   UNL A   1      39.066  35.397  35.064  1.00  0.00    -0.275 OA
ATOM      7  H   UNL A   1      37.253  35.332  33.533  1.00  0.00     0.163 HD
BRANCH   5   8
ATOM      8  C   UNL A   1      38.086  33.578  36.295  1.00  0.00     0.139 C 
BRANCH   8   9
ATOM      9  C   UNL A   1      39.431  32.990  36.668  1.00  0.00     0.005 A 
ATOM     10  C   UNL A   1      38.400  27.793  31.647  1.00  0.00     0.045 C 
ATOM     11  C   UNL A   1      39.271  28.489  32.659  1.00  0.00    -0.044 A 
ATOM     12  C   UNL A   1      40.549  27.965  32.916  1.00  0.00     0.005 A 
ATOM     13  C   UNL A   1      38.838  29.640  33.356  1.00  0.00    -0.005 A 
ATOM     14  C   UNL A   1      41.393  28.562  33.850  1.00  0.00     0.016 A 
ATOM     15  C   UNL A   1      39.698  30.234  34.305  1.00  0.00     0.141 A 
ATOM     16  C   UNL A   1      37.488  30.267  33.109  1.00  0.00     0.049 C 
ATOM     17  C   UNL A   1      40.960  29.691  34.542  1.00  0.00     0.066 A 
ATOM     18  O   UNL A   1      39.232  31.351  34.961  1.00  0.00    -0.455 OA
ATOM     19  C   UNL A   1      41.825  30.318  35.550  1.00  0.00     0.200 A 
ATOM     20  C   UNL A   1      39.985  31.904  35.967  1.00  0.00     0.142 A 
ATOM     21  O   UNL A   1      42.963  29.918  35.759  1.00  0.00    -0.288 OA
ATOM     22  C   UNL A   1      41.256  31.440  36.306  1.00  0.00     0.066 A 
ATOM     23  C   UNL A   1      41.982  32.026  37.348  1.00  0.00     0.016 A 
ATOM     24  C   UNL A   1      40.151  33.543  37.744  1.00  0.00     0.008 A 
ATOM     25  C   UNL A   1      41.422  33.071  38.074  1.00  0.00     0.001 A 
ENDBRANCH   8   9
ENDBRANCH   5   8
ENDBRANCH   3   4
ENDBRANCH   2   3
ENDBRANCH   1   2
BRANCH   1  26
ATOM     26  C   UNL A   1      33.864  35.550  31.730  1.00  0.00     0.116 C 
BRANCH  26  27
ATOM     27  N   UNL A   1      33.038  35.310  30.553  1.00  0.00    -0.352 N 
ATOM     28  C   UNL A   1      33.319  34.529  29.457  1.00  0.00     0.251 C 
ATOM     29  H   UNL A   1      32.166  35.766  30.542  1.00  0.00     0.163 HD
ATOM     30  O   UNL A   1      32.549  34.493  28.503  1.00  0.00    -0.269 OA
BRANCH  28  31
ATOM     31  C   UNL A   1      34.592  33.774  29.412  1.00  0.00     0.039 A 
ATOM     32  C   UNL A   1      34.748  32.602  30.151  1.00  0.00     0.014 A 
ATOM     33  C   UNL A   1      35.662  34.288  28.674  1.00  0.00     0.014 A 
ATOM     34  C   UNL A   1      36.016  32.052  30.305  1.00  0.00     0.010 A 
ATOM     35  C   UNL A   1      36.920  33.685  28.764  1.00  0.00     0.010 A 
ATOM     36  C   UNL A   1      37.121  32.599  29.631  1.00  0.00    -0.014 A 
BRANCH  36  37
ATOM     37  C   UNL A   1      38.473  32.037  29.884  1.00  0.00     0.031 A 
ATOM     38  C   UNL A   1      39.437  32.733  30.808  1.00  0.00     0.074 A 
ATOM     39  C   UNL A   1      38.803  30.846  29.347  1.00  0.00     0.049 A 
ATOM     40  N   UNL A   1      40.626  32.344  31.199  1.00  0.00    -0.248 NA
ATOM     41  C   UNL A   1      39.022  34.031  31.366  1.00  0.00     0.031 C 
ATOM     42  C   UNL A   1      37.954  30.067  28.443  1.00  0.00     0.029 A 
ATOM     43  N   UNL A   1      39.920  30.067  29.511  1.00  0.00    -0.354 N 
ATOM     44  C   UNL A   1      41.102  33.349  32.031  1.00  0.00     0.074 A 
ATOM     45  C   UNL A   1      40.089  34.381  32.073  1.00  0.00     0.031 C 
ATOM     46  C   UNL A   1      38.556  28.897  28.178  1.00  0.00     0.029 A 
ATOM     47  C   UNL A   1      39.851  28.865  28.850  1.00  0.00     0.049 A 
ATOM     48  H   UNL A   1      40.696  30.343  30.050  1.00  0.00     0.167 HD
ATOM     49  C   UNL A   1      42.271  33.404  32.711  1.00  0.00     0.031 A 
ATOM     50  C   UNL A   1      40.728  27.844  28.788  1.00  0.00     0.031 A 
ATOM     51  C   UNL A   1      43.276  32.374  32.687  1.00  0.00     0.049 A 
ATOM     52  C   UNL A   1      42.014  27.926  29.559  1.00  0.00     0.074 A 
ATOM     53  C   UNL A   1      44.497  32.353  33.338  1.00  0.00     0.029 A 
ATOM     54  N   UNL A   1      43.171  31.182  31.990  1.00  0.00    -0.354 N 
ATOM     55  N   UNL A   1      42.444  28.887  30.338  1.00  0.00    -0.248 NA
ATOM     56  C   UNL A   1      42.929  26.781  29.452  1.00  0.00     0.031 C 
ATOM     57  C   UNL A   1      45.148  31.162  33.008  1.00  0.00     0.029 A 
ATOM     58  C   UNL A   1      44.307  30.419  32.196  1.00  0.00     0.049 A 
ATOM     59  H   UNL A   1      42.403  30.918  31.434  1.00  0.00     0.167 HD
ATOM     60  C   UNL A   1      43.672  28.459  30.824  1.00  0.00     0.074 A 
ATOM     61  C   UNL A   1      43.907  27.142  30.272  1.00  0.00     0.031 C 
ATOM     62  C   UNL A   1      44.528  29.106  31.649  1.00  0.00     0.031 A 
BRANCH  49  63
ATOM     63  C   UNL A   1      42.548  34.619  33.550  1.00  0.00    -0.014 A 
ATOM     64  C   UNL A   1      43.090  35.770  32.956  1.00  0.00     0.009 A 
ATOM     65  C   UNL A   1      42.378  34.588  34.942  1.00  0.00     0.009 A 
ATOM     66  C   UNL A   1      43.474  36.859  33.741  1.00  0.00     0.001 A 
ATOM     67  C   UNL A   1      42.742  35.688  35.723  1.00  0.00     0.001 A 
ATOM     68  C   UNL A   1      43.298  36.817  35.123  1.00  0.00     0.000 A 
ENDBRANCH  49  63
BRANCH  50  69
ATOM     69  C   UNL A   1      40.398  26.649  27.968  1.00  0.00    -0.014 A 
ATOM     70  C   UNL A   1      39.630  25.607  28.513  1.00  0.00     0.009 A 
ATOM     71  C   UNL A   1      40.877  26.525  26.656  1.00  0.00     0.009 A 
ATOM     72  C   UNL A   1      39.367  24.457  27.770  1.00  0.00     0.001 A 
ATOM     73  C   UNL A   1      40.586  25.385  25.903  1.00  0.00     0.001 A 
ATOM     74  C   UNL A   1      39.840  24.349  26.463  1.00  0.00     0.000 A 
ENDBRANCH  50  69
BRANCH  62  75
ATOM     75  C   UNL A   1      45.797  28.402  32.036  1.00  0.00    -0.014 A 
ATOM     76  C   UNL A   1      46.936  28.526  31.224  1.00  0.00     0.009 A 
ATOM     77  C   UNL A   1      45.840  27.543  33.144  1.00  0.00     0.009 A 
ATOM     78  C   UNL A   1      48.091  27.799  31.511  1.00  0.00     0.001 A 
ATOM     79  C   UNL A   1      47.007  26.836  33.442  1.00  0.00     0.001 A 
ATOM     80  C   UNL A   1      48.127  26.958  32.621  1.00  0.00     0.000 A 
ENDBRANCH  62  75
ENDBRANCH  36  37
ENDBRANCH  28  31
ENDBRANCH  26  27
ENDBRANCH   1  26
TORSDOF 12
ENDMDL
