MODEL 1
REMARK VINA RESULT:     -11.0      0.000      0.000
REMARK SMILES O=C(NCCCCNC(=O)c1cc(S(=O)(=O)C/C(Cl)=C/Cl)ccc1Cl)c1ccc(-c2c3nc(c(-c4ccccc4)c4ccc([nH]4)c(-c4ccccc4)c4nc(c(-c5ccccc5)c5ccc2[nH]5)C=C4)C=C3)cc1
REMARK SMILES IDX 6 1 5 2 4 3 3 4 1 5 2 6 26 8 27 9 73 10 28 11 72 12 29 13
REMARK SMILES IDX 30 14 31 15 66 16 32 17 71 18 65 19 67 20 33 21 70 22 64 23
REMARK SMILES IDX 63 24 34 26 56 27 41 28 55 29 42 30 45 31 54 32 68 33 43 34
REMARK SMILES IDX 44 35 53 37 69 38 46 39 35 40 36 41 40 42 37 43 39 44 38 45
REMARK SMILES IDX 57 46 58 47 62 48 59 49 61 50 60 51 47 52 48 53 52 54 49 55
REMARK SMILES IDX 51 56 50 57 7 58 8 59 9 60 10 62 11 63 12 64 24 65 13 66
REMARK SMILES IDX 23 67 25 68 22 69 14 70 15 71 16 72 17 73 18 74 19 75 20 76
REMARK SMILES IDX 21 77
REMARK H PARENT 3 7 67 25 45 36 8 61
REMARK Flexibility Score: inf
ROOT
ATOM      1  C   UNL A   1      36.393  20.427  25.126  1.00  0.00     0.023 C 
ENDROOT
BRANCH   1   2
ATOM      2  C   UNL A   1      37.789  19.969  24.708  1.00  0.00     0.023 C 
BRANCH   2   3
ATOM      3  C   UNL A   1      38.887  20.193  25.740  1.00  0.00     0.116 C 
BRANCH   3   4
ATOM      4  N   UNL A   1      39.890  19.138  25.751  1.00  0.00    -0.352 N 
ATOM      5  O   UNL A   1      41.952  18.223  25.816  1.00  0.00    -0.269 OA
ATOM      6  C   UNL A   1      41.246  19.214  25.975  1.00  0.00     0.251 C 
ATOM      7  H   UNL A   1      39.547  18.233  25.571  1.00  0.00     0.163 HD
BRANCH   6   8
ATOM      8  C   UNL A   1      41.859  20.501  26.367  1.00  0.00     0.039 A 
ATOM      9  C   UNL A   1      42.054  20.818  27.712  1.00  0.00     0.014 A 
ATOM     10  C   UNL A   1      42.223  21.412  25.372  1.00  0.00     0.014 A 
ATOM     11  C   UNL A   1      42.432  22.107  28.067  1.00  0.00     0.010 A 
ATOM     12  C   UNL A   1      42.697  22.678  25.731  1.00  0.00     0.010 A 
ATOM     13  C   UNL A   1      42.755  23.056  27.081  1.00  0.00    -0.014 A 
BRANCH  13  14
ATOM     14  C   UNL A   1      43.160  24.425  27.492  1.00  0.00     0.031 A 
ATOM     15  C   UNL A   1      44.597  24.868  27.414  1.00  0.00     0.074 A 
ATOM     16  C   UNL A   1      42.213  25.292  27.896  1.00  0.00     0.049 A 
ATOM     17  N   UNL A   1      45.111  26.043  27.680  1.00  0.00    -0.248 NA
ATOM     18  C   UNL A   1      45.586  23.865  26.991  1.00  0.00     0.031 C 
ATOM     19  C   UNL A   1      40.784  24.987  28.013  1.00  0.00     0.029 A 
ATOM     20  N   UNL A   1      42.301  26.613  28.254  1.00  0.00    -0.354 N 
ATOM     21  C   UNL A   1      46.482  25.913  27.486  1.00  0.00     0.074 A 
ATOM     22  C   UNL A   1      46.722  24.539  27.101  1.00  0.00     0.031 C 
ATOM     23  C   UNL A   1      40.123  26.104  28.354  1.00  0.00     0.029 A 
ATOM     24  C   UNL A   1      41.085  27.184  28.539  1.00  0.00     0.049 A 
ATOM     25  H   UNL A   1      43.153  27.103  28.302  1.00  0.00     0.167 HD
ATOM     26  C   UNL A   1      47.451  26.852  27.612  1.00  0.00     0.031 A 
ATOM     27  C   UNL A   1      40.774  28.439  28.913  1.00  0.00     0.031 A 
ATOM     28  C   UNL A   1      47.212  28.223  27.986  1.00  0.00     0.049 A 
ATOM     29  C   UNL A   1      41.869  29.452  29.067  1.00  0.00     0.074 A 
ATOM     30  C   UNL A   1      48.126  29.257  28.101  1.00  0.00     0.029 A 
ATOM     31  N   UNL A   1      45.971  28.750  28.309  1.00  0.00    -0.354 N 
ATOM     32  N   UNL A   1      43.153  29.320  28.845  1.00  0.00    -0.248 NA
ATOM     33  C   UNL A   1      41.466  30.789  29.520  1.00  0.00     0.031 C 
ATOM     34  C   UNL A   1      47.445  30.397  28.543  1.00  0.00     0.029 A 
ATOM     35  C   UNL A   1      46.099  30.087  28.648  1.00  0.00     0.049 A 
ATOM     36  H   UNL A   1      45.125  28.247  28.299  1.00  0.00     0.167 HD
ATOM     37  C   UNL A   1      43.710  30.564  29.105  1.00  0.00     0.074 A 
ATOM     38  C   UNL A   1      42.622  31.439  29.488  1.00  0.00     0.031 C 
ATOM     39  C   UNL A   1      45.009  30.946  29.030  1.00  0.00     0.031 A 
BRANCH  26  40
ATOM     40  C   UNL A   1      48.872  26.417  27.379  1.00  0.00    -0.014 A 
ATOM     41  C   UNL A   1      49.691  25.978  28.431  1.00  0.00     0.009 A 
ATOM     42  C   UNL A   1      49.390  26.416  26.073  1.00  0.00     0.009 A 
ATOM     43  C   UNL A   1      51.009  25.585  28.187  1.00  0.00     0.001 A 
ATOM     44  C   UNL A   1      50.700  25.997  25.828  1.00  0.00     0.001 A 
ATOM     45  C   UNL A   1      51.511  25.591  26.886  1.00  0.00     0.000 A 
ENDBRANCH  26  40
BRANCH  27  46
ATOM     46  C   UNL A   1      39.355  28.804  29.156  1.00  0.00    -0.014 A 
ATOM     47  C   UNL A   1      38.782  28.625  30.424  1.00  0.00     0.009 A 
ATOM     48  C   UNL A   1      38.573  29.350  28.127  1.00  0.00     0.009 A 
ATOM     49  C   UNL A   1      37.448  28.970  30.651  1.00  0.00     0.001 A 
ATOM     50  C   UNL A   1      37.248  29.720  28.363  1.00  0.00     0.001 A 
ATOM     51  C   UNL A   1      36.685  29.522  29.623  1.00  0.00     0.000 A 
ENDBRANCH  27  46
BRANCH  39  52
ATOM     52  C   UNL A   1      45.312  32.387  29.328  1.00  0.00    -0.014 A 
ATOM     53  C   UNL A   1      45.272  33.367  28.322  1.00  0.00     0.009 A 
ATOM     54  C   UNL A   1      45.626  32.772  30.640  1.00  0.00     0.009 A 
ATOM     55  C   UNL A   1      45.580  34.696  28.621  1.00  0.00     0.001 A 
ATOM     56  C   UNL A   1      45.905  34.106  30.940  1.00  0.00     0.001 A 
ATOM     57  C   UNL A   1      45.892  35.064  29.929  1.00  0.00     0.000 A 
ENDBRANCH  39  52
ENDBRANCH  13  14
ENDBRANCH   6   8
ENDBRANCH   3   4
ENDBRANCH   2   3
ENDBRANCH   1   2
BRANCH   1  58
ATOM     58  C   UNL A   1      36.319  21.831  25.716  1.00  0.00     0.116 C 
BRANCH  58  59
ATOM     59  N   UNL A   1      35.285  21.964  26.727  1.00  0.00    -0.352 N 
ATOM     60  C   UNL A   1      33.960  22.272  26.548  1.00  0.00     0.252 C 
ATOM     61  H   UNL A   1      35.570  21.813  27.657  1.00  0.00     0.163 HD
ATOM     62  O   UNL A   1      33.200  22.372  27.504  1.00  0.00    -0.269 OA
BRANCH  60  63
ATOM     63  C   UNL A   1      33.462  22.554  25.193  1.00  0.00     0.059 A 
ATOM     64  C   UNL A   1      33.539  23.879  24.749  1.00  0.00     0.035 A 
ATOM     65  C   UNL A   1      32.917  21.564  24.371  1.00  0.00     0.053 A 
ATOM     66  C   UNL A   1      33.096  24.208  23.463  1.00  0.00     0.068 A 
ATOM     67  C   UNL A   1      32.498  21.899  23.079  1.00  0.00     0.022 A 
ATOM     68  Cl  UNL A   1      32.706  19.930  24.887  1.00  0.00    -0.083 Cl
ATOM     69  C   UNL A   1      32.580  23.221  22.623  1.00  0.00     0.022 A 
BRANCH  66  70
ATOM     70  S   UNL A   1      33.176  25.922  22.996  1.00  0.00     0.183 S 
ATOM     71  O   UNL A   1      33.947  26.561  24.050  1.00  0.00    -0.223 OA
ATOM     72  O   UNL A   1      33.653  25.949  21.628  1.00  0.00    -0.223 OA
BRANCH  70  73
ATOM     73  C   UNL A   1      31.552  26.642  23.037  1.00  0.00     0.191 C 
BRANCH  73  74
ATOM     74  C   UNL A   1      31.363  27.608  24.172  1.00  0.00     0.045 C 
ATOM     75  Cl  UNL A   1      31.045  26.850  25.707  1.00  0.00    -0.087 Cl
ATOM     76  C   UNL A   1      31.547  28.932  24.083  1.00  0.00     0.097 C 
ATOM     77  Cl  UNL A   1      31.412  30.052  25.376  1.00  0.00    -0.092 Cl
ENDBRANCH  73  74
ENDBRANCH  70  73
ENDBRANCH  66  70
ENDBRANCH  60  63
ENDBRANCH  58  59
ENDBRANCH   1  58
TORSDOF 14
ENDMDL
MODEL 2
REMARK VINA RESULT:     -10.9      2.351      4.147
REMARK SMILES O=C(NCCCCNC(=O)c1cc(S(=O)(=O)C/C(Cl)=C/Cl)ccc1Cl)c1ccc(-c2c3nc(c(-c4ccccc4)c4ccc([nH]4)c(-c4ccccc4)c4nc(c(-c5ccccc5)c5ccc2[nH]5)C=C4)C=C3)cc1
REMARK SMILES IDX 6 1 5 2 4 3 3 4 1 5 2 6 26 8 27 9 73 10 28 11 72 12 29 13
REMARK SMILES IDX 30 14 31 15 66 16 32 17 71 18 65 19 67 20 33 21 70 22 64 23
REMARK SMILES IDX 63 24 34 26 56 27 41 28 55 29 42 30 45 31 54 32 68 33 43 34
REMARK SMILES IDX 44 35 53 37 69 38 46 39 35 40 36 41 40 42 37 43 39 44 38 45
REMARK SMILES IDX 57 46 58 47 62 48 59 49 61 50 60 51 47 52 48 53 52 54 49 55
REMARK SMILES IDX 51 56 50 57 7 58 8 59 9 60 10 62 11 63 12 64 24 65 13 66
REMARK SMILES IDX 23 67 25 68 22 69 14 70 15 71 16 72 17 73 18 74 19 75 20 76
REMARK SMILES IDX 21 77
REMARK H PARENT 3 7 67 25 45 36 8 61
REMARK Flexibility Score: inf
ROOT
ATOM      1  C   UNL A   1      38.703  22.642  26.360  1.00  0.00     0.023 C 
ENDROOT
BRANCH   1   2
ATOM      2  C   UNL A   1      39.025  21.362  25.592  1.00  0.00     0.023 C 
BRANCH   2   3
ATOM      3  C   UNL A   1      39.421  20.167  26.451  1.00  0.00     0.116 C 
BRANCH   3   4
ATOM      4  N   UNL A   1      40.560  19.430  25.921  1.00  0.00    -0.352 N 
ATOM      5  O   UNL A   1      42.682  19.084  25.236  1.00  0.00    -0.269 OA
ATOM      6  C   UNL A   1      41.883  19.796  25.836  1.00  0.00     0.251 C 
ATOM      7  H   UNL A   1      40.351  18.534  25.571  1.00  0.00     0.163 HD
BRANCH   6   8
ATOM      8  C   UNL A   1      42.337  21.072  26.432  1.00  0.00     0.039 A 
ATOM      9  C   UNL A   1      42.410  21.227  27.817  1.00  0.00     0.014 A 
ATOM     10  C   UNL A   1      42.672  22.135  25.589  1.00  0.00     0.014 A 
ATOM     11  C   UNL A   1      42.631  22.487  28.357  1.00  0.00     0.010 A 
ATOM     12  C   UNL A   1      42.991  23.381  26.138  1.00  0.00     0.010 A 
ATOM     13  C   UNL A   1      42.921  23.582  27.526  1.00  0.00    -0.014 A 
BRANCH  13  14
ATOM     14  C   UNL A   1      43.159  24.917  28.133  1.00  0.00     0.031 A 
ATOM     15  C   UNL A   1      44.549  25.375  28.487  1.00  0.00     0.074 A 
ATOM     16  C   UNL A   1      42.112  25.742  28.326  1.00  0.00     0.049 A 
ATOM     17  N   UNL A   1      44.936  26.529  28.972  1.00  0.00    -0.248 NA
ATOM     18  C   UNL A   1      45.645  24.417  28.278  1.00  0.00     0.031 C 
ATOM     19  C   UNL A   1      40.716  25.418  28.022  1.00  0.00     0.029 A 
ATOM     20  N   UNL A   1      42.061  27.030  28.792  1.00  0.00    -0.354 N 
ATOM     21  C   UNL A   1      46.311  26.425  29.153  1.00  0.00     0.074 A 
ATOM     22  C   UNL A   1      46.687  25.089  28.746  1.00  0.00     0.031 C 
ATOM     23  C   UNL A   1      39.955  26.499  28.251  1.00  0.00     0.029 A 
ATOM     24  C   UNL A   1      40.798  27.568  28.774  1.00  0.00     0.049 A 
ATOM     25  H   UNL A   1      42.853  27.521  29.109  1.00  0.00     0.167 HD
ATOM     26  C   UNL A   1      47.181  27.358  29.611  1.00  0.00     0.031 A 
ATOM     27  C   UNL A   1      40.359  28.786  29.141  1.00  0.00     0.031 A 
ATOM     28  C   UNL A   1      46.809  28.693  30.006  1.00  0.00     0.049 A 
ATOM     29  C   UNL A   1      41.341  29.792  29.666  1.00  0.00     0.074 A 
ATOM     30  C   UNL A   1      47.627  29.721  30.446  1.00  0.00     0.029 A 
ATOM     31  N   UNL A   1      45.513  29.183  30.014  1.00  0.00    -0.354 N 
ATOM     32  N   UNL A   1      42.640  29.687  29.796  1.00  0.00    -0.248 NA
ATOM     33  C   UNL A   1      40.790  31.085  30.090  1.00  0.00     0.031 C 
ATOM     34  C   UNL A   1      46.817  30.816  30.767  1.00  0.00     0.029 A 
ATOM     35  C   UNL A   1      45.504  30.489  30.474  1.00  0.00     0.049 A 
ATOM     36  H   UNL A   1      44.716  28.676  29.735  1.00  0.00     0.167 HD
ATOM     37  C   UNL A   1      43.068  30.910  30.292  1.00  0.00     0.074 A 
ATOM     38  C   UNL A   1      41.891  31.744  30.426  1.00  0.00     0.031 C 
ATOM     39  C   UNL A   1      44.326  31.307  30.605  1.00  0.00     0.031 A 
BRANCH  26  40
ATOM     40  C   UNL A   1      48.624  26.954  29.745  1.00  0.00    -0.014 A 
ATOM     41  C   UNL A   1      49.113  26.347  30.912  1.00  0.00     0.009 A 
ATOM     42  C   UNL A   1      49.503  27.156  28.668  1.00  0.00     0.009 A 
ATOM     43  C   UNL A   1      50.460  25.986  31.012  1.00  0.00     0.001 A 
ATOM     44  C   UNL A   1      50.842  26.770  28.760  1.00  0.00     0.001 A 
ATOM     45  C   UNL A   1      51.321  26.194  29.936  1.00  0.00     0.000 A 
ENDBRANCH  26  40
BRANCH  27  46
ATOM     46  C   UNL A   1      38.918  29.120  29.011  1.00  0.00    -0.014 A 
ATOM     47  C   UNL A   1      38.401  29.574  27.789  1.00  0.00     0.009 A 
ATOM     48  C   UNL A   1      38.050  28.969  30.104  1.00  0.00     0.009 A 
ATOM     49  C   UNL A   1      37.045  29.888  27.669  1.00  0.00     0.001 A 
ATOM     50  C   UNL A   1      36.690  29.256  29.974  1.00  0.00     0.001 A 
ATOM     51  C   UNL A   1      36.191  29.723  28.759  1.00  0.00     0.000 A 
ENDBRANCH  27  46
BRANCH  39  52
ATOM     52  C   UNL A   1      44.494  32.722  31.083  1.00  0.00    -0.014 A 
ATOM     53  C   UNL A   1      44.707  33.778  30.182  1.00  0.00     0.009 A 
ATOM     54  C   UNL A   1      44.421  33.003  32.456  1.00  0.00     0.009 A 
ATOM     55  C   UNL A   1      44.882  35.081  30.653  1.00  0.00     0.001 A 
ATOM     56  C   UNL A   1      44.568  34.310  32.920  1.00  0.00     0.001 A 
ATOM     57  C   UNL A   1      44.809  35.346  32.020  1.00  0.00     0.000 A 
ENDBRANCH  39  52
ENDBRANCH  13  14
ENDBRANCH   6   8
ENDBRANCH   3   4
ENDBRANCH   2   3
ENDBRANCH   1   2
BRANCH   1  58
ATOM     58  C   UNL A   1      37.483  23.409  25.863  1.00  0.00     0.116 C 
BRANCH  58  59
ATOM     59  N   UNL A   1      37.349  23.382  24.417  1.00  0.00    -0.352 N 
ATOM     60  C   UNL A   1      36.240  23.066  23.674  1.00  0.00     0.252 C 
ATOM     61  H   UNL A   1      38.156  23.620  23.906  1.00  0.00     0.163 HD
ATOM     62  O   UNL A   1      36.279  23.064  22.450  1.00  0.00    -0.269 OA
BRANCH  60  63
ATOM     63  C   UNL A   1      35.005  22.657  24.361  1.00  0.00     0.059 A 
ATOM     64  C   UNL A   1      34.635  21.311  24.259  1.00  0.00     0.035 A 
ATOM     65  C   UNL A   1      34.210  23.555  25.079  1.00  0.00     0.053 A 
ATOM     66  C   UNL A   1      33.478  20.856  24.903  1.00  0.00     0.068 A 
ATOM     67  C   UNL A   1      33.069  23.086  25.739  1.00  0.00     0.022 A 
ATOM     68  Cl  UNL A   1      34.556  25.244  25.170  1.00  0.00    -0.083 Cl
ATOM     69  C   UNL A   1      32.696  21.739  25.648  1.00  0.00     0.022 A 
BRANCH  66  70
ATOM     70  S   UNL A   1      33.048  19.147  24.678  1.00  0.00     0.183 S 
ATOM     71  O   UNL A   1      32.452  18.741  25.940  1.00  0.00    -0.223 OA
ATOM     72  O   UNL A   1      32.274  19.080  23.454  1.00  0.00    -0.223 OA
BRANCH  70  73
ATOM     73  C   UNL A   1      34.517  18.170  24.465  1.00  0.00     0.191 C 
BRANCH  73  74
ATOM     74  C   UNL A   1      34.340  16.737  24.879  1.00  0.00     0.045 C 
ATOM     75  Cl  UNL A   1      35.769  16.009  25.555  1.00  0.00    -0.087 Cl
ATOM     76  C   UNL A   1      33.171  16.082  24.871  1.00  0.00     0.097 C 
ATOM     77  Cl  UNL A   1      32.921  14.472  25.408  1.00  0.00    -0.092 Cl
ENDBRANCH  73  74
ENDBRANCH  70  73
ENDBRANCH  66  70
ENDBRANCH  60  63
ENDBRANCH  58  59
ENDBRANCH   1  58
TORSDOF 14
ENDMDL
MODEL 3
REMARK VINA RESULT:     -10.9      1.221      6.093
REMARK SMILES O=C(NCCCCNC(=O)c1cc(S(=O)(=O)C/C(Cl)=C/Cl)ccc1Cl)c1ccc(-c2c3nc(c(-c4ccccc4)c4ccc([nH]4)c(-c4ccccc4)c4nc(c(-c5ccccc5)c5ccc2[nH]5)C=C4)C=C3)cc1
REMARK SMILES IDX 6 1 5 2 4 3 3 4 1 5 2 6 26 8 27 9 73 10 28 11 72 12 29 13
REMARK SMILES IDX 30 14 31 15 66 16 32 17 71 18 65 19 67 20 33 21 70 22 64 23
REMARK SMILES IDX 63 24 34 26 56 27 41 28 55 29 42 30 45 31 54 32 68 33 43 34
REMARK SMILES IDX 44 35 53 37 69 38 46 39 35 40 36 41 40 42 37 43 39 44 38 45
REMARK SMILES IDX 57 46 58 47 62 48 59 49 61 50 60 51 47 52 48 53 52 54 49 55
REMARK SMILES IDX 51 56 50 57 7 58 8 59 9 60 10 62 11 63 12 64 24 65 13 66
REMARK SMILES IDX 23 67 25 68 22 69 14 70 15 71 16 72 17 73 18 74 19 75 20 76
REMARK SMILES IDX 21 77
REMARK H PARENT 3 7 67 25 45 36 8 61
REMARK Flexibility Score: inf
ROOT
ATOM      1  C   UNL A   1      36.358  20.665  25.147  1.00  0.00     0.023 C 
ENDROOT
BRANCH   1   2
ATOM      2  C   UNL A   1      37.772  20.279  24.719  1.00  0.00     0.023 C 
BRANCH   2   3
ATOM      3  C   UNL A   1      38.864  20.547  25.749  1.00  0.00     0.116 C 
BRANCH   3   4
ATOM      4  N   UNL A   1      39.891  19.515  25.779  1.00  0.00    -0.352 N 
ATOM      5  O   UNL A   1      41.966  18.645  25.948  1.00  0.00    -0.269 OA
ATOM      6  C   UNL A   1      41.224  19.609  26.104  1.00  0.00     0.251 C 
ATOM      7  H   UNL A   1      39.585  18.613  25.530  1.00  0.00     0.163 HD
BRANCH   6   8
ATOM      8  C   UNL A   1      41.774  20.888  26.604  1.00  0.00     0.039 A 
ATOM      9  C   UNL A   1      41.818  21.161  27.972  1.00  0.00     0.014 A 
ATOM     10  C   UNL A   1      42.232  21.837  25.686  1.00  0.00     0.014 A 
ATOM     11  C   UNL A   1      42.138  22.440  28.409  1.00  0.00     0.010 A 
ATOM     12  C   UNL A   1      42.647  23.094  26.135  1.00  0.00     0.010 A 
ATOM     13  C   UNL A   1      42.553  23.425  27.496  1.00  0.00    -0.014 A 
BRANCH  13  14
ATOM     14  C   UNL A   1      42.892  24.783  27.994  1.00  0.00     0.031 A 
ATOM     15  C   UNL A   1      41.819  25.807  28.255  1.00  0.00     0.074 A 
ATOM     16  C   UNL A   1      44.179  25.079  28.257  1.00  0.00     0.049 A 
ATOM     17  N   UNL A   1      41.939  27.018  28.741  1.00  0.00    -0.248 NA
ATOM     18  C   UNL A   1      40.437  25.432  27.921  1.00  0.00     0.031 C 
ATOM     19  C   UNL A   1      45.312  24.173  28.051  1.00  0.00     0.029 A 
ATOM     20  N   UNL A   1      44.749  26.210  28.783  1.00  0.00    -0.354 N 
ATOM     21  C   UNL A   1      40.657  27.557  28.744  1.00  0.00     0.074 A 
ATOM     22  C   UNL A   1      39.778  26.549  28.191  1.00  0.00     0.031 C 
ATOM     23  C   UNL A   1      46.431  24.759  28.503  1.00  0.00     0.029 A 
ATOM     24  C   UNL A   1      46.105  26.101  28.973  1.00  0.00     0.049 A 
ATOM     25  H   UNL A   1      44.236  27.021  29.003  1.00  0.00     0.167 HD
ATOM     26  C   UNL A   1      40.248  28.776  29.172  1.00  0.00     0.031 A 
ATOM     27  C   UNL A   1      46.993  26.984  29.465  1.00  0.00     0.031 A 
ATOM     28  C   UNL A   1      41.121  29.776  29.733  1.00  0.00     0.049 A 
ATOM     29  C   UNL A   1      46.517  28.334  29.911  1.00  0.00     0.074 A 
ATOM     30  C   UNL A   1      40.791  31.026  30.231  1.00  0.00     0.029 A 
ATOM     31  N   UNL A   1      42.494  29.643  29.866  1.00  0.00    -0.354 N 
ATOM     32  N   UNL A   1      45.297  28.811  29.939  1.00  0.00    -0.248 NA
ATOM     33  C   UNL A   1      47.543  29.264  30.397  1.00  0.00     0.031 C 
ATOM     34  C   UNL A   1      41.973  31.667  30.619  1.00  0.00     0.029 A 
ATOM     35  C   UNL A   1      43.030  30.796  30.415  1.00  0.00     0.049 A 
ATOM     36  H   UNL A   1      43.011  28.846  29.608  1.00  0.00     0.167 HD
ATOM     37  C   UNL A   1      45.405  30.089  30.470  1.00  0.00     0.074 A 
ATOM     38  C   UNL A   1      46.807  30.305  30.762  1.00  0.00     0.031 C 
ATOM     39  C   UNL A   1      44.427  31.000  30.698  1.00  0.00     0.031 A 
BRANCH  26  40
ATOM     40  C   UNL A   1      38.790  29.113  29.016  1.00  0.00    -0.014 A 
ATOM     41  C   UNL A   1      37.886  28.984  30.082  1.00  0.00     0.009 A 
ATOM     42  C   UNL A   1      38.320  29.599  27.785  1.00  0.00     0.009 A 
ATOM     43  C   UNL A   1      36.536  29.298  29.908  1.00  0.00     0.001 A 
ATOM     44  C   UNL A   1      36.975  29.939  27.621  1.00  0.00     0.001 A 
ATOM     45  C   UNL A   1      36.083  29.778  28.679  1.00  0.00     0.000 A 
ENDBRANCH  26  40
BRANCH  27  46
ATOM     46  C   UNL A   1      48.426  26.605  29.571  1.00  0.00    -0.014 A 
ATOM     47  C   UNL A   1      49.317  26.900  28.529  1.00  0.00     0.009 A 
ATOM     48  C   UNL A   1      48.910  25.965  30.721  1.00  0.00     0.009 A 
ATOM     49  C   UNL A   1      50.664  26.544  28.630  1.00  0.00     0.001 A 
ATOM     50  C   UNL A   1      50.263  25.636  30.832  1.00  0.00     0.001 A 
ATOM     51  C   UNL A   1      51.136  25.918  29.783  1.00  0.00     0.000 A 
ENDBRANCH  27  46
BRANCH  39  52
ATOM     52  C   UNL A   1      44.840  32.297  31.334  1.00  0.00    -0.014 A 
ATOM     53  C   UNL A   1      44.845  32.460  32.729  1.00  0.00     0.009 A 
ATOM     54  C   UNL A   1      45.247  33.367  30.523  1.00  0.00     0.009 A 
ATOM     55  C   UNL A   1      45.213  33.682  33.294  1.00  0.00     0.001 A 
ATOM     56  C   UNL A   1      45.641  34.578  31.092  1.00  0.00     0.001 A 
ATOM     57  C   UNL A   1      45.613  34.739  32.476  1.00  0.00     0.000 A 
ENDBRANCH  39  52
ENDBRANCH  13  14
ENDBRANCH   6   8
ENDBRANCH   3   4
ENDBRANCH   2   3
ENDBRANCH   1   2
BRANCH   1  58
ATOM     58  C   UNL A   1      36.225  22.045  25.782  1.00  0.00     0.116 C 
BRANCH  58  59
ATOM     59  N   UNL A   1      35.146  22.117  26.751  1.00  0.00    -0.352 N 
ATOM     60  C   UNL A   1      33.814  22.353  26.522  1.00  0.00     0.252 C 
ATOM     61  H   UNL A   1      35.403  21.979  27.692  1.00  0.00     0.163 HD
ATOM     62  O   UNL A   1      33.013  22.408  27.448  1.00  0.00    -0.269 OA
BRANCH  60  63
ATOM     63  C   UNL A   1      33.355  22.613  25.149  1.00  0.00     0.059 A 
ATOM     64  C   UNL A   1      33.388  23.941  24.706  1.00  0.00     0.035 A 
ATOM     65  C   UNL A   1      32.886  21.599  24.308  1.00  0.00     0.053 A 
ATOM     66  C   UNL A   1      32.978  24.250  23.404  1.00  0.00     0.068 A 
ATOM     67  C   UNL A   1      32.501  21.916  23.001  1.00  0.00     0.022 A 
ATOM     68  Cl  UNL A   1      32.731  19.958  24.818  1.00  0.00    -0.083 Cl
ATOM     69  C   UNL A   1      32.539  23.240  22.547  1.00  0.00     0.022 A 
BRANCH  66  70
ATOM     70  S   UNL A   1      32.998  25.965  22.938  1.00  0.00     0.183 S 
ATOM     71  O   UNL A   1      33.843  26.022  21.757  1.00  0.00    -0.223 OA
ATOM     72  O   UNL A   1      31.612  26.382  22.860  1.00  0.00    -0.223 OA
BRANCH  70  73
ATOM     73  C   UNL A   1      33.803  26.930  24.195  1.00  0.00     0.191 C 
BRANCH  73  74
ATOM     74  C   UNL A   1      32.857  27.810  24.961  1.00  0.00     0.045 C 
ATOM     75  Cl  UNL A   1      32.014  26.997  26.249  1.00  0.00    -0.087 Cl
ATOM     76  C   UNL A   1      32.741  29.133  24.790  1.00  0.00     0.097 C 
ATOM     77  Cl  UNL A   1      31.726  30.177  25.699  1.00  0.00    -0.092 Cl
ENDBRANCH  73  74
ENDBRANCH  70  73
ENDBRANCH  66  70
ENDBRANCH  60  63
ENDBRANCH  58  59
ENDBRANCH   1  58
TORSDOF 14
ENDMDL
