MODEL 1
REMARK VINA RESULT:     -12.7      0.000      0.000
REMARK SMILES Cc1cc2nc(NC(=O)[C@H]3[C@@H](C(=O)NCCCCNC(=O)c4ccc(-c5c6nc(c(-c7ccccc7)c7ccc([nH]7)c(-c7ccccc7)c7nc(c(-c8ccccc8)c8ccc5[nH]8)C=C7)C=C6)cc4)[C@@H]4C=C[C@H]3C4)sc2cc1C
REMARK SMILES IDX 16 1 15 2 14 3 12 4 13 5 11 7 10 8 73 9 70 10 72 11 74 12
REMARK SMILES IDX 71 13 8 14 7 15 9 17 6 18 1 19 2 20 3 21 78 22 4 23 77 24
REMARK SMILES IDX 79 25 5 26 76 27 75 28 17 29 18 30 19 31 20 32 21 34 22 35
REMARK SMILES IDX 23 36 69 37 24 38 68 39 25 40 26 41 27 42 62 43 28 44 67 45
REMARK SMILES IDX 61 46 63 47 29 48 66 49 60 50 59 51 30 53 52 54 37 55 51 56
REMARK SMILES IDX 38 57 41 58 50 59 64 60 39 61 40 62 49 64 65 65 42 66 31 67
REMARK SMILES IDX 32 68 36 69 33 70 35 71 34 72 53 73 54 74 58 75 55 76 57 77
REMARK SMILES IDX 56 78 43 79 44 80 48 81 45 82 47 83 46 84
REMARK H PARENT 14 6 7 16 19 33 63 52 41 63
REMARK Flexibility Score: inf
ROOT
ATOM      1  C   UNL A   1      33.939  28.182  26.792  1.00  0.00     0.023 C 
ENDROOT
BRANCH   1   2
ATOM      2  C   UNL A   1      33.174  27.298  25.811  1.00  0.00     0.116 C 
BRANCH   2   3
ATOM      3  N   UNL A   1      32.991  25.952  26.312  1.00  0.00    -0.356 N 
ATOM      4  C   UNL A   1      33.610  24.773  26.093  1.00  0.00     0.224 C 
ATOM      5  O   UNL A   1      33.057  23.820  26.647  1.00  0.00    -0.275 OA
ATOM      6  H   UNL A   1      32.250  25.881  26.956  1.00  0.00     0.163 HD
BRANCH   4   7
ATOM      7  C   UNL A   1      34.813  24.610  25.165  1.00  0.00     0.098 C 
ATOM      8  C   UNL A   1      34.433  24.182  23.677  1.00  0.00     0.099 C 
ATOM      9  C   UNL A   1      35.156  22.827  23.529  1.00  0.00     0.025 C 
ATOM     10  C   UNL A   1      35.831  23.500  25.558  1.00  0.00     0.025 C 
ATOM     11  C   UNL A   1      36.642  23.123  23.439  1.00  0.00    -0.027 C 
ATOM     12  C   UNL A   1      35.158  22.278  24.962  1.00  0.00     0.017 C 
ATOM     13  C   UNL A   1      37.038  23.546  24.649  1.00  0.00    -0.027 C 
BRANCH   8  14
ATOM     14  C   UNL A   1      32.979  24.342  23.180  1.00  0.00     0.230 C 
ATOM     15  N   UNL A   1      31.964  23.446  23.272  1.00  0.00    -0.302 N 
ATOM     16  H   UNL A   1      31.063  23.825  23.155  1.00  0.00     0.172 HD
ATOM     17  O   UNL A   1      32.657  25.462  22.743  1.00  0.00    -0.274 OA
BRANCH  15  18
ATOM     18  C   UNL A   1      31.997  22.109  23.502  1.00  0.00     0.190 A 
ATOM     19  C   UNL A   1      34.003  16.564  22.801  1.00  0.00     0.044 C 
ATOM     20  C   UNL A   1      33.299  17.704  23.487  1.00  0.00    -0.046 A 
ATOM     21  C   UNL A   1      32.914  18.801  22.705  1.00  0.00     0.033 A 
ATOM     22  C   UNL A   1      33.063  17.731  24.872  1.00  0.00    -0.047 A 
ATOM     23  C   UNL A   1      32.424  19.972  23.308  1.00  0.00     0.084 A 
ATOM     24  C   UNL A   1      32.525  18.889  25.483  1.00  0.00     0.025 A 
ATOM     25  C   UNL A   1      33.330  16.536  25.750  1.00  0.00     0.044 C 
ATOM     26  N   UNL A   1      32.158  21.149  22.642  1.00  0.00    -0.220 NA
ATOM     27  C   UNL A   1      32.265  20.017  24.689  1.00  0.00     0.057 A 
ATOM     28  S   UNL A   1      31.768  21.619  25.123  1.00  0.00    -0.097 S 
ENDBRANCH  15  18
ENDBRANCH   8  14
ENDBRANCH   4   7
ENDBRANCH   2   3
ENDBRANCH   1   2
BRANCH   1  29
ATOM     29  C   UNL A   1      33.443  29.623  26.937  1.00  0.00     0.023 C 
BRANCH  29  30
ATOM     30  C   UNL A   1      34.524  30.688  27.128  1.00  0.00     0.116 C 
BRANCH  30  31
ATOM     31  N   UNL A   1      34.403  31.469  28.338  1.00  0.00    -0.352 N 
ATOM     32  C   UNL A   1      35.253  31.765  29.367  1.00  0.00     0.251 C 
ATOM     33  H   UNL A   1      33.513  31.877  28.446  1.00  0.00     0.163 HD
ATOM     34  O   UNL A   1      34.866  32.620  30.168  1.00  0.00    -0.269 OA
BRANCH  32  35
ATOM     35  C   UNL A   1      36.548  31.078  29.623  1.00  0.00     0.039 A 
ATOM     36  C   UNL A   1      37.817  31.631  29.435  1.00  0.00     0.014 A 
ATOM     37  C   UNL A   1      36.456  29.740  30.044  1.00  0.00     0.014 A 
ATOM     38  C   UNL A   1      38.957  30.838  29.528  1.00  0.00     0.010 A 
ATOM     39  C   UNL A   1      37.593  28.953  30.176  1.00  0.00     0.010 A 
ATOM     40  C   UNL A   1      38.838  29.491  29.858  1.00  0.00    -0.014 A 
BRANCH  40  41
ATOM     41  C   UNL A   1      40.055  28.684  29.923  1.00  0.00     0.031 A 
ATOM     42  C   UNL A   1      40.660  28.487  31.275  1.00  0.00     0.074 A 
ATOM     43  C   UNL A   1      40.515  28.013  28.847  1.00  0.00     0.049 A 
ATOM     44  N   UNL A   1      41.903  28.587  31.627  1.00  0.00    -0.248 NA
ATOM     45  C   UNL A   1      39.749  28.175  32.389  1.00  0.00     0.031 C 
ATOM     46  C   UNL A   1      39.868  27.881  27.538  1.00  0.00     0.029 A 
ATOM     47  N   UNL A   1      41.586  27.175  28.752  1.00  0.00    -0.354 N 
ATOM     48  C   UNL A   1      41.959  28.227  32.973  1.00  0.00     0.074 A 
ATOM     49  C   UNL A   1      40.597  28.064  33.410  1.00  0.00     0.031 C 
ATOM     50  C   UNL A   1      40.400  26.822  26.892  1.00  0.00     0.029 A 
ATOM     51  C   UNL A   1      41.496  26.291  27.685  1.00  0.00     0.049 A 
ATOM     52  H   UNL A   1      42.347  27.195  29.377  1.00  0.00     0.167 HD
ATOM     53  C   UNL A   1      43.124  27.944  33.619  1.00  0.00     0.031 A 
ATOM     54  C   UNL A   1      42.194  25.142  27.523  1.00  0.00     0.031 A 
ATOM     55  C   UNL A   1      44.270  28.477  32.941  1.00  0.00     0.049 A 
ATOM     56  C   UNL A   1      43.389  25.203  28.395  1.00  0.00     0.074 A 
ATOM     57  C   UNL A   1      44.695  29.750  32.619  1.00  0.00     0.029 A 
ATOM     58  N   UNL A   1      45.044  27.623  32.194  1.00  0.00    -0.354 N 
ATOM     59  N   UNL A   1      44.388  26.013  28.203  1.00  0.00    -0.248 NA
ATOM     60  C   UNL A   1      43.306  24.618  29.724  1.00  0.00     0.031 C 
ATOM     61  C   UNL A   1      45.340  29.614  31.359  1.00  0.00     0.029 A 
ATOM     62  C   UNL A   1      45.306  28.263  31.010  1.00  0.00     0.049 A 
ATOM     63  H   UNL A   1      45.351  26.725  32.458  1.00  0.00     0.167 HD
ATOM     64  C   UNL A   1      44.795  26.379  29.477  1.00  0.00     0.074 A 
ATOM     65  C   UNL A   1      44.183  25.394  30.365  1.00  0.00     0.031 C 
ATOM     66  C   UNL A   1      45.344  27.606  29.721  1.00  0.00     0.031 A 
BRANCH  53  67
ATOM     67  C   UNL A   1      43.244  26.944  34.739  1.00  0.00    -0.014 A 
ATOM     68  C   UNL A   1      43.200  27.309  36.099  1.00  0.00     0.009 A 
ATOM     69  C   UNL A   1      43.146  25.569  34.453  1.00  0.00     0.009 A 
ATOM     70  C   UNL A   1      43.063  26.361  37.118  1.00  0.00     0.001 A 
ATOM     71  C   UNL A   1      42.966  24.621  35.468  1.00  0.00     0.001 A 
ATOM     72  C   UNL A   1      42.922  25.019  36.801  1.00  0.00     0.000 A 
ENDBRANCH  53  67
BRANCH  54  73
ATOM     73  C   UNL A   1      41.714  23.880  26.920  1.00  0.00    -0.014 A 
ATOM     74  C   UNL A   1      40.533  23.268  27.383  1.00  0.00     0.009 A 
ATOM     75  C   UNL A   1      42.541  23.133  26.067  1.00  0.00     0.009 A 
ATOM     76  C   UNL A   1      40.203  21.957  27.033  1.00  0.00     0.001 A 
ATOM     77  C   UNL A   1      42.216  21.814  25.725  1.00  0.00     0.001 A 
ATOM     78  C   UNL A   1      41.055  21.223  26.217  1.00  0.00     0.000 A 
ENDBRANCH  54  73
BRANCH  66  79
ATOM     79  C   UNL A   1      45.708  28.483  28.542  1.00  0.00    -0.014 A 
ATOM     80  C   UNL A   1      44.712  29.287  27.963  1.00  0.00     0.009 A 
ATOM     81  C   UNL A   1      46.940  28.377  27.873  1.00  0.00     0.009 A 
ATOM     82  C   UNL A   1      44.936  29.950  26.754  1.00  0.00     0.001 A 
ATOM     83  C   UNL A   1      47.175  29.065  26.678  1.00  0.00     0.001 A 
ATOM     84  C   UNL A   1      46.168  29.841  26.113  1.00  0.00     0.000 A 
ENDBRANCH  66  79
ENDBRANCH  40  41
ENDBRANCH  32  35
ENDBRANCH  30  31
ENDBRANCH  29  30
ENDBRANCH   1  29
TORSDOF 13
ENDMDL
MODEL 2
REMARK VINA RESULT:     -12.3      2.006      3.393
REMARK SMILES Cc1cc2nc(NC(=O)[C@H]3[C@@H](C(=O)NCCCCNC(=O)c4ccc(-c5c6nc(c(-c7ccccc7)c7ccc([nH]7)c(-c7ccccc7)c7nc(c(-c8ccccc8)c8ccc5[nH]8)C=C7)C=C6)cc4)[C@@H]4C=C[C@H]3C4)sc2cc1C
REMARK SMILES IDX 16 1 15 2 14 3 12 4 13 5 11 7 10 8 73 9 70 10 72 11 74 12
REMARK SMILES IDX 71 13 8 14 7 15 9 17 6 18 1 19 2 20 3 21 78 22 4 23 77 24
REMARK SMILES IDX 79 25 5 26 76 27 75 28 17 29 18 30 19 31 20 32 21 34 22 35
REMARK SMILES IDX 23 36 69 37 24 38 68 39 25 40 26 41 27 42 62 43 28 44 67 45
REMARK SMILES IDX 61 46 63 47 29 48 66 49 60 50 59 51 30 53 52 54 37 55 51 56
REMARK SMILES IDX 38 57 41 58 50 59 64 60 39 61 40 62 49 64 65 65 42 66 31 67
REMARK SMILES IDX 32 68 36 69 33 70 35 71 34 72 53 73 54 74 58 75 55 76 57 77
REMARK SMILES IDX 56 78 43 79 44 80 48 81 45 82 47 83 46 84
REMARK H PARENT 14 6 7 16 19 33 63 52 41 63
REMARK Flexibility Score: inf
ROOT
ATOM      1  C   UNL A   1      34.866  31.479  28.341  1.00  0.00     0.023 C 
ENDROOT
BRANCH   1   2
ATOM      2  C   UNL A   1      33.992  30.869  27.248  1.00  0.00     0.116 C 
BRANCH   2   3
ATOM      3  N   UNL A   1      34.426  29.540  26.875  1.00  0.00    -0.356 N 
ATOM      4  C   UNL A   1      33.988  28.619  25.991  1.00  0.00     0.224 C 
ATOM      5  O   UNL A   1      34.586  27.543  26.068  1.00  0.00    -0.275 OA
ATOM      6  H   UNL A   1      35.217  29.240  27.378  1.00  0.00     0.163 HD
BRANCH   4   7
ATOM      7  C   UNL A   1      32.797  28.842  25.060  1.00  0.00     0.098 C 
ATOM      8  C   UNL A   1      31.515  27.966  25.421  1.00  0.00     0.099 C 
ATOM      9  C   UNL A   1      31.324  27.120  24.145  1.00  0.00     0.025 C 
ATOM     10  C   UNL A   1      33.022  28.465  23.565  1.00  0.00     0.025 C 
ATOM     11  C   UNL A   1      30.814  28.055  23.063  1.00  0.00    -0.027 C 
ATOM     12  C   UNL A   1      32.755  26.973  23.610  1.00  0.00     0.017 C 
ATOM     13  C   UNL A   1      31.826  28.872  22.734  1.00  0.00    -0.027 C 
BRANCH   8  14
ATOM     14  C   UNL A   1      31.405  27.304  26.812  1.00  0.00     0.230 C 
ATOM     15  N   UNL A   1      31.827  26.068  27.182  1.00  0.00    -0.302 N 
ATOM     16  H   UNL A   1      31.921  25.935  28.153  1.00  0.00     0.172 HD
ATOM     17  O   UNL A   1      30.986  28.019  27.741  1.00  0.00    -0.274 OA
BRANCH  15  18
ATOM     18  C   UNL A   1      32.139  24.988  26.422  1.00  0.00     0.190 A 
ATOM     19  C   UNL A   1      35.325  20.224  24.868  1.00  0.00     0.044 C 
ATOM     20  C   UNL A   1      34.120  21.124  24.924  1.00  0.00    -0.046 A 
ATOM     21  C   UNL A   1      34.320  22.463  25.287  1.00  0.00     0.033 A 
ATOM     22  C   UNL A   1      32.815  20.665  24.678  1.00  0.00    -0.047 A 
ATOM     23  C   UNL A   1      33.224  23.307  25.538  1.00  0.00     0.084 A 
ATOM     24  C   UNL A   1      31.706  21.521  24.883  1.00  0.00     0.025 A 
ATOM     25  C   UNL A   1      32.541  19.278  24.158  1.00  0.00     0.044 C 
ATOM     26  N   UNL A   1      33.314  24.587  26.038  1.00  0.00    -0.220 NA
ATOM     27  C   UNL A   1      31.932  22.820  25.366  1.00  0.00     0.057 A 
ATOM     28  S   UNL A   1      30.821  24.051  25.870  1.00  0.00    -0.097 S 
ENDBRANCH  15  18
ENDBRANCH   8  14
ENDBRANCH   4   7
ENDBRANCH   2   3
ENDBRANCH   1   2
BRANCH   1  29
ATOM     29  C   UNL A   1      35.448  32.865  28.052  1.00  0.00     0.023 C 
BRANCH  29  30
ATOM     30  C   UNL A   1      36.920  33.064  28.417  1.00  0.00     0.116 C 
BRANCH  30  31
ATOM     31  N   UNL A   1      37.156  33.522  29.767  1.00  0.00    -0.352 N 
ATOM     32  C   UNL A   1      38.090  33.229  30.720  1.00  0.00     0.251 C 
ATOM     33  H   UNL A   1      36.499  34.192  30.066  1.00  0.00     0.163 HD
ATOM     34  O   UNL A   1      38.097  33.949  31.722  1.00  0.00    -0.269 OA
BRANCH  32  35
ATOM     35  C   UNL A   1      39.025  32.072  30.665  1.00  0.00     0.039 A 
ATOM     36  C   UNL A   1      40.373  32.128  30.304  1.00  0.00     0.014 A 
ATOM     37  C   UNL A   1      38.461  30.818  30.961  1.00  0.00     0.014 A 
ATOM     38  C   UNL A   1      41.104  30.959  30.108  1.00  0.00     0.010 A 
ATOM     39  C   UNL A   1      39.197  29.650  30.805  1.00  0.00     0.010 A 
ATOM     40  C   UNL A   1      40.501  29.722  30.319  1.00  0.00    -0.014 A 
BRANCH  40  41
ATOM     41  C   UNL A   1      41.292  28.516  30.080  1.00  0.00     0.031 A 
ATOM     42  C   UNL A   1      42.129  28.025  31.215  1.00  0.00     0.074 A 
ATOM     43  C   UNL A   1      41.146  27.789  28.953  1.00  0.00     0.049 A 
ATOM     44  N   UNL A   1      43.364  27.632  31.198  1.00  0.00    -0.248 NA
ATOM     45  C   UNL A   1      41.518  28.009  32.554  1.00  0.00     0.031 C 
ATOM     46  C   UNL A   1      40.159  27.989  27.887  1.00  0.00     0.029 A 
ATOM     47  N   UNL A   1      41.752  26.619  28.603  1.00  0.00    -0.354 N 
ATOM     48  C   UNL A   1      43.654  27.196  32.491  1.00  0.00     0.074 A 
ATOM     49  C   UNL A   1      42.510  27.527  33.301  1.00  0.00     0.031 C 
ATOM     50  C   UNL A   1      40.051  26.849  27.172  1.00  0.00     0.029 A 
ATOM     51  C   UNL A   1      41.042  25.899  27.650  1.00  0.00     0.049 A 
ATOM     52  H   UNL A   1      42.606  26.314  28.988  1.00  0.00     0.167 HD
ATOM     53  C   UNL A   1      44.758  26.459  32.796  1.00  0.00     0.031 A 
ATOM     54  C   UNL A   1      41.183  24.585  27.357  1.00  0.00     0.031 A 
ATOM     55  C   UNL A   1      45.782  26.565  31.797  1.00  0.00     0.049 A 
ATOM     56  C   UNL A   1      42.505  24.141  27.854  1.00  0.00     0.074 A 
ATOM     57  C   UNL A   1      46.545  27.604  31.306  1.00  0.00     0.029 A 
ATOM     58  N   UNL A   1      45.936  25.531  30.907  1.00  0.00    -0.354 N 
ATOM     59  N   UNL A   1      43.639  24.530  27.348  1.00  0.00    -0.248 NA
ATOM     60  C   UNL A   1      42.583  23.550  29.180  1.00  0.00     0.031 C 
ATOM     61  C   UNL A   1      46.713  27.314  29.923  1.00  0.00     0.029 A 
ATOM     62  C   UNL A   1      46.078  26.098  29.667  1.00  0.00     0.049 A 
ATOM     63  H   UNL A   1      45.945  24.570  31.119  1.00  0.00     0.167 HD
ATOM     64  C   UNL A   1      44.491  24.639  28.436  1.00  0.00     0.074 A 
ATOM     65  C   UNL A   1      43.829  23.902  29.509  1.00  0.00     0.031 C 
ATOM     66  C   UNL A   1      45.506  25.554  28.454  1.00  0.00     0.031 A 
BRANCH  53  67
ATOM     67  C   UNL A   1      44.801  25.420  33.887  1.00  0.00    -0.014 A 
ATOM     68  C   UNL A   1      45.233  25.704  35.197  1.00  0.00     0.009 A 
ATOM     69  C   UNL A   1      44.160  24.183  33.689  1.00  0.00     0.009 A 
ATOM     70  C   UNL A   1      45.038  24.809  36.253  1.00  0.00     0.001 A 
ATOM     71  C   UNL A   1      43.924  23.302  34.753  1.00  0.00     0.001 A 
ATOM     72  C   UNL A   1      44.362  23.618  36.035  1.00  0.00     0.000 A 
ENDBRANCH  53  67
BRANCH  54  73
ATOM     73  C   UNL A   1      40.116  23.633  26.977  1.00  0.00    -0.014 A 
ATOM     74  C   UNL A   1      40.415  22.274  26.758  1.00  0.00     0.009 A 
ATOM     75  C   UNL A   1      38.853  24.095  26.576  1.00  0.00     0.009 A 
ATOM     76  C   UNL A   1      39.502  21.416  26.140  1.00  0.00     0.001 A 
ATOM     77  C   UNL A   1      37.942  23.237  25.946  1.00  0.00     0.001 A 
ATOM     78  C   UNL A   1      38.272  21.902  25.718  1.00  0.00     0.000 A 
ENDBRANCH  54  73
BRANCH  66  79
ATOM     79  C   UNL A   1      45.827  26.302  27.177  1.00  0.00    -0.014 A 
ATOM     80  C   UNL A   1      46.924  25.886  26.406  1.00  0.00     0.009 A 
ATOM     81  C   UNL A   1      45.203  27.515  26.835  1.00  0.00     0.009 A 
ATOM     82  C   UNL A   1      47.390  26.661  25.341  1.00  0.00     0.001 A 
ATOM     83  C   UNL A   1      45.650  28.276  25.751  1.00  0.00     0.001 A 
ATOM     84  C   UNL A   1      46.751  27.854  25.012  1.00  0.00     0.000 A 
ENDBRANCH  66  79
ENDBRANCH  40  41
ENDBRANCH  32  35
ENDBRANCH  30  31
ENDBRANCH  29  30
ENDBRANCH   1  29
TORSDOF 13
ENDMDL
MODEL 3
REMARK VINA RESULT:     -12.2      2.330      6.601
REMARK SMILES Cc1cc2nc(NC(=O)[C@H]3[C@@H](C(=O)NCCCCNC(=O)c4ccc(-c5c6nc(c(-c7ccccc7)c7ccc([nH]7)c(-c7ccccc7)c7nc(c(-c8ccccc8)c8ccc5[nH]8)C=C7)C=C6)cc4)[C@@H]4C=C[C@H]3C4)sc2cc1C
REMARK SMILES IDX 16 1 15 2 14 3 12 4 13 5 11 7 10 8 73 9 70 10 72 11 74 12
REMARK SMILES IDX 71 13 8 14 7 15 9 17 6 18 1 19 2 20 3 21 78 22 4 23 77 24
REMARK SMILES IDX 79 25 5 26 76 27 75 28 17 29 18 30 19 31 20 32 21 34 22 35
REMARK SMILES IDX 23 36 69 37 24 38 68 39 25 40 26 41 27 42 62 43 28 44 67 45
REMARK SMILES IDX 61 46 63 47 29 48 66 49 60 50 59 51 30 53 52 54 37 55 51 56
REMARK SMILES IDX 38 57 41 58 50 59 64 60 39 61 40 62 49 64 65 65 42 66 31 67
REMARK SMILES IDX 32 68 36 69 33 70 35 71 34 72 53 73 54 74 58 75 55 76 57 77
REMARK SMILES IDX 56 78 43 79 44 80 48 81 45 82 47 83 46 84
REMARK H PARENT 14 6 7 16 19 33 63 52 41 63
REMARK Flexibility Score: inf
ROOT
ATOM      1  C   UNL A   1      32.372  27.515  27.034  1.00  0.00     0.023 C 
ENDROOT
BRANCH   1   2
ATOM      2  C   UNL A   1      32.715  26.332  26.133  1.00  0.00     0.116 C 
BRANCH   2   3
ATOM      3  N   UNL A   1      32.040  25.118  26.538  1.00  0.00    -0.356 N 
ATOM      4  C   UNL A   1      32.356  23.806  26.500  1.00  0.00     0.224 C 
ATOM      5  O   UNL A   1      31.430  23.070  26.851  1.00  0.00    -0.275 OA
ATOM      6  H   UNL A   1      31.152  25.286  26.930  1.00  0.00     0.163 HD
BRANCH   4   7
ATOM      7  C   UNL A   1      33.687  23.274  25.972  1.00  0.00     0.098 C 
ATOM      8  C   UNL A   1      33.558  21.938  25.112  1.00  0.00     0.099 C 
ATOM      9  C   UNL A   1      34.403  20.938  25.927  1.00  0.00     0.025 C 
ATOM     10  C   UNL A   1      34.727  22.851  27.051  1.00  0.00     0.025 C 
ATOM     11  C   UNL A   1      35.858  21.331  25.746  1.00  0.00    -0.027 C 
ATOM     12  C   UNL A   1      34.248  21.447  27.367  1.00  0.00     0.017 C 
ATOM     13  C   UNL A   1      36.043  22.487  26.400  1.00  0.00    -0.027 C 
BRANCH   8  14
ATOM     14  C   UNL A   1      32.181  21.513  24.555  1.00  0.00     0.230 C 
ATOM     15  N   UNL A   1      31.403  22.177  23.662  1.00  0.00    -0.302 N 
ATOM     16  H   UNL A   1      30.710  21.629  23.227  1.00  0.00     0.172 HD
ATOM     17  O   UNL A   1      31.778  20.377  24.866  1.00  0.00    -0.274 OA
BRANCH  15  18
ATOM     18  C   UNL A   1      31.432  23.477  23.275  1.00  0.00     0.190 A 
ATOM     19  C   UNL A   1      30.472  29.306  23.877  1.00  0.00     0.044 C 
ATOM     20  C   UNL A   1      31.108  28.059  23.325  1.00  0.00    -0.046 A 
ATOM     21  C   UNL A   1      30.424  26.847  23.490  1.00  0.00     0.033 A 
ATOM     22  C   UNL A   1      32.369  28.057  22.704  1.00  0.00    -0.047 A 
ATOM     23  C   UNL A   1      31.042  25.627  23.166  1.00  0.00     0.084 A 
ATOM     24  C   UNL A   1      32.981  26.836  22.332  1.00  0.00     0.025 A 
ATOM     25  C   UNL A   1      33.099  29.334  22.377  1.00  0.00     0.044 C 
ATOM     26  N   UNL A   1      30.512  24.382  23.427  1.00  0.00    -0.220 NA
ATOM     27  C   UNL A   1      32.323  25.631  22.623  1.00  0.00     0.057 A 
ATOM     28  S   UNL A   1      32.842  23.986  22.456  1.00  0.00    -0.097 S 
ENDBRANCH  15  18
ENDBRANCH   8  14
ENDBRANCH   4   7
ENDBRANCH   2   3
ENDBRANCH   1   2
BRANCH   1  29
ATOM     29  C   UNL A   1      33.086  28.834  26.727  1.00  0.00     0.023 C 
BRANCH  29  30
ATOM     30  C   UNL A   1      34.557  28.911  27.137  1.00  0.00     0.116 C 
BRANCH  30  31
ATOM     31  N   UNL A   1      34.836  29.806  28.237  1.00  0.00    -0.352 N 
ATOM     32  C   UNL A   1      35.971  30.158  28.911  1.00  0.00     0.251 C 
ATOM     33  H   UNL A   1      34.032  30.264  28.575  1.00  0.00     0.163 HD
ATOM     34  O   UNL A   1      35.871  31.101  29.701  1.00  0.00    -0.269 OA
BRANCH  32  35
ATOM     35  C   UNL A   1      37.271  29.440  28.818  1.00  0.00     0.039 A 
ATOM     36  C   UNL A   1      37.797  28.573  29.778  1.00  0.00     0.014 A 
ATOM     37  C   UNL A   1      38.039  29.716  27.673  1.00  0.00     0.014 A 
ATOM     38  C   UNL A   1      39.103  28.103  29.672  1.00  0.00     0.010 A 
ATOM     39  C   UNL A   1      39.329  29.219  27.541  1.00  0.00     0.010 A 
ATOM     40  C   UNL A   1      39.880  28.461  28.573  1.00  0.00    -0.014 A 
BRANCH  40  41
ATOM     41  C   UNL A   1      41.254  27.970  28.508  1.00  0.00     0.031 A 
ATOM     42  C   UNL A   1      41.458  26.626  27.886  1.00  0.00     0.074 A 
ATOM     43  C   UNL A   1      42.301  28.754  28.835  1.00  0.00     0.049 A 
ATOM     44  N   UNL A   1      42.184  25.641  28.311  1.00  0.00    -0.248 NA
ATOM     45  C   UNL A   1      40.723  26.332  26.645  1.00  0.00     0.031 C 
ATOM     46  C   UNL A   1      42.271  30.178  29.182  1.00  0.00     0.029 A 
ATOM     47  N   UNL A   1      43.634  28.477  28.772  1.00  0.00    -0.354 N 
ATOM     48  C   UNL A   1      42.106  24.647  27.336  1.00  0.00     0.074 A 
ATOM     49  C   UNL A   1      41.130  25.093  26.376  1.00  0.00     0.031 C 
ATOM     50  C   UNL A   1      43.510  30.692  29.029  1.00  0.00     0.029 A 
ATOM     51  C   UNL A   1      44.427  29.614  28.701  1.00  0.00     0.049 A 
ATOM     52  H   UNL A   1      43.999  27.561  28.775  1.00  0.00     0.167 HD
ATOM     53  C   UNL A   1      42.949  23.578  27.294  1.00  0.00     0.031 A 
ATOM     54  C   UNL A   1      45.716  29.680  28.290  1.00  0.00     0.031 A 
ATOM     55  C   UNL A   1      43.594  23.339  28.553  1.00  0.00     0.049 A 
ATOM     56  C   UNL A   1      46.297  28.321  28.378  1.00  0.00     0.074 A 
ATOM     57  C   UNL A   1      43.149  23.006  29.816  1.00  0.00     0.029 A 
ATOM     58  N   UNL A   1      44.897  23.743  28.708  1.00  0.00    -0.354 N 
ATOM     59  N   UNL A   1      46.528  27.701  29.497  1.00  0.00    -0.248 NA
ATOM     60  C   UNL A   1      46.272  27.480  27.192  1.00  0.00     0.031 C 
ATOM     61  C   UNL A   1      44.027  23.687  30.705  1.00  0.00     0.029 A 
ATOM     62  C   UNL A   1      44.976  24.357  29.931  1.00  0.00     0.049 A 
ATOM     63  H   UNL A   1      45.632  23.616  28.065  1.00  0.00     0.167 HD
ATOM     64  C   UNL A   1      46.244  26.371  29.229  1.00  0.00     0.074 A 
ATOM     65  C   UNL A   1      46.220  26.278  27.771  1.00  0.00     0.031 C 
ATOM     66  C   UNL A   1      45.770  25.536  30.201  1.00  0.00     0.031 A 
BRANCH  53  67
ATOM     67  C   UNL A   1      43.394  22.906  26.021  1.00  0.00    -0.014 A 
ATOM     68  C   UNL A   1      43.984  23.609  24.952  1.00  0.00     0.009 A 
ATOM     69  C   UNL A   1      43.467  21.502  25.968  1.00  0.00     0.009 A 
ATOM     70  C   UNL A   1      44.614  22.952  23.890  1.00  0.00     0.001 A 
ATOM     71  C   UNL A   1      44.135  20.842  24.928  1.00  0.00     0.001 A 
ATOM     72  C   UNL A   1      44.710  21.569  23.890  1.00  0.00     0.000 A 
ENDBRANCH  53  67
BRANCH  54  73
ATOM     73  C   UNL A   1      46.357  30.771  27.523  1.00  0.00    -0.014 A 
ATOM     74  C   UNL A   1      47.740  31.010  27.640  1.00  0.00     0.009 A 
ATOM     75  C   UNL A   1      45.581  31.743  26.874  1.00  0.00     0.009 A 
ATOM     76  C   UNL A   1      48.322  32.183  27.153  1.00  0.00     0.001 A 
ATOM     77  C   UNL A   1      46.163  32.925  26.396  1.00  0.00     0.001 A 
ATOM     78  C   UNL A   1      47.529  33.149  26.547  1.00  0.00     0.000 A 
ENDBRANCH  54  73
BRANCH  66  79
ATOM     79  C   UNL A   1      45.765  26.025  31.634  1.00  0.00    -0.014 A 
ATOM     80  C   UNL A   1      46.802  25.622  32.490  1.00  0.00     0.009 A 
ATOM     81  C   UNL A   1      44.665  26.694  32.200  1.00  0.00     0.009 A 
ATOM     82  C   UNL A   1      46.736  25.868  33.864  1.00  0.00     0.001 A 
ATOM     83  C   UNL A   1      44.612  26.966  33.570  1.00  0.00     0.001 A 
ATOM     84  C   UNL A   1      45.643  26.542  34.403  1.00  0.00     0.000 A 
ENDBRANCH  66  79
ENDBRANCH  40  41
ENDBRANCH  32  35
ENDBRANCH  30  31
ENDBRANCH  29  30
ENDBRANCH   1  29
TORSDOF 13
ENDMDL
