MODEL 1
REMARK VINA RESULT:     -11.7      0.000      0.000
REMARK SMILES CC(C)N1C[C@@H](C(=O)N2CCC(C(=O)NCCCCNC(=O)c3ccc(-c4c5nc(c(-c6ccccc6)c6ccc([nH]6)c(-c6ccccc6)c6nc(c(-c7ccccc7)c7ccc4[nH]7)C=C6)C=C5)cc3)CC2)CC1=O
REMARK SMILES IDX 17 1 16 2 15 3 13 4 14 5 12 7 7 8 8 9 9 10 10 11 72 12 11 13
REMARK SMILES IDX 71 14 6 15 4 16 5 17 74 18 73 19 75 20 2 21 1 22 3 23 18 24
REMARK SMILES IDX 19 25 20 26 21 27 22 29 23 30 24 31 70 32 25 33 69 34 26 35
REMARK SMILES IDX 27 36 28 37 63 38 29 39 68 40 62 41 64 42 30 43 67 44 61 45
REMARK SMILES IDX 60 46 31 48 53 49 38 50 52 51 39 52 42 53 51 54 65 55 40 56
REMARK SMILES IDX 41 57 50 59 66 60 43 61 32 62 33 63 37 64 34 65 36 66 35 67
REMARK SMILES IDX 54 68 55 69 59 70 56 71 58 72 57 73 44 74 45 75 49 76 46 77
REMARK SMILES IDX 48 78 47 79
REMARK H PARENT 15 6 20 28 64 47 42 58
REMARK Flexibility Score: inf
ROOT
ATOM      1  C   UNL A   1      37.085  21.180  24.596  1.00  0.00     0.023 C 
ENDROOT
BRANCH   1   2
ATOM      2  C   UNL A   1      37.011  22.311  25.619  1.00  0.00     0.116 C 
BRANCH   2   3
ATOM      3  N   UNL A   1      35.787  22.247  26.403  1.00  0.00    -0.356 N 
ATOM      4  C   UNL A   1      34.611  22.920  26.272  1.00  0.00     0.223 C 
ATOM      5  O   UNL A   1      33.725  22.702  27.100  1.00  0.00    -0.275 OA
ATOM      6  H   UNL A   1      35.814  21.610  27.153  1.00  0.00     0.163 HD
BRANCH   4   7
ATOM      7  C   UNL A   1      34.373  23.893  25.125  1.00  0.00     0.082 C 
ATOM      8  C   UNL A   1      31.209  26.146  24.164  1.00  0.00     0.227 C 
ATOM      9  O   UNL A   1      30.341  25.310  24.430  1.00  0.00    -0.274 OA
ATOM     10  N   UNL A   1      32.518  25.755  23.950  1.00  0.00    -0.342 N 
ATOM     11  C   UNL A   1      32.765  24.498  23.257  1.00  0.00     0.120 C 
ATOM     12  C   UNL A   1      33.672  26.309  24.637  1.00  0.00     0.120 C 
ATOM     13  C   UNL A   1      33.251  23.412  24.196  1.00  0.00     0.035 C 
ATOM     14  C   UNL A   1      34.228  25.325  25.661  1.00  0.00     0.035 C 
BRANCH   8  15
ATOM     15  C   UNL A   1      30.788  27.567  23.800  1.00  0.00     0.107 C 
ATOM     16  N   UNL A   1      28.967  28.754  22.911  1.00  0.00    -0.339 N 
ATOM     17  C   UNL A   1      29.269  27.675  23.814  1.00  0.00     0.133 C 
ATOM     18  C   UNL A   1      30.068  29.144  22.169  1.00  0.00     0.223 C 
ATOM     19  C   UNL A   1      31.211  28.216  22.492  1.00  0.00     0.115 C 
ATOM     20  O   UNL A   1      30.119  30.043  21.343  1.00  0.00    -0.275 OA
BRANCH  16  21
ATOM     21  C   UNL A   1      27.630  29.343  22.849  1.00  0.00     0.078 C 
ATOM     22  C   UNL A   1      26.583  28.392  23.420  1.00  0.00     0.031 C 
ATOM     23  C   UNL A   1      27.565  30.715  23.520  1.00  0.00     0.031 C 
ENDBRANCH  16  21
ENDBRANCH   8  15
ENDBRANCH   4   7
ENDBRANCH   2   3
ENDBRANCH   1   2
BRANCH   1  24
ATOM     24  C   UNL A   1      37.939  19.992  25.030  1.00  0.00     0.023 C 
BRANCH  24  25
ATOM     25  C   UNL A   1      39.226  20.361  25.756  1.00  0.00     0.116 C 
BRANCH  25  26
ATOM     26  N   UNL A   1      40.165  19.253  25.848  1.00  0.00    -0.352 N 
ATOM     27  C   UNL A   1      41.513  19.285  26.110  1.00  0.00     0.251 C 
ATOM     28  H   UNL A   1      39.782  18.358  25.701  1.00  0.00     0.163 HD
ATOM     29  O   UNL A   1      42.192  18.270  26.015  1.00  0.00    -0.269 OA
BRANCH  27  30
ATOM     30  C   UNL A   1      42.146  20.568  26.476  1.00  0.00     0.039 A 
ATOM     31  C   UNL A   1      42.640  21.391  25.461  1.00  0.00     0.014 A 
ATOM     32  C   UNL A   1      42.214  20.974  27.812  1.00  0.00     0.014 A 
ATOM     33  C   UNL A   1      43.137  22.655  25.782  1.00  0.00     0.010 A 
ATOM     34  C   UNL A   1      42.628  22.264  28.118  1.00  0.00     0.010 A 
ATOM     35  C   UNL A   1      43.096  23.117  27.107  1.00  0.00    -0.014 A 
BRANCH  35  36
ATOM     36  C   UNL A   1      43.535  24.492  27.455  1.00  0.00     0.031 A 
ATOM     37  C   UNL A   1      42.521  25.539  27.825  1.00  0.00     0.074 A 
ATOM     38  C   UNL A   1      44.842  24.815  27.377  1.00  0.00     0.049 A 
ATOM     39  N   UNL A   1      42.707  26.802  28.111  1.00  0.00    -0.248 NA
ATOM     40  C   UNL A   1      41.110  25.118  27.852  1.00  0.00     0.031 C 
ATOM     41  C   UNL A   1      45.920  23.904  26.988  1.00  0.00     0.029 A 
ATOM     42  N   UNL A   1      45.483  26.005  27.616  1.00  0.00    -0.354 N 
ATOM     43  C   UNL A   1      41.441  27.328  28.335  1.00  0.00     0.074 A 
ATOM     44  C   UNL A   1      40.492  26.263  28.098  1.00  0.00     0.031 C 
ATOM     45  C   UNL A   1      47.090  24.558  27.047  1.00  0.00     0.029 A 
ATOM     46  C   UNL A   1      46.844  25.944  27.432  1.00  0.00     0.049 A 
ATOM     47  H   UNL A   1      45.013  26.824  27.895  1.00  0.00     0.167 HD
ATOM     48  C   UNL A   1      41.098  28.579  28.723  1.00  0.00     0.031 A 
ATOM     49  C   UNL A   1      47.786  26.897  27.552  1.00  0.00     0.031 A 
ATOM     50  C   UNL A   1      42.043  29.636  28.965  1.00  0.00     0.049 A 
ATOM     51  C   UNL A   1      47.378  28.285  27.963  1.00  0.00     0.074 A 
ATOM     52  C   UNL A   1      41.799  30.921  29.418  1.00  0.00     0.029 A 
ATOM     53  N   UNL A   1      43.411  29.533  28.768  1.00  0.00    -0.354 N 
ATOM     54  N   UNL A   1      46.183  28.747  28.243  1.00  0.00    -0.248 NA
ATOM     55  C   UNL A   1      48.452  29.280  28.086  1.00  0.00     0.031 C 
ATOM     56  C   UNL A   1      43.013  31.615  29.433  1.00  0.00     0.029 A 
ATOM     57  C   UNL A   1      44.021  30.742  29.059  1.00  0.00     0.049 A 
ATOM     58  H   UNL A   1      43.879  28.721  28.466  1.00  0.00     0.167 HD
ATOM     59  C   UNL A   1      46.365  30.075  28.605  1.00  0.00     0.074 A 
ATOM     60  C   UNL A   1      47.787  30.340  28.525  1.00  0.00     0.031 C 
ATOM     61  C   UNL A   1      45.438  30.993  28.971  1.00  0.00     0.031 A 
BRANCH  48  62
ATOM     62  C   UNL A   1      39.633  28.875  28.898  1.00  0.00    -0.014 A 
ATOM     63  C   UNL A   1      38.857  29.374  27.839  1.00  0.00     0.009 A 
ATOM     64  C   UNL A   1      39.012  28.618  30.131  1.00  0.00     0.009 A 
ATOM     65  C   UNL A   1      37.499  29.644  28.023  1.00  0.00     0.001 A 
ATOM     66  C   UNL A   1      37.648  28.858  30.301  1.00  0.00     0.001 A 
ATOM     67  C   UNL A   1      36.895  29.382  29.251  1.00  0.00     0.000 A 
ENDBRANCH  48  62
BRANCH  49  68
ATOM     68  C   UNL A   1      49.213  26.573  27.287  1.00  0.00    -0.014 A 
ATOM     69  C   UNL A   1      49.763  26.761  26.009  1.00  0.00     0.009 A 
ATOM     70  C   UNL A   1      50.032  26.067  28.309  1.00  0.00     0.009 A 
ATOM     71  C   UNL A   1      51.095  26.422  25.755  1.00  0.00     0.001 A 
ATOM     72  C   UNL A   1      51.372  25.761  28.059  1.00  0.00     0.001 A 
ATOM     73  C   UNL A   1      51.899  25.929  26.781  1.00  0.00     0.000 A 
ENDBRANCH  49  68
BRANCH  61  74
ATOM     74  C   UNL A   1      45.933  32.361  29.353  1.00  0.00    -0.014 A 
ATOM     75  C   UNL A   1      46.396  32.636  30.649  1.00  0.00     0.009 A 
ATOM     76  C   UNL A   1      45.975  33.377  28.386  1.00  0.00     0.009 A 
ATOM     77  C   UNL A   1      46.859  33.914  30.977  1.00  0.00     0.001 A 
ATOM     78  C   UNL A   1      46.469  34.642  28.706  1.00  0.00     0.001 A 
ATOM     79  C   UNL A   1      46.900  34.912  30.003  1.00  0.00     0.000 A 
ENDBRANCH  61  74
ENDBRANCH  35  36
ENDBRANCH  27  30
ENDBRANCH  25  26
ENDBRANCH  24  25
ENDBRANCH   1  24
TORSDOF 13
ENDMDL
MODEL 2
REMARK VINA RESULT:     -11.5      1.334      6.083
REMARK SMILES CC(C)N1C[C@@H](C(=O)N2CCC(C(=O)NCCCCNC(=O)c3ccc(-c4c5nc(c(-c6ccccc6)c6ccc([nH]6)c(-c6ccccc6)c6nc(c(-c7ccccc7)c7ccc4[nH]7)C=C6)C=C5)cc3)CC2)CC1=O
REMARK SMILES IDX 17 1 16 2 15 3 13 4 14 5 12 7 7 8 8 9 9 10 10 11 72 12 11 13
REMARK SMILES IDX 71 14 6 15 4 16 5 17 74 18 73 19 75 20 2 21 1 22 3 23 18 24
REMARK SMILES IDX 19 25 20 26 21 27 22 29 23 30 24 31 70 32 25 33 69 34 26 35
REMARK SMILES IDX 27 36 28 37 63 38 29 39 68 40 62 41 64 42 30 43 67 44 61 45
REMARK SMILES IDX 60 46 31 48 53 49 38 50 52 51 39 52 42 53 51 54 65 55 40 56
REMARK SMILES IDX 41 57 50 59 66 60 43 61 32 62 33 63 37 64 34 65 36 66 35 67
REMARK SMILES IDX 54 68 55 69 59 70 56 71 58 72 57 73 44 74 45 75 49 76 46 77
REMARK SMILES IDX 48 78 47 79
REMARK H PARENT 15 6 20 28 64 47 42 58
REMARK Flexibility Score: inf
ROOT
ATOM      1  C   UNL A   1      36.993  20.992  24.588  1.00  0.00     0.023 C 
ENDROOT
BRANCH   1   2
ATOM      2  C   UNL A   1      35.746  21.126  25.461  1.00  0.00     0.116 C 
BRANCH   2   3
ATOM      3  N   UNL A   1      34.527  20.956  24.685  1.00  0.00    -0.356 N 
ATOM      4  C   UNL A   1      33.589  21.861  24.294  1.00  0.00     0.223 C 
ATOM      5  O   UNL A   1      32.617  21.448  23.658  1.00  0.00    -0.275 OA
ATOM      6  H   UNL A   1      34.352  20.032  24.395  1.00  0.00     0.163 HD
BRANCH   4   7
ATOM      7  C   UNL A   1      33.738  23.346  24.596  1.00  0.00     0.082 C 
ATOM      8  C   UNL A   1      31.463  26.496  23.639  1.00  0.00     0.227 C 
ATOM      9  O   UNL A   1      31.195  26.144  22.487  1.00  0.00    -0.274 OA
ATOM     10  N   UNL A   1      32.546  25.950  24.305  1.00  0.00    -0.342 N 
ATOM     11  C   UNL A   1      33.754  25.657  23.546  1.00  0.00     0.120 C 
ATOM     12  C   UNL A   1      32.487  25.335  25.619  1.00  0.00     0.120 C 
ATOM     13  C   UNL A   1      33.940  24.169  23.318  1.00  0.00     0.035 C 
ATOM     14  C   UNL A   1      32.607  23.818  25.523  1.00  0.00     0.035 C 
BRANCH   8  15
ATOM     15  C   UNL A   1      30.774  27.726  24.223  1.00  0.00     0.107 C 
ATOM     16  N   UNL A   1      29.935  29.822  23.574  1.00  0.00    -0.339 N 
ATOM     17  C   UNL A   1      30.005  28.455  23.129  1.00  0.00     0.133 C 
ATOM     18  C   UNL A   1      30.764  30.067  24.655  1.00  0.00     0.223 C 
ATOM     19  C   UNL A   1      31.555  28.815  24.940  1.00  0.00     0.115 C 
ATOM     20  O   UNL A   1      30.898  31.122  25.257  1.00  0.00    -0.275 OA
BRANCH  16  21
ATOM     21  C   UNL A   1      29.050  30.789  22.927  1.00  0.00     0.078 C 
ATOM     22  C   UNL A   1      28.849  30.450  21.453  1.00  0.00     0.031 C 
ATOM     23  C   UNL A   1      27.714  30.934  23.655  1.00  0.00     0.031 C 
ENDBRANCH  16  21
ENDBRANCH   8  15
ENDBRANCH   4   7
ENDBRANCH   2   3
ENDBRANCH   1   2
BRANCH   1  24
ATOM     24  C   UNL A   1      37.924  19.852  24.991  1.00  0.00     0.023 C 
BRANCH  24  25
ATOM     25  C   UNL A   1      39.138  20.277  25.807  1.00  0.00     0.116 C 
BRANCH  25  26
ATOM     26  N   UNL A   1      40.171  19.254  25.864  1.00  0.00    -0.352 N 
ATOM     27  C   UNL A   1      41.506  19.392  26.158  1.00  0.00     0.251 C 
ATOM     28  H   UNL A   1      39.873  18.337  25.664  1.00  0.00     0.163 HD
ATOM     29  O   UNL A   1      42.275  18.447  26.027  1.00  0.00    -0.269 OA
BRANCH  27  30
ATOM     30  C   UNL A   1      42.014  20.705  26.602  1.00  0.00     0.039 A 
ATOM     31  C   UNL A   1      42.505  21.597  25.646  1.00  0.00     0.014 A 
ATOM     32  C   UNL A   1      41.967  21.068  27.951  1.00  0.00     0.014 A 
ATOM     33  C   UNL A   1      42.882  22.883  26.036  1.00  0.00     0.010 A 
ATOM     34  C   UNL A   1      42.261  22.374  28.322  1.00  0.00     0.010 A 
ATOM     35  C   UNL A   1      42.724  23.295  27.369  1.00  0.00    -0.014 A 
BRANCH  35  36
ATOM     36  C   UNL A   1      43.033  24.685  27.785  1.00  0.00     0.031 A 
ATOM     37  C   UNL A   1      44.458  25.106  28.019  1.00  0.00     0.074 A 
ATOM     38  C   UNL A   1      42.027  25.553  28.014  1.00  0.00     0.049 A 
ATOM     39  N   UNL A   1      44.920  26.259  28.431  1.00  0.00    -0.248 NA
ATOM     40  C   UNL A   1      45.498  24.090  27.785  1.00  0.00     0.031 C 
ATOM     41  C   UNL A   1      40.600  25.257  27.865  1.00  0.00     0.029 A 
ATOM     42  N   UNL A   1      42.053  26.862  28.424  1.00  0.00    -0.354 N 
ATOM     43  C   UNL A   1      46.298  26.102  28.520  1.00  0.00     0.074 A 
ATOM     44  C   UNL A   1      46.591  24.729  28.174  1.00  0.00     0.031 C 
ATOM     45  C   UNL A   1      39.891  26.361  28.149  1.00  0.00     0.029 A 
ATOM     46  C   UNL A   1      40.806  27.427  28.543  1.00  0.00     0.049 A 
ATOM     47  H   UNL A   1      42.886  27.351  28.616  1.00  0.00     0.167 HD
ATOM     48  C   UNL A   1      47.237  27.022  28.841  1.00  0.00     0.031 A 
ATOM     49  C   UNL A   1      40.438  28.662  28.932  1.00  0.00     0.031 A 
ATOM     50  C   UNL A   1      46.945  28.390  29.180  1.00  0.00     0.049 A 
ATOM     51  C   UNL A   1      41.500  29.661  29.305  1.00  0.00     0.074 A 
ATOM     52  C   UNL A   1      47.832  29.414  29.464  1.00  0.00     0.029 A 
ATOM     53  N   UNL A   1      45.670  28.921  29.288  1.00  0.00    -0.354 N 
ATOM     54  N   UNL A   1      42.803  29.518  29.312  1.00  0.00    -0.248 NA
ATOM     55  C   UNL A   1      41.038  30.995  29.711  1.00  0.00     0.031 C 
ATOM     56  C   UNL A   1      47.091  30.549  29.806  1.00  0.00     0.029 A 
ATOM     57  C   UNL A   1      45.745  30.252  29.665  1.00  0.00     0.049 A 
ATOM     58  H   UNL A   1      44.835  28.427  29.121  1.00  0.00     0.167 HD
ATOM     59  C   UNL A   1      43.317  30.750  29.693  1.00  0.00     0.074 A 
ATOM     60  C   UNL A   1      42.186  31.633  29.892  1.00  0.00     0.031 C 
ATOM     61  C   UNL A   1      44.610  31.118  29.863  1.00  0.00     0.031 A 
BRANCH  48  62
ATOM     62  C   UNL A   1      48.674  26.573  28.854  1.00  0.00    -0.014 A 
ATOM     63  C   UNL A   1      49.469  26.633  27.698  1.00  0.00     0.009 A 
ATOM     64  C   UNL A   1      49.251  26.117  30.050  1.00  0.00     0.009 A 
ATOM     65  C   UNL A   1      50.799  26.209  27.731  1.00  0.00     0.001 A 
ATOM     66  C   UNL A   1      50.590  25.725  30.088  1.00  0.00     0.001 A 
ATOM     67  C   UNL A   1      51.359  25.761  28.926  1.00  0.00     0.000 A 
ENDBRANCH  48  62
BRANCH  49  68
ATOM     68  C   UNL A   1      38.998  29.031  28.981  1.00  0.00    -0.014 A 
ATOM     69  C   UNL A   1      38.252  28.839  30.154  1.00  0.00     0.009 A 
ATOM     70  C   UNL A   1      38.360  29.573  27.854  1.00  0.00     0.009 A 
ATOM     71  C   UNL A   1      36.890  29.154  30.187  1.00  0.00     0.001 A 
ATOM     72  C   UNL A   1      37.007  29.917  27.900  1.00  0.00     0.001 A 
ATOM     73  C   UNL A   1      36.271  29.697  29.063  1.00  0.00     0.000 A 
ENDBRANCH  49  68
BRANCH  61  74
ATOM     74  C   UNL A   1      44.877  32.548  30.246  1.00  0.00    -0.014 A 
ATOM     75  C   UNL A   1      45.025  33.551  29.275  1.00  0.00     0.009 A 
ATOM     76  C   UNL A   1      44.939  32.901  31.603  1.00  0.00     0.009 A 
ATOM     77  C   UNL A   1      45.265  34.873  29.657  1.00  0.00     0.001 A 
ATOM     78  C   UNL A   1      45.144  34.228  31.983  1.00  0.00     0.001 A 
ATOM     79  C   UNL A   1      45.318  35.210  31.010  1.00  0.00     0.000 A 
ENDBRANCH  61  74
ENDBRANCH  35  36
ENDBRANCH  27  30
ENDBRANCH  25  26
ENDBRANCH  24  25
ENDBRANCH   1  24
TORSDOF 13
ENDMDL
MODEL 3
REMARK VINA RESULT:     -11.4      5.240     10.653
REMARK SMILES CC(C)N1C[C@@H](C(=O)N2CCC(C(=O)NCCCCNC(=O)c3ccc(-c4c5nc(c(-c6ccccc6)c6ccc([nH]6)c(-c6ccccc6)c6nc(c(-c7ccccc7)c7ccc4[nH]7)C=C6)C=C5)cc3)CC2)CC1=O
REMARK SMILES IDX 17 1 16 2 15 3 13 4 14 5 12 7 7 8 8 9 9 10 10 11 72 12 11 13
REMARK SMILES IDX 71 14 6 15 4 16 5 17 74 18 73 19 75 20 2 21 1 22 3 23 18 24
REMARK SMILES IDX 19 25 20 26 21 27 22 29 23 30 24 31 70 32 25 33 69 34 26 35
REMARK SMILES IDX 27 36 28 37 63 38 29 39 68 40 62 41 64 42 30 43 67 44 61 45
REMARK SMILES IDX 60 46 31 48 53 49 38 50 52 51 39 52 42 53 51 54 65 55 40 56
REMARK SMILES IDX 41 57 50 59 66 60 43 61 32 62 33 63 37 64 34 65 36 66 35 67
REMARK SMILES IDX 54 68 55 69 59 70 56 71 58 72 57 73 44 74 45 75 49 76 46 77
REMARK SMILES IDX 48 78 47 79
REMARK H PARENT 15 6 20 28 64 47 42 58
REMARK Flexibility Score: inf
ROOT
ATOM      1  C   UNL A   1      31.842  30.276  26.737  1.00  0.00     0.023 C 
ENDROOT
BRANCH   1   2
ATOM      2  C   UNL A   1      32.270  29.708  25.386  1.00  0.00     0.116 C 
BRANCH   2   3
ATOM      3  N   UNL A   1      31.202  28.942  24.762  1.00  0.00    -0.356 N 
ATOM      4  C   UNL A   1      31.126  27.622  24.438  1.00  0.00     0.223 C 
ATOM      5  O   UNL A   1      30.103  27.222  23.879  1.00  0.00    -0.275 OA
ATOM      6  H   UNL A   1      30.399  29.467  24.537  1.00  0.00     0.163 HD
BRANCH   4   7
ATOM      7  C   UNL A   1      32.249  26.652  24.778  1.00  0.00     0.082 C 
ATOM      8  C   UNL A   1      32.413  22.654  24.732  1.00  0.00     0.227 C 
ATOM      9  O   UNL A   1      31.287  22.451  25.194  1.00  0.00    -0.274 OA
ATOM     10  N   UNL A   1      33.027  23.883  24.895  1.00  0.00    -0.342 N 
ATOM     11  C   UNL A   1      32.833  24.598  26.149  1.00  0.00     0.120 C 
ATOM     12  C   UNL A   1      33.579  24.684  23.816  1.00  0.00     0.120 C 
ATOM     13  C   UNL A   1      31.902  25.784  25.993  1.00  0.00     0.035 C 
ATOM     14  C   UNL A   1      32.696  25.892  23.520  1.00  0.00     0.035 C 
BRANCH   8  15
ATOM     15  C   UNL A   1      33.237  21.472  24.228  1.00  0.00     0.107 C 
ATOM     16  N   UNL A   1      33.371  19.135  24.417  1.00  0.00    -0.339 N 
ATOM     17  C   UNL A   1      32.407  20.197  24.299  1.00  0.00     0.133 C 
ATOM     18  C   UNL A   1      34.646  19.606  24.677  1.00  0.00     0.223 C 
ATOM     19  C   UNL A   1      34.571  21.102  24.854  1.00  0.00     0.115 C 
ATOM     20  O   UNL A   1      35.664  18.945  24.805  1.00  0.00    -0.275 OA
BRANCH  16  21
ATOM     21  C   UNL A   1      32.985  17.735  24.249  1.00  0.00     0.078 C 
ATOM     22  C   UNL A   1      33.845  17.050  23.192  1.00  0.00     0.031 C 
ATOM     23  C   UNL A   1      32.999  16.964  25.569  1.00  0.00     0.031 C 
ENDBRANCH  16  21
ENDBRANCH   8  15
ENDBRANCH   4   7
ENDBRANCH   2   3
ENDBRANCH   1   2
BRANCH   1  24
ATOM     24  C   UNL A   1      31.621  31.786  26.745  1.00  0.00     0.023 C 
BRANCH  24  25
ATOM     25  C   UNL A   1      32.792  32.600  27.281  1.00  0.00     0.116 C 
BRANCH  25  26
ATOM     26  N   UNL A   1      32.439  33.982  27.568  1.00  0.00    -0.352 N 
ATOM     27  C   UNL A   1      32.992  34.839  28.489  1.00  0.00     0.251 C 
ATOM     28  H   UNL A   1      31.703  34.353  27.030  1.00  0.00     0.163 HD
ATOM     29  O   UNL A   1      32.486  35.934  28.705  1.00  0.00    -0.269 OA
BRANCH  27  30
ATOM     30  C   UNL A   1      34.187  34.412  29.245  1.00  0.00     0.039 A 
ATOM     31  C   UNL A   1      34.019  33.852  30.512  1.00  0.00     0.014 A 
ATOM     32  C   UNL A   1      35.462  34.529  28.685  1.00  0.00     0.014 A 
ATOM     33  C   UNL A   1      35.127  33.340  31.189  1.00  0.00     0.010 A 
ATOM     34  C   UNL A   1      36.549  33.943  29.322  1.00  0.00     0.010 A 
ATOM     35  C   UNL A   1      36.393  33.345  30.582  1.00  0.00    -0.014 A 
BRANCH  35  36
ATOM     36  C   UNL A   1      37.566  32.724  31.247  1.00  0.00     0.031 A 
ATOM     37  C   UNL A   1      38.252  31.540  30.622  1.00  0.00     0.074 A 
ATOM     38  C   UNL A   1      37.976  33.186  32.445  1.00  0.00     0.049 A 
ATOM     39  N   UNL A   1      39.257  30.836  31.075  1.00  0.00    -0.248 NA
ATOM     40  C   UNL A   1      37.722  31.071  29.330  1.00  0.00     0.031 C 
ATOM     41  C   UNL A   1      37.370  34.300  33.178  1.00  0.00     0.029 A 
ATOM     42  N   UNL A   1      38.999  32.771  33.260  1.00  0.00    -0.354 N 
ATOM     43  C   UNL A   1      39.468  29.834  30.136  1.00  0.00     0.074 A 
ATOM     44  C   UNL A   1      38.453  29.988  29.117  1.00  0.00     0.031 C 
ATOM     45  C   UNL A   1      38.052  34.499  34.317  1.00  0.00     0.029 A 
ATOM     46  C   UNL A   1      39.113  33.502  34.418  1.00  0.00     0.049 A 
ATOM     47  H   UNL A   1      39.597  32.021  33.036  1.00  0.00     0.167 HD
ATOM     48  C   UNL A   1      40.432  28.884  30.111  1.00  0.00     0.031 A 
ATOM     49  C   UNL A   1      39.969  33.380  35.449  1.00  0.00     0.031 A 
ATOM     50  C   UNL A   1      41.445  28.735  31.122  1.00  0.00     0.049 A 
ATOM     51  C   UNL A   1      41.017  32.302  35.410  1.00  0.00     0.074 A 
ATOM     52  C   UNL A   1      42.500  27.840  31.157  1.00  0.00     0.029 A 
ATOM     53  N   UNL A   1      41.525  29.496  32.278  1.00  0.00    -0.354 N 
ATOM     54  N   UNL A   1      41.250  31.410  34.478  1.00  0.00    -0.248 NA
ATOM     55  C   UNL A   1      41.929  32.225  36.559  1.00  0.00     0.031 C 
ATOM     56  C   UNL A   1      43.181  28.017  32.366  1.00  0.00     0.029 A 
ATOM     57  C   UNL A   1      42.593  29.070  33.049  1.00  0.00     0.049 A 
ATOM     58  H   UNL A   1      40.913  30.230  32.515  1.00  0.00     0.167 HD
ATOM     59  C   UNL A   1      42.351  30.685  34.914  1.00  0.00     0.074 A 
ATOM     60  C   UNL A   1      42.750  31.253  36.185  1.00  0.00     0.031 C 
ATOM     61  C   UNL A   1      42.976  29.643  34.315  1.00  0.00     0.031 A 
BRANCH  48  62
ATOM     62  C   UNL A   1      40.427  27.919  28.956  1.00  0.00    -0.014 A 
ATOM     63  C   UNL A   1      39.717  26.709  29.018  1.00  0.00     0.009 A 
ATOM     64  C   UNL A   1      41.115  28.242  27.776  1.00  0.00     0.009 A 
ATOM     65  C   UNL A   1      39.728  25.826  27.936  1.00  0.00     0.001 A 
ATOM     66  C   UNL A   1      41.096  27.373  26.684  1.00  0.00     0.001 A 
ATOM     67  C   UNL A   1      40.412  26.161  26.768  1.00  0.00     0.000 A 
ENDBRANCH  48  62
BRANCH  49  68
ATOM     68  C   UNL A   1      39.879  34.309  36.608  1.00  0.00    -0.014 A 
ATOM     69  C   UNL A   1      40.516  35.559  36.571  1.00  0.00     0.009 A 
ATOM     70  C   UNL A   1      39.160  33.949  37.759  1.00  0.00     0.009 A 
ATOM     71  C   UNL A   1      40.459  36.415  37.675  1.00  0.00     0.001 A 
ATOM     72  C   UNL A   1      39.077  34.821  38.846  1.00  0.00     0.001 A 
ATOM     73  C   UNL A   1      39.736  36.048  38.808  1.00  0.00     0.000 A 
ENDBRANCH  49  68
BRANCH  61  74
ATOM     74  C   UNL A   1      44.184  29.072  35.006  1.00  0.00    -0.014 A 
ATOM     75  C   UNL A   1      44.074  28.006  35.912  1.00  0.00     0.009 A 
ATOM     76  C   UNL A   1      45.457  29.586  34.712  1.00  0.00     0.009 A 
ATOM     77  C   UNL A   1      45.213  27.489  36.536  1.00  0.00     0.001 A 
ATOM     78  C   UNL A   1      46.597  29.045  35.310  1.00  0.00     0.001 A 
ATOM     79  C   UNL A   1      46.472  28.005  36.230  1.00  0.00     0.000 A 
ENDBRANCH  61  74
ENDBRANCH  35  36
ENDBRANCH  27  30
ENDBRANCH  25  26
ENDBRANCH  24  25
ENDBRANCH   1  24
TORSDOF 13
ENDMDL
