MODEL 1
REMARK VINA RESULT:     -12.6      0.000      0.000
REMARK SMILES COC(=O)c1ccc(C)c(NC(=O)[C@H]2CC=CC[C@H]2C(=O)NCCCCNC(=O)c2ccc(-c3c4nc(c(-c5ccccc5)c5ccc([nH]5)c(-c5ccccc5)c5nc(c(-c6ccccc6)c6ccc3[nH]6)C=C5)C=C4)cc2)c1
REMARK SMILES IDX 23 1 22 2 20 3 21 4 19 6 14 7 15 8 16 9 18 10 17 11 12 12
REMARK SMILES IDX 11 13 13 15 10 16 5 17 6 18 78 19 7 20 8 21 9 22 3 23 4 24
REMARK SMILES IDX 2 25 1 26 24 27 25 28 26 29 27 30 28 31 29 33 30 34 31 35
REMARK SMILES IDX 77 36 32 37 76 38 33 39 34 40 35 41 70 42 36 43 75 44 69 45
REMARK SMILES IDX 71 46 37 47 74 48 68 49 67 50 38 52 60 53 45 54 59 55 46 56
REMARK SMILES IDX 49 57 58 58 72 59 47 60 48 61 57 63 73 64 50 65 39 66 40 67
REMARK SMILES IDX 44 68 41 69 43 70 42 71 61 72 62 73 66 74 63 75 65 76 64 77
REMARK SMILES IDX 51 78 52 79 56 80 53 81 55 82 54 83
REMARK H PARENT 22 5 11 14 27 32 71 51 49 62
REMARK Flexibility Score: inf
ROOT
ATOM      1  C   UNL A   1      36.284  23.323  23.964  1.00  0.00     0.116 C 
ENDROOT
BRANCH   1   2
ATOM      2  N   UNL A   1      34.949  23.353  23.405  1.00  0.00    -0.356 N 
ATOM      3  C   UNL A   1      34.009  24.341  23.377  1.00  0.00     0.224 C 
ATOM      4  O   UNL A   1      33.172  24.280  22.469  1.00  0.00    -0.275 OA
ATOM      5  H   UNL A   1      34.672  22.515  22.967  1.00  0.00     0.163 HD
BRANCH   3   6
ATOM      6  C   UNL A   1      33.937  25.494  24.376  1.00  0.00     0.095 C 
ATOM      7  C   UNL A   1      33.654  26.916  23.815  1.00  0.00     0.095 C 
ATOM      8  C   UNL A   1      32.875  27.853  24.787  1.00  0.00     0.041 C 
ATOM      9  C   UNL A   1      32.097  27.219  25.892  1.00  0.00    -0.030 C 
ATOM     10  C   UNL A   1      33.224  25.015  25.657  1.00  0.00     0.041 C 
ATOM     11  C   UNL A   1      32.255  25.954  26.282  1.00  0.00    -0.030 C 
BRANCH   7  12
ATOM     12  C   UNL A   1      33.106  27.056  22.391  1.00  0.00     0.228 C 
ATOM     13  N   UNL A   1      31.808  27.227  22.038  1.00  0.00    -0.326 N 
ATOM     14  H   UNL A   1      31.728  27.378  21.068  1.00  0.00     0.169 HD
ATOM     15  O   UNL A   1      33.881  27.051  21.423  1.00  0.00    -0.274 OA
BRANCH  13  16
ATOM     16  C   UNL A   1      30.546  27.252  22.651  1.00  0.00     0.044 A 
ATOM     17  C   UNL A   1      28.591  28.715  22.985  1.00  0.00     0.062 A 
ATOM     18  C   UNL A   1      27.955  27.701  23.689  1.00  0.00     0.016 A 
ATOM     19  C   UNL A   1      29.865  28.469  22.469  1.00  0.00     0.042 A 
ATOM     20  C   UNL A   1      28.593  26.464  23.839  1.00  0.00     0.006 A 
ATOM     21  C   UNL A   1      29.882  26.212  23.305  1.00  0.00    -0.027 A 
ATOM     22  C   UNL A   1      30.404  24.812  23.401  1.00  0.00     0.046 C 
BRANCH  17  23
ATOM     23  C   UNL A   1      27.891  30.013  22.737  1.00  0.00     0.337 C 
ATOM     24  O   UNL A   1      27.274  30.632  23.566  1.00  0.00    -0.246 OA
BRANCH  23  25
ATOM     25  O   UNL A   1      27.997  30.325  21.413  1.00  0.00    -0.465 OA
ATOM     26  C   UNL A   1      28.287  31.696  21.142  1.00  0.00     0.282 C 
ENDBRANCH  23  25
ENDBRANCH  17  23
ENDBRANCH  13  16
ENDBRANCH   7  12
ENDBRANCH   3   6
ENDBRANCH   1   2
BRANCH   1  27
ATOM     27  C   UNL A   1      36.919  21.958  24.238  1.00  0.00     0.023 C 
BRANCH  27  28
ATOM     28  C   UNL A   1      37.976  21.757  25.322  1.00  0.00     0.023 C 
BRANCH  28  29
ATOM     29  C   UNL A   1      38.448  22.996  26.071  1.00  0.00     0.116 C 
BRANCH  29  30
ATOM     30  N   UNL A   1      39.913  23.035  26.199  1.00  0.00    -0.352 N 
ATOM     31  C   UNL A   1      40.731  24.039  26.687  1.00  0.00     0.251 C 
ATOM     32  H   UNL A   1      40.383  22.226  25.892  1.00  0.00     0.163 HD
ATOM     33  O   UNL A   1      41.929  23.860  26.860  1.00  0.00    -0.269 OA
BRANCH  31  34
ATOM     34  C   UNL A   1      40.097  25.295  27.110  1.00  0.00     0.039 A 
ATOM     35  C   UNL A   1      40.507  26.474  26.484  1.00  0.00     0.014 A 
ATOM     36  C   UNL A   1      39.397  25.312  28.311  1.00  0.00     0.014 A 
ATOM     37  C   UNL A   1      40.475  27.648  27.217  1.00  0.00     0.010 A 
ATOM     38  C   UNL A   1      39.425  26.454  29.069  1.00  0.00     0.010 A 
ATOM     39  C   UNL A   1      40.043  27.588  28.544  1.00  0.00    -0.014 A 
BRANCH  39  40
ATOM     40  C   UNL A   1      40.249  28.674  29.477  1.00  0.00     0.031 A 
ATOM     41  C   UNL A   1      39.178  29.659  29.617  1.00  0.00     0.074 A 
ATOM     42  C   UNL A   1      41.410  28.764  30.155  1.00  0.00     0.049 A 
ATOM     43  N   UNL A   1      39.376  30.914  29.805  1.00  0.00    -0.248 NA
ATOM     44  C   UNL A   1      37.774  29.299  29.465  1.00  0.00     0.031 C 
ATOM     45  C   UNL A   1      41.772  29.714  31.199  1.00  0.00     0.029 A 
ATOM     46  N   UNL A   1      42.605  28.111  29.845  1.00  0.00    -0.354 N 
ATOM     47  C   UNL A   1      38.153  31.467  30.099  1.00  0.00     0.074 A 
ATOM     48  C   UNL A   1      37.181  30.460  29.750  1.00  0.00     0.031 C 
ATOM     49  C   UNL A   1      43.113  29.791  31.261  1.00  0.00     0.029 A 
ATOM     50  C   UNL A   1      43.652  28.987  30.172  1.00  0.00     0.049 A 
ATOM     51  H   UNL A   1      42.695  27.206  29.468  1.00  0.00     0.167 HD
ATOM     52  C   UNL A   1      38.114  32.649  30.773  1.00  0.00     0.031 A 
ATOM     53  C   UNL A   1      44.481  29.451  29.193  1.00  0.00     0.031 A 
ATOM     54  C   UNL A   1      39.464  33.159  31.012  1.00  0.00     0.049 A 
ATOM     55  C   UNL A   1      44.354  30.945  28.976  1.00  0.00     0.074 A 
ATOM     56  C   UNL A   1      40.305  33.079  32.110  1.00  0.00     0.029 A 
ATOM     57  N   UNL A   1      40.261  33.513  29.929  1.00  0.00    -0.354 N 
ATOM     58  N   UNL A   1      43.332  31.658  29.369  1.00  0.00    -0.248 NA
ATOM     59  C   UNL A   1      45.363  31.751  28.294  1.00  0.00     0.031 C 
ATOM     60  C   UNL A   1      41.632  33.314  31.662  1.00  0.00     0.029 A 
ATOM     61  C   UNL A   1      41.590  33.573  30.304  1.00  0.00     0.049 A 
ATOM     62  H   UNL A   1      39.925  33.695  29.022  1.00  0.00     0.167 HD
ATOM     63  C   UNL A   1      43.528  32.973  29.031  1.00  0.00     0.074 A 
ATOM     64  C   UNL A   1      44.818  32.979  28.364  1.00  0.00     0.031 C 
ATOM     65  C   UNL A   1      42.613  33.943  29.331  1.00  0.00     0.031 A 
BRANCH  52  66
ATOM     66  C   UNL A   1      36.886  33.143  31.496  1.00  0.00    -0.014 A 
ATOM     67  C   UNL A   1      36.702  32.803  32.849  1.00  0.00     0.009 A 
ATOM     68  C   UNL A   1      35.854  33.889  30.903  1.00  0.00     0.009 A 
ATOM     69  C   UNL A   1      35.520  33.107  33.537  1.00  0.00     0.001 A 
ATOM     70  C   UNL A   1      34.652  34.163  31.572  1.00  0.00     0.001 A 
ATOM     71  C   UNL A   1      34.483  33.764  32.889  1.00  0.00     0.000 A 
ENDBRANCH  52  66
BRANCH  53  72
ATOM     72  C   UNL A   1      44.763  28.440  28.132  1.00  0.00    -0.014 A 
ATOM     73  C   UNL A   1      45.222  27.166  28.533  1.00  0.00     0.009 A 
ATOM     74  C   UNL A   1      44.243  28.577  26.837  1.00  0.00     0.009 A 
ATOM     75  C   UNL A   1      45.054  26.046  27.713  1.00  0.00     0.001 A 
ATOM     76  C   UNL A   1      44.087  27.452  26.015  1.00  0.00     0.001 A 
ATOM     77  C   UNL A   1      44.455  26.185  26.466  1.00  0.00     0.000 A 
ENDBRANCH  53  72
BRANCH  65  78
ATOM     78  C   UNL A   1      42.598  35.366  28.812  1.00  0.00    -0.014 A 
ATOM     79  C   UNL A   1      41.845  35.810  27.720  1.00  0.00     0.009 A 
ATOM     80  C   UNL A   1      43.288  36.364  29.543  1.00  0.00     0.009 A 
ATOM     81  C   UNL A   1      41.812  37.166  27.357  1.00  0.00     0.001 A 
ATOM     82  C   UNL A   1      43.212  37.720  29.222  1.00  0.00     0.001 A 
ATOM     83  C   UNL A   1      42.481  38.121  28.116  1.00  0.00     0.000 A 
ENDBRANCH  65  78
ENDBRANCH  39  40
ENDBRANCH  31  34
ENDBRANCH  29  30
ENDBRANCH  28  29
ENDBRANCH  27  28
ENDBRANCH   1  27
TORSDOF 15
ENDMDL
MODEL 2
REMARK VINA RESULT:     -12.5      3.206      8.154
REMARK SMILES COC(=O)c1ccc(C)c(NC(=O)[C@H]2CC=CC[C@H]2C(=O)NCCCCNC(=O)c2ccc(-c3c4nc(c(-c5ccccc5)c5ccc([nH]5)c(-c5ccccc5)c5nc(c(-c6ccccc6)c6ccc3[nH]6)C=C5)C=C4)cc2)c1
REMARK SMILES IDX 23 1 22 2 20 3 21 4 19 6 14 7 15 8 16 9 18 10 17 11 12 12
REMARK SMILES IDX 11 13 13 15 10 16 5 17 6 18 78 19 7 20 8 21 9 22 3 23 4 24
REMARK SMILES IDX 2 25 1 26 24 27 25 28 26 29 27 30 28 31 29 33 30 34 31 35
REMARK SMILES IDX 77 36 32 37 76 38 33 39 34 40 35 41 70 42 36 43 75 44 69 45
REMARK SMILES IDX 71 46 37 47 74 48 68 49 67 50 38 52 60 53 45 54 59 55 46 56
REMARK SMILES IDX 49 57 58 58 72 59 47 60 48 61 57 63 73 64 50 65 39 66 40 67
REMARK SMILES IDX 44 68 41 69 43 70 42 71 61 72 62 73 66 74 63 75 65 76 64 77
REMARK SMILES IDX 51 78 52 79 56 80 53 81 55 82 54 83
REMARK H PARENT 22 5 11 14 27 32 71 51 49 62
REMARK Flexibility Score: inf
ROOT
ATOM      1  C   UNL A   1      31.857  29.971  25.705  1.00  0.00     0.116 C 
ENDROOT
BRANCH   1   2
ATOM      2  N   UNL A   1      33.118  29.596  25.099  1.00  0.00    -0.356 N 
ATOM      3  C   UNL A   1      33.542  28.414  24.566  1.00  0.00     0.224 C 
ATOM      4  O   UNL A   1      34.447  28.482  23.725  1.00  0.00    -0.275 OA
ATOM      5  H   UNL A   1      33.785  30.321  25.066  1.00  0.00     0.163 HD
BRANCH   3   6
ATOM      6  C   UNL A   1      32.973  27.046  24.933  1.00  0.00     0.095 C 
ATOM      7  C   UNL A   1      31.957  26.401  23.949  1.00  0.00     0.095 C 
ATOM      8  C   UNL A   1      31.982  24.842  23.920  1.00  0.00     0.041 C 
ATOM      9  C   UNL A   1      33.207  24.156  24.429  1.00  0.00    -0.030 C 
ATOM     10  C   UNL A   1      34.083  26.185  25.569  1.00  0.00     0.041 C 
ATOM     11  C   UNL A   1      34.142  24.754  25.168  1.00  0.00    -0.030 C 
BRANCH   7  12
ATOM     12  C   UNL A   1      31.851  26.955  22.524  1.00  0.00     0.228 C 
ATOM     13  N   UNL A   1      30.896  27.793  22.052  1.00  0.00    -0.326 N 
ATOM     14  H   UNL A   1      31.100  28.070  21.129  1.00  0.00     0.169 HD
ATOM     15  O   UNL A   1      32.712  26.667  21.679  1.00  0.00    -0.274 OA
BRANCH  13  16
ATOM     16  C   UNL A   1      29.701  28.382  22.495  1.00  0.00     0.044 A 
ATOM     17  C   UNL A   1      28.388  30.459  22.307  1.00  0.00     0.062 A 
ATOM     18  C   UNL A   1      27.401  29.906  23.112  1.00  0.00     0.016 A 
ATOM     19  C   UNL A   1      29.510  29.685  22.002  1.00  0.00     0.042 A 
ATOM     20  C   UNL A   1      27.547  28.591  23.572  1.00  0.00     0.006 A 
ATOM     21  C   UNL A   1      28.681  27.804  23.254  1.00  0.00    -0.027 A 
ATOM     22  C   UNL A   1      28.663  26.368  23.679  1.00  0.00     0.046 C 
BRANCH  17  23
ATOM     23  C   UNL A   1      28.211  31.828  21.733  1.00  0.00     0.337 C 
ATOM     24  O   UNL A   1      28.307  32.103  20.564  1.00  0.00    -0.246 OA
BRANCH  23  25
ATOM     25  O   UNL A   1      28.013  32.713  22.753  1.00  0.00    -0.465 OA
ATOM     26  C   UNL A   1      29.160  33.480  23.113  1.00  0.00     0.282 C 
ENDBRANCH  23  25
ENDBRANCH  17  23
ENDBRANCH  13  16
ENDBRANCH   7  12
ENDBRANCH   3   6
ENDBRANCH   1   2
BRANCH   1  27
ATOM     27  C   UNL A   1      31.876  31.032  26.807  1.00  0.00     0.023 C 
BRANCH  27  28
ATOM     28  C   UNL A   1      33.171  31.694  27.273  1.00  0.00     0.023 C 
BRANCH  28  29
ATOM     29  C   UNL A   1      34.187  30.811  27.984  1.00  0.00     0.116 C 
BRANCH  29  30
ATOM     30  N   UNL A   1      34.770  31.480  29.158  1.00  0.00    -0.352 N 
ATOM     31  C   UNL A   1      35.971  31.245  29.803  1.00  0.00     0.251 C 
ATOM     32  H   UNL A   1      34.224  32.205  29.543  1.00  0.00     0.163 HD
ATOM     33  O   UNL A   1      36.380  31.989  30.685  1.00  0.00    -0.269 OA
BRANCH  31  34
ATOM     34  C   UNL A   1      36.808  30.141  29.313  1.00  0.00     0.039 A 
ATOM     35  C   UNL A   1      37.110  29.109  30.204  1.00  0.00     0.014 A 
ATOM     36  C   UNL A   1      37.529  30.327  28.140  1.00  0.00     0.014 A 
ATOM     37  C   UNL A   1      38.323  28.457  30.061  1.00  0.00     0.010 A 
ATOM     38  C   UNL A   1      38.762  29.736  28.029  1.00  0.00     0.010 A 
ATOM     39  C   UNL A   1      39.180  28.872  29.039  1.00  0.00    -0.014 A 
BRANCH  39  40
ATOM     40  C   UNL A   1      40.570  28.474  28.983  1.00  0.00     0.031 A 
ATOM     41  C   UNL A   1      40.878  27.164  28.412  1.00  0.00     0.074 A 
ATOM     42  C   UNL A   1      41.521  29.292  29.477  1.00  0.00     0.049 A 
ATOM     43  N   UNL A   1      41.812  26.394  28.843  1.00  0.00    -0.248 NA
ATOM     44  C   UNL A   1      40.077  26.582  27.343  1.00  0.00     0.031 C 
ATOM     45  C   UNL A   1      42.968  29.123  29.429  1.00  0.00     0.029 A 
ATOM     46  N   UNL A   1      41.322  30.368  30.344  1.00  0.00    -0.354 N 
ATOM     47  C   UNL A   1      41.932  25.372  27.932  1.00  0.00     0.074 A 
ATOM     48  C   UNL A   1      40.757  25.460  27.098  1.00  0.00     0.031 C 
ATOM     49  C   UNL A   1      43.517  29.854  30.415  1.00  0.00     0.029 A 
ATOM     50  C   UNL A   1      42.430  30.414  31.206  1.00  0.00     0.049 A 
ATOM     51  H   UNL A   1      40.550  30.978  30.350  1.00  0.00     0.167 HD
ATOM     52  C   UNL A   1      43.102  24.679  27.876  1.00  0.00     0.031 A 
ATOM     53  C   UNL A   1      42.257  30.223  32.546  1.00  0.00     0.031 A 
ATOM     54  C   UNL A   1      44.035  25.146  28.900  1.00  0.00     0.049 A 
ATOM     55  C   UNL A   1      42.917  28.956  33.047  1.00  0.00     0.074 A 
ATOM     56  C   UNL A   1      45.089  26.045  28.855  1.00  0.00     0.029 A 
ATOM     57  N   UNL A   1      43.711  24.986  30.243  1.00  0.00    -0.354 N 
ATOM     58  N   UNL A   1      43.272  27.961  32.279  1.00  0.00    -0.248 NA
ATOM     59  C   UNL A   1      43.225  28.707  34.453  1.00  0.00     0.031 C 
ATOM     60  C   UNL A   1      45.347  26.483  30.180  1.00  0.00     0.029 A 
ATOM     61  C   UNL A   1      44.478  25.824  31.030  1.00  0.00     0.049 A 
ATOM     62  H   UNL A   1      43.030  24.362  30.585  1.00  0.00     0.167 HD
ATOM     63  C   UNL A   1      43.851  26.974  33.035  1.00  0.00     0.074 A 
ATOM     64  C   UNL A   1      43.801  27.493  34.391  1.00  0.00     0.031 C 
ATOM     65  C   UNL A   1      44.322  25.817  32.482  1.00  0.00     0.031 A 
BRANCH  52  66
ATOM     66  C   UNL A   1      43.503  23.837  26.690  1.00  0.00    -0.014 A 
ATOM     67  C   UNL A   1      43.270  22.450  26.722  1.00  0.00     0.009 A 
ATOM     68  C   UNL A   1      44.158  24.326  25.547  1.00  0.00     0.009 A 
ATOM     69  C   UNL A   1      43.746  21.594  25.720  1.00  0.00     0.001 A 
ATOM     70  C   UNL A   1      44.671  23.473  24.560  1.00  0.00     0.001 A 
ATOM     71  C   UNL A   1      44.471  22.103  24.651  1.00  0.00     0.000 A 
ENDBRANCH  52  66
BRANCH  53  72
ATOM     72  C   UNL A   1      40.983  30.802  33.065  1.00  0.00    -0.014 A 
ATOM     73  C   UNL A   1      39.879  29.936  33.232  1.00  0.00     0.009 A 
ATOM     74  C   UNL A   1      40.959  32.038  33.727  1.00  0.00     0.009 A 
ATOM     75  C   UNL A   1      38.847  30.244  34.125  1.00  0.00     0.001 A 
ATOM     76  C   UNL A   1      39.916  32.345  34.612  1.00  0.00     0.001 A 
ATOM     77  C   UNL A   1      38.885  31.436  34.841  1.00  0.00     0.000 A 
ENDBRANCH  53  72
BRANCH  65  78
ATOM     78  C   UNL A   1      44.756  24.569  33.223  1.00  0.00    -0.014 A 
ATOM     79  C   UNL A   1      46.055  24.319  33.674  1.00  0.00     0.009 A 
ATOM     80  C   UNL A   1      43.768  23.631  33.611  1.00  0.00     0.009 A 
ATOM     81  C   UNL A   1      46.359  23.180  34.437  1.00  0.00     0.001 A 
ATOM     82  C   UNL A   1      44.052  22.528  34.418  1.00  0.00     0.001 A 
ATOM     83  C   UNL A   1      45.356  22.295  34.821  1.00  0.00     0.000 A 
ENDBRANCH  65  78
ENDBRANCH  39  40
ENDBRANCH  31  34
ENDBRANCH  29  30
ENDBRANCH  28  29
ENDBRANCH  27  28
ENDBRANCH   1  27
TORSDOF 15
ENDMDL
MODEL 3
REMARK VINA RESULT:     -12.4      3.284      8.829
REMARK SMILES COC(=O)c1ccc(C)c(NC(=O)[C@H]2CC=CC[C@H]2C(=O)NCCCCNC(=O)c2ccc(-c3c4nc(c(-c5ccccc5)c5ccc([nH]5)c(-c5ccccc5)c5nc(c(-c6ccccc6)c6ccc3[nH]6)C=C5)C=C4)cc2)c1
REMARK SMILES IDX 23 1 22 2 20 3 21 4 19 6 14 7 15 8 16 9 18 10 17 11 12 12
REMARK SMILES IDX 11 13 13 15 10 16 5 17 6 18 78 19 7 20 8 21 9 22 3 23 4 24
REMARK SMILES IDX 2 25 1 26 24 27 25 28 26 29 27 30 28 31 29 33 30 34 31 35
REMARK SMILES IDX 77 36 32 37 76 38 33 39 34 40 35 41 70 42 36 43 75 44 69 45
REMARK SMILES IDX 71 46 37 47 74 48 68 49 67 50 38 52 60 53 45 54 59 55 46 56
REMARK SMILES IDX 49 57 58 58 72 59 47 60 48 61 57 63 73 64 50 65 39 66 40 67
REMARK SMILES IDX 44 68 41 69 43 70 42 71 61 72 62 73 66 74 63 75 65 76 64 77
REMARK SMILES IDX 51 78 52 79 56 80 53 81 55 82 54 83
REMARK H PARENT 22 5 11 14 27 32 71 51 49 62
REMARK Flexibility Score: inf
ROOT
ATOM      1  C   UNL A   1      33.058  29.212  24.384  1.00  0.00     0.116 C 
ENDROOT
BRANCH   1   2
ATOM      2  N   UNL A   1      33.593  27.870  24.290  1.00  0.00    -0.356 N 
ATOM      3  C   UNL A   1      33.123  26.759  23.654  1.00  0.00     0.224 C 
ATOM      4  O   UNL A   1      33.962  25.905  23.344  1.00  0.00    -0.275 OA
ATOM      5  H   UNL A   1      34.444  27.736  24.768  1.00  0.00     0.163 HD
BRANCH   3   6
ATOM      6  C   UNL A   1      31.656  26.517  23.304  1.00  0.00     0.095 C 
ATOM      7  C   UNL A   1      30.748  25.894  24.401  1.00  0.00     0.095 C 
ATOM      8  C   UNL A   1      29.254  26.335  24.334  1.00  0.00     0.041 C 
ATOM      9  C   UNL A   1      28.932  27.591  23.595  1.00  0.00    -0.030 C 
ATOM     10  C   UNL A   1      31.136  27.690  22.448  1.00  0.00     0.041 C 
ATOM     11  C   UNL A   1      29.770  28.194  22.750  1.00  0.00    -0.030 C 
BRANCH   7  12
ATOM     12  C   UNL A   1      31.234  25.891  25.854  1.00  0.00     0.228 C 
ATOM     13  N   UNL A   1      32.091  25.004  26.418  1.00  0.00    -0.326 N 
ATOM     14  H   UNL A   1      32.313  25.271  27.340  1.00  0.00     0.169 HD
ATOM     15  O   UNL A   1      30.866  26.781  26.634  1.00  0.00    -0.274 OA
BRANCH  13  16
ATOM     16  C   UNL A   1      32.755  23.817  26.071  1.00  0.00     0.044 A 
ATOM     17  C   UNL A   1      35.018  22.869  25.837  1.00  0.00     0.062 A 
ATOM     18  C   UNL A   1      34.466  21.643  25.490  1.00  0.00     0.016 A 
ATOM     19  C   UNL A   1      34.155  23.927  26.133  1.00  0.00     0.042 A 
ATOM     20  C   UNL A   1      33.074  21.497  25.471  1.00  0.00     0.006 A 
ATOM     21  C   UNL A   1      32.200  22.569  25.782  1.00  0.00    -0.027 A 
ATOM     22  C   UNL A   1      30.737  22.260  25.870  1.00  0.00     0.046 C 
BRANCH  17  23
ATOM     23  C   UNL A   1      36.501  23.022  25.949  1.00  0.00     0.337 C 
ATOM     24  O   UNL A   1      37.076  24.071  26.092  1.00  0.00    -0.246 OA
BRANCH  23  25
ATOM     25  O   UNL A   1      37.085  21.801  25.778  1.00  0.00    -0.465 OA
ATOM     26  C   UNL A   1      38.511  21.820  25.723  1.00  0.00     0.282 C 
ENDBRANCH  23  25
ENDBRANCH  17  23
ENDBRANCH  13  16
ENDBRANCH   7  12
ENDBRANCH   3   6
ENDBRANCH   1   2
BRANCH   1  27
ATOM     27  C   UNL A   1      32.222  29.568  25.615  1.00  0.00     0.023 C 
BRANCH  27  28
ATOM     28  C   UNL A   1      32.768  30.444  26.741  1.00  0.00     0.023 C 
BRANCH  28  29
ATOM     29  C   UNL A   1      33.943  29.898  27.540  1.00  0.00     0.116 C 
BRANCH  29  30
ATOM     30  N   UNL A   1      34.555  30.930  28.392  1.00  0.00    -0.352 N 
ATOM     31  C   UNL A   1      35.822  30.980  28.946  1.00  0.00     0.251 C 
ATOM     32  H   UNL A   1      33.978  31.701  28.597  1.00  0.00     0.163 HD
ATOM     33  O   UNL A   1      36.231  31.982  29.518  1.00  0.00    -0.269 OA
BRANCH  31  34
ATOM     34  C   UNL A   1      36.714  29.833  28.724  1.00  0.00     0.039 A 
ATOM     35  C   UNL A   1      37.056  29.051  29.828  1.00  0.00     0.014 A 
ATOM     36  C   UNL A   1      37.438  29.778  27.538  1.00  0.00     0.014 A 
ATOM     37  C   UNL A   1      38.299  28.443  29.838  1.00  0.00     0.010 A 
ATOM     38  C   UNL A   1      38.698  29.238  27.566  1.00  0.00     0.010 A 
ATOM     39  C   UNL A   1      39.146  28.651  28.747  1.00  0.00    -0.014 A 
BRANCH  39  40
ATOM     40  C   UNL A   1      40.553  28.318  28.783  1.00  0.00     0.031 A 
ATOM     41  C   UNL A   1      40.956  27.016  28.254  1.00  0.00     0.074 A 
ATOM     42  C   UNL A   1      41.433  29.186  29.320  1.00  0.00     0.049 A 
ATOM     43  N   UNL A   1      41.895  26.297  28.754  1.00  0.00    -0.248 NA
ATOM     44  C   UNL A   1      40.250  26.381  27.148  1.00  0.00     0.031 C 
ATOM     45  C   UNL A   1      42.886  29.085  29.363  1.00  0.00     0.029 A 
ATOM     46  N   UNL A   1      41.132  30.264  30.154  1.00  0.00    -0.354 N 
ATOM     47  C   UNL A   1      42.118  25.268  27.870  1.00  0.00     0.074 A 
ATOM     48  C   UNL A   1      40.995  25.289  26.964  1.00  0.00     0.031 C 
ATOM     49  C   UNL A   1      43.339  29.854  30.368  1.00  0.00     0.029 A 
ATOM     50  C   UNL A   1      42.181  30.375  31.082  1.00  0.00     0.049 A 
ATOM     51  H   UNL A   1      40.334  30.838  30.103  1.00  0.00     0.167 HD
ATOM     52  C   UNL A   1      43.320  24.630  27.897  1.00  0.00     0.031 A 
ATOM     53  C   UNL A   1      41.935  30.195  32.412  1.00  0.00     0.031 A 
ATOM     54  C   UNL A   1      44.166  25.155  28.969  1.00  0.00     0.049 A 
ATOM     55  C   UNL A   1      42.620  28.967  32.974  1.00  0.00     0.074 A 
ATOM     56  C   UNL A   1      45.178  26.101  28.972  1.00  0.00     0.029 A 
ATOM     57  N   UNL A   1      43.767  24.999  30.291  1.00  0.00    -0.354 N 
ATOM     58  N   UNL A   1      43.067  27.979  32.246  1.00  0.00    -0.248 NA
ATOM     59  C   UNL A   1      42.851  28.753  34.400  1.00  0.00     0.031 C 
ATOM     60  C   UNL A   1      45.333  26.570  30.303  1.00  0.00     0.029 A 
ATOM     61  C   UNL A   1      44.444  25.883  31.110  1.00  0.00     0.049 A 
ATOM     62  H   UNL A   1      43.096  24.349  30.602  1.00  0.00     0.167 HD
ATOM     63  C   UNL A   1      43.643  27.031  33.053  1.00  0.00     0.074 A 
ATOM     64  C   UNL A   1      43.486  27.566  34.394  1.00  0.00     0.031 C 
ATOM     65  C   UNL A   1      44.199  25.889  32.549  1.00  0.00     0.031 A 
BRANCH  52  66
ATOM     66  C   UNL A   1      43.832  23.791  26.753  1.00  0.00    -0.014 A 
ATOM     67  C   UNL A   1      44.266  24.428  25.576  1.00  0.00     0.009 A 
ATOM     68  C   UNL A   1      43.862  22.386  26.741  1.00  0.00     0.009 A 
ATOM     69  C   UNL A   1      44.617  23.706  24.427  1.00  0.00     0.001 A 
ATOM     70  C   UNL A   1      44.175  21.657  25.585  1.00  0.00     0.001 A 
ATOM     71  C   UNL A   1      44.545  22.319  24.424  1.00  0.00     0.000 A 
ENDBRANCH  52  66
BRANCH  53  72
ATOM     72  C   UNL A   1      40.605  30.720  32.842  1.00  0.00    -0.014 A 
ATOM     73  C   UNL A   1      40.267  32.044  32.482  1.00  0.00     0.009 A 
ATOM     74  C   UNL A   1      39.573  29.858  33.235  1.00  0.00     0.009 A 
ATOM     75  C   UNL A   1      38.931  32.452  32.403  1.00  0.00     0.001 A 
ATOM     76  C   UNL A   1      38.236  30.277  33.165  1.00  0.00     0.001 A 
ATOM     77  C   UNL A   1      37.914  31.556  32.712  1.00  0.00     0.000 A 
ENDBRANCH  53  72
BRANCH  65  78
ATOM     78  C   UNL A   1      44.644  24.674  33.336  1.00  0.00    -0.014 A 
ATOM     79  C   UNL A   1      45.963  24.405  33.715  1.00  0.00     0.009 A 
ATOM     80  C   UNL A   1      43.656  23.797  33.848  1.00  0.00     0.009 A 
ATOM     81  C   UNL A   1      46.282  23.304  34.525  1.00  0.00     0.001 A 
ATOM     82  C   UNL A   1      43.960  22.736  34.702  1.00  0.00     0.001 A 
ATOM     83  C   UNL A   1      45.281  22.480  35.031  1.00  0.00     0.000 A 
ENDBRANCH  65  78
ENDBRANCH  39  40
ENDBRANCH  31  34
ENDBRANCH  29  30
ENDBRANCH  28  29
ENDBRANCH  27  28
ENDBRANCH   1  27
TORSDOF 15
ENDMDL
