MODEL 1
REMARK VINA RESULT:     -12.5      0.000      0.000
REMARK SMILES COc1ccccc1[C@@H]1C[N@@H+](Cc2cn3cc(C)ccc3n2)C[C@H]1C(=O)NCCCCNC(=O)c1ccc(-c2c3nc(c(-c4ccccc4)c4ccc([nH]4)c(-c4ccccc4)c4nc(c(-c5ccccc5)c5ccc2[nH]5)C=C4)C=C3)cc1
REMARK SMILES IDX 29 1 28 2 27 3 25 4 26 5 24 7 9 8 10 9 11 10 23 11 8 13 3 14
REMARK SMILES IDX 4 15 5 16 7 17 6 18 2 19 1 20 12 21 13 22 14 23 22 24 15 25
REMARK SMILES IDX 21 26 16 27 20 28 17 29 19 30 18 31 30 32 31 33 32 34 33 35
REMARK SMILES IDX 34 37 35 38 36 39 82 40 37 41 81 42 38 43 39 44 40 45 75 46
REMARK SMILES IDX 41 47 80 48 74 49 76 50 42 51 79 52 73 53 72 54 43 56 65 57
REMARK SMILES IDX 50 58 64 59 51 60 54 61 63 62 77 63 52 64 53 65 62 67 78 68
REMARK SMILES IDX 55 69 44 70 45 71 49 72 46 73 48 74 47 75 66 76 67 77 71 78
REMARK SMILES IDX 68 79 70 80 69 81 56 82 57 83 61 84 58 85 60 86 59 87
REMARK H PARENT 27 6 11 12 32 36 76 55 54 66
REMARK Flexibility Score: inf
ROOT
ATOM      1  C   UNL A   1      33.146  28.796  26.058  1.00  0.00     0.023 C 
ENDROOT
BRANCH   1   2
ATOM      2  C   UNL A   1      32.843  27.344  26.493  1.00  0.00     0.116 C 
BRANCH   2   3
ATOM      3  N   UNL A   1      33.801  26.305  26.133  1.00  0.00    -0.356 N 
ATOM      4  C   UNL A   1      34.016  25.420  25.121  1.00  0.00     0.229 C 
ATOM      5  O   UNL A   1      35.052  24.749  25.280  1.00  0.00    -0.275 OA
ATOM      6  H   UNL A   1      34.495  26.217  26.825  1.00  0.00     0.163 HD
BRANCH   4   7
ATOM      7  C   UNL A   1      33.211  25.181  23.825  1.00  0.00     0.146 C 
ATOM      8  C   UNL A   1      31.952  24.278  24.009  1.00  0.00     0.096 C 
ATOM      9  C   UNL A   1      30.904  24.848  23.043  1.00  0.00     0.272 C 
ATOM     10  N   UNL A   1      31.200  26.285  22.979  1.00  0.00    -0.329 N 
ATOM     11  C   UNL A   1      32.669  26.352  23.008  1.00  0.00     0.276 C 
ATOM     12  H   UNL A   1      30.828  26.702  22.126  1.00  0.00     0.348 HD
BRANCH   8  13
ATOM     13  C   UNL A   1      31.976  22.776  24.205  1.00  0.00     0.004 A 
ATOM     14  C   UNL A   1      32.027  22.083  25.415  1.00  0.00     0.122 A 
ATOM     15  C   UNL A   1      32.269  20.697  25.425  1.00  0.00     0.047 A 
ATOM     16  C   UNL A   1      32.464  19.984  24.240  1.00  0.00     0.004 A 
ATOM     17  C   UNL A   1      32.148  22.014  23.016  1.00  0.00     0.008 A 
ATOM     18  C   UNL A   1      32.407  20.647  23.027  1.00  0.00     0.001 A 
BRANCH  14  19
ATOM     19  O   UNL A   1      32.012  22.682  26.642  1.00  0.00    -0.496 OA
ATOM     20  C   UNL A   1      33.248  22.557  27.338  1.00  0.00     0.278 C 
ENDBRANCH  14  19
ENDBRANCH   8  13
BRANCH  10  21
ATOM     21  C   UNL A   1      30.474  27.156  23.942  1.00  0.00     0.321 C 
BRANCH  21  22
ATOM     22  C   UNL A   1      29.780  28.406  23.443  1.00  0.00     0.114 A 
ATOM     23  C   UNL A   1      28.867  28.596  22.413  1.00  0.00     0.122 A 
ATOM     24  N   UNL A   1      30.103  29.633  23.952  1.00  0.00    -0.228 NA
ATOM     25  N   UNL A   1      28.651  29.962  22.332  1.00  0.00    -0.306 N 
ATOM     26  C   UNL A   1      29.302  30.516  23.415  1.00  0.00     0.137 A 
ATOM     27  C   UNL A   1      28.042  30.750  21.355  1.00  0.00     0.096 A 
ATOM     28  C   UNL A   1      29.144  31.903  23.671  1.00  0.00     0.048 A 
ATOM     29  C   UNL A   1      28.038  32.094  21.498  1.00  0.00    -0.034 A 
ATOM     30  C   UNL A   1      28.538  32.670  22.748  1.00  0.00     0.009 A 
ATOM     31  C   UNL A   1      27.637  33.057  20.426  1.00  0.00     0.046 C 
ENDBRANCH  21  22
ENDBRANCH  10  21
ENDBRANCH   4   7
ENDBRANCH   2   3
ENDBRANCH   1   2
BRANCH   1  32
ATOM     32  C   UNL A   1      33.678  29.752  27.129  1.00  0.00     0.023 C 
BRANCH  32  33
ATOM     33  C   UNL A   1      34.918  29.272  27.886  1.00  0.00     0.116 C 
BRANCH  33  34
ATOM     34  N   UNL A   1      35.572  30.280  28.734  1.00  0.00    -0.352 N 
ATOM     35  C   UNL A   1      36.841  30.212  29.275  1.00  0.00     0.251 C 
ATOM     36  H   UNL A   1      35.049  31.089  28.938  1.00  0.00     0.163 HD
ATOM     37  O   UNL A   1      37.209  30.920  30.203  1.00  0.00    -0.269 OA
BRANCH  35  38
ATOM     38  C   UNL A   1      37.766  29.258  28.642  1.00  0.00     0.039 A 
ATOM     39  C   UNL A   1      38.489  29.617  27.506  1.00  0.00     0.014 A 
ATOM     40  C   UNL A   1      38.153  28.195  29.452  1.00  0.00     0.014 A 
ATOM     41  C   UNL A   1      39.713  28.993  27.276  1.00  0.00     0.010 A 
ATOM     42  C   UNL A   1      39.423  27.683  29.292  1.00  0.00     0.010 A 
ATOM     43  C   UNL A   1      40.226  28.081  28.217  1.00  0.00    -0.014 A 
BRANCH  43  44
ATOM     44  C   UNL A   1      41.642  27.688  28.157  1.00  0.00     0.031 A 
ATOM     45  C   UNL A   1      41.986  26.466  27.360  1.00  0.00     0.074 A 
ATOM     46  C   UNL A   1      42.678  28.437  28.592  1.00  0.00     0.049 A 
ATOM     47  N   UNL A   1      42.403  25.326  27.808  1.00  0.00    -0.248 NA
ATOM     48  C   UNL A   1      41.815  26.496  25.900  1.00  0.00     0.031 C 
ATOM     49  C   UNL A   1      42.680  29.799  29.137  1.00  0.00     0.029 A 
ATOM     50  N   UNL A   1      44.008  28.137  28.535  1.00  0.00    -0.354 N 
ATOM     51  C   UNL A   1      42.707  24.540  26.697  1.00  0.00     0.074 A 
ATOM     52  C   UNL A   1      42.216  25.270  25.553  1.00  0.00     0.031 C 
ATOM     53  C   UNL A   1      43.936  30.291  29.128  1.00  0.00     0.029 A 
ATOM     54  C   UNL A   1      44.841  29.211  28.792  1.00  0.00     0.049 A 
ATOM     55  H   UNL A   1      44.344  27.235  28.330  1.00  0.00     0.167 HD
ATOM     56  C   UNL A   1      43.504  23.435  26.789  1.00  0.00     0.031 A 
ATOM     57  C   UNL A   1      46.191  29.223  28.775  1.00  0.00     0.031 A 
ATOM     58  C   UNL A   1      43.724  23.045  28.159  1.00  0.00     0.049 A 
ATOM     59  C   UNL A   1      46.651  27.836  28.993  1.00  0.00     0.074 A 
ATOM     60  C   UNL A   1      42.925  22.664  29.217  1.00  0.00     0.029 A 
ATOM     61  N   UNL A   1      44.940  23.367  28.713  1.00  0.00    -0.354 N 
ATOM     62  N   UNL A   1      46.462  27.191  30.108  1.00  0.00    -0.248 NA
ATOM     63  C   UNL A   1      46.979  27.011  27.844  1.00  0.00     0.031 C 
ATOM     64  C   UNL A   1      43.528  23.270  30.362  1.00  0.00     0.029 A 
ATOM     65  C   UNL A   1      44.682  23.932  29.933  1.00  0.00     0.049 A 
ATOM     66  H   UNL A   1      45.827  23.220  28.310  1.00  0.00     0.167 HD
ATOM     67  C   UNL A   1      46.214  25.882  29.723  1.00  0.00     0.074 A 
ATOM     68  C   UNL A   1      46.683  25.806  28.342  1.00  0.00     0.031 C 
ATOM     69  C   UNL A   1      45.403  25.069  30.465  1.00  0.00     0.031 A 
BRANCH  56  70
ATOM     70  C   UNL A   1      44.398  22.905  25.687  1.00  0.00    -0.014 A 
ATOM     71  C   UNL A   1      44.457  21.512  25.472  1.00  0.00     0.009 A 
ATOM     72  C   UNL A   1      45.385  23.679  25.051  1.00  0.00     0.009 A 
ATOM     73  C   UNL A   1      45.494  20.922  24.739  1.00  0.00     0.001 A 
ATOM     74  C   UNL A   1      46.399  23.095  24.281  1.00  0.00     0.001 A 
ATOM     75  C   UNL A   1      46.472  21.715  24.152  1.00  0.00     0.000 A 
ENDBRANCH  56  70
BRANCH  57  76
ATOM     76  C   UNL A   1      47.084  30.343  28.437  1.00  0.00    -0.014 A 
ATOM     77  C   UNL A   1      47.160  30.844  27.133  1.00  0.00     0.009 A 
ATOM     78  C   UNL A   1      47.691  31.083  29.470  1.00  0.00     0.009 A 
ATOM     79  C   UNL A   1      47.790  32.069  26.876  1.00  0.00     0.001 A 
ATOM     80  C   UNL A   1      48.320  32.304  29.214  1.00  0.00     0.001 A 
ATOM     81  C   UNL A   1      48.355  32.804  27.917  1.00  0.00     0.000 A 
ENDBRANCH  57  76
BRANCH  69  82
ATOM     82  C   UNL A   1      44.987  25.540  31.838  1.00  0.00    -0.014 A 
ATOM     83  C   UNL A   1      45.642  25.134  33.014  1.00  0.00     0.009 A 
ATOM     84  C   UNL A   1      44.011  26.543  31.938  1.00  0.00     0.009 A 
ATOM     85  C   UNL A   1      45.308  25.687  34.254  1.00  0.00     0.001 A 
ATOM     86  C   UNL A   1      43.691  27.112  33.174  1.00  0.00     0.001 A 
ATOM     87  C   UNL A   1      44.335  26.680  34.332  1.00  0.00     0.000 A 
ENDBRANCH  69  82
ENDBRANCH  43  44
ENDBRANCH  35  38
ENDBRANCH  33  34
ENDBRANCH  32  33
ENDBRANCH   1  32
TORSDOF 15
ENDMDL
MODEL 2
REMARK VINA RESULT:     -12.4      2.125      6.018
REMARK SMILES COc1ccccc1[C@@H]1C[N@@H+](Cc2cn3cc(C)ccc3n2)C[C@H]1C(=O)NCCCCNC(=O)c1ccc(-c2c3nc(c(-c4ccccc4)c4ccc([nH]4)c(-c4ccccc4)c4nc(c(-c5ccccc5)c5ccc2[nH]5)C=C4)C=C3)cc1
REMARK SMILES IDX 29 1 28 2 27 3 25 4 26 5 24 7 9 8 10 9 11 10 23 11 8 13 3 14
REMARK SMILES IDX 4 15 5 16 7 17 6 18 2 19 1 20 12 21 13 22 14 23 22 24 15 25
REMARK SMILES IDX 21 26 16 27 20 28 17 29 19 30 18 31 30 32 31 33 32 34 33 35
REMARK SMILES IDX 34 37 35 38 36 39 82 40 37 41 81 42 38 43 39 44 40 45 75 46
REMARK SMILES IDX 41 47 80 48 74 49 76 50 42 51 79 52 73 53 72 54 43 56 65 57
REMARK SMILES IDX 50 58 64 59 51 60 54 61 63 62 77 63 52 64 53 65 62 67 78 68
REMARK SMILES IDX 55 69 44 70 45 71 49 72 46 73 48 74 47 75 66 76 67 77 71 78
REMARK SMILES IDX 68 79 70 80 69 81 56 82 57 83 61 84 58 85 60 86 59 87
REMARK H PARENT 27 6 11 12 32 36 76 55 54 66
REMARK Flexibility Score: inf
ROOT
ATOM      1  C   UNL A   1      33.840  28.602  25.244  1.00  0.00     0.023 C 
ENDROOT
BRANCH   1   2
ATOM      2  C   UNL A   1      33.894  27.138  24.750  1.00  0.00     0.116 C 
BRANCH   2   3
ATOM      3  N   UNL A   1      33.824  26.895  23.313  1.00  0.00    -0.356 N 
ATOM      4  C   UNL A   1      33.381  25.931  22.461  1.00  0.00     0.229 C 
ATOM      5  O   UNL A   1      33.521  26.244  21.264  1.00  0.00    -0.275 OA
ATOM      6  H   UNL A   1      34.209  27.650  22.813  1.00  0.00     0.163 HD
BRANCH   4   7
ATOM      7  C   UNL A   1      32.707  24.574  22.762  1.00  0.00     0.146 C 
ATOM      8  C   UNL A   1      33.124  23.938  24.124  1.00  0.00     0.096 C 
ATOM      9  C   UNL A   1      31.861  23.237  24.644  1.00  0.00     0.272 C 
ATOM     10  N   UNL A   1      30.748  24.045  24.127  1.00  0.00    -0.329 N 
ATOM     11  C   UNL A   1      31.185  24.440  22.779  1.00  0.00     0.276 C 
ATOM     12  H   UNL A   1      29.884  23.504  24.090  1.00  0.00     0.348 HD
BRANCH   8  13
ATOM     13  C   UNL A   1      34.456  23.274  24.406  1.00  0.00     0.004 A 
ATOM     14  C   UNL A   1      35.027  23.024  25.655  1.00  0.00     0.122 A 
ATOM     15  C   UNL A   1      36.366  22.603  25.746  1.00  0.00     0.047 A 
ATOM     16  C   UNL A   1      37.153  22.426  24.605  1.00  0.00     0.004 A 
ATOM     17  C   UNL A   1      35.275  23.053  23.265  1.00  0.00     0.008 A 
ATOM     18  C   UNL A   1      36.606  22.656  23.356  1.00  0.00     0.001 A 
BRANCH  14  19
ATOM     19  O   UNL A   1      34.422  23.310  26.845  1.00  0.00    -0.496 OA
ATOM     20  C   UNL A   1      33.944  22.152  27.520  1.00  0.00     0.278 C 
ENDBRANCH  14  19
ENDBRANCH   8  13
BRANCH  10  21
ATOM     21  C   UNL A   1      30.249  25.132  25.010  1.00  0.00     0.321 C 
BRANCH  21  22
ATOM     22  C   UNL A   1      29.855  26.464  24.409  1.00  0.00     0.114 A 
ATOM     23  C   UNL A   1      30.587  27.628  24.204  1.00  0.00     0.122 A 
ATOM     24  N   UNL A   1      28.557  26.716  24.062  1.00  0.00    -0.228 NA
ATOM     25  N   UNL A   1      29.693  28.569  23.721  1.00  0.00    -0.306 N 
ATOM     26  C   UNL A   1      28.513  27.892  23.493  1.00  0.00     0.137 A 
ATOM     27  C   UNL A   1      29.792  29.953  23.571  1.00  0.00     0.096 A 
ATOM     28  C   UNL A   1      27.442  28.579  22.863  1.00  0.00     0.048 A 
ATOM     29  C   UNL A   1      28.717  30.649  23.137  1.00  0.00    -0.034 A 
ATOM     30  C   UNL A   1      27.533  29.910  22.692  1.00  0.00     0.009 A 
ATOM     31  C   UNL A   1      28.610  32.140  23.159  1.00  0.00     0.046 C 
ENDBRANCH  21  22
ENDBRANCH  10  21
ENDBRANCH   4   7
ENDBRANCH   2   3
ENDBRANCH   1   2
BRANCH   1  32
ATOM     32  C   UNL A   1      33.543  28.829  26.729  1.00  0.00     0.023 C 
BRANCH  32  33
ATOM     33  C   UNL A   1      34.661  29.502  27.530  1.00  0.00     0.116 C 
BRANCH  33  34
ATOM     34  N   UNL A   1      34.925  30.907  27.190  1.00  0.00    -0.352 N 
ATOM     35  C   UNL A   1      35.647  31.820  27.935  1.00  0.00     0.251 C 
ATOM     36  H   UNL A   1      34.547  31.234  26.341  1.00  0.00     0.163 HD
ATOM     37  O   UNL A   1      35.576  33.030  27.760  1.00  0.00    -0.269 OA
BRANCH  35  38
ATOM     38  C   UNL A   1      36.558  31.257  28.944  1.00  0.00     0.039 A 
ATOM     39  C   UNL A   1      36.302  30.011  29.515  1.00  0.00     0.014 A 
ATOM     40  C   UNL A   1      37.825  31.830  28.972  1.00  0.00     0.014 A 
ATOM     41  C   UNL A   1      37.382  29.261  29.979  1.00  0.00     0.010 A 
ATOM     42  C   UNL A   1      38.896  31.028  29.307  1.00  0.00     0.010 A 
ATOM     43  C   UNL A   1      38.695  29.733  29.798  1.00  0.00    -0.014 A 
BRANCH  43  44
ATOM     44  C   UNL A   1      39.831  28.813  29.967  1.00  0.00     0.031 A 
ATOM     45  C   UNL A   1      40.348  28.605  31.358  1.00  0.00     0.074 A 
ATOM     46  C   UNL A   1      40.320  27.995  29.011  1.00  0.00     0.049 A 
ATOM     47  N   UNL A   1      41.483  28.995  31.842  1.00  0.00    -0.248 NA
ATOM     48  C   UNL A   1      39.497  27.914  32.339  1.00  0.00     0.031 C 
ATOM     49  C   UNL A   1      39.831  27.757  27.649  1.00  0.00     0.029 A 
ATOM     50  N   UNL A   1      41.348  27.105  29.119  1.00  0.00    -0.354 N 
ATOM     51  C   UNL A   1      41.577  28.470  33.131  1.00  0.00     0.074 A 
ATOM     52  C   UNL A   1      40.278  27.913  33.424  1.00  0.00     0.031 C 
ATOM     53  C   UNL A   1      40.392  26.634  27.154  1.00  0.00     0.029 A 
ATOM     54  C   UNL A   1      41.433  26.210  28.068  1.00  0.00     0.049 A 
ATOM     55  H   UNL A   1      41.974  27.101  29.878  1.00  0.00     0.167 HD
ATOM     56  C   UNL A   1      42.771  28.370  33.787  1.00  0.00     0.031 A 
ATOM     57  C   UNL A   1      42.320  25.203  27.919  1.00  0.00     0.031 A 
ATOM     58  C   UNL A   1      43.810  29.117  33.125  1.00  0.00     0.049 A 
ATOM     59  C   UNL A   1      43.507  25.532  28.734  1.00  0.00     0.074 A 
ATOM     60  C   UNL A   1      44.009  30.438  32.779  1.00  0.00     0.029 A 
ATOM     61  N   UNL A   1      44.716  28.401  32.379  1.00  0.00    -0.354 N 
ATOM     62  N   UNL A   1      44.291  26.541  28.475  1.00  0.00    -0.248 NA
ATOM     63  C   UNL A   1      43.621  24.984  30.074  1.00  0.00     0.031 C 
ATOM     64  C   UNL A   1      44.639  30.386  31.498  1.00  0.00     0.029 A 
ATOM     65  C   UNL A   1      44.831  29.040  31.173  1.00  0.00     0.049 A 
ATOM     66  H   UNL A   1      45.193  27.585  32.659  1.00  0.00     0.167 HD
ATOM     67  C   UNL A   1      44.664  27.028  29.718  1.00  0.00     0.074 A 
ATOM     68  C   UNL A   1      44.340  25.952  30.651  1.00  0.00     0.031 C 
ATOM     69  C   UNL A   1      44.941  28.354  29.904  1.00  0.00     0.031 A 
BRANCH  56  70
ATOM     70  C   UNL A   1      43.120  27.316  34.815  1.00  0.00    -0.014 A 
ATOM     71  C   UNL A   1      43.250  25.975  34.395  1.00  0.00     0.009 A 
ATOM     72  C   UNL A   1      43.047  27.532  36.203  1.00  0.00     0.009 A 
ATOM     73  C   UNL A   1      43.217  24.910  35.305  1.00  0.00     0.001 A 
ATOM     74  C   UNL A   1      43.058  26.472  37.118  1.00  0.00     0.001 A 
ATOM     75  C   UNL A   1      43.111  25.161  36.668  1.00  0.00     0.000 A 
ENDBRANCH  56  70
BRANCH  57  76
ATOM     76  C   UNL A   1      42.127  23.918  27.228  1.00  0.00    -0.014 A 
ATOM     77  C   UNL A   1      42.928  23.549  26.142  1.00  0.00     0.009 A 
ATOM     78  C   UNL A   1      41.297  22.938  27.805  1.00  0.00     0.009 A 
ATOM     79  C   UNL A   1      42.927  22.229  25.672  1.00  0.00     0.001 A 
ATOM     80  C   UNL A   1      41.295  21.622  27.336  1.00  0.00     0.001 A 
ATOM     81  C   UNL A   1      42.124  21.264  26.278  1.00  0.00     0.000 A 
ENDBRANCH  57  76
BRANCH  69  82
ATOM     82  C   UNL A   1      45.077  29.230  28.681  1.00  0.00    -0.014 A 
ATOM     83  C   UNL A   1      43.979  29.857  28.066  1.00  0.00     0.009 A 
ATOM     84  C   UNL A   1      46.364  29.562  28.232  1.00  0.00     0.009 A 
ATOM     85  C   UNL A   1      44.160  30.758  27.013  1.00  0.00     0.001 A 
ATOM     86  C   UNL A   1      46.548  30.479  27.193  1.00  0.00     0.001 A 
ATOM     87  C   UNL A   1      45.446  31.072  26.580  1.00  0.00     0.000 A 
ENDBRANCH  69  82
ENDBRANCH  43  44
ENDBRANCH  35  38
ENDBRANCH  33  34
ENDBRANCH  32  33
ENDBRANCH   1  32
TORSDOF 15
ENDMDL
MODEL 3
REMARK VINA RESULT:     -12.3      3.109      8.061
REMARK SMILES COc1ccccc1[C@@H]1C[N@@H+](Cc2cn3cc(C)ccc3n2)C[C@H]1C(=O)NCCCCNC(=O)c1ccc(-c2c3nc(c(-c4ccccc4)c4ccc([nH]4)c(-c4ccccc4)c4nc(c(-c5ccccc5)c5ccc2[nH]5)C=C4)C=C3)cc1
REMARK SMILES IDX 29 1 28 2 27 3 25 4 26 5 24 7 9 8 10 9 11 10 23 11 8 13 3 14
REMARK SMILES IDX 4 15 5 16 7 17 6 18 2 19 1 20 12 21 13 22 14 23 22 24 15 25
REMARK SMILES IDX 21 26 16 27 20 28 17 29 19 30 18 31 30 32 31 33 32 34 33 35
REMARK SMILES IDX 34 37 35 38 36 39 82 40 37 41 81 42 38 43 39 44 40 45 75 46
REMARK SMILES IDX 41 47 80 48 74 49 76 50 42 51 79 52 73 53 72 54 43 56 65 57
REMARK SMILES IDX 50 58 64 59 51 60 54 61 63 62 77 63 52 64 53 65 62 67 78 68
REMARK SMILES IDX 55 69 44 70 45 71 49 72 46 73 48 74 47 75 66 76 67 77 71 78
REMARK SMILES IDX 68 79 70 80 69 81 56 82 57 83 61 84 58 85 60 86 59 87
REMARK H PARENT 27 6 11 12 32 36 76 55 54 66
REMARK Flexibility Score: inf
ROOT
ATOM      1  C   UNL A   1      36.104  23.315  25.025  1.00  0.00     0.023 C 
ENDROOT
BRANCH   1   2
ATOM      2  C   UNL A   1      34.945  24.190  25.556  1.00  0.00     0.116 C 
BRANCH   2   3
ATOM      3  N   UNL A   1      34.106  23.648  26.619  1.00  0.00    -0.356 N 
ATOM      4  C   UNL A   1      32.787  23.587  26.947  1.00  0.00     0.229 C 
ATOM      5  O   UNL A   1      32.579  22.938  27.988  1.00  0.00    -0.275 OA
ATOM      6  H   UNL A   1      34.654  23.193  27.297  1.00  0.00     0.163 HD
BRANCH   4   7
ATOM      7  C   UNL A   1      31.553  24.146  26.205  1.00  0.00     0.146 C 
ATOM      8  C   UNL A   1      31.859  25.358  25.271  1.00  0.00     0.096 C 
ATOM      9  C   UNL A   1      30.917  25.189  24.071  1.00  0.00     0.272 C 
ATOM     10  N   UNL A   1      30.749  23.736  23.932  1.00  0.00    -0.329 N 
ATOM     11  C   UNL A   1      30.695  23.245  25.317  1.00  0.00     0.276 C 
ATOM     12  H   UNL A   1      29.892  23.510  23.427  1.00  0.00     0.348 HD
BRANCH   8  13
ATOM     13  C   UNL A   1      32.146  26.769  25.739  1.00  0.00     0.004 A 
ATOM     14  C   UNL A   1      33.142  27.628  25.271  1.00  0.00     0.122 A 
ATOM     15  C   UNL A   1      33.424  28.822  25.959  1.00  0.00     0.047 A 
ATOM     16  C   UNL A   1      32.726  29.178  27.115  1.00  0.00     0.004 A 
ATOM     17  C   UNL A   1      31.434  27.178  26.900  1.00  0.00     0.008 A 
ATOM     18  C   UNL A   1      31.727  28.350  27.591  1.00  0.00     0.001 A 
BRANCH  14  19
ATOM     19  O   UNL A   1      34.001  27.323  24.254  1.00  0.00    -0.496 OA
ATOM     20  C   UNL A   1      33.631  27.919  23.015  1.00  0.00     0.278 C 
ENDBRANCH  14  19
ENDBRANCH   8  13
BRANCH  10  21
ATOM     21  C   UNL A   1      31.692  23.042  23.016  1.00  0.00     0.321 C 
BRANCH  21  22
ATOM     22  C   UNL A   1      32.133  21.627  23.326  1.00  0.00     0.114 A 
ATOM     23  C   UNL A   1      32.793  21.095  24.426  1.00  0.00     0.122 A 
ATOM     24  N   UNL A   1      31.999  20.636  22.394  1.00  0.00    -0.228 NA
ATOM     25  N   UNL A   1      33.039  19.766  24.127  1.00  0.00    -0.306 N 
ATOM     26  C   UNL A   1      32.371  19.511  22.947  1.00  0.00     0.137 A 
ATOM     27  C   UNL A   1      33.865  18.815  24.728  1.00  0.00     0.096 A 
ATOM     28  C   UNL A   1      32.332  18.179  22.458  1.00  0.00     0.048 A 
ATOM     29  C   UNL A   1      33.975  17.588  24.170  1.00  0.00    -0.034 A 
ATOM     30  C   UNL A   1      33.105  17.248  23.042  1.00  0.00     0.009 A 
ATOM     31  C   UNL A   1      34.993  16.568  24.567  1.00  0.00     0.046 C 
ENDBRANCH  21  22
ENDBRANCH  10  21
ENDBRANCH   4   7
ENDBRANCH   2   3
ENDBRANCH   1   2
BRANCH   1  32
ATOM     32  C   UNL A   1      36.894  22.500  26.053  1.00  0.00     0.023 C 
BRANCH  32  33
ATOM     33  C   UNL A   1      38.296  22.069  25.617  1.00  0.00     0.116 C 
BRANCH  33  34
ATOM     34  N   UNL A   1      38.545  20.620  25.626  1.00  0.00    -0.352 N 
ATOM     35  C   UNL A   1      39.762  19.987  25.787  1.00  0.00     0.251 C 
ATOM     36  H   UNL A   1      37.760  20.038  25.503  1.00  0.00     0.163 HD
ATOM     37  O   UNL A   1      39.951  18.816  25.484  1.00  0.00    -0.269 OA
BRANCH  35  38
ATOM     38  C   UNL A   1      40.835  20.792  26.392  1.00  0.00     0.039 A 
ATOM     39  C   UNL A   1      41.507  21.758  25.645  1.00  0.00     0.014 A 
ATOM     40  C   UNL A   1      40.840  20.807  27.783  1.00  0.00     0.014 A 
ATOM     41  C   UNL A   1      42.056  22.849  26.315  1.00  0.00     0.010 A 
ATOM     42  C   UNL A   1      41.266  21.954  28.421  1.00  0.00     0.010 A 
ATOM     43  C   UNL A   1      41.863  22.994  27.701  1.00  0.00    -0.014 A 
BRANCH  43  44
ATOM     44  C   UNL A   1      42.135  24.288  28.345  1.00  0.00     0.031 A 
ATOM     45  C   UNL A   1      41.142  25.390  28.123  1.00  0.00     0.074 A 
ATOM     46  C   UNL A   1      43.090  24.512  29.272  1.00  0.00     0.049 A 
ATOM     47  N   UNL A   1      41.313  26.476  27.441  1.00  0.00    -0.248 NA
ATOM     48  C   UNL A   1      39.793  25.261  28.694  1.00  0.00     0.031 C 
ATOM     49  C   UNL A   1      44.010  23.565  29.909  1.00  0.00     0.029 A 
ATOM     50  N   UNL A   1      43.366  25.680  29.921  1.00  0.00    -0.354 N 
ATOM     51  C   UNL A   1      40.167  27.252  27.618  1.00  0.00     0.074 A 
ATOM     52  C   UNL A   1      39.221  26.403  28.303  1.00  0.00     0.031 C 
ATOM     53  C   UNL A   1      44.558  24.130  31.005  1.00  0.00     0.029 A 
ATOM     54  C   UNL A   1      44.202  25.535  31.014  1.00  0.00     0.049 A 
ATOM     55  H   UNL A   1      43.003  26.549  29.636  1.00  0.00     0.167 HD
ATOM     56  C   UNL A   1      40.151  28.591  27.352  1.00  0.00     0.031 A 
ATOM     57  C   UNL A   1      44.620  26.500  31.860  1.00  0.00     0.031 A 
ATOM     58  C   UNL A   1      41.320  29.006  26.619  1.00  0.00     0.049 A 
ATOM     59  C   UNL A   1      44.519  27.790  31.148  1.00  0.00     0.074 A 
ATOM     60  C   UNL A   1      41.890  28.683  25.405  1.00  0.00     0.029 A 
ATOM     61  N   UNL A   1      42.303  29.654  27.328  1.00  0.00    -0.354 N 
ATOM     62  N   UNL A   1      45.250  28.090  30.112  1.00  0.00    -0.248 NA
ATOM     63  C   UNL A   1      43.334  28.610  31.332  1.00  0.00     0.031 C 
ATOM     64  C   UNL A   1      43.297  28.687  25.654  1.00  0.00     0.029 A 
ATOM     65  C   UNL A   1      43.491  29.065  26.986  1.00  0.00     0.049 A 
ATOM     66  H   UNL A   1      42.178  30.400  27.959  1.00  0.00     0.167 HD
ATOM     67  C   UNL A   1      44.411  28.821  29.285  1.00  0.00     0.074 A 
ATOM     68  C   UNL A   1      43.303  29.226  30.146  1.00  0.00     0.031 C 
ATOM     69  C   UNL A   1      44.556  28.792  27.926  1.00  0.00     0.031 A 
BRANCH  56  70
ATOM     70  C   UNL A   1      39.282  29.613  28.055  1.00  0.00    -0.014 A 
ATOM     71  C   UNL A   1      39.668  30.068  29.333  1.00  0.00     0.009 A 
ATOM     72  C   UNL A   1      37.974  29.929  27.647  1.00  0.00     0.009 A 
ATOM     73  C   UNL A   1      38.770  30.721  30.187  1.00  0.00     0.001 A 
ATOM     74  C   UNL A   1      37.086  30.620  28.482  1.00  0.00     0.001 A 
ATOM     75  C   UNL A   1      37.474  30.987  29.762  1.00  0.00     0.000 A 
ENDBRANCH  56  70
BRANCH  57  76
ATOM     76  C   UNL A   1      44.958  26.372  33.287  1.00  0.00    -0.014 A 
ATOM     77  C   UNL A   1      46.154  26.887  33.799  1.00  0.00     0.009 A 
ATOM     78  C   UNL A   1      43.973  25.948  34.199  1.00  0.00     0.009 A 
ATOM     79  C   UNL A   1      46.342  27.009  35.182  1.00  0.00     0.001 A 
ATOM     80  C   UNL A   1      44.160  26.069  35.578  1.00  0.00     0.001 A 
ATOM     81  C   UNL A   1      45.341  26.615  36.069  1.00  0.00     0.000 A 
ENDBRANCH  57  76
BRANCH  69  82
ATOM     82  C   UNL A   1      45.801  28.152  27.358  1.00  0.00    -0.014 A 
ATOM     83  C   UNL A   1      46.965  28.883  27.058  1.00  0.00     0.009 A 
ATOM     84  C   UNL A   1      45.859  26.753  27.272  1.00  0.00     0.009 A 
ATOM     85  C   UNL A   1      48.137  28.237  26.651  1.00  0.00     0.001 A 
ATOM     86  C   UNL A   1      47.035  26.105  26.885  1.00  0.00     0.001 A 
ATOM     87  C   UNL A   1      48.172  26.848  26.569  1.00  0.00     0.000 A 
ENDBRANCH  69  82
ENDBRANCH  43  44
ENDBRANCH  35  38
ENDBRANCH  33  34
ENDBRANCH  32  33
ENDBRANCH   1  32
TORSDOF 15
ENDMDL
