MODEL 1
REMARK VINA RESULT:      -9.9      0.000      0.000
REMARK SMILES CC[C@H](C)[NH2+]CCc1ccc(C(=O)NCCCCNC(=O)c2ccc(-c3c4nc(c(-c5ccccc5)c5ccc([nH]5)c(-c5ccccc5)c5nc(c(-c6ccccc6)c6ccc3[nH]6)C=C5)C=C4)cc2)cc1
REMARK SMILES IDX 15 1 14 2 12 3 13 4 11 6 8 7 9 8 71 9 10 10 70 11 7 12 6 13
REMARK SMILES IDX 5 14 3 17 4 18 2 19 1 20 16 21 17 22 18 23 19 24 20 25 21 27
REMARK SMILES IDX 22 28 23 29 69 30 24 31 68 32 25 33 26 34 27 35 62 36 28 37
REMARK SMILES IDX 67 38 61 39 63 40 29 41 66 42 60 43 59 44 30 46 52 47 37 48
REMARK SMILES IDX 51 49 38 50 41 51 50 52 64 53 39 54 40 55 49 57 65 58 42 59
REMARK SMILES IDX 31 60 32 61 36 62 33 63 35 64 34 65 53 66 54 67 58 68 55 69
REMARK SMILES IDX 57 70 56 71 43 72 44 73 48 74 45 75 47 76 46 77
REMARK H PARENT 14 5 5 15 5 16 19 26 63 45 41 56
REMARK Flexibility Score: inf
ROOT
ATOM      1  C   UNL A   1      32.338  29.383  24.378  1.00  0.00     0.116 C 
ENDROOT
BRANCH   1   2
ATOM      2  N   UNL A   1      31.334  29.395  23.336  1.00  0.00    -0.352 N 
ATOM      3  C   UNL A   1      30.697  28.400  22.638  1.00  0.00     0.251 C 
ATOM      4  O   UNL A   1      29.862  28.760  21.805  1.00  0.00    -0.269 OA
ATOM      5  H   UNL A   1      31.050  30.301  23.075  1.00  0.00     0.163 HD
BRANCH   3   6
ATOM      6  C   UNL A   1      30.935  26.940  22.839  1.00  0.00     0.039 A 
ATOM      7  C   UNL A   1      31.623  24.210  23.142  1.00  0.00    -0.042 A 
ATOM      8  C   UNL A   1      32.171  24.964  22.102  1.00  0.00     0.005 A 
ATOM      9  C   UNL A   1      30.692  24.815  23.990  1.00  0.00     0.005 A 
ATOM     10  C   UNL A   1      31.822  26.312  21.950  1.00  0.00     0.014 A 
ATOM     11  C   UNL A   1      30.394  26.176  23.872  1.00  0.00     0.014 A 
BRANCH   7  12
ATOM     12  C   UNL A   1      32.095  22.806  23.436  1.00  0.00     0.097 C 
BRANCH  12  13
ATOM     13  C   UNL A   1      33.408  22.740  24.246  1.00  0.00     0.265 C 
BRANCH  13  14
ATOM     14  N   UNL A   1      34.528  23.571  23.795  1.00  0.00    -0.344 N 
ATOM     15  H   UNL A   1      35.218  22.955  23.366  1.00  0.00     0.346 HD
ATOM     16  H   UNL A   1      34.116  24.255  23.160  1.00  0.00     0.346 HD
BRANCH  14  17
ATOM     17  C   UNL A   1      35.213  24.361  24.818  1.00  0.00     0.178 C 
ATOM     18  C   UNL A   1      34.158  25.276  25.449  1.00  0.00     0.075 C 
BRANCH  17  19
ATOM     19  C   UNL A   1      35.933  23.536  25.902  1.00  0.00     0.061 C 
ATOM     20  C   UNL A   1      37.451  23.678  25.941  1.00  0.00     0.010 C 
ENDBRANCH  17  19
ENDBRANCH  14  17
ENDBRANCH  13  14
ENDBRANCH  12  13
ENDBRANCH   7  12
ENDBRANCH   3   6
ENDBRANCH   1   2
BRANCH   1  21
ATOM     21  C   UNL A   1      31.680  29.332  25.760  1.00  0.00     0.023 C 
BRANCH  21  22
ATOM     22  C   UNL A   1      32.331  28.328  26.720  1.00  0.00     0.023 C 
BRANCH  22  23
ATOM     23  C   UNL A   1      33.664  28.782  27.310  1.00  0.00     0.116 C 
BRANCH  23  24
ATOM     24  N   UNL A   1      33.646  30.157  27.783  1.00  0.00    -0.352 N 
ATOM     25  C   UNL A   1      34.659  30.860  28.392  1.00  0.00     0.251 C 
ATOM     26  H   UNL A   1      32.802  30.647  27.651  1.00  0.00     0.163 HD
ATOM     27  O   UNL A   1      34.464  31.984  28.832  1.00  0.00    -0.269 OA
BRANCH  25  28
ATOM     28  C   UNL A   1      35.978  30.215  28.553  1.00  0.00     0.039 A 
ATOM     29  C   UNL A   1      36.881  30.263  27.487  1.00  0.00     0.014 A 
ATOM     30  C   UNL A   1      36.332  29.604  29.757  1.00  0.00     0.014 A 
ATOM     31  C   UNL A   1      38.169  29.754  27.656  1.00  0.00     0.010 A 
ATOM     32  C   UNL A   1      37.636  29.156  29.944  1.00  0.00     0.010 A 
ATOM     33  C   UNL A   1      38.567  29.229  28.896  1.00  0.00    -0.014 A 
BRANCH  33  34
ATOM     34  C   UNL A   1      39.955  28.760  29.121  1.00  0.00     0.031 A 
ATOM     35  C   UNL A   1      40.974  29.682  29.731  1.00  0.00     0.074 A 
ATOM     36  C   UNL A   1      40.315  27.527  28.714  1.00  0.00     0.049 A 
ATOM     37  N   UNL A   1      42.247  29.471  29.955  1.00  0.00    -0.248 NA
ATOM     38  C   UNL A   1      40.508  31.023  30.116  1.00  0.00     0.031 C 
ATOM     39  C   UNL A   1      39.430  26.554  28.070  1.00  0.00     0.029 A 
ATOM     40  N   UNL A   1      41.525  26.885  28.777  1.00  0.00    -0.354 N 
ATOM     41  C   UNL A   1      42.735  30.657  30.488  1.00  0.00     0.074 A 
ATOM     42  C   UNL A   1      41.635  31.596  30.513  1.00  0.00     0.031 C 
ATOM     43  C   UNL A   1      40.121  25.429  27.823  1.00  0.00     0.029 A 
ATOM     44  C   UNL A   1      41.502  25.615  28.255  1.00  0.00     0.049 A 
ATOM     45  H   UNL A   1      42.334  27.295  29.160  1.00  0.00     0.167 HD
ATOM     46  C   UNL A   1      43.983  30.933  30.933  1.00  0.00     0.031 A 
ATOM     47  C   UNL A   1      42.484  24.702  28.135  1.00  0.00     0.031 A 
ATOM     48  C   UNL A   1      45.073  29.996  30.923  1.00  0.00     0.049 A 
ATOM     49  C   UNL A   1      43.861  25.036  28.634  1.00  0.00     0.074 A 
ATOM     50  C   UNL A   1      46.357  30.161  31.410  1.00  0.00     0.029 A 
ATOM     51  N   UNL A   1      45.006  28.715  30.396  1.00  0.00    -0.354 N 
ATOM     52  N   UNL A   1      44.290  26.138  29.202  1.00  0.00    -0.248 NA
ATOM     53  C   UNL A   1      44.889  23.995  28.485  1.00  0.00     0.031 C 
ATOM     54  C   UNL A   1      47.081  28.995  31.138  1.00  0.00     0.029 A 
ATOM     55  C   UNL A   1      46.232  28.087  30.526  1.00  0.00     0.049 A 
ATOM     56  H   UNL A   1      44.204  28.312  29.990  1.00  0.00     0.167 HD
ATOM     57  C   UNL A   1      45.627  25.912  29.503  1.00  0.00     0.074 A 
ATOM     58  C   UNL A   1      45.934  24.565  29.067  1.00  0.00     0.031 C 
ATOM     59  C   UNL A   1      46.519  26.746  30.089  1.00  0.00     0.031 A 
BRANCH  46  60
ATOM     60  C   UNL A   1      44.235  32.315  31.466  1.00  0.00    -0.014 A 
ATOM     61  C   UNL A   1      44.058  32.614  32.827  1.00  0.00     0.009 A 
ATOM     62  C   UNL A   1      44.686  33.326  30.602  1.00  0.00     0.009 A 
ATOM     63  C   UNL A   1      44.292  33.905  33.304  1.00  0.00     0.001 A 
ATOM     64  C   UNL A   1      44.946  34.609  31.087  1.00  0.00     0.001 A 
ATOM     65  C   UNL A   1      44.739  34.899  32.435  1.00  0.00     0.000 A 
ENDBRANCH  46  60
BRANCH  47  66
ATOM     66  C   UNL A   1      42.199  23.374  27.536  1.00  0.00    -0.014 A 
ATOM     67  C   UNL A   1      41.612  22.359  28.308  1.00  0.00     0.009 A 
ATOM     68  C   UNL A   1      42.517  23.109  26.195  1.00  0.00     0.009 A 
ATOM     69  C   UNL A   1      41.375  21.098  27.757  1.00  0.00     0.001 A 
ATOM     70  C   UNL A   1      42.255  21.854  25.639  1.00  0.00     0.001 A 
ATOM     71  C   UNL A   1      41.694  20.848  26.423  1.00  0.00     0.000 A 
ENDBRANCH  47  66
BRANCH  59  72
ATOM     72  C   UNL A   1      47.903  26.213  30.326  1.00  0.00    -0.014 A 
ATOM     73  C   UNL A   1      48.875  26.231  29.313  1.00  0.00     0.009 A 
ATOM     74  C   UNL A   1      48.249  25.720  31.594  1.00  0.00     0.009 A 
ATOM     75  C   UNL A   1      50.157  25.738  29.558  1.00  0.00     0.001 A 
ATOM     76  C   UNL A   1      49.541  25.253  31.843  1.00  0.00     0.001 A 
ATOM     77  C   UNL A   1      50.491  25.255  30.823  1.00  0.00     0.000 A 
ENDBRANCH  59  72
ENDBRANCH  33  34
ENDBRANCH  25  28
ENDBRANCH  23  24
ENDBRANCH  22  23
ENDBRANCH  21  22
ENDBRANCH   1  21
TORSDOF 16
ENDMDL
MODEL 2
REMARK VINA RESULT:      -9.9      2.943      7.988
REMARK SMILES CC[C@H](C)[NH2+]CCc1ccc(C(=O)NCCCCNC(=O)c2ccc(-c3c4nc(c(-c5ccccc5)c5ccc([nH]5)c(-c5ccccc5)c5nc(c(-c6ccccc6)c6ccc3[nH]6)C=C5)C=C4)cc2)cc1
REMARK SMILES IDX 15 1 14 2 12 3 13 4 11 6 8 7 9 8 71 9 10 10 70 11 7 12 6 13
REMARK SMILES IDX 5 14 3 17 4 18 2 19 1 20 16 21 17 22 18 23 19 24 20 25 21 27
REMARK SMILES IDX 22 28 23 29 69 30 24 31 68 32 25 33 26 34 27 35 62 36 28 37
REMARK SMILES IDX 67 38 61 39 63 40 29 41 66 42 60 43 59 44 30 46 52 47 37 48
REMARK SMILES IDX 51 49 38 50 41 51 50 52 64 53 39 54 40 55 49 57 65 58 42 59
REMARK SMILES IDX 31 60 32 61 36 62 33 63 35 64 34 65 53 66 54 67 58 68 55 69
REMARK SMILES IDX 57 70 56 71 43 72 44 73 48 74 45 75 47 76 46 77
REMARK H PARENT 14 5 5 15 5 16 19 26 63 45 41 56
REMARK Flexibility Score: inf
ROOT
ATOM      1  C   UNL A   1      35.186  21.264  25.901  1.00  0.00     0.116 C 
ENDROOT
BRANCH   1   2
ATOM      2  N   UNL A   1      34.160  20.252  25.764  1.00  0.00    -0.352 N 
ATOM      3  C   UNL A   1      32.862  20.288  25.321  1.00  0.00     0.251 C 
ATOM      4  O   UNL A   1      32.250  19.218  25.319  1.00  0.00    -0.269 OA
ATOM      5  H   UNL A   1      34.453  19.356  26.046  1.00  0.00     0.163 HD
BRANCH   3   6
ATOM      6  C   UNL A   1      32.170  21.517  24.830  1.00  0.00     0.039 A 
ATOM      7  C   UNL A   1      30.887  23.944  24.132  1.00  0.00    -0.042 A 
ATOM      8  C   UNL A   1      30.732  23.407  25.412  1.00  0.00     0.005 A 
ATOM      9  C   UNL A   1      31.641  23.233  23.195  1.00  0.00     0.005 A 
ATOM     10  C   UNL A   1      31.361  22.202  25.751  1.00  0.00     0.014 A 
ATOM     11  C   UNL A   1      32.317  22.064  23.557  1.00  0.00     0.014 A 
BRANCH   7  12
ATOM     12  C   UNL A   1      30.362  25.315  23.781  1.00  0.00     0.097 C 
BRANCH  12  13
ATOM     13  C   UNL A   1      30.406  26.325  24.947  1.00  0.00     0.265 C 
BRANCH  13  14
ATOM     14  N   UNL A   1      31.616  27.138  25.097  1.00  0.00    -0.344 N 
ATOM     15  H   UNL A   1      32.177  27.016  24.255  1.00  0.00     0.346 HD
ATOM     16  H   UNL A   1      31.281  28.090  25.251  1.00  0.00     0.346 HD
BRANCH  14  17
ATOM     17  C   UNL A   1      32.469  26.841  26.248  1.00  0.00     0.178 C 
ATOM     18  C   UNL A   1      33.578  25.910  25.746  1.00  0.00     0.075 C 
BRANCH  17  19
ATOM     19  C   UNL A   1      33.071  28.076  26.945  1.00  0.00     0.061 C 
ATOM     20  C   UNL A   1      34.027  28.911  26.099  1.00  0.00     0.010 C 
ENDBRANCH  17  19
ENDBRANCH  14  17
ENDBRANCH  13  14
ENDBRANCH  12  13
ENDBRANCH   7  12
ENDBRANCH   3   6
ENDBRANCH   1   2
BRANCH   1  21
ATOM     21  C   UNL A   1      35.859  21.535  24.553  1.00  0.00     0.023 C 
BRANCH  21  22
ATOM     22  C   UNL A   1      36.128  23.021  24.282  1.00  0.00     0.023 C 
BRANCH  22  23
ATOM     23  C   UNL A   1      37.211  23.643  25.159  1.00  0.00     0.116 C 
BRANCH  23  24
ATOM     24  N   UNL A   1      38.330  22.749  25.414  1.00  0.00    -0.352 N 
ATOM     25  C   UNL A   1      39.479  23.007  26.122  1.00  0.00     0.251 C 
ATOM     26  H   UNL A   1      38.254  21.846  25.030  1.00  0.00     0.163 HD
ATOM     27  O   UNL A   1      40.385  22.187  26.166  1.00  0.00    -0.269 OA
BRANCH  25  28
ATOM     28  C   UNL A   1      39.626  24.316  26.792  1.00  0.00     0.039 A 
ATOM     29  C   UNL A   1      39.059  24.487  28.058  1.00  0.00     0.014 A 
ATOM     30  C   UNL A   1      40.350  25.348  26.192  1.00  0.00     0.014 A 
ATOM     31  C   UNL A   1      39.277  25.678  28.752  1.00  0.00     0.010 A 
ATOM     32  C   UNL A   1      40.619  26.507  26.912  1.00  0.00     0.010 A 
ATOM     33  C   UNL A   1      40.088  26.682  28.198  1.00  0.00    -0.014 A 
BRANCH  33  34
ATOM     34  C   UNL A   1      40.400  27.919  28.954  1.00  0.00     0.031 A 
ATOM     35  C   UNL A   1      41.703  28.044  29.693  1.00  0.00     0.074 A 
ATOM     36  C   UNL A   1      39.482  28.901  29.030  1.00  0.00     0.049 A 
ATOM     37  N   UNL A   1      42.131  29.022  30.450  1.00  0.00    -0.248 NA
ATOM     38  C   UNL A   1      42.638  26.912  29.586  1.00  0.00     0.031 C 
ATOM     39  C   UNL A   1      38.163  28.882  28.394  1.00  0.00     0.029 A 
ATOM     40  N   UNL A   1      39.518  30.106  29.684  1.00  0.00    -0.354 N 
ATOM     41  C   UNL A   1      43.372  28.615  30.924  1.00  0.00     0.074 A 
ATOM     42  C   UNL A   1      43.609  27.286  30.406  1.00  0.00     0.031 C 
ATOM     43  C   UNL A   1      37.527  30.033  28.667  1.00  0.00     0.029 A 
ATOM     44  C   UNL A   1      38.375  30.853  29.525  1.00  0.00     0.049 A 
ATOM     45  H   UNL A   1      40.288  30.408  30.217  1.00  0.00     0.167 HD
ATOM     46  C   UNL A   1      44.243  29.295  31.706  1.00  0.00     0.031 A 
ATOM     47  C   UNL A   1      38.047  32.062  30.017  1.00  0.00     0.031 A 
ATOM     48  C   UNL A   1      44.015  30.622  32.209  1.00  0.00     0.049 A 
ATOM     49  C   UNL A   1      39.031  32.793  30.886  1.00  0.00     0.074 A 
ATOM     50  C   UNL A   1      44.864  31.419  32.956  1.00  0.00     0.029 A 
ATOM     51  N   UNL A   1      42.851  31.348  32.015  1.00  0.00    -0.354 N 
ATOM     52  N   UNL A   1      40.231  32.425  31.266  1.00  0.00    -0.248 NA
ATOM     53  C   UNL A   1      38.619  34.113  31.385  1.00  0.00     0.031 C 
ATOM     54  C   UNL A   1      44.196  32.611  33.253  1.00  0.00     0.029 A 
ATOM     55  C   UNL A   1      42.949  32.575  32.648  1.00  0.00     0.049 A 
ATOM     56  H   UNL A   1      42.068  31.038  31.503  1.00  0.00     0.167 HD
ATOM     57  C   UNL A   1      40.727  33.477  32.023  1.00  0.00     0.074 A 
ATOM     58  C   UNL A   1      39.704  34.504  32.038  1.00  0.00     0.031 C 
ATOM     59  C   UNL A   1      41.924  33.585  32.650  1.00  0.00     0.031 A 
BRANCH  46  60
ATOM     60  C   UNL A   1      45.527  28.604  32.069  1.00  0.00    -0.014 A 
ATOM     61  C   UNL A   1      46.676  28.740  31.274  1.00  0.00     0.009 A 
ATOM     62  C   UNL A   1      45.598  27.831  33.239  1.00  0.00     0.009 A 
ATOM     63  C   UNL A   1      47.860  28.087  31.624  1.00  0.00     0.001 A 
ATOM     64  C   UNL A   1      46.791  27.202  33.602  1.00  0.00     0.001 A 
ATOM     65  C   UNL A   1      47.917  27.323  32.789  1.00  0.00     0.000 A 
ENDBRANCH  46  60
BRANCH  47  66
ATOM     66  C   UNL A   1      36.734  32.671  29.685  1.00  0.00    -0.014 A 
ATOM     67  C   UNL A   1      36.580  33.428  28.512  1.00  0.00     0.009 A 
ATOM     68  C   UNL A   1      35.631  32.509  30.538  1.00  0.00     0.009 A 
ATOM     69  C   UNL A   1      35.357  34.031  28.215  1.00  0.00     0.001 A 
ATOM     70  C   UNL A   1      34.401  33.092  30.224  1.00  0.00     0.001 A 
ATOM     71  C   UNL A   1      34.268  33.861  29.070  1.00  0.00     0.000 A 
ENDBRANCH  47  66
BRANCH  59  72
ATOM     72  C   UNL A   1      42.205  34.870  33.374  1.00  0.00    -0.014 A 
ATOM     73  C   UNL A   1      42.966  35.889  32.780  1.00  0.00     0.009 A 
ATOM     74  C   UNL A   1      41.667  35.079  34.653  1.00  0.00     0.009 A 
ATOM     75  C   UNL A   1      43.208  37.080  33.467  1.00  0.00     0.001 A 
ATOM     76  C   UNL A   1      41.887  36.281  35.326  1.00  0.00     0.001 A 
ATOM     77  C   UNL A   1      42.665  37.277  34.736  1.00  0.00     0.000 A 
ENDBRANCH  59  72
ENDBRANCH  33  34
ENDBRANCH  25  28
ENDBRANCH  23  24
ENDBRANCH  22  23
ENDBRANCH  21  22
ENDBRANCH   1  21
TORSDOF 16
ENDMDL
MODEL 3
REMARK VINA RESULT:      -9.8      3.118      7.833
REMARK SMILES CC[C@H](C)[NH2+]CCc1ccc(C(=O)NCCCCNC(=O)c2ccc(-c3c4nc(c(-c5ccccc5)c5ccc([nH]5)c(-c5ccccc5)c5nc(c(-c6ccccc6)c6ccc3[nH]6)C=C5)C=C4)cc2)cc1
REMARK SMILES IDX 15 1 14 2 12 3 13 4 11 6 8 7 9 8 71 9 10 10 70 11 7 12 6 13
REMARK SMILES IDX 5 14 3 17 4 18 2 19 1 20 16 21 17 22 18 23 19 24 20 25 21 27
REMARK SMILES IDX 22 28 23 29 69 30 24 31 68 32 25 33 26 34 27 35 62 36 28 37
REMARK SMILES IDX 67 38 61 39 63 40 29 41 66 42 60 43 59 44 30 46 52 47 37 48
REMARK SMILES IDX 51 49 38 50 41 51 50 52 64 53 39 54 40 55 49 57 65 58 42 59
REMARK SMILES IDX 31 60 32 61 36 62 33 63 35 64 34 65 53 66 54 67 58 68 55 69
REMARK SMILES IDX 57 70 56 71 43 72 44 73 48 74 45 75 47 76 46 77
REMARK H PARENT 14 5 5 15 5 16 19 26 63 45 41 56
REMARK Flexibility Score: inf
ROOT
ATOM      1  C   UNL A   1      35.930  21.293  25.429  1.00  0.00     0.116 C 
ENDROOT
BRANCH   1   2
ATOM      2  N   UNL A   1      35.064  20.141  25.296  1.00  0.00    -0.352 N 
ATOM      3  C   UNL A   1      33.766  19.988  24.878  1.00  0.00     0.251 C 
ATOM      4  O   UNL A   1      33.320  18.839  24.872  1.00  0.00    -0.269 OA
ATOM      5  H   UNL A   1      35.493  19.295  25.559  1.00  0.00     0.163 HD
BRANCH   3   6
ATOM      6  C   UNL A   1      32.888  21.106  24.419  1.00  0.00     0.039 A 
ATOM      7  C   UNL A   1      31.256  23.329  23.777  1.00  0.00    -0.042 A 
ATOM      8  C   UNL A   1      31.257  22.806  25.072  1.00  0.00     0.005 A 
ATOM      9  C   UNL A   1      32.031  22.700  22.800  1.00  0.00     0.005 A 
ATOM     10  C   UNL A   1      32.059  21.702  25.384  1.00  0.00     0.014 A 
ATOM     11  C   UNL A   1      32.876  21.637  23.131  1.00  0.00     0.014 A 
BRANCH   7  12
ATOM     12  C   UNL A   1      30.533  24.612  23.443  1.00  0.00     0.097 C 
BRANCH  12  13
ATOM     13  C   UNL A   1      31.454  25.847  23.349  1.00  0.00     0.265 C 
BRANCH  13  14
ATOM     14  N   UNL A   1      32.888  25.614  23.158  1.00  0.00    -0.344 N 
ATOM     15  H   UNL A   1      33.053  24.611  23.247  1.00  0.00     0.346 HD
ATOM     16  H   UNL A   1      33.104  26.001  22.239  1.00  0.00     0.346 HD
BRANCH  14  17
ATOM     17  C   UNL A   1      33.793  26.296  24.084  1.00  0.00     0.178 C 
ATOM     18  C   UNL A   1      33.408  27.779  24.065  1.00  0.00     0.075 C 
BRANCH  17  19
ATOM     19  C   UNL A   1      33.780  25.750  25.525  1.00  0.00     0.061 C 
ATOM     20  C   UNL A   1      34.562  24.460  25.750  1.00  0.00     0.010 C 
ENDBRANCH  17  19
ENDBRANCH  14  17
ENDBRANCH  13  14
ENDBRANCH  12  13
ENDBRANCH   7  12
ENDBRANCH   3   6
ENDBRANCH   1   2
BRANCH   1  21
ATOM     21  C   UNL A   1      37.213  21.099  24.616  1.00  0.00     0.023 C 
BRANCH  21  22
ATOM     22  C   UNL A   1      38.007  19.845  25.003  1.00  0.00     0.023 C 
BRANCH  22  23
ATOM     23  C   UNL A   1      39.170  20.095  25.959  1.00  0.00     0.116 C 
BRANCH  23  24
ATOM     24  N   UNL A   1      40.185  19.054  25.915  1.00  0.00    -0.352 N 
ATOM     25  C   UNL A   1      41.544  19.186  26.082  1.00  0.00     0.251 C 
ATOM     26  H   UNL A   1      39.859  18.142  25.745  1.00  0.00     0.163 HD
ATOM     27  O   UNL A   1      42.290  18.231  25.914  1.00  0.00    -0.269 OA
BRANCH  25  28
ATOM     28  C   UNL A   1      42.097  20.513  26.418  1.00  0.00     0.039 A 
ATOM     29  C   UNL A   1      42.429  21.384  25.377  1.00  0.00     0.014 A 
ATOM     30  C   UNL A   1      42.248  20.908  27.749  1.00  0.00     0.014 A 
ATOM     31  C   UNL A   1      42.853  22.680  25.673  1.00  0.00     0.010 A 
ATOM     32  C   UNL A   1      42.609  22.219  28.041  1.00  0.00     0.010 A 
ATOM     33  C   UNL A   1      42.911  23.117  27.007  1.00  0.00    -0.014 A 
BRANCH  33  34
ATOM     34  C   UNL A   1      43.278  24.515  27.339  1.00  0.00     0.031 A 
ATOM     35  C   UNL A   1      44.715  24.950  27.294  1.00  0.00     0.074 A 
ATOM     36  C   UNL A   1      42.323  25.374  27.746  1.00  0.00     0.049 A 
ATOM     37  N   UNL A   1      45.235  26.112  27.601  1.00  0.00    -0.248 NA
ATOM     38  C   UNL A   1      45.700  23.942  26.870  1.00  0.00     0.031 C 
ATOM     39  C   UNL A   1      40.897  25.061  27.874  1.00  0.00     0.029 A 
ATOM     40  N   UNL A   1      42.411  26.686  28.135  1.00  0.00    -0.354 N 
ATOM     41  C   UNL A   1      46.606  25.966  27.428  1.00  0.00     0.074 A 
ATOM     42  C   UNL A   1      46.841  24.595  27.032  1.00  0.00     0.031 C 
ATOM     43  C   UNL A   1      40.243  26.160  28.285  1.00  0.00     0.029 A 
ATOM     44  C   UNL A   1      41.203  27.239  28.485  1.00  0.00     0.049 A 
ATOM     45  H   UNL A   1      43.259  27.185  28.163  1.00  0.00     0.167 HD
ATOM     46  C   UNL A   1      47.580  26.896  27.569  1.00  0.00     0.031 A 
ATOM     47  C   UNL A   1      40.903  28.477  28.920  1.00  0.00     0.031 A 
ATOM     48  C   UNL A   1      47.345  28.263  27.948  1.00  0.00     0.049 A 
ATOM     49  C   UNL A   1      42.003  29.489  29.072  1.00  0.00     0.074 A 
ATOM     50  C   UNL A   1      48.258  29.297  28.056  1.00  0.00     0.029 A 
ATOM     51  N   UNL A   1      46.106  28.787  28.282  1.00  0.00    -0.354 N 
ATOM     52  N   UNL A   1      43.286  29.357  28.834  1.00  0.00    -0.248 NA
ATOM     53  C   UNL A   1      41.612  30.826  29.541  1.00  0.00     0.031 C 
ATOM     54  C   UNL A   1      47.579  30.436  28.499  1.00  0.00     0.029 A 
ATOM     55  C   UNL A   1      46.234  30.123  28.618  1.00  0.00     0.049 A 
ATOM     56  H   UNL A   1      45.260  28.283  28.280  1.00  0.00     0.167 HD
ATOM     57  C   UNL A   1      43.849  30.598  29.098  1.00  0.00     0.074 A 
ATOM     58  C   UNL A   1      42.767  31.474  29.500  1.00  0.00     0.031 C 
ATOM     59  C   UNL A   1      45.147  30.979  29.014  1.00  0.00     0.031 A 
BRANCH  46  60
ATOM     60  C   UNL A   1      48.994  26.458  27.315  1.00  0.00    -0.014 A 
ATOM     61  C   UNL A   1      49.818  26.015  28.362  1.00  0.00     0.009 A 
ATOM     62  C   UNL A   1      49.501  26.457  26.005  1.00  0.00     0.009 A 
ATOM     63  C   UNL A   1      51.131  25.615  28.108  1.00  0.00     0.001 A 
ATOM     64  C   UNL A   1      50.805  26.030  25.751  1.00  0.00     0.001 A 
ATOM     65  C   UNL A   1      51.622  25.619  26.803  1.00  0.00     0.000 A 
ENDBRANCH  46  60
BRANCH  47  66
ATOM     66  C   UNL A   1      39.495  28.840  29.226  1.00  0.00    -0.014 A 
ATOM     67  C   UNL A   1      38.981  28.654  30.519  1.00  0.00     0.009 A 
ATOM     68  C   UNL A   1      38.657  29.364  28.230  1.00  0.00     0.009 A 
ATOM     69  C   UNL A   1      37.648  28.960  30.800  1.00  0.00     0.001 A 
ATOM     70  C   UNL A   1      37.332  29.694  28.521  1.00  0.00     0.001 A 
ATOM     71  C   UNL A   1      36.826  29.482  29.802  1.00  0.00     0.000 A 
ENDBRANCH  47  66
BRANCH  59  72
ATOM     72  C   UNL A   1      45.462  32.414  29.327  1.00  0.00    -0.014 A 
ATOM     73  C   UNL A   1      45.385  33.410  28.341  1.00  0.00     0.009 A 
ATOM     74  C   UNL A   1      45.801  32.778  30.640  1.00  0.00     0.009 A 
ATOM     75  C   UNL A   1      45.673  34.738  28.658  1.00  0.00     0.001 A 
ATOM     76  C   UNL A   1      46.062  34.112  30.959  1.00  0.00     0.001 A 
ATOM     77  C   UNL A   1      46.006  35.089  29.966  1.00  0.00     0.000 A 
ENDBRANCH  59  72
ENDBRANCH  33  34
ENDBRANCH  25  28
ENDBRANCH  23  24
ENDBRANCH  22  23
ENDBRANCH  21  22
ENDBRANCH   1  21
TORSDOF 16
ENDMDL
