MODEL 1
REMARK VINA RESULT:     -11.7      0.000      0.000
REMARK SMILES CC(C)c1cc(O)cc(C(C)C)c1O[C@@H]1O[C@@H](C(=O)NCCCCNC(=O)c2ccc(-c3c4nc(c(-c5ccccc5)c5ccc([nH]5)c(-c5ccccc5)c5nc(c(-c6ccccc6)c6ccc3[nH]6)C=C5)C=C4)cc2)[C@@H](O)[C@H](O)[C@@H]1O
REMARK SMILES IDX 22 1 21 2 20 3 18 4 19 5 17 7 15 8 16 9 80 10 78 11 76 12
REMARK SMILES IDX 14 13 13 14 4 15 5 16 6 17 9 18 8 19 2 20 1 21 3 22 7 23
REMARK SMILES IDX 10 25 11 26 12 27 81 28 79 30 77 32 23 34 24 35 25 36 26 37
REMARK SMILES IDX 27 39 28 40 29 41 75 42 30 43 74 44 31 45 32 46 33 47 68 48
REMARK SMILES IDX 34 49 73 50 67 51 69 52 35 53 72 54 66 55 65 56 36 58 58 59
REMARK SMILES IDX 43 60 57 61 44 62 47 63 56 64 70 65 45 66 46 67 55 69 71 70
REMARK SMILES IDX 48 71 37 72 38 73 42 74 39 75 41 76 40 77 59 78 60 79 64 80
REMARK SMILES IDX 61 81 63 82 62 83 49 84 50 85 54 86 51 87 53 88 52 89
REMARK H PARENT 20 6 7 24 81 29 79 31 77 33 25 38 69 57 47 68
REMARK Flexibility Score: inf
ROOT
ATOM      1  C   UNL A   1      37.136  22.812  24.693  1.00  0.00     0.023 C 
ENDROOT
BRANCH   1   2
ATOM      2  C   UNL A   1      36.654  23.609  25.902  1.00  0.00     0.116 C 
BRANCH   2   3
ATOM      3  N   UNL A   1      35.765  22.877  26.789  1.00  0.00    -0.354 N 
ATOM      4  C   UNL A   1      34.553  22.286  26.647  1.00  0.00     0.252 C 
ATOM      5  O   UNL A   1      34.276  21.468  27.537  1.00  0.00    -0.272 OA
ATOM      6  H   UNL A   1      36.126  22.790  27.701  1.00  0.00     0.163 HD
BRANCH   4   7
ATOM      7  C   UNL A   1      33.495  22.594  25.541  1.00  0.00     0.242 C 
ATOM      8  C   UNL A   1      33.077  24.910  26.087  1.00  0.00     0.339 C 
ATOM      9  O   UNL A   1      33.535  23.969  25.106  1.00  0.00    -0.324 OA
ATOM     10  C   UNL A   1      31.778  24.555  26.880  1.00  0.00     0.214 C 
ATOM     11  C   UNL A   1      31.520  23.040  26.994  1.00  0.00     0.181 C 
ATOM     12  C   UNL A   1      32.030  22.253  25.773  1.00  0.00     0.184 C 
BRANCH   8  13
ATOM     13  O   UNL A   1      33.089  26.272  25.633  1.00  0.00    -0.461 OA
BRANCH  13  14
ATOM     14  C   UNL A   1      32.267  26.957  24.787  1.00  0.00     0.130 A 
ATOM     15  C   UNL A   1      31.890  28.226  25.330  1.00  0.00     0.001 A 
ATOM     16  C   UNL A   1      31.027  29.080  24.611  1.00  0.00     0.054 A 
ATOM     17  C   UNL A   1      30.546  28.705  23.374  1.00  0.00     0.116 A 
ATOM     18  C   UNL A   1      31.753  26.584  23.519  1.00  0.00     0.001 A 
ATOM     19  C   UNL A   1      30.908  27.487  22.831  1.00  0.00     0.054 A 
BRANCH  15  20
ATOM     20  C   UNL A   1      32.374  28.757  26.684  1.00  0.00     0.017 C 
ATOM     21  C   UNL A   1      32.588  30.272  26.706  1.00  0.00     0.012 C 
ATOM     22  C   UNL A   1      31.493  28.286  27.842  1.00  0.00     0.012 C 
ENDBRANCH  15  20
BRANCH  17  23
ATOM     23  O   UNL A   1      29.711  29.500  22.649  1.00  0.00    -0.508 OA
ATOM     24  H   UNL A   1      29.044  29.997  23.083  1.00  0.00     0.293 HD
ENDBRANCH  17  23
BRANCH  18  25
ATOM     25  C   UNL A   1      32.024  25.287  22.786  1.00  0.00     0.017 C 
ATOM     26  C   UNL A   1      30.920  24.227  22.921  1.00  0.00     0.012 C 
ATOM     27  C   UNL A   1      32.396  25.510  21.322  1.00  0.00     0.012 C 
ENDBRANCH  18  25
ENDBRANCH  13  14
ENDBRANCH   8  13
BRANCH  10  28
ATOM     28  O   UNL A   1      30.572  25.153  26.369  1.00  0.00    -0.384 OA
ATOM     29  H   UNL A   1      29.811  24.604  26.611  1.00  0.00     0.211 HD
ENDBRANCH  10  28
BRANCH  11  30
ATOM     30  O   UNL A   1      30.119  22.798  27.185  1.00  0.00    -0.387 OA
ATOM     31  H   UNL A   1      29.703  22.608  26.330  1.00  0.00     0.211 HD
ENDBRANCH  11  30
BRANCH  12  32
ATOM     32  O   UNL A   1      31.802  20.845  25.807  1.00  0.00    -0.387 OA
ATOM     33  H   UNL A   1      31.346  20.571  24.996  1.00  0.00     0.211 HD
ENDBRANCH  12  32
ENDBRANCH   4   7
ENDBRANCH   2   3
ENDBRANCH   1   2
BRANCH   1  34
ATOM     34  C   UNL A   1      37.633  21.406  25.029  1.00  0.00     0.023 C 
BRANCH  34  35
ATOM     35  C   UNL A   1      38.976  21.328  25.751  1.00  0.00     0.116 C 
BRANCH  35  36
ATOM     36  N   UNL A   1      39.660  20.045  25.668  1.00  0.00    -0.352 N 
ATOM     37  C   UNL A   1      40.974  19.811  26.033  1.00  0.00     0.251 C 
ATOM     38  H   UNL A   1      39.146  19.281  25.323  1.00  0.00     0.163 HD
ATOM     39  O   UNL A   1      41.510  18.722  25.910  1.00  0.00    -0.269 OA
BRANCH  37  40
ATOM     40  C   UNL A   1      41.725  20.970  26.549  1.00  0.00     0.039 A 
ATOM     41  C   UNL A   1      42.288  21.866  25.638  1.00  0.00     0.014 A 
ATOM     42  C   UNL A   1      41.640  21.274  27.910  1.00  0.00     0.014 A 
ATOM     43  C   UNL A   1      42.682  23.128  26.083  1.00  0.00     0.010 A 
ATOM     44  C   UNL A   1      41.971  22.553  28.335  1.00  0.00     0.010 A 
ATOM     45  C   UNL A   1      42.472  23.498  27.421  1.00  0.00    -0.014 A 
BRANCH  45  46
ATOM     46  C   UNL A   1      42.736  24.877  27.898  1.00  0.00     0.031 A 
ATOM     47  C   UNL A   1      44.112  25.244  28.367  1.00  0.00     0.074 A 
ATOM     48  C   UNL A   1      41.719  25.751  28.028  1.00  0.00     0.049 A 
ATOM     49  N   UNL A   1      44.519  26.337  28.960  1.00  0.00    -0.248 NA
ATOM     50  C   UNL A   1      45.161  24.229  28.180  1.00  0.00     0.031 C 
ATOM     51  C   UNL A   1      40.323  25.496  27.665  1.00  0.00     0.029 A 
ATOM     52  N   UNL A   1      41.702  27.030  28.530  1.00  0.00    -0.354 N 
ATOM     53  C   UNL A   1      45.858  26.122  29.257  1.00  0.00     0.074 A 
ATOM     54  C   UNL A   1      46.184  24.785  28.811  1.00  0.00     0.031 C 
ATOM     55  C   UNL A   1      39.589  26.585  27.949  1.00  0.00     0.029 A 
ATOM     56  C   UNL A   1      40.452  27.600  28.545  1.00  0.00     0.049 A 
ATOM     57  H   UNL A   1      42.510  27.493  28.849  1.00  0.00     0.167 HD
ATOM     58  C   UNL A   1      46.741  26.966  29.837  1.00  0.00     0.031 A 
ATOM     59  C   UNL A   1      40.045  28.799  29.000  1.00  0.00     0.031 A 
ATOM     60  C   UNL A   1      46.426  28.306  30.248  1.00  0.00     0.049 A 
ATOM     61  C   UNL A   1      41.051  29.741  29.599  1.00  0.00     0.074 A 
ATOM     62  C   UNL A   1      47.271  29.272  30.763  1.00  0.00     0.029 A 
ATOM     63  N   UNL A   1      45.160  28.870  30.185  1.00  0.00    -0.354 N 
ATOM     64  N   UNL A   1      42.333  29.554  29.802  1.00  0.00    -0.248 NA
ATOM     65  C   UNL A   1      40.559  31.059  30.023  1.00  0.00     0.031 C 
ATOM     66  C   UNL A   1      46.510  30.411  31.046  1.00  0.00     0.029 A 
ATOM     67  C   UNL A   1      45.198  30.165  30.670  1.00  0.00     0.049 A 
ATOM     68  H   UNL A   1      44.355  28.415  29.848  1.00  0.00     0.167 HD
ATOM     69  C   UNL A   1      42.805  30.736  30.355  1.00  0.00     0.074 A 
ATOM     70  C   UNL A   1      41.674  31.637  30.448  1.00  0.00     0.031 C 
ATOM     71  C   UNL A   1      44.064  31.048  30.750  1.00  0.00     0.031 A 
BRANCH  58  72
ATOM     72  C   UNL A   1      48.130  26.447  30.068  1.00  0.00    -0.014 A 
ATOM     73  C   UNL A   1      48.485  25.827  31.278  1.00  0.00     0.009 A 
ATOM     74  C   UNL A   1      49.102  26.586  29.065  1.00  0.00     0.009 A 
ATOM     75  C   UNL A   1      49.797  25.404  31.497  1.00  0.00     0.001 A 
ATOM     76  C   UNL A   1      50.406  26.136  29.276  1.00  0.00     0.001 A 
ATOM     77  C   UNL A   1      50.755  25.556  30.496  1.00  0.00     0.000 A 
ENDBRANCH  58  72
BRANCH  59  78
ATOM     78  C   UNL A   1      38.614  29.182  28.893  1.00  0.00    -0.014 A 
ATOM     79  C   UNL A   1      38.100  29.681  27.686  1.00  0.00     0.009 A 
ATOM     80  C   UNL A   1      37.751  29.036  29.989  1.00  0.00     0.009 A 
ATOM     81  C   UNL A   1      36.755  30.039  27.585  1.00  0.00     0.001 A 
ATOM     82  C   UNL A   1      36.400  29.375  29.878  1.00  0.00     0.001 A 
ATOM     83  C   UNL A   1      35.905  29.883  28.678  1.00  0.00     0.000 A 
ENDBRANCH  59  78
BRANCH  71  84
ATOM     84  C   UNL A   1      44.296  32.429  31.289  1.00  0.00    -0.014 A 
ATOM     85  C   UNL A   1      44.198  32.695  32.662  1.00  0.00     0.009 A 
ATOM     86  C   UNL A   1      44.689  33.456  30.418  1.00  0.00     0.009 A 
ATOM     87  C   UNL A   1      44.475  33.974  33.151  1.00  0.00     0.001 A 
ATOM     88  C   UNL A   1      44.985  34.726  30.912  1.00  0.00     0.001 A 
ATOM     89  C   UNL A   1      44.874  34.986  32.277  1.00  0.00     0.000 A 
ENDBRANCH  71  84
ENDBRANCH  45  46
ENDBRANCH  37  40
ENDBRANCH  35  36
ENDBRANCH  34  35
ENDBRANCH   1  34
TORSDOF 19
ENDMDL
MODEL 2
REMARK VINA RESULT:     -11.3      0.488      5.710
REMARK SMILES CC(C)c1cc(O)cc(C(C)C)c1O[C@@H]1O[C@@H](C(=O)NCCCCNC(=O)c2ccc(-c3c4nc(c(-c5ccccc5)c5ccc([nH]5)c(-c5ccccc5)c5nc(c(-c6ccccc6)c6ccc3[nH]6)C=C5)C=C4)cc2)[C@@H](O)[C@H](O)[C@@H]1O
REMARK SMILES IDX 22 1 21 2 20 3 18 4 19 5 17 7 15 8 16 9 80 10 78 11 76 12
REMARK SMILES IDX 14 13 13 14 4 15 5 16 6 17 9 18 8 19 2 20 1 21 3 22 7 23
REMARK SMILES IDX 10 25 11 26 12 27 81 28 79 30 77 32 23 34 24 35 25 36 26 37
REMARK SMILES IDX 27 39 28 40 29 41 75 42 30 43 74 44 31 45 32 46 33 47 68 48
REMARK SMILES IDX 34 49 73 50 67 51 69 52 35 53 72 54 66 55 65 56 36 58 58 59
REMARK SMILES IDX 43 60 57 61 44 62 47 63 56 64 70 65 45 66 46 67 55 69 71 70
REMARK SMILES IDX 48 71 37 72 38 73 42 74 39 75 41 76 40 77 59 78 60 79 64 80
REMARK SMILES IDX 61 81 63 82 62 83 49 84 50 85 54 86 51 87 53 88 52 89
REMARK H PARENT 20 6 7 24 81 29 79 31 77 33 25 38 69 57 47 68
REMARK Flexibility Score: inf
ROOT
ATOM      1  C   UNL A   1      37.096  23.115  25.128  1.00  0.00     0.023 C 
ENDROOT
BRANCH   1   2
ATOM      2  C   UNL A   1      36.176  23.826  26.117  1.00  0.00     0.116 C 
BRANCH   2   3
ATOM      3  N   UNL A   1      35.292  22.941  26.859  1.00  0.00    -0.354 N 
ATOM      4  C   UNL A   1      34.118  22.319  26.585  1.00  0.00     0.252 C 
ATOM      5  O   UNL A   1      33.850  21.377  27.346  1.00  0.00    -0.272 OA
ATOM      6  H   UNL A   1      35.621  22.749  27.767  1.00  0.00     0.163 HD
BRANCH   4   7
ATOM      7  C   UNL A   1      33.089  22.723  25.483  1.00  0.00     0.242 C 
ATOM      8  C   UNL A   1      32.907  25.073  26.014  1.00  0.00     0.339 C 
ATOM      9  O   UNL A   1      33.263  24.085  25.038  1.00  0.00    -0.324 OA
ATOM     10  C   UNL A   1      31.584  24.854  26.817  1.00  0.00     0.214 C 
ATOM     11  C   UNL A   1      31.178  23.372  26.943  1.00  0.00     0.181 C 
ATOM     12  C   UNL A   1      31.599  22.531  25.725  1.00  0.00     0.184 C 
BRANCH   8  13
ATOM     13  O   UNL A   1      33.051  26.424  25.551  1.00  0.00    -0.461 OA
BRANCH  13  14
ATOM     14  C   UNL A   1      32.275  27.194  24.735  1.00  0.00     0.130 A 
ATOM     15  C   UNL A   1      31.986  28.464  25.328  1.00  0.00     0.001 A 
ATOM     16  C   UNL A   1      31.180  29.401  24.647  1.00  0.00     0.054 A 
ATOM     17  C   UNL A   1      30.673  29.106  23.398  1.00  0.00     0.116 A 
ATOM     18  C   UNL A   1      31.735  26.906  23.456  1.00  0.00     0.001 A 
ATOM     19  C   UNL A   1      30.951  27.890  22.808  1.00  0.00     0.054 A 
BRANCH  15  20
ATOM     20  C   UNL A   1      32.506  28.908  26.699  1.00  0.00     0.017 C 
ATOM     21  C   UNL A   1      32.861  30.396  26.766  1.00  0.00     0.012 C 
ATOM     22  C   UNL A   1      31.577  28.489  27.839  1.00  0.00     0.012 C 
ENDBRANCH  15  20
BRANCH  17  23
ATOM     23  O   UNL A   1      29.892  29.983  22.708  1.00  0.00    -0.508 OA
ATOM     24  H   UNL A   1      30.287  30.612  22.136  1.00  0.00     0.293 HD
ENDBRANCH  17  23
BRANCH  18  25
ATOM     25  C   UNL A   1      31.918  25.623  22.673  1.00  0.00     0.017 C 
ATOM     26  C   UNL A   1      30.792  24.592  22.854  1.00  0.00     0.012 C 
ATOM     27  C   UNL A   1      32.198  25.876  21.194  1.00  0.00     0.012 C 
ENDBRANCH  18  25
ENDBRANCH  13  14
ENDBRANCH   8  13
BRANCH  10  28
ATOM     28  O   UNL A   1      30.441  25.565  26.308  1.00  0.00    -0.384 OA
ATOM     29  H   UNL A   1      29.800  24.933  25.949  1.00  0.00     0.211 HD
ENDBRANCH  10  28
BRANCH  11  30
ATOM     30  O   UNL A   1      29.761  23.272  27.143  1.00  0.00    -0.387 OA
ATOM     31  H   UNL A   1      29.567  22.514  27.716  1.00  0.00     0.211 HD
ENDBRANCH  11  30
BRANCH  12  32
ATOM     32  O   UNL A   1      31.233  21.153  25.770  1.00  0.00    -0.387 OA
ATOM     33  H   UNL A   1      30.542  20.980  25.112  1.00  0.00     0.211 HD
ENDBRANCH  12  32
ENDBRANCH   4   7
ENDBRANCH   2   3
ENDBRANCH   1   2
BRANCH   1  34
ATOM     34  C   UNL A   1      37.570  21.739  25.595  1.00  0.00     0.023 C 
BRANCH  34  35
ATOM     35  C   UNL A   1      39.037  21.642  26.005  1.00  0.00     0.116 C 
BRANCH  35  36
ATOM     36  N   UNL A   1      39.675  20.356  25.758  1.00  0.00    -0.352 N 
ATOM     37  C   UNL A   1      41.000  20.055  26.017  1.00  0.00     0.251 C 
ATOM     38  H   UNL A   1      39.117  19.642  25.374  1.00  0.00     0.163 HD
ATOM     39  O   UNL A   1      41.494  18.970  25.758  1.00  0.00    -0.269 OA
BRANCH  37  40
ATOM     40  C   UNL A   1      41.816  21.139  26.593  1.00  0.00     0.039 A 
ATOM     41  C   UNL A   1      42.307  22.134  25.746  1.00  0.00     0.014 A 
ATOM     42  C   UNL A   1      41.863  21.278  27.982  1.00  0.00     0.014 A 
ATOM     43  C   UNL A   1      42.763  23.331  26.298  1.00  0.00     0.010 A 
ATOM     44  C   UNL A   1      42.255  22.495  28.523  1.00  0.00     0.010 A 
ATOM     45  C   UNL A   1      42.685  23.540  27.684  1.00  0.00    -0.014 A 
BRANCH  45  46
ATOM     46  C   UNL A   1      43.016  24.850  28.294  1.00  0.00     0.031 A 
ATOM     47  C   UNL A   1      41.929  25.861  28.507  1.00  0.00     0.074 A 
ATOM     48  C   UNL A   1      44.301  25.174  28.537  1.00  0.00     0.049 A 
ATOM     49  N   UNL A   1      42.025  27.111  28.880  1.00  0.00    -0.248 NA
ATOM     50  C   UNL A   1      40.556  25.416  28.223  1.00  0.00     0.031 C 
ATOM     51  C   UNL A   1      45.458  24.303  28.315  1.00  0.00     0.029 A 
ATOM     52  N   UNL A   1      44.852  26.344  29.000  1.00  0.00    -0.354 N 
ATOM     53  C   UNL A   1      40.731  27.613  28.831  1.00  0.00     0.074 A 
ATOM     54  C   UNL A   1      39.877  26.544  28.360  1.00  0.00     0.031 C 
ATOM     55  C   UNL A   1      46.578  24.965  28.649  1.00  0.00     0.029 A 
ATOM     56  C   UNL A   1      46.224  26.315  29.075  1.00  0.00     0.049 A 
ATOM     57  H   UNL A   1      44.315  27.128  29.254  1.00  0.00     0.167 HD
ATOM     58  C   UNL A   1      40.291  28.848  29.161  1.00  0.00     0.031 A 
ATOM     59  C   UNL A   1      47.099  27.274  29.431  1.00  0.00     0.031 A 
ATOM     60  C   UNL A   1      41.134  29.898  29.662  1.00  0.00     0.049 A 
ATOM     61  C   UNL A   1      46.585  28.626  29.839  1.00  0.00     0.074 A 
ATOM     62  C   UNL A   1      40.773  31.156  30.109  1.00  0.00     0.029 A 
ATOM     63  N   UNL A   1      42.512  29.807  29.785  1.00  0.00    -0.354 N 
ATOM     64  N   UNL A   1      45.349  29.064  29.862  1.00  0.00    -0.248 NA
ATOM     65  C   UNL A   1      47.583  29.613  30.276  1.00  0.00     0.031 C 
ATOM     66  C   UNL A   1      41.937  31.841  30.471  1.00  0.00     0.029 A 
ATOM     67  C   UNL A   1      43.019  30.994  30.285  1.00  0.00     0.049 A 
ATOM     68  H   UNL A   1      43.051  29.017  29.550  1.00  0.00     0.167 HD
ATOM     69  C   UNL A   1      45.418  30.366  30.338  1.00  0.00     0.074 A 
ATOM     70  C   UNL A   1      46.816  30.645  30.598  1.00  0.00     0.031 C 
ATOM     71  C   UNL A   1      44.412  31.251  30.542  1.00  0.00     0.031 A 
BRANCH  58  72
ATOM     72  C   UNL A   1      38.827  29.124  28.972  1.00  0.00    -0.014 A 
ATOM     73  C   UNL A   1      38.315  29.517  27.725  1.00  0.00     0.009 A 
ATOM     74  C   UNL A   1      37.950  28.997  30.060  1.00  0.00     0.009 A 
ATOM     75  C   UNL A   1      36.961  29.826  27.584  1.00  0.00     0.001 A 
ATOM     76  C   UNL A   1      36.591  29.278  29.909  1.00  0.00     0.001 A 
ATOM     77  C   UNL A   1      36.101  29.705  28.674  1.00  0.00     0.000 A 
ENDBRANCH  58  72
BRANCH  59  78
ATOM     78  C   UNL A   1      48.555  26.982  29.431  1.00  0.00    -0.014 A 
ATOM     79  C   UNL A   1      49.337  27.267  28.301  1.00  0.00     0.009 A 
ATOM     80  C   UNL A   1      49.174  26.432  30.564  1.00  0.00     0.009 A 
ATOM     81  C   UNL A   1      50.706  26.993  28.301  1.00  0.00     0.001 A 
ATOM     82  C   UNL A   1      50.548  26.180  30.568  1.00  0.00     0.001 A 
ATOM     83  C   UNL A   1      51.312  26.454  29.435  1.00  0.00     0.000 A 
ENDBRANCH  59  78
BRANCH  71  84
ATOM     84  C   UNL A   1      44.778  32.595  31.101  1.00  0.00    -0.014 A 
ATOM     85  C   UNL A   1      45.045  33.681  30.257  1.00  0.00     0.009 A 
ATOM     86  C   UNL A   1      44.780  32.789  32.491  1.00  0.00     0.009 A 
ATOM     87  C   UNL A   1      45.327  34.938  30.798  1.00  0.00     0.001 A 
ATOM     88  C   UNL A   1      45.041  34.050  33.027  1.00  0.00     0.001 A 
ATOM     89  C   UNL A   1      45.318  35.123  32.181  1.00  0.00     0.000 A 
ENDBRANCH  71  84
ENDBRANCH  45  46
ENDBRANCH  37  40
ENDBRANCH  35  36
ENDBRANCH  34  35
ENDBRANCH   1  34
TORSDOF 19
ENDMDL
MODEL 3
REMARK VINA RESULT:     -11.2      3.089      8.597
REMARK SMILES CC(C)c1cc(O)cc(C(C)C)c1O[C@@H]1O[C@@H](C(=O)NCCCCNC(=O)c2ccc(-c3c4nc(c(-c5ccccc5)c5ccc([nH]5)c(-c5ccccc5)c5nc(c(-c6ccccc6)c6ccc3[nH]6)C=C5)C=C4)cc2)[C@@H](O)[C@H](O)[C@@H]1O
REMARK SMILES IDX 22 1 21 2 20 3 18 4 19 5 17 7 15 8 16 9 80 10 78 11 76 12
REMARK SMILES IDX 14 13 13 14 4 15 5 16 6 17 9 18 8 19 2 20 1 21 3 22 7 23
REMARK SMILES IDX 10 25 11 26 12 27 81 28 79 30 77 32 23 34 24 35 25 36 26 37
REMARK SMILES IDX 27 39 28 40 29 41 75 42 30 43 74 44 31 45 32 46 33 47 68 48
REMARK SMILES IDX 34 49 73 50 67 51 69 52 35 53 72 54 66 55 65 56 36 58 58 59
REMARK SMILES IDX 43 60 57 61 44 62 47 63 56 64 70 65 45 66 46 67 55 69 71 70
REMARK SMILES IDX 48 71 37 72 38 73 42 74 39 75 41 76 40 77 59 78 60 79 64 80
REMARK SMILES IDX 61 81 63 82 62 83 49 84 50 85 54 86 51 87 53 88 52 89
REMARK H PARENT 20 6 7 24 81 29 79 31 77 33 25 38 69 57 47 68
REMARK Flexibility Score: inf
ROOT
ATOM      1  C   UNL A   1      34.583  29.480  27.221  1.00  0.00     0.023 C 
ENDROOT
BRANCH   1   2
ATOM      2  C   UNL A   1      33.917  28.446  26.317  1.00  0.00     0.116 C 
BRANCH   2   3
ATOM      3  N   UNL A   1      33.921  28.790  24.904  1.00  0.00    -0.354 N 
ATOM      4  C   UNL A   1      33.149  28.454  23.840  1.00  0.00     0.252 C 
ATOM      5  O   UNL A   1      33.258  29.219  22.870  1.00  0.00    -0.272 OA
ATOM      6  H   UNL A   1      34.649  29.409  24.666  1.00  0.00     0.163 HD
BRANCH   4   7
ATOM      7  C   UNL A   1      32.232  27.197  23.720  1.00  0.00     0.242 C 
ATOM      8  C   UNL A   1      33.922  25.496  24.016  1.00  0.00     0.339 C 
ATOM      9  O   UNL A   1      32.711  26.086  24.506  1.00  0.00    -0.324 OA
ATOM     10  C   UNL A   1      34.036  25.252  22.476  1.00  0.00     0.214 C 
ATOM     11  C   UNL A   1      33.176  26.215  21.634  1.00  0.00     0.181 C 
ATOM     12  C   UNL A   1      31.880  26.640  22.348  1.00  0.00     0.184 C 
BRANCH   8  13
ATOM     13  O   UNL A   1      34.372  24.371  24.785  1.00  0.00    -0.461 OA
BRANCH  13  14
ATOM     14  C   UNL A   1      33.941  23.078  24.846  1.00  0.00     0.130 A 
ATOM     15  C   UNL A   1      35.026  22.154  24.713  1.00  0.00     0.001 A 
ATOM     16  C   UNL A   1      34.783  20.764  24.733  1.00  0.00     0.054 A 
ATOM     17  C   UNL A   1      33.500  20.282  24.891  1.00  0.00     0.116 A 
ATOM     18  C   UNL A   1      32.628  22.564  24.996  1.00  0.00     0.001 A 
ATOM     19  C   UNL A   1      32.444  21.161  25.031  1.00  0.00     0.054 A 
BRANCH  15  20
ATOM     20  C   UNL A   1      36.491  22.570  24.549  1.00  0.00     0.017 C 
ATOM     21  C   UNL A   1      37.478  21.620  25.232  1.00  0.00     0.012 C 
ATOM     22  C   UNL A   1      36.864  22.829  23.088  1.00  0.00     0.012 C 
ENDBRANCH  15  20
BRANCH  17  23
ATOM     23  O   UNL A   1      33.225  18.949  24.916  1.00  0.00    -0.508 OA
ATOM     24  H   UNL A   1      32.741  18.584  25.631  1.00  0.00     0.293 HD
ENDBRANCH  17  23
BRANCH  18  25
ATOM     25  C   UNL A   1      31.358  23.374  25.139  1.00  0.00     0.017 C 
ATOM     26  C   UNL A   1      30.593  23.611  23.828  1.00  0.00     0.012 C 
ATOM     27  C   UNL A   1      30.433  22.824  26.222  1.00  0.00     0.012 C 
ENDBRANCH  18  25
ENDBRANCH  13  14
ENDBRANCH   8  13
BRANCH  10  28
ATOM     28  O   UNL A   1      33.718  23.915  22.048  1.00  0.00    -0.384 OA
ATOM     29  H   UNL A   1      33.268  23.948  21.190  1.00  0.00     0.211 HD
ENDBRANCH  10  28
BRANCH  11  30
ATOM     30  O   UNL A   1      32.865  25.611  20.370  1.00  0.00    -0.387 OA
ATOM     31  H   UNL A   1      32.660  24.672  20.501  1.00  0.00     0.211 HD
ENDBRANCH  11  30
BRANCH  12  32
ATOM     32  O   UNL A   1      31.028  27.515  21.611  1.00  0.00    -0.387 OA
ATOM     33  H   UNL A   1      30.561  28.104  22.224  1.00  0.00     0.211 HD
ENDBRANCH  12  32
ENDBRANCH   4   7
ENDBRANCH   2   3
ENDBRANCH   1   2
BRANCH   1  34
ATOM     34  C   UNL A   1      33.651  30.600  27.680  1.00  0.00     0.023 C 
BRANCH  34  35
ATOM     35  C   UNL A   1      34.168  32.023  27.482  1.00  0.00     0.116 C 
BRANCH  35  36
ATOM     36  N   UNL A   1      33.295  33.083  27.965  1.00  0.00    -0.352 N 
ATOM     37  C   UNL A   1      33.568  33.929  29.023  1.00  0.00     0.251 C 
ATOM     38  H   UNL A   1      32.437  33.207  27.499  1.00  0.00     0.163 HD
ATOM     39  O   UNL A   1      32.784  34.780  29.410  1.00  0.00    -0.269 OA
BRANCH  37  40
ATOM     40  C   UNL A   1      34.860  33.726  29.705  1.00  0.00     0.039 A 
ATOM     41  C   UNL A   1      34.921  32.835  30.778  1.00  0.00     0.014 A 
ATOM     42  C   UNL A   1      36.020  34.230  29.111  1.00  0.00     0.014 A 
ATOM     43  C   UNL A   1      36.165  32.363  31.197  1.00  0.00     0.010 A 
ATOM     44  C   UNL A   1      37.249  33.707  29.487  1.00  0.00     0.010 A 
ATOM     45  C   UNL A   1      37.330  32.752  30.517  1.00  0.00    -0.014 A 
BRANCH  45  46
ATOM     46  C   UNL A   1      38.652  32.158  30.833  1.00  0.00     0.031 A 
ATOM     47  C   UNL A   1      39.073  30.890  30.151  1.00  0.00     0.074 A 
ATOM     48  C   UNL A   1      39.409  32.684  31.815  1.00  0.00     0.049 A 
ATOM     49  N   UNL A   1      40.109  30.129  30.390  1.00  0.00    -0.248 NA
ATOM     50  C   UNL A   1      38.187  30.393  29.086  1.00  0.00     0.031 C 
ATOM     51  C   UNL A   1      39.083  33.880  32.596  1.00  0.00     0.029 A 
ATOM     52  N   UNL A   1      40.603  32.259  32.343  1.00  0.00    -0.354 N 
ATOM     53  C   UNL A   1      39.975  29.041  29.538  1.00  0.00     0.074 A 
ATOM     54  C   UNL A   1      38.742  29.225  28.804  1.00  0.00     0.031 C 
ATOM     55  C   UNL A   1      40.056  34.096  33.497  1.00  0.00     0.029 A 
ATOM     56  C   UNL A   1      41.055  33.038  33.381  1.00  0.00     0.049 A 
ATOM     57  H   UNL A   1      41.090  31.472  32.009  1.00  0.00     0.167 HD
ATOM     58  C   UNL A   1      40.810  27.990  29.371  1.00  0.00     0.031 A 
ATOM     59  C   UNL A   1      42.144  32.906  34.162  1.00  0.00     0.031 A 
ATOM     60  C   UNL A   1      42.051  27.826  30.076  1.00  0.00     0.049 A 
ATOM     61  C   UNL A   1      43.082  31.757  33.929  1.00  0.00     0.074 A 
ATOM     62  C   UNL A   1      43.011  26.843  29.915  1.00  0.00     0.029 A 
ATOM     63  N   UNL A   1      42.505  28.674  31.075  1.00  0.00    -0.354 N 
ATOM     64  N   UNL A   1      42.983  30.776  33.065  1.00  0.00    -0.248 NA
ATOM     65  C   UNL A   1      44.285  31.699  34.772  1.00  0.00     0.031 C 
ATOM     66  C   UNL A   1      44.031  27.076  30.843  1.00  0.00     0.029 A 
ATOM     67  C   UNL A   1      43.724  28.226  31.553  1.00  0.00     0.049 A 
ATOM     68  H   UNL A   1      42.030  29.474  31.397  1.00  0.00     0.167 HD
ATOM     69  C   UNL A   1      44.120  29.998  33.243  1.00  0.00     0.074 A 
ATOM     70  C   UNL A   1      44.898  30.626  34.291  1.00  0.00     0.031 C 
ATOM     71  C   UNL A   1      44.486  28.866  32.594  1.00  0.00     0.031 A 
BRANCH  58  72
ATOM     72  C   UNL A   1      40.387  26.932  28.393  1.00  0.00    -0.014 A 
ATOM     73  C   UNL A   1      39.545  25.877  28.780  1.00  0.00     0.009 A 
ATOM     74  C   UNL A   1      40.846  26.987  27.069  1.00  0.00     0.009 A 
ATOM     75  C   UNL A   1      39.212  24.871  27.871  1.00  0.00     0.001 A 
ATOM     76  C   UNL A   1      40.487  25.995  26.154  1.00  0.00     0.001 A 
ATOM     77  C   UNL A   1      39.681  24.932  26.560  1.00  0.00     0.000 A 
ENDBRANCH  58  72
BRANCH  59  78
ATOM     78  C   UNL A   1      42.411  33.903  35.230  1.00  0.00    -0.014 A 
ATOM     79  C   UNL A   1      43.144  35.066  34.949  1.00  0.00     0.009 A 
ATOM     80  C   UNL A   1      41.920  33.707  36.530  1.00  0.00     0.009 A 
ATOM     81  C   UNL A   1      43.394  36.004  35.953  1.00  0.00     0.001 A 
ATOM     82  C   UNL A   1      42.153  34.658  37.526  1.00  0.00     0.001 A 
ATOM     83  C   UNL A   1      42.896  35.802  37.239  1.00  0.00     0.000 A 
ENDBRANCH  59  78
BRANCH  71  84
ATOM     84  C   UNL A   1      45.798  28.246  32.974  1.00  0.00    -0.014 A 
ATOM     85  C   UNL A   1      46.993  28.651  32.363  1.00  0.00     0.009 A 
ATOM     86  C   UNL A   1      45.844  27.299  34.008  1.00  0.00     0.009 A 
ATOM     87  C   UNL A   1      48.211  28.103  32.771  1.00  0.00     0.001 A 
ATOM     88  C   UNL A   1      47.063  26.770  34.428  1.00  0.00     0.001 A 
ATOM     89  C   UNL A   1      48.246  27.169  33.807  1.00  0.00     0.000 A 
ENDBRANCH  71  84
ENDBRANCH  45  46
ENDBRANCH  37  40
ENDBRANCH  35  36
ENDBRANCH  34  35
ENDBRANCH   1  34
TORSDOF 19
ENDMDL
