MODEL 1
REMARK VINA RESULT:     -11.9      0.000      0.000
REMARK SMILES C[C@@H]1CCC/C(=C\Nc2ccc(C(=O)NCCCCNC(=O)c3ccc(-c4c5nc(c(-c6ccccc6)c6ccc([nH]6)c(-c6ccccc6)c6nc(c(-c7ccccc7)c7ccc4[nH]7)C=C6)C=C5)cc3)c(O)c2)C1=O
REMARK SMILES IDX 17 1 16 2 15 3 13 4 14 5 12 7 9 8 10 9 73 10 11 11 71 12
REMARK SMILES IDX 8 13 7 15 1 16 2 17 3 18 74 19 4 20 6 21 75 22 5 23 72 24
REMARK SMILES IDX 18 26 19 27 20 28 21 29 22 31 23 32 24 33 70 34 25 35 69 36
REMARK SMILES IDX 26 37 27 38 28 39 63 40 29 41 68 42 62 43 64 44 30 45 67 46
REMARK SMILES IDX 61 47 60 48 31 50 53 51 38 52 52 53 39 54 42 55 51 56 65 57
REMARK SMILES IDX 40 58 41 59 50 61 66 62 43 63 32 64 33 65 37 66 34 67 36 68
REMARK SMILES IDX 35 69 54 70 55 71 59 72 56 73 58 74 57 75 44 76 45 77 49 78
REMARK SMILES IDX 46 79 48 80 47 81
REMARK H PARENT 15 6 8 14 72 25 20 30 64 49 42 60
REMARK Flexibility Score: inf
ROOT
ATOM      1  C   UNL A   1      36.461  21.022  24.654  1.00  0.00     0.023 C 
ENDROOT
BRANCH   1   2
ATOM      2  C   UNL A   1      35.352  21.124  25.695  1.00  0.00     0.116 C 
BRANCH   2   3
ATOM      3  N   UNL A   1      34.273  20.158  25.537  1.00  0.00    -0.352 N 
ATOM      4  C   UNL A   1      32.923  20.377  25.367  1.00  0.00     0.255 C 
ATOM      5  O   UNL A   1      32.167  19.416  25.254  1.00  0.00    -0.269 OA
ATOM      6  H   UNL A   1      34.548  19.213  25.553  1.00  0.00     0.163 HD
BRANCH   4   7
ATOM      7  C   UNL A   1      32.366  21.750  25.372  1.00  0.00     0.081 A 
ATOM      8  C   UNL A   1      30.974  24.202  25.242  1.00  0.00     0.042 A 
ATOM      9  C   UNL A   1      31.323  23.518  24.072  1.00  0.00     0.027 A 
ATOM     10  C   UNL A   1      31.417  23.686  26.467  1.00  0.00     0.073 A 
ATOM     11  C   UNL A   1      32.011  22.299  24.134  1.00  0.00     0.020 A 
ATOM     12  C   UNL A   1      32.146  22.500  26.528  1.00  0.00     0.130 A 
BRANCH   8  13
ATOM     13  N   UNL A   1      30.170  25.351  25.263  1.00  0.00    -0.361 N 
ATOM     14  H   UNL A   1      29.281  25.240  25.671  1.00  0.00     0.166 HD
BRANCH  13  15
ATOM     15  C   UNL A   1      30.452  26.607  24.794  1.00  0.00     0.090 C 
ATOM     16  C   UNL A   1      33.589  28.404  23.614  1.00  0.00     0.016 C 
ATOM     17  C   UNL A   1      32.850  29.249  24.657  1.00  0.00     0.058 C 
ATOM     18  C   UNL A   1      33.467  29.141  26.062  1.00  0.00     0.012 C 
ATOM     19  C   UNL A   1      31.388  28.834  24.688  1.00  0.00     0.163 C 
ATOM     20  C   UNL A   1      33.187  27.803  26.747  1.00  0.00     0.006 C 
ATOM     21  C   UNL A   1      31.089  27.586  25.450  1.00  0.00     0.011 C 
ATOM     22  O   UNL A   1      30.517  29.425  24.055  1.00  0.00    -0.294 OA
ATOM     23  C   UNL A   1      31.686  27.528  26.820  1.00  0.00     0.041 C 
ENDBRANCH  13  15
ENDBRANCH   8  13
BRANCH  12  24
ATOM     24  O   UNL A   1      32.618  22.156  27.763  1.00  0.00    -0.507 OA
ATOM     25  H   UNL A   1      32.862  22.822  28.375  1.00  0.00     0.293 HD
ENDBRANCH  12  24
ENDBRANCH   4   7
ENDBRANCH   2   3
ENDBRANCH   1   2
BRANCH   1  26
ATOM     26  C   UNL A   1      37.528  19.959  24.900  1.00  0.00     0.023 C 
BRANCH  26  27
ATOM     27  C   UNL A   1      38.739  20.393  25.718  1.00  0.00     0.116 C 
BRANCH  27  28
ATOM     28  N   UNL A   1      39.839  19.440  25.689  1.00  0.00    -0.352 N 
ATOM     29  C   UNL A   1      41.161  19.599  26.036  1.00  0.00     0.251 C 
ATOM     30  H   UNL A   1      39.599  18.540  25.372  1.00  0.00     0.163 HD
ATOM     31  O   UNL A   1      41.957  18.682  25.841  1.00  0.00    -0.269 OA
BRANCH  29  32
ATOM     32  C   UNL A   1      41.645  20.877  26.602  1.00  0.00     0.039 A 
ATOM     33  C   UNL A   1      42.131  21.857  25.733  1.00  0.00     0.014 A 
ATOM     34  C   UNL A   1      41.615  21.121  27.976  1.00  0.00     0.014 A 
ATOM     35  C   UNL A   1      42.505  23.107  26.233  1.00  0.00     0.010 A 
ATOM     36  C   UNL A   1      41.891  22.398  28.460  1.00  0.00     0.010 A 
ATOM     37  C   UNL A   1      42.341  23.406  27.596  1.00  0.00    -0.014 A 
BRANCH  37  38
ATOM     38  C   UNL A   1      42.635  24.764  28.125  1.00  0.00     0.031 A 
ATOM     39  C   UNL A   1      44.034  25.138  28.535  1.00  0.00     0.074 A 
ATOM     40  C   UNL A   1      41.630  25.649  28.286  1.00  0.00     0.049 A 
ATOM     41  N   UNL A   1      44.476  26.267  29.031  1.00  0.00    -0.248 NA
ATOM     42  C   UNL A   1      45.070  24.102  28.395  1.00  0.00     0.031 C 
ATOM     43  C   UNL A   1      40.220  25.400  27.979  1.00  0.00     0.029 A 
ATOM     44  N   UNL A   1      41.643  26.943  28.748  1.00  0.00    -0.354 N 
ATOM     45  C   UNL A   1      45.829  26.071  29.274  1.00  0.00     0.074 A 
ATOM     46  C   UNL A   1      46.124  24.698  28.931  1.00  0.00     0.031 C 
ATOM     47  C   UNL A   1      39.513  26.515  28.220  1.00  0.00     0.029 A 
ATOM     48  C   UNL A   1      40.407  27.545  28.739  1.00  0.00     0.049 A 
ATOM     49  H   UNL A   1      42.461  27.396  29.058  1.00  0.00     0.167 HD
ATOM     50  C   UNL A   1      46.752  26.957  29.719  1.00  0.00     0.031 A 
ATOM     51  C   UNL A   1      40.034  28.785  29.105  1.00  0.00     0.031 A 
ATOM     52  C   UNL A   1      46.463  28.325  30.055  1.00  0.00     0.049 A 
ATOM     53  C   UNL A   1      41.075  29.748  29.606  1.00  0.00     0.074 A 
ATOM     54  C   UNL A   1      47.340  29.317  30.460  1.00  0.00     0.029 A 
ATOM     55  N   UNL A   1      45.199  28.894  30.030  1.00  0.00    -0.354 N 
ATOM     56  N   UNL A   1      42.366  29.568  29.753  1.00  0.00    -0.248 NA
ATOM     57  C   UNL A   1      40.608  31.091  29.978  1.00  0.00     0.031 C 
ATOM     58  C   UNL A   1      46.598  30.469  30.737  1.00  0.00     0.029 A 
ATOM     59  C   UNL A   1      45.268  30.216  30.438  1.00  0.00     0.049 A 
ATOM     60  H   UNL A   1      44.375  28.428  29.762  1.00  0.00     0.167 HD
ATOM     61  C   UNL A   1      42.868  30.782  30.204  1.00  0.00     0.074 A 
ATOM     62  C   UNL A   1      41.746  31.695  30.285  1.00  0.00     0.031 C 
ATOM     63  C   UNL A   1      44.144  31.112  30.519  1.00  0.00     0.031 A 
BRANCH  50  64
ATOM     64  C   UNL A   1      48.167  26.465  29.873  1.00  0.00    -0.014 A 
ATOM     65  C   UNL A   1      49.102  26.598  28.834  1.00  0.00     0.009 A 
ATOM     66  C   UNL A   1      48.580  25.890  31.085  1.00  0.00     0.009 A 
ATOM     67  C   UNL A   1      50.408  26.128  28.989  1.00  0.00     0.001 A 
ATOM     68  C   UNL A   1      49.895  25.452  31.250  1.00  0.00     0.001 A 
ATOM     69  C   UNL A   1      50.804  25.561  30.200  1.00  0.00     0.000 A 
ENDBRANCH  50  64
BRANCH  51  70
ATOM     70  C   UNL A   1      38.610  29.203  28.991  1.00  0.00    -0.014 A 
ATOM     71  C   UNL A   1      37.746  29.099  30.092  1.00  0.00     0.009 A 
ATOM     72  C   UNL A   1      38.104  29.696  27.779  1.00  0.00     0.009 A 
ATOM     73  C   UNL A   1      36.399  29.449  29.972  1.00  0.00     0.001 A 
ATOM     74  C   UNL A   1      36.765  30.077  27.670  1.00  0.00     0.001 A 
ATOM     75  C   UNL A   1      35.911  29.942  28.763  1.00  0.00     0.000 A 
ENDBRANCH  51  70
BRANCH  63  76
ATOM     76  C   UNL A   1      44.401  32.532  30.944  1.00  0.00    -0.014 A 
ATOM     77  C   UNL A   1      44.369  32.911  32.296  1.00  0.00     0.009 A 
ATOM     78  C   UNL A   1      44.712  33.500  29.976  1.00  0.00     0.009 A 
ATOM     79  C   UNL A   1      44.599  34.238  32.663  1.00  0.00     0.001 A 
ATOM     80  C   UNL A   1      44.976  34.818  30.348  1.00  0.00     0.001 A 
ATOM     81  C   UNL A   1      44.907  35.189  31.690  1.00  0.00     0.000 A 
ENDBRANCH  63  76
ENDBRANCH  37  38
ENDBRANCH  29  32
ENDBRANCH  27  28
ENDBRANCH  26  27
ENDBRANCH   1  26
TORSDOF 14
ENDMDL
MODEL 2
REMARK VINA RESULT:     -11.8      0.382      5.938
REMARK SMILES C[C@@H]1CCC/C(=C\Nc2ccc(C(=O)NCCCCNC(=O)c3ccc(-c4c5nc(c(-c6ccccc6)c6ccc([nH]6)c(-c6ccccc6)c6nc(c(-c7ccccc7)c7ccc4[nH]7)C=C6)C=C5)cc3)c(O)c2)C1=O
REMARK SMILES IDX 17 1 16 2 15 3 13 4 14 5 12 7 9 8 10 9 73 10 11 11 71 12
REMARK SMILES IDX 8 13 7 15 1 16 2 17 3 18 74 19 4 20 6 21 75 22 5 23 72 24
REMARK SMILES IDX 18 26 19 27 20 28 21 29 22 31 23 32 24 33 70 34 25 35 69 36
REMARK SMILES IDX 26 37 27 38 28 39 63 40 29 41 68 42 62 43 64 44 30 45 67 46
REMARK SMILES IDX 61 47 60 48 31 50 53 51 38 52 52 53 39 54 42 55 51 56 65 57
REMARK SMILES IDX 40 58 41 59 50 61 66 62 43 63 32 64 33 65 37 66 34 67 36 68
REMARK SMILES IDX 35 69 54 70 55 71 59 72 56 73 58 74 57 75 44 76 45 77 49 78
REMARK SMILES IDX 46 79 48 80 47 81
REMARK H PARENT 15 6 8 14 72 25 20 30 64 49 42 60
REMARK Flexibility Score: inf
ROOT
ATOM      1  C   UNL A   1      36.288  21.396  24.783  1.00  0.00     0.023 C 
ENDROOT
BRANCH   1   2
ATOM      2  C   UNL A   1      35.257  21.318  25.903  1.00  0.00     0.116 C 
BRANCH   2   3
ATOM      3  N   UNL A   1      34.205  20.331  25.699  1.00  0.00    -0.352 N 
ATOM      4  C   UNL A   1      32.865  20.524  25.441  1.00  0.00     0.255 C 
ATOM      5  O   UNL A   1      32.133  19.549  25.302  1.00  0.00    -0.269 OA
ATOM      6  H   UNL A   1      34.493  19.391  25.753  1.00  0.00     0.163 HD
BRANCH   4   7
ATOM      7  C   UNL A   1      32.287  21.888  25.382  1.00  0.00     0.081 A 
ATOM      8  C   UNL A   1      30.889  24.320  25.073  1.00  0.00     0.042 A 
ATOM      9  C   UNL A   1      31.444  23.670  23.964  1.00  0.00     0.027 A 
ATOM     10  C   UNL A   1      31.130  23.780  26.343  1.00  0.00     0.073 A 
ATOM     11  C   UNL A   1      32.136  22.462  24.115  1.00  0.00     0.020 A 
ATOM     12  C   UNL A   1      31.861  22.605  26.500  1.00  0.00     0.130 A 
BRANCH   8  13
ATOM     13  N   UNL A   1      30.071  25.455  24.982  1.00  0.00    -0.361 N 
ATOM     14  H   UNL A   1      29.115  25.305  25.168  1.00  0.00     0.166 HD
BRANCH  13  15
ATOM     15  C   UNL A   1      30.417  26.743  24.671  1.00  0.00     0.090 C 
ATOM     16  C   UNL A   1      33.523  28.438  23.276  1.00  0.00     0.016 C 
ATOM     17  C   UNL A   1      33.048  29.154  24.544  1.00  0.00     0.058 C 
ATOM     18  C   UNL A   1      33.853  28.757  25.793  1.00  0.00     0.012 C 
ATOM     19  C   UNL A   1      31.570  28.868  24.754  1.00  0.00     0.163 C 
ATOM     20  C   UNL A   1      33.531  27.352  26.302  1.00  0.00     0.006 C 
ATOM     21  C   UNL A   1      31.252  27.539  25.355  1.00  0.00     0.011 C 
ATOM     22  O   UNL A   1      30.686  29.630  24.374  1.00  0.00    -0.294 OA
ATOM     23  C   UNL A   1      32.037  27.199  26.581  1.00  0.00     0.041 C 
ENDBRANCH  13  15
ENDBRANCH   8  13
BRANCH  12  24
ATOM     24  O   UNL A   1      32.125  22.238  27.790  1.00  0.00    -0.507 OA
ATOM     25  H   UNL A   1      31.788  22.746  28.501  1.00  0.00     0.293 HD
ENDBRANCH  12  24
ENDBRANCH   4   7
ENDBRANCH   2   3
ENDBRANCH   1   2
BRANCH   1  26
ATOM     26  C   UNL A   1      37.408  20.360  24.816  1.00  0.00     0.023 C 
BRANCH  26  27
ATOM     27  C   UNL A   1      38.597  20.678  25.714  1.00  0.00     0.116 C 
BRANCH  27  28
ATOM     28  N   UNL A   1      39.637  19.659  25.693  1.00  0.00    -0.352 N 
ATOM     29  C   UNL A   1      40.965  19.737  26.045  1.00  0.00     0.251 C 
ATOM     30  H   UNL A   1      39.344  18.774  25.379  1.00  0.00     0.163 HD
ATOM     31  O   UNL A   1      41.704  18.773  25.857  1.00  0.00    -0.269 OA
BRANCH  29  32
ATOM     32  C   UNL A   1      41.524  20.986  26.608  1.00  0.00     0.039 A 
ATOM     33  C   UNL A   1      42.007  21.962  25.732  1.00  0.00     0.014 A 
ATOM     34  C   UNL A   1      41.568  21.207  27.986  1.00  0.00     0.014 A 
ATOM     35  C   UNL A   1      42.452  23.188  26.234  1.00  0.00     0.010 A 
ATOM     36  C   UNL A   1      41.915  22.463  28.477  1.00  0.00     0.010 A 
ATOM     37  C   UNL A   1      42.363  23.469  27.608  1.00  0.00    -0.014 A 
BRANCH  37  38
ATOM     38  C   UNL A   1      42.734  24.805  28.145  1.00  0.00     0.031 A 
ATOM     39  C   UNL A   1      41.684  25.865  28.348  1.00  0.00     0.074 A 
ATOM     40  C   UNL A   1      44.027  25.085  28.405  1.00  0.00     0.049 A 
ATOM     41  N   UNL A   1      41.822  27.090  28.791  1.00  0.00    -0.248 NA
ATOM     42  C   UNL A   1      40.302  25.514  27.982  1.00  0.00     0.031 C 
ATOM     43  C   UNL A   1      45.152  24.169  28.204  1.00  0.00     0.029 A 
ATOM     44  N   UNL A   1      44.614  26.225  28.897  1.00  0.00    -0.354 N 
ATOM     45  C   UNL A   1      40.554  27.656  28.742  1.00  0.00     0.074 A 
ATOM     46  C   UNL A   1      39.671  26.663  28.169  1.00  0.00     0.031 C 
ATOM     47  C   UNL A   1      46.284  24.767  28.608  1.00  0.00     0.029 A 
ATOM     48  C   UNL A   1      45.976  26.120  29.056  1.00  0.00     0.049 A 
ATOM     49  H   UNL A   1      44.108  27.041  29.114  1.00  0.00     0.167 HD
ATOM     50  C   UNL A   1      40.150  28.880  29.157  1.00  0.00     0.031 A 
ATOM     51  C   UNL A   1      46.876  27.011  29.512  1.00  0.00     0.031 A 
ATOM     52  C   UNL A   1      41.024  29.866  29.734  1.00  0.00     0.049 A 
ATOM     53  C   UNL A   1      46.405  28.368  29.958  1.00  0.00     0.074 A 
ATOM     54  C   UNL A   1      40.700  31.114  30.238  1.00  0.00     0.029 A 
ATOM     55  N   UNL A   1      42.395  29.719  29.878  1.00  0.00    -0.354 N 
ATOM     56  N   UNL A   1      45.188  28.856  29.978  1.00  0.00    -0.248 NA
ATOM     57  C   UNL A   1      47.434  29.292  30.457  1.00  0.00     0.031 C 
ATOM     58  C   UNL A   1      41.885  31.745  30.633  1.00  0.00     0.029 A 
ATOM     59  C   UNL A   1      42.936  30.863  30.439  1.00  0.00     0.049 A 
ATOM     60  H   UNL A   1      42.907  28.919  29.620  1.00  0.00     0.167 HD
ATOM     61  C   UNL A   1      45.301  30.130  30.521  1.00  0.00     0.074 A 
ATOM     62  C   UNL A   1      46.701  30.330  30.835  1.00  0.00     0.031 C 
ATOM     63  C   UNL A   1      44.331  31.051  30.742  1.00  0.00     0.031 A 
BRANCH  50  64
ATOM     64  C   UNL A   1      38.692  29.221  28.996  1.00  0.00    -0.014 A 
ATOM     65  C   UNL A   1      37.791  29.095  30.065  1.00  0.00     0.009 A 
ATOM     66  C   UNL A   1      38.219  29.705  27.766  1.00  0.00     0.009 A 
ATOM     67  C   UNL A   1      36.441  29.406  29.896  1.00  0.00     0.001 A 
ATOM     68  C   UNL A   1      36.875  30.049  27.610  1.00  0.00     0.001 A 
ATOM     69  C   UNL A   1      35.986  29.889  28.670  1.00  0.00     0.000 A 
ENDBRANCH  50  64
BRANCH  51  70
ATOM     70  C   UNL A   1      48.316  26.646  29.594  1.00  0.00    -0.014 A 
ATOM     71  C   UNL A   1      49.188  26.936  28.533  1.00  0.00     0.009 A 
ATOM     72  C   UNL A   1      48.824  25.993  30.728  1.00  0.00     0.009 A 
ATOM     73  C   UNL A   1      50.530  26.552  28.592  1.00  0.00     0.001 A 
ATOM     74  C   UNL A   1      50.173  25.640  30.799  1.00  0.00     0.001 A 
ATOM     75  C   UNL A   1      51.022  25.909  29.727  1.00  0.00     0.000 A 
ENDBRANCH  51  70
BRANCH  63  76
ATOM     76  C   UNL A   1      44.747  32.344  31.389  1.00  0.00    -0.014 A 
ATOM     77  C   UNL A   1      44.786  32.487  32.785  1.00  0.00     0.009 A 
ATOM     78  C   UNL A   1      45.136  33.427  30.584  1.00  0.00     0.009 A 
ATOM     79  C   UNL A   1      45.163  33.702  33.360  1.00  0.00     0.001 A 
ATOM     80  C   UNL A   1      45.545  34.629  31.162  1.00  0.00     0.001 A 
ATOM     81  C   UNL A   1      45.547  34.770  32.549  1.00  0.00     0.000 A 
ENDBRANCH  63  76
ENDBRANCH  37  38
ENDBRANCH  29  32
ENDBRANCH  27  28
ENDBRANCH  26  27
ENDBRANCH   1  26
TORSDOF 14
ENDMDL
MODEL 3
REMARK VINA RESULT:     -11.8      1.939      7.820
REMARK SMILES C[C@@H]1CCC/C(=C\Nc2ccc(C(=O)NCCCCNC(=O)c3ccc(-c4c5nc(c(-c6ccccc6)c6ccc([nH]6)c(-c6ccccc6)c6nc(c(-c7ccccc7)c7ccc4[nH]7)C=C6)C=C5)cc3)c(O)c2)C1=O
REMARK SMILES IDX 17 1 16 2 15 3 13 4 14 5 12 7 9 8 10 9 73 10 11 11 71 12
REMARK SMILES IDX 8 13 7 15 1 16 2 17 3 18 74 19 4 20 6 21 75 22 5 23 72 24
REMARK SMILES IDX 18 26 19 27 20 28 21 29 22 31 23 32 24 33 70 34 25 35 69 36
REMARK SMILES IDX 26 37 27 38 28 39 63 40 29 41 68 42 62 43 64 44 30 45 67 46
REMARK SMILES IDX 61 47 60 48 31 50 53 51 38 52 52 53 39 54 42 55 51 56 65 57
REMARK SMILES IDX 40 58 41 59 50 61 66 62 43 63 32 64 33 65 37 66 34 67 36 68
REMARK SMILES IDX 35 69 54 70 55 71 59 72 56 73 58 74 57 75 44 76 45 77 49 78
REMARK SMILES IDX 46 79 48 80 47 81
REMARK H PARENT 15 6 8 14 72 25 20 30 64 49 42 60
REMARK Flexibility Score: inf
ROOT
ATOM      1  C   UNL A   1      32.961  29.369  24.869  1.00  0.00     0.023 C 
ENDROOT
BRANCH   1   2
ATOM      2  C   UNL A   1      31.444  29.381  25.012  1.00  0.00     0.116 C 
BRANCH   2   3
ATOM      3  N   UNL A   1      30.712  29.535  23.762  1.00  0.00    -0.352 N 
ATOM      4  C   UNL A   1      30.478  28.609  22.768  1.00  0.00     0.255 C 
ATOM      5  O   UNL A   1      29.832  28.941  21.778  1.00  0.00    -0.269 OA
ATOM      6  H   UNL A   1      30.329  30.428  23.606  1.00  0.00     0.163 HD
BRANCH   4   7
ATOM      7  C   UNL A   1      31.038  27.240  22.852  1.00  0.00     0.081 A 
ATOM      8  C   UNL A   1      31.792  24.521  22.801  1.00  0.00     0.042 A 
ATOM      9  C   UNL A   1      30.658  24.933  23.511  1.00  0.00     0.027 A 
ATOM     10  C   UNL A   1      32.589  25.504  22.200  1.00  0.00     0.073 A 
ATOM     11  C   UNL A   1      30.281  26.282  23.536  1.00  0.00     0.020 A 
ATOM     12  C   UNL A   1      32.243  26.851  22.266  1.00  0.00     0.130 A 
BRANCH   8  13
ATOM     13  N   UNL A   1      32.152  23.177  22.620  1.00  0.00    -0.361 N 
ATOM     14  H   UNL A   1      31.981  22.809  21.723  1.00  0.00     0.166 HD
BRANCH  13  15
ATOM     15  C   UNL A   1      32.709  22.307  23.519  1.00  0.00     0.090 C 
ATOM     16  C   UNL A   1      33.979  22.569  27.094  1.00  0.00     0.016 C 
ATOM     17  C   UNL A   1      35.031  21.904  26.202  1.00  0.00     0.058 C 
ATOM     18  C   UNL A   1      36.141  22.872  25.760  1.00  0.00     0.012 C 
ATOM     19  C   UNL A   1      34.344  21.298  24.988  1.00  0.00     0.163 C 
ATOM     20  C   UNL A   1      35.685  23.879  24.704  1.00  0.00     0.006 C 
ATOM     21  C   UNL A   1      33.993  22.259  23.902  1.00  0.00     0.011 C 
ATOM     22  O   UNL A   1      34.011  20.117  24.934  1.00  0.00    -0.294 OA
ATOM     23  C   UNL A   1      35.105  23.168  23.483  1.00  0.00     0.041 C 
ENDBRANCH  13  15
ENDBRANCH   8  13
BRANCH  12  24
ATOM     24  O   UNL A   1      33.154  27.725  21.741  1.00  0.00    -0.507 OA
ATOM     25  H   UNL A   1      34.071  27.567  21.847  1.00  0.00     0.293 HD
ENDBRANCH  12  24
ENDBRANCH   4   7
ENDBRANCH   2   3
ENDBRANCH   1   2
BRANCH   1  26
ATOM     26  C   UNL A   1      33.729  28.480  25.844  1.00  0.00     0.023 C 
BRANCH  26  27
ATOM     27  C   UNL A   1      33.445  28.699  27.325  1.00  0.00     0.116 C 
BRANCH  27  28
ATOM     28  N   UNL A   1      33.522  30.092  27.739  1.00  0.00    -0.352 N 
ATOM     29  C   UNL A   1      34.567  30.800  28.286  1.00  0.00     0.251 C 
ATOM     30  H   UNL A   1      32.696  30.610  27.604  1.00  0.00     0.163 HD
ATOM     31  O   UNL A   1      34.390  31.958  28.659  1.00  0.00    -0.269 OA
BRANCH  29  32
ATOM     32  C   UNL A   1      35.893  30.169  28.471  1.00  0.00     0.039 A 
ATOM     33  C   UNL A   1      36.802  30.192  27.410  1.00  0.00     0.014 A 
ATOM     34  C   UNL A   1      36.249  29.565  29.678  1.00  0.00     0.014 A 
ATOM     35  C   UNL A   1      38.093  29.688  27.590  1.00  0.00     0.010 A 
ATOM     36  C   UNL A   1      37.563  29.156  29.888  1.00  0.00     0.010 A 
ATOM     37  C   UNL A   1      38.501  29.210  28.846  1.00  0.00    -0.014 A 
BRANCH  37  38
ATOM     38  C   UNL A   1      39.901  28.767  29.082  1.00  0.00     0.031 A 
ATOM     39  C   UNL A   1      40.896  29.692  29.732  1.00  0.00     0.074 A 
ATOM     40  C   UNL A   1      40.295  27.546  28.666  1.00  0.00     0.049 A 
ATOM     41  N   UNL A   1      42.161  29.486  30.004  1.00  0.00    -0.248 NA
ATOM     42  C   UNL A   1      40.417  31.034  30.101  1.00  0.00     0.031 C 
ATOM     43  C   UNL A   1      39.449  26.570  27.976  1.00  0.00     0.029 A 
ATOM     44  N   UNL A   1      41.511  26.916  28.765  1.00  0.00    -0.354 N 
ATOM     45  C   UNL A   1      42.627  30.671  30.558  1.00  0.00     0.074 A 
ATOM     46  C   UNL A   1      41.529  31.612  30.528  1.00  0.00     0.031 C 
ATOM     47  C   UNL A   1      40.158  25.453  27.753  1.00  0.00     0.029 A 
ATOM     48  C   UNL A   1      41.519  25.645  28.242  1.00  0.00     0.049 A 
ATOM     49  H   UNL A   1      42.304  27.337  29.170  1.00  0.00     0.167 HD
ATOM     50  C   UNL A   1      43.850  30.949  31.071  1.00  0.00     0.031 A 
ATOM     51  C   UNL A   1      42.507  24.735  28.166  1.00  0.00     0.031 A 
ATOM     52  C   UNL A   1      44.941  30.013  31.109  1.00  0.00     0.049 A 
ATOM     53  C   UNL A   1      43.859  25.070  28.732  1.00  0.00     0.074 A 
ATOM     54  C   UNL A   1      46.201  30.180  31.659  1.00  0.00     0.029 A 
ATOM     55  N   UNL A   1      44.906  28.736  30.570  1.00  0.00    -0.354 N 
ATOM     56  N   UNL A   1      44.259  26.169  29.326  1.00  0.00    -0.248 NA
ATOM     57  C   UNL A   1      44.894  24.030  28.630  1.00  0.00     0.031 C 
ATOM     58  C   UNL A   1      46.946  29.025  31.401  1.00  0.00     0.029 A 
ATOM     59  C   UNL A   1      46.129  28.113  30.752  1.00  0.00     0.049 A 
ATOM     60  H   UNL A   1      44.126  28.332  30.126  1.00  0.00     0.167 HD
ATOM     61  C   UNL A   1      45.579  25.941  29.696  1.00  0.00     0.074 A 
ATOM     62  C   UNL A   1      45.904  24.593  29.277  1.00  0.00     0.031 C 
ATOM     63  C   UNL A   1      46.442  26.773  30.327  1.00  0.00     0.031 A 
BRANCH  50  64
ATOM     64  C   UNL A   1      44.070  32.329  31.630  1.00  0.00    -0.014 A 
ATOM     65  C   UNL A   1      43.815  32.619  32.980  1.00  0.00     0.009 A 
ATOM     66  C   UNL A   1      44.570  33.347  30.802  1.00  0.00     0.009 A 
ATOM     67  C   UNL A   1      44.015  33.907  33.480  1.00  0.00     0.001 A 
ATOM     68  C   UNL A   1      44.802  34.625  31.313  1.00  0.00     0.001 A 
ATOM     69  C   UNL A   1      44.515  34.907  32.647  1.00  0.00     0.000 A 
ENDBRANCH  50  64
BRANCH  51  70
ATOM     70  C   UNL A   1      42.255  23.405  27.547  1.00  0.00    -0.014 A 
ATOM     71  C   UNL A   1      41.723  22.353  28.310  1.00  0.00     0.009 A 
ATOM     72  C   UNL A   1      42.555  23.176  26.196  1.00  0.00     0.009 A 
ATOM     73  C   UNL A   1      41.529  21.092  27.741  1.00  0.00     0.001 A 
ATOM     74  C   UNL A   1      42.329  21.924  25.620  1.00  0.00     0.001 A 
ATOM     75  C   UNL A   1      41.827  20.880  26.395  1.00  0.00     0.000 A 
ENDBRANCH  51  70
BRANCH  63  76
ATOM     76  C   UNL A   1      47.811  26.234  30.638  1.00  0.00    -0.014 A 
ATOM     77  C   UNL A   1      48.836  26.234  29.679  1.00  0.00     0.009 A 
ATOM     78  C   UNL A   1      48.087  25.746  31.926  1.00  0.00     0.009 A 
ATOM     79  C   UNL A   1      50.095  25.716  29.990  1.00  0.00     0.001 A 
ATOM     80  C   UNL A   1      49.356  25.261  32.244  1.00  0.00     0.001 A 
ATOM     81  C   UNL A   1      50.355  25.234  31.273  1.00  0.00     0.000 A 
ENDBRANCH  63  76
ENDBRANCH  37  38
ENDBRANCH  29  32
ENDBRANCH  27  28
ENDBRANCH  26  27
ENDBRANCH   1  26
TORSDOF 14
ENDMDL
