MODEL 1
REMARK VINA RESULT:     -10.8      0.000      0.000
REMARK SMILES CC1=C[C@@H](CNS(=O)(=O)c2cccs2)[C@H](C(C)C)C[C@H]1CC(=O)NCCCCNC(=O)c1ccc(-c2c3nc(c(-c4ccccc4)c4ccc([nH]4)c(-c4ccccc4)c4nc(c(-c5ccccc5)c5ccc2[nH]5)C=C4)C=C3)cc1
REMARK SMILES IDX 25 1 24 2 22 3 23 4 21 6 20 7 1 8 2 9 3 10 4 11 19 12 15 13
REMARK SMILES IDX 5 14 6 15 7 17 8 18 9 19 10 20 11 21 14 22 12 23 13 24 16 25
REMARK SMILES IDX 17 26 18 27 26 28 27 29 28 30 29 31 30 32 31 34 32 35 33 36
REMARK SMILES IDX 79 37 34 38 78 39 35 40 36 41 37 42 72 43 38 44 77 45 71 46
REMARK SMILES IDX 73 47 39 48 76 49 70 50 69 51 40 53 62 54 47 55 61 56 48 57
REMARK SMILES IDX 51 58 60 59 74 60 49 61 50 62 59 64 75 65 52 66 41 67 42 68
REMARK SMILES IDX 46 69 43 70 45 71 44 72 63 73 64 74 68 75 65 76 67 77 66 78
REMARK SMILES IDX 53 79 54 80 58 81 55 82 57 83 56 84
REMARK H PARENT 24 5 6 16 29 33 73 52 51 63
REMARK Flexibility Score: inf
ROOT
ATOM      1  C   UNL A   1      34.010  28.307  26.679  1.00  0.00     0.116 C 
ENDROOT
BRANCH   1   2
ATOM      2  N   UNL A   1      32.681  27.808  26.998  1.00  0.00    -0.356 N 
ATOM      3  C   UNL A   1      31.972  26.760  26.483  1.00  0.00     0.220 C 
ATOM      4  O   UNL A   1      30.833  26.558  26.909  1.00  0.00    -0.275 OA
ATOM      5  H   UNL A   1      32.213  28.312  27.704  1.00  0.00     0.163 HD
BRANCH   3   6
ATOM      6  C   UNL A   1      32.570  25.869  25.414  1.00  0.00     0.108 C 
BRANCH   6   7
ATOM      7  C   UNL A   1      32.802  24.398  25.842  1.00  0.00     0.024 C 
ATOM      8  C   UNL A   1      30.551  23.343  26.502  1.00  0.00     0.039 C 
ATOM      9  C   UNL A   1      31.641  23.494  25.466  1.00  0.00    -0.073 C 
ATOM     10  C   UNL A   1      31.651  22.757  24.335  1.00  0.00    -0.023 C 
ATOM     11  C   UNL A   1      32.910  22.551  23.530  1.00  0.00     0.030 C 
ATOM     12  C   UNL A   1      34.157  23.889  25.265  1.00  0.00     0.013 C 
ATOM     13  C   UNL A   1      34.077  22.499  24.571  1.00  0.00     0.000 C 
BRANCH  11  14
ATOM     14  C   UNL A   1      33.181  23.595  22.424  1.00  0.00     0.107 C 
BRANCH  14  15
ATOM     15  N   UNL A   1      31.994  24.404  22.068  1.00  0.00    -0.210 NA
ATOM     16  H   UNL A   1      31.441  24.541  22.914  1.00  0.00     0.141 HD
BRANCH  15  17
ATOM     17  S   UNL A   1      32.334  25.941  21.404  1.00  0.00     0.250 S 
ATOM     18  O   UNL A   1      33.748  26.182  21.614  1.00  0.00    -0.206 OA
ATOM     19  O   UNL A   1      31.753  25.947  20.085  1.00  0.00    -0.206 OA
BRANCH  17  20
ATOM     20  C   UNL A   1      31.514  27.188  22.385  1.00  0.00     0.134 A 
ATOM     21  C   UNL A   1      30.226  27.263  22.891  1.00  0.00     0.033 A 
ATOM     22  S   UNL A   1      32.445  28.536  22.880  1.00  0.00    -0.131 S 
ATOM     23  C   UNL A   1      30.001  28.445  23.654  1.00  0.00     0.013 A 
ATOM     24  C   UNL A   1      31.135  29.218  23.744  1.00  0.00     0.066 A 
ENDBRANCH  17  20
ENDBRANCH  15  17
ENDBRANCH  14  15
ENDBRANCH  11  14
BRANCH  13  25
ATOM     25  C   UNL A   1      33.923  21.313  25.596  1.00  0.00    -0.014 C 
ATOM     26  C   UNL A   1      34.453  19.986  25.036  1.00  0.00     0.007 C 
ATOM     27  C   UNL A   1      34.600  21.600  26.937  1.00  0.00     0.007 C 
ENDBRANCH  13  25
ENDBRANCH   6   7
ENDBRANCH   3   6
ENDBRANCH   1   2
BRANCH   1  28
ATOM     28  C   UNL A   1      34.257  29.729  27.177  1.00  0.00     0.023 C 
BRANCH  28  29
ATOM     29  C   UNL A   1      33.443  30.826  26.508  1.00  0.00     0.023 C 
BRANCH  29  30
ATOM     30  C   UNL A   1      32.279  31.303  27.349  1.00  0.00     0.116 C 
BRANCH  30  31
ATOM     31  N   UNL A   1      32.151  32.755  27.336  1.00  0.00    -0.352 N 
ATOM     32  C   UNL A   1      32.936  33.703  27.941  1.00  0.00     0.251 C 
ATOM     33  H   UNL A   1      31.391  33.106  26.818  1.00  0.00     0.163 HD
ATOM     34  O   UNL A   1      32.571  34.872  27.999  1.00  0.00    -0.269 OA
BRANCH  32  35
ATOM     35  C   UNL A   1      34.222  33.298  28.536  1.00  0.00     0.039 A 
ATOM     36  C   UNL A   1      34.228  32.606  29.749  1.00  0.00     0.014 A 
ATOM     37  C   UNL A   1      35.420  33.590  27.879  1.00  0.00     0.014 A 
ATOM     38  C   UNL A   1      35.439  32.159  30.276  1.00  0.00     0.010 A 
ATOM     39  C   UNL A   1      36.606  33.051  28.345  1.00  0.00     0.010 A 
ATOM     40  C   UNL A   1      36.631  32.354  29.561  1.00  0.00    -0.014 A 
BRANCH  40  41
ATOM     41  C   UNL A   1      37.937  31.896  30.082  1.00  0.00     0.031 A 
ATOM     42  C   UNL A   1      38.537  30.628  29.538  1.00  0.00     0.074 A 
ATOM     43  C   UNL A   1      38.525  32.559  31.093  1.00  0.00     0.049 A 
ATOM     44  N   UNL A   1      39.601  29.982  29.937  1.00  0.00    -0.248 NA
ATOM     45  C   UNL A   1      37.820  29.976  28.429  1.00  0.00     0.031 C 
ATOM     46  C   UNL A   1      38.006  33.769  31.736  1.00  0.00     0.029 A 
ATOM     47  N   UNL A   1      39.691  32.300  31.764  1.00  0.00    -0.354 N 
ATOM     48  C   UNL A   1      39.654  28.834  29.157  1.00  0.00     0.074 A 
ATOM     49  C   UNL A   1      38.490  28.843  28.300  1.00  0.00     0.031 C 
ATOM     50  C   UNL A   1      38.867  34.164  32.688  1.00  0.00     0.029 A 
ATOM     51  C   UNL A   1      39.975  33.217  32.747  1.00  0.00     0.049 A 
ATOM     52  H   UNL A   1      40.270  31.530  31.563  1.00  0.00     0.167 HD
ATOM     53  C   UNL A   1      40.601  27.867  29.137  1.00  0.00     0.031 A 
ATOM     54  C   UNL A   1      41.015  33.282  33.597  1.00  0.00     0.031 A 
ATOM     55  C   UNL A   1      41.781  27.891  29.956  1.00  0.00     0.049 A 
ATOM     56  C   UNL A   1      42.080  32.225  33.522  1.00  0.00     0.074 A 
ATOM     57  C   UNL A   1      42.844  27.006  29.965  1.00  0.00     0.029 A 
ATOM     58  N   UNL A   1      42.057  28.865  30.903  1.00  0.00    -0.354 N 
ATOM     59  N   UNL A   1      42.148  31.175  32.738  1.00  0.00    -0.248 NA
ATOM     60  C   UNL A   1      43.219  32.368  34.440  1.00  0.00     0.031 C 
ATOM     61  C   UNL A   1      43.751  27.431  30.942  1.00  0.00     0.029 A 
ATOM     62  C   UNL A   1      43.270  28.600  31.509  1.00  0.00     0.049 A 
ATOM     63  H   UNL A   1      41.474  29.631  31.112  1.00  0.00     0.167 HD
ATOM     64  C   UNL A   1      43.345  30.547  33.050  1.00  0.00     0.074 A 
ATOM     65  C   UNL A   1      43.979  31.342  34.083  1.00  0.00     0.031 C 
ATOM     66  C   UNL A   1      43.876  29.414  32.530  1.00  0.00     0.031 A 
BRANCH  53  67
ATOM     67  C   UNL A   1      40.395  26.717  28.193  1.00  0.00    -0.014 A 
ATOM     68  C   UNL A   1      39.654  25.587  28.575  1.00  0.00     0.009 A 
ATOM     69  C   UNL A   1      40.939  26.768  26.900  1.00  0.00     0.009 A 
ATOM     70  C   UNL A   1      39.496  24.514  27.695  1.00  0.00     0.001 A 
ATOM     71  C   UNL A   1      40.754  25.705  26.014  1.00  0.00     0.001 A 
ATOM     72  C   UNL A   1      40.042  24.575  26.415  1.00  0.00     0.000 A 
ENDBRANCH  53  67
BRANCH  54  73
ATOM     73  C   UNL A   1      41.120  34.405  34.563  1.00  0.00    -0.014 A 
ATOM     74  C   UNL A   1      40.535  34.300  35.834  1.00  0.00     0.009 A 
ATOM     75  C   UNL A   1      41.804  35.582  34.225  1.00  0.00     0.009 A 
ATOM     76  C   UNL A   1      40.611  35.362  36.738  1.00  0.00     0.001 A 
ATOM     77  C   UNL A   1      41.901  36.632  35.140  1.00  0.00     0.001 A 
ATOM     78  C   UNL A   1      41.296  36.525  36.392  1.00  0.00     0.000 A 
ENDBRANCH  54  73
BRANCH  66  79
ATOM     79  C   UNL A   1      45.219  28.991  33.048  1.00  0.00    -0.014 A 
ATOM     80  C   UNL A   1      46.403  29.478  32.474  1.00  0.00     0.009 A 
ATOM     81  C   UNL A   1      45.296  28.132  34.154  1.00  0.00     0.009 A 
ATOM     82  C   UNL A   1      47.642  29.086  32.983  1.00  0.00     0.001 A 
ATOM     83  C   UNL A   1      46.534  27.763  34.676  1.00  0.00     0.001 A 
ATOM     84  C   UNL A   1      47.707  28.234  34.085  1.00  0.00     0.000 A 
ENDBRANCH  66  79
ENDBRANCH  40  41
ENDBRANCH  32  35
ENDBRANCH  30  31
ENDBRANCH  29  30
ENDBRANCH  28  29
ENDBRANCH   1  28
TORSDOF 17
ENDMDL
MODEL 2
REMARK VINA RESULT:     -10.8      2.555      6.770
REMARK SMILES CC1=C[C@@H](CNS(=O)(=O)c2cccs2)[C@H](C(C)C)C[C@H]1CC(=O)NCCCCNC(=O)c1ccc(-c2c3nc(c(-c4ccccc4)c4ccc([nH]4)c(-c4ccccc4)c4nc(c(-c5ccccc5)c5ccc2[nH]5)C=C4)C=C3)cc1
REMARK SMILES IDX 25 1 24 2 22 3 23 4 21 6 20 7 1 8 2 9 3 10 4 11 19 12 15 13
REMARK SMILES IDX 5 14 6 15 7 17 8 18 9 19 10 20 11 21 14 22 12 23 13 24 16 25
REMARK SMILES IDX 17 26 18 27 26 28 27 29 28 30 29 31 30 32 31 34 32 35 33 36
REMARK SMILES IDX 79 37 34 38 78 39 35 40 36 41 37 42 72 43 38 44 77 45 71 46
REMARK SMILES IDX 73 47 39 48 76 49 70 50 69 51 40 53 62 54 47 55 61 56 48 57
REMARK SMILES IDX 51 58 60 59 74 60 49 61 50 62 59 64 75 65 52 66 41 67 42 68
REMARK SMILES IDX 46 69 43 70 45 71 44 72 63 73 64 74 68 75 65 76 67 77 66 78
REMARK SMILES IDX 53 79 54 80 58 81 55 82 57 83 56 84
REMARK H PARENT 24 5 6 16 29 33 73 52 51 63
REMARK Flexibility Score: inf
ROOT
ATOM      1  C   UNL A   1      30.863  26.290  26.038  1.00  0.00     0.116 C 
ENDROOT
BRANCH   1   2
ATOM      2  N   UNL A   1      30.587  25.130  26.872  1.00  0.00    -0.356 N 
ATOM      3  C   UNL A   1      30.706  23.794  26.611  1.00  0.00     0.220 C 
ATOM      4  O   UNL A   1      30.373  22.995  27.489  1.00  0.00    -0.275 OA
ATOM      5  H   UNL A   1      30.260  25.344  27.776  1.00  0.00     0.163 HD
BRANCH   3   6
ATOM      6  C   UNL A   1      31.229  23.305  25.277  1.00  0.00     0.108 C 
BRANCH   6   7
ATOM      7  C   UNL A   1      32.640  22.667  25.320  1.00  0.00     0.024 C 
ATOM      8  C   UNL A   1      32.744  20.730  23.632  1.00  0.00     0.039 C 
ATOM      9  C   UNL A   1      33.091  22.163  23.961  1.00  0.00    -0.073 C 
ATOM     10  C   UNL A   1      33.879  22.905  23.154  1.00  0.00    -0.023 C 
ATOM     11  C   UNL A   1      34.597  24.133  23.653  1.00  0.00     0.030 C 
ATOM     12  C   UNL A   1      33.654  23.671  25.944  1.00  0.00     0.013 C 
ATOM     13  C   UNL A   1      34.976  23.831  25.141  1.00  0.00     0.000 C 
BRANCH  11  14
ATOM     14  C   UNL A   1      33.825  25.466  23.523  1.00  0.00     0.107 C 
BRANCH  14  15
ATOM     15  N   UNL A   1      33.490  25.823  22.127  1.00  0.00    -0.210 NA
ATOM     16  H   UNL A   1      33.924  25.134  21.513  1.00  0.00     0.141 HD
BRANCH  15  17
ATOM     17  S   UNL A   1      31.820  25.872  21.771  1.00  0.00     0.250 S 
ATOM     18  O   UNL A   1      31.704  26.043  20.337  1.00  0.00    -0.206 OA
ATOM     19  O   UNL A   1      31.230  24.745  22.449  1.00  0.00    -0.206 OA
BRANCH  17  20
ATOM     20  C   UNL A   1      31.127  27.368  22.460  1.00  0.00     0.134 A 
ATOM     21  C   UNL A   1      29.841  27.686  22.868  1.00  0.00     0.033 A 
ATOM     22  S   UNL A   1      32.201  28.668  22.754  1.00  0.00    -0.131 S 
ATOM     23  C   UNL A   1      29.739  29.007  23.389  1.00  0.00     0.013 A 
ATOM     24  C   UNL A   1      30.957  29.647  23.402  1.00  0.00     0.066 A 
ENDBRANCH  17  20
ENDBRANCH  15  17
ENDBRANCH  14  15
ENDBRANCH  11  14
BRANCH  13  25
ATOM     25  C   UNL A   1      35.930  22.584  25.282  1.00  0.00    -0.014 C 
ATOM     26  C   UNL A   1      37.408  22.988  25.368  1.00  0.00     0.007 C 
ATOM     27  C   UNL A   1      35.577  21.704  26.482  1.00  0.00     0.007 C 
ENDBRANCH  13  25
ENDBRANCH   6   7
ENDBRANCH   3   6
ENDBRANCH   1   2
BRANCH   1  28
ATOM     28  C   UNL A   1      31.598  27.405  26.779  1.00  0.00     0.023 C 
BRANCH  28  29
ATOM     29  C   UNL A   1      32.882  27.906  26.136  1.00  0.00     0.023 C 
BRANCH  29  30
ATOM     30  C   UNL A   1      33.902  28.394  27.142  1.00  0.00     0.116 C 
BRANCH  30  31
ATOM     31  N   UNL A   1      33.714  29.801  27.475  1.00  0.00    -0.352 N 
ATOM     32  C   UNL A   1      34.550  30.653  28.151  1.00  0.00     0.251 C 
ATOM     33  H   UNL A   1      32.866  30.197  27.171  1.00  0.00     0.163 HD
ATOM     34  O   UNL A   1      34.152  31.751  28.526  1.00  0.00    -0.269 OA
BRANCH  32  35
ATOM     35  C   UNL A   1      35.932  30.228  28.437  1.00  0.00     0.039 A 
ATOM     36  C   UNL A   1      36.233  29.670  29.681  1.00  0.00     0.014 A 
ATOM     37  C   UNL A   1      36.922  30.368  27.462  1.00  0.00     0.014 A 
ATOM     38  C   UNL A   1      37.523  29.202  29.926  1.00  0.00     0.010 A 
ATOM     39  C   UNL A   1      38.169  29.804  27.666  1.00  0.00     0.010 A 
ATOM     40  C   UNL A   1      38.490  29.240  28.909  1.00  0.00    -0.014 A 
BRANCH  40  41
ATOM     41  C   UNL A   1      39.869  28.753  29.125  1.00  0.00     0.031 A 
ATOM     42  C   UNL A   1      40.891  29.688  29.711  1.00  0.00     0.074 A 
ATOM     43  C   UNL A   1      40.217  27.520  28.715  1.00  0.00     0.049 A 
ATOM     44  N   UNL A   1      42.177  29.512  29.868  1.00  0.00    -0.248 NA
ATOM     45  C   UNL A   1      40.412  31.016  30.133  1.00  0.00     0.031 C 
ATOM     46  C   UNL A   1      39.323  26.547  28.084  1.00  0.00     0.029 A 
ATOM     47  N   UNL A   1      41.427  26.878  28.762  1.00  0.00    -0.354 N 
ATOM     48  C   UNL A   1      42.660  30.715  30.367  1.00  0.00     0.074 A 
ATOM     49  C   UNL A   1      41.544  31.630  30.436  1.00  0.00     0.031 C 
ATOM     50  C   UNL A   1      40.008  25.420  27.831  1.00  0.00     0.029 A 
ATOM     51  C   UNL A   1      41.394  25.605  28.247  1.00  0.00     0.049 A 
ATOM     52  H   UNL A   1      42.242  27.290  29.129  1.00  0.00     0.167 HD
ATOM     53  C   UNL A   1      43.918  31.025  30.756  1.00  0.00     0.031 A 
ATOM     54  C   UNL A   1      42.375  24.694  28.127  1.00  0.00     0.031 A 
ATOM     55  C   UNL A   1      45.012  30.095  30.731  1.00  0.00     0.049 A 
ATOM     56  C   UNL A   1      43.754  25.044  28.612  1.00  0.00     0.074 A 
ATOM     57  C   UNL A   1      46.310  30.276  31.173  1.00  0.00     0.029 A 
ATOM     58  N   UNL A   1      44.926  28.798  30.249  1.00  0.00    -0.354 N 
ATOM     59  N   UNL A   1      44.185  26.167  29.137  1.00  0.00    -0.248 NA
ATOM     60  C   UNL A   1      44.779  23.996  28.501  1.00  0.00     0.031 C 
ATOM     61  C   UNL A   1      47.018  29.094  30.929  1.00  0.00     0.029 A 
ATOM     62  C   UNL A   1      46.149  28.168  30.375  1.00  0.00     0.049 A 
ATOM     63  H   UNL A   1      44.113  28.387  29.874  1.00  0.00     0.167 HD
ATOM     64  C   UNL A   1      45.521  25.953  29.441  1.00  0.00     0.074 A 
ATOM     65  C   UNL A   1      45.826  24.589  29.057  1.00  0.00     0.031 C 
ATOM     66  C   UNL A   1      46.419  26.807  29.989  1.00  0.00     0.031 A 
BRANCH  53  67
ATOM     67  C   UNL A   1      44.165  32.423  31.247  1.00  0.00    -0.014 A 
ATOM     68  C   UNL A   1      44.035  32.750  32.606  1.00  0.00     0.009 A 
ATOM     69  C   UNL A   1      44.545  33.426  30.341  1.00  0.00     0.009 A 
ATOM     70  C   UNL A   1      44.239  34.061  33.042  1.00  0.00     0.001 A 
ATOM     71  C   UNL A   1      44.777  34.729  30.785  1.00  0.00     0.001 A 
ATOM     72  C   UNL A   1      44.614  35.048  32.132  1.00  0.00     0.000 A 
ENDBRANCH  53  67
BRANCH  54  73
ATOM     73  C   UNL A   1      42.083  23.354  27.557  1.00  0.00    -0.014 A 
ATOM     74  C   UNL A   1      42.414  23.065  26.225  1.00  0.00     0.009 A 
ATOM     75  C   UNL A   1      41.477  22.358  28.339  1.00  0.00     0.009 A 
ATOM     76  C   UNL A   1      42.120  21.813  25.678  1.00  0.00     0.001 A 
ATOM     77  C   UNL A   1      41.209  21.100  27.797  1.00  0.00     0.001 A 
ATOM     78  C   UNL A   1      41.521  20.831  26.465  1.00  0.00     0.000 A 
ENDBRANCH  54  73
BRANCH  66  79
ATOM     79  C   UNL A   1      47.801  26.278  30.235  1.00  0.00    -0.014 A 
ATOM     80  C   UNL A   1      48.177  25.794  31.496  1.00  0.00     0.009 A 
ATOM     81  C   UNL A   1      48.718  26.220  29.175  1.00  0.00     0.009 A 
ATOM     82  C   UNL A   1      49.463  25.288  31.699  1.00  0.00     0.001 A 
ATOM     83  C   UNL A   1      49.993  25.691  29.374  1.00  0.00     0.001 A 
ATOM     84  C   UNL A   1      50.366  25.233  30.637  1.00  0.00     0.000 A 
ENDBRANCH  66  79
ENDBRANCH  40  41
ENDBRANCH  32  35
ENDBRANCH  30  31
ENDBRANCH  29  30
ENDBRANCH  28  29
ENDBRANCH   1  28
TORSDOF 17
ENDMDL
MODEL 3
REMARK VINA RESULT:     -10.4      2.031      2.889
REMARK SMILES CC1=C[C@@H](CNS(=O)(=O)c2cccs2)[C@H](C(C)C)C[C@H]1CC(=O)NCCCCNC(=O)c1ccc(-c2c3nc(c(-c4ccccc4)c4ccc([nH]4)c(-c4ccccc4)c4nc(c(-c5ccccc5)c5ccc2[nH]5)C=C4)C=C3)cc1
REMARK SMILES IDX 25 1 24 2 22 3 23 4 21 6 20 7 1 8 2 9 3 10 4 11 19 12 15 13
REMARK SMILES IDX 5 14 6 15 7 17 8 18 9 19 10 20 11 21 14 22 12 23 13 24 16 25
REMARK SMILES IDX 17 26 18 27 26 28 27 29 28 30 29 31 30 32 31 34 32 35 33 36
REMARK SMILES IDX 79 37 34 38 78 39 35 40 36 41 37 42 72 43 38 44 77 45 71 46
REMARK SMILES IDX 73 47 39 48 76 49 70 50 69 51 40 53 62 54 47 55 61 56 48 57
REMARK SMILES IDX 51 58 60 59 74 60 49 61 50 62 59 64 75 65 52 66 41 67 42 68
REMARK SMILES IDX 46 69 43 70 45 71 44 72 63 73 64 74 68 75 65 76 67 77 66 78
REMARK SMILES IDX 53 79 54 80 58 81 55 82 57 83 56 84
REMARK H PARENT 24 5 6 16 29 33 73 52 51 63
REMARK Flexibility Score: inf
ROOT
ATOM      1  C   UNL A   1      32.328  30.145  25.381  1.00  0.00     0.116 C 
ENDROOT
BRANCH   1   2
ATOM      2  N   UNL A   1      33.475  29.454  25.951  1.00  0.00    -0.356 N 
ATOM      3  C   UNL A   1      33.611  28.171  26.400  1.00  0.00     0.220 C 
ATOM      4  O   UNL A   1      34.696  27.830  26.875  1.00  0.00    -0.275 OA
ATOM      5  H   UNL A   1      34.288  30.004  26.027  1.00  0.00     0.163 HD
BRANCH   3   6
ATOM      6  C   UNL A   1      32.459  27.192  26.319  1.00  0.00     0.108 C 
BRANCH   6   7
ATOM      7  C   UNL A   1      32.768  25.878  25.558  1.00  0.00     0.024 C 
ATOM      8  C   UNL A   1      30.909  24.166  26.036  1.00  0.00     0.039 C 
ATOM      9  C   UNL A   1      31.509  25.173  25.083  1.00  0.00    -0.073 C 
ATOM     10  C   UNL A   1      31.037  25.331  23.828  1.00  0.00    -0.023 C 
ATOM     11  C   UNL A   1      31.865  25.966  22.739  1.00  0.00     0.030 C 
ATOM     12  C   UNL A   1      33.759  26.166  24.391  1.00  0.00     0.013 C 
ATOM     13  C   UNL A   1      33.344  25.543  23.027  1.00  0.00     0.000 C 
BRANCH  11  14
ATOM     14  C   UNL A   1      31.730  27.498  22.596  1.00  0.00     0.107 C 
BRANCH  14  15
ATOM     15  N   UNL A   1      30.441  27.928  22.011  1.00  0.00    -0.210 NA
ATOM     16  H   UNL A   1      30.038  27.131  21.517  1.00  0.00     0.141 HD
BRANCH  15  17
ATOM     17  S   UNL A   1      29.285  28.493  23.134  1.00  0.00     0.250 S 
ATOM     18  O   UNL A   1      28.036  27.832  22.816  1.00  0.00    -0.206 OA
ATOM     19  O   UNL A   1      29.895  28.374  24.435  1.00  0.00    -0.206 OA
BRANCH  17  20
ATOM     20  C   UNL A   1      28.972  30.224  22.818  1.00  0.00     0.134 A 
ATOM     21  C   UNL A   1      29.131  31.349  23.610  1.00  0.00     0.033 A 
ATOM     22  S   UNL A   1      28.432  30.650  21.250  1.00  0.00    -0.131 S 
ATOM     23  C   UNL A   1      28.777  32.553  22.936  1.00  0.00     0.013 A 
ATOM     24  C   UNL A   1      28.396  32.316  21.635  1.00  0.00     0.066 A 
ENDBRANCH  17  20
ENDBRANCH  15  17
ENDBRANCH  14  15
ENDBRANCH  11  14
BRANCH  13  25
ATOM     25  C   UNL A   1      33.548  23.980  22.983  1.00  0.00    -0.014 C 
ATOM     26  C   UNL A   1      33.278  23.397  21.590  1.00  0.00     0.007 C 
ATOM     27  C   UNL A   1      34.940  23.554  23.448  1.00  0.00     0.007 C 
ENDBRANCH  13  25
ENDBRANCH   6   7
ENDBRANCH   3   6
ENDBRANCH   1   2
BRANCH   1  28
ATOM     28  C   UNL A   1      31.407  30.757  26.435  1.00  0.00     0.023 C 
BRANCH  28  29
ATOM     29  C   UNL A   1      31.376  32.276  26.499  1.00  0.00     0.023 C 
BRANCH  29  30
ATOM     30  C   UNL A   1      32.642  32.874  27.073  1.00  0.00     0.116 C 
BRANCH  30  31
ATOM     31  N   UNL A   1      32.419  34.203  27.627  1.00  0.00    -0.352 N 
ATOM     32  C   UNL A   1      33.016  34.808  28.704  1.00  0.00     0.251 C 
ATOM     33  H   UNL A   1      31.742  34.746  27.163  1.00  0.00     0.163 HD
ATOM     34  O   UNL A   1      32.567  35.853  29.162  1.00  0.00    -0.269 OA
BRANCH  32  35
ATOM     35  C   UNL A   1      34.201  34.180  29.316  1.00  0.00     0.039 A 
ATOM     36  C   UNL A   1      35.474  34.531  28.861  1.00  0.00     0.014 A 
ATOM     37  C   UNL A   1      34.046  33.257  30.352  1.00  0.00     0.014 A 
ATOM     38  C   UNL A   1      36.597  33.993  29.488  1.00  0.00     0.010 A 
ATOM     39  C   UNL A   1      35.158  32.810  31.044  1.00  0.00     0.010 A 
ATOM     40  C   UNL A   1      36.444  33.152  30.602  1.00  0.00    -0.014 A 
BRANCH  40  41
ATOM     41  C   UNL A   1      37.607  32.560  31.297  1.00  0.00     0.031 A 
ATOM     42  C   UNL A   1      38.313  31.388  30.672  1.00  0.00     0.074 A 
ATOM     43  C   UNL A   1      37.962  33.011  32.513  1.00  0.00     0.049 A 
ATOM     44  N   UNL A   1      39.268  30.642  31.164  1.00  0.00    -0.248 NA
ATOM     45  C   UNL A   1      37.853  30.971  29.336  1.00  0.00     0.031 C 
ATOM     46  C   UNL A   1      37.315  34.105  33.240  1.00  0.00     0.029 A 
ATOM     47  N   UNL A   1      38.957  32.593  33.358  1.00  0.00    -0.354 N 
ATOM     48  C   UNL A   1      39.490  29.649  30.217  1.00  0.00     0.074 A 
ATOM     49  C   UNL A   1      38.538  29.854  29.149  1.00  0.00     0.031 C 
ATOM     50  C   UNL A   1      37.949  34.293  34.409  1.00  0.00     0.029 A 
ATOM     51  C   UNL A   1      39.020  33.310  34.529  1.00  0.00     0.049 A 
ATOM     52  H   UNL A   1      39.567  31.851  33.148  1.00  0.00     0.167 HD
ATOM     53  C   UNL A   1      40.421  28.667  30.225  1.00  0.00     0.031 A 
ATOM     54  C   UNL A   1      39.852  33.184  35.577  1.00  0.00     0.031 A 
ATOM     55  C   UNL A   1      41.396  28.501  31.266  1.00  0.00     0.049 A 
ATOM     56  C   UNL A   1      40.911  32.118  35.540  1.00  0.00     0.074 A 
ATOM     57  C   UNL A   1      42.434  27.590  31.340  1.00  0.00     0.029 A 
ATOM     58  N   UNL A   1      41.459  29.280  32.410  1.00  0.00    -0.354 N 
ATOM     59  N   UNL A   1      41.148  31.222  34.611  1.00  0.00    -0.248 NA
ATOM     60  C   UNL A   1      41.824  32.053  36.689  1.00  0.00     0.031 C 
ATOM     61  C   UNL A   1      43.108  27.800  32.547  1.00  0.00     0.029 A 
ATOM     62  C   UNL A   1      42.513  28.867  33.202  1.00  0.00     0.049 A 
ATOM     63  H   UNL A   1      40.844  30.018  32.627  1.00  0.00     0.167 HD
ATOM     64  C   UNL A   1      42.251  30.506  35.051  1.00  0.00     0.074 A 
ATOM     65  C   UNL A   1      42.646  31.079  36.322  1.00  0.00     0.031 C 
ATOM     66  C   UNL A   1      42.884  29.464  34.459  1.00  0.00     0.031 A 
BRANCH  53  67
ATOM     67  C   UNL A   1      40.425  27.711  29.065  1.00  0.00    -0.014 A 
ATOM     68  C   UNL A   1      41.195  27.964  27.918  1.00  0.00     0.009 A 
ATOM     69  C   UNL A   1      39.660  26.537  29.125  1.00  0.00     0.009 A 
ATOM     70  C   UNL A   1      41.165  27.079  26.838  1.00  0.00     0.001 A 
ATOM     71  C   UNL A   1      39.656  25.640  28.055  1.00  0.00     0.001 A 
ATOM     72  C   UNL A   1      40.400  25.917  26.909  1.00  0.00     0.000 A 
ENDBRANCH  53  67
BRANCH  54  73
ATOM     73  C   UNL A   1      39.744  34.113  36.731  1.00  0.00    -0.014 A 
ATOM     74  C   UNL A   1      40.380  35.363  36.695  1.00  0.00     0.009 A 
ATOM     75  C   UNL A   1      39.004  33.759  37.870  1.00  0.00     0.009 A 
ATOM     76  C   UNL A   1      40.299  36.231  37.786  1.00  0.00     0.001 A 
ATOM     77  C   UNL A   1      38.903  34.640  38.949  1.00  0.00     0.001 A 
ATOM     78  C   UNL A   1      39.559  35.870  38.911  1.00  0.00     0.000 A 
ENDBRANCH  54  73
BRANCH  66  79
ATOM     79  C   UNL A   1      44.084  28.906  35.165  1.00  0.00    -0.014 A 
ATOM     80  C   UNL A   1      43.964  27.832  36.060  1.00  0.00     0.009 A 
ATOM     81  C   UNL A   1      45.355  29.432  34.892  1.00  0.00     0.009 A 
ATOM     82  C   UNL A   1      45.096  27.316  36.692  1.00  0.00     0.001 A 
ATOM     83  C   UNL A   1      46.487  28.898  35.506  1.00  0.00     0.001 A 
ATOM     84  C   UNL A   1      46.355  27.845  36.411  1.00  0.00     0.000 A 
ENDBRANCH  66  79
ENDBRANCH  40  41
ENDBRANCH  32  35
ENDBRANCH  30  31
ENDBRANCH  29  30
ENDBRANCH  28  29
ENDBRANCH   1  28
TORSDOF 17
ENDMDL
