MODEL 1
REMARK VINA RESULT:     -11.6      0.000      0.000
REMARK SMILES Cc1cc(C)c2c(c1)C=C(C(=O)NCCCCNC(=O)c1ccc(-c3c4nc(c(-c5ccccc5)c5ccc([nH]5)c(-c5ccccc5)c5nc(c(-c6ccccc6)c6ccc3[nH]6)C=C5)C=C4)cc1)[C@@H](C(F)(F)F)O2
REMARK SMILES IDX 16 1 15 2 14 3 13 4 11 5 12 6 10 8 1 9 2 10 3 11 8 12 4 13
REMARK SMILES IDX 7 14 5 15 6 16 9 17 74 18 69 19 70 20 71 21 72 22 73 23
REMARK SMILES IDX 17 24 18 25 19 26 20 28 21 29 22 30 68 31 23 32 67 33 24 34
REMARK SMILES IDX 25 35 26 36 61 37 27 38 66 39 60 40 62 41 28 42 65 43 59 44
REMARK SMILES IDX 58 45 29 47 51 48 36 49 50 50 37 51 40 52 49 53 63 54 38 55
REMARK SMILES IDX 39 56 48 58 64 59 41 60 30 61 31 62 35 63 32 64 34 65 33 66
REMARK SMILES IDX 52 67 53 68 57 69 54 70 56 71 55 72 42 73 43 74 47 75 44 76
REMARK SMILES IDX 46 77 45 78
REMARK H PARENT 13 7 18 27 62 46 40 57
REMARK Flexibility Score: inf
ROOT
ATOM      1  C   UNL A   1      33.294  29.056  25.678  1.00  0.00     0.023 C 
ENDROOT
BRANCH   1   2
ATOM      2  C   UNL A   1      33.579  27.764  24.909  1.00  0.00     0.023 C 
BRANCH   2   3
ATOM      3  C   UNL A   1      32.335  27.095  24.332  1.00  0.00     0.116 C 
BRANCH   3   4
ATOM      4  N   UNL A   1      31.519  26.482  25.364  1.00  0.00    -0.352 N 
ATOM      5  C   UNL A   1      31.434  25.274  25.968  1.00  0.00     0.251 C 
ATOM      6  O   UNL A   1      30.549  25.179  26.823  1.00  0.00    -0.270 OA
ATOM      7  H   UNL A   1      30.850  27.113  25.717  1.00  0.00     0.163 HD
BRANCH   5   8
ATOM      8  C   UNL A   1      32.307  24.099  25.674  1.00  0.00     0.067 C 
ATOM      9  C   UNL A   1      38.250  22.398  25.860  1.00  0.00     0.044 C 
ATOM     10  C   UNL A   1      36.769  22.214  25.704  1.00  0.00    -0.050 A 
ATOM     11  C   UNL A   1      36.248  20.985  25.279  1.00  0.00     0.010 A 
ATOM     12  C   UNL A   1      35.897  23.286  25.935  1.00  0.00     0.015 A 
ATOM     13  C   UNL A   1      34.869  20.809  25.110  1.00  0.00    -0.008 A 
ATOM     14  C   UNL A   1      34.519  23.128  25.764  1.00  0.00     0.018 A 
ATOM     15  C   UNL A   1      34.320  19.484  24.663  1.00  0.00     0.048 C 
ATOM     16  C   UNL A   1      34.015  21.893  25.349  1.00  0.00     0.130 A 
ATOM     17  C   UNL A   1      33.596  24.223  26.044  1.00  0.00     0.025 C 
ATOM     18  O   UNL A   1      32.672  21.675  25.205  1.00  0.00    -0.475 OA
ATOM     19  C   UNL A   1      31.850  22.850  24.975  1.00  0.00     0.314 C 
BRANCH  19  20
ATOM     20  C   UNL A   1      31.662  23.051  23.460  1.00  0.00     0.429 C 
ATOM     21  F   UNL A   1      31.855  21.880  22.800  1.00  0.00    -0.167 F 
ATOM     22  F   UNL A   1      30.411  23.463  23.143  1.00  0.00    -0.167 F 
ATOM     23  F   UNL A   1      32.518  23.956  22.936  1.00  0.00    -0.167 F 
ENDBRANCH  19  20
ENDBRANCH   5   8
ENDBRANCH   3   4
ENDBRANCH   2   3
ENDBRANCH   1   2
BRANCH   1  24
ATOM     24  C   UNL A   1      33.610  29.013  27.173  1.00  0.00     0.116 C 
BRANCH  24  25
ATOM     25  N   UNL A   1      33.608  30.318  27.816  1.00  0.00    -0.352 N 
ATOM     26  C   UNL A   1      34.632  30.923  28.503  1.00  0.00     0.251 C 
ATOM     27  H   UNL A   1      32.771  30.832  27.749  1.00  0.00     0.163 HD
ATOM     28  O   UNL A   1      34.470  32.004  29.059  1.00  0.00    -0.269 OA
BRANCH  26  29
ATOM     29  C   UNL A   1      35.925  30.222  28.603  1.00  0.00     0.039 A 
ATOM     30  C   UNL A   1      36.797  30.262  27.513  1.00  0.00     0.014 A 
ATOM     31  C   UNL A   1      36.297  29.599  29.798  1.00  0.00     0.014 A 
ATOM     32  C   UNL A   1      38.082  29.740  27.647  1.00  0.00     0.010 A 
ATOM     33  C   UNL A   1      37.597  29.130  29.947  1.00  0.00     0.010 A 
ATOM     34  C   UNL A   1      38.502  29.207  28.876  1.00  0.00    -0.014 A 
BRANCH  34  35
ATOM     35  C   UNL A   1      39.891  28.730  29.069  1.00  0.00     0.031 A 
ATOM     36  C   UNL A   1      40.924  29.650  29.650  1.00  0.00     0.074 A 
ATOM     37  C   UNL A   1      40.233  27.492  28.663  1.00  0.00     0.049 A 
ATOM     38  N   UNL A   1      42.203  29.442  29.827  1.00  0.00    -0.248 NA
ATOM     39  C   UNL A   1      40.463  30.983  30.066  1.00  0.00     0.031 C 
ATOM     40  C   UNL A   1      39.323  26.515  28.060  1.00  0.00     0.029 A 
ATOM     41  N   UNL A   1      41.441  26.846  28.697  1.00  0.00    -0.354 N 
ATOM     42  C   UNL A   1      42.702  30.622  30.363  1.00  0.00     0.074 A 
ATOM     43  C   UNL A   1      41.598  31.555  30.442  1.00  0.00     0.031 C 
ATOM     44  C   UNL A   1      40.001  25.383  27.810  1.00  0.00     0.029 A 
ATOM     45  C   UNL A   1      41.395  25.566  28.200  1.00  0.00     0.049 A 
ATOM     46  H   UNL A   1      42.264  27.259  29.045  1.00  0.00     0.167 HD
ATOM     47  C   UNL A   1      43.962  30.900  30.771  1.00  0.00     0.031 A 
ATOM     48  C   UNL A   1      42.368  24.645  28.073  1.00  0.00     0.031 A 
ATOM     49  C   UNL A   1      45.057  29.971  30.705  1.00  0.00     0.049 A 
ATOM     50  C   UNL A   1      43.763  24.983  28.517  1.00  0.00     0.074 A 
ATOM     51  C   UNL A   1      46.363  30.147  31.125  1.00  0.00     0.029 A 
ATOM     52  N   UNL A   1      44.970  28.689  30.187  1.00  0.00    -0.354 N 
ATOM     53  N   UNL A   1      44.212  26.093  29.049  1.00  0.00    -0.248 NA
ATOM     54  C   UNL A   1      44.783  23.938  28.346  1.00  0.00     0.031 C 
ATOM     55  C   UNL A   1      47.076  28.980  30.831  1.00  0.00     0.029 A 
ATOM     56  C   UNL A   1      46.203  28.065  30.266  1.00  0.00     0.049 A 
ATOM     57  H   UNL A   1      44.153  28.281  29.818  1.00  0.00     0.167 HD
ATOM     58  C   UNL A   1      45.561  25.876  29.293  1.00  0.00     0.074 A 
ATOM     59  C   UNL A   1      45.855  24.524  28.863  1.00  0.00     0.031 C 
ATOM     60  C   UNL A   1      46.475  26.721  29.828  1.00  0.00     0.031 A 
BRANCH  47  61
ATOM     61  C   UNL A   1      44.217  32.269  31.330  1.00  0.00    -0.014 A 
ATOM     62  C   UNL A   1      44.084  32.522  32.704  1.00  0.00     0.009 A 
ATOM     63  C   UNL A   1      44.618  33.310  30.480  1.00  0.00     0.009 A 
ATOM     64  C   UNL A   1      44.319  33.800  33.212  1.00  0.00     0.001 A 
ATOM     65  C   UNL A   1      44.876  34.582  30.995  1.00  0.00     0.001 A 
ATOM     66  C   UNL A   1      44.718  34.827  32.358  1.00  0.00     0.000 A 
ENDBRANCH  47  61
BRANCH  48  67
ATOM     67  C   UNL A   1      42.049  23.303  27.526  1.00  0.00    -0.014 A 
ATOM     68  C   UNL A   1      42.317  23.010  26.180  1.00  0.00     0.009 A 
ATOM     69  C   UNL A   1      41.494  22.307  28.343  1.00  0.00     0.009 A 
ATOM     70  C   UNL A   1      42.019  21.750  25.658  1.00  0.00     0.001 A 
ATOM     71  C   UNL A   1      41.217  21.041  27.823  1.00  0.00     0.001 A 
ATOM     72  C   UNL A   1      41.475  20.765  26.481  1.00  0.00     0.000 A 
ENDBRANCH  48  67
BRANCH  60  73
ATOM     73  C   UNL A   1      47.874  26.205  29.996  1.00  0.00    -0.014 A 
ATOM     74  C   UNL A   1      48.790  26.245  28.934  1.00  0.00     0.009 A 
ATOM     75  C   UNL A   1      48.296  25.732  31.247  1.00  0.00     0.009 A 
ATOM     76  C   UNL A   1      50.101  25.802  29.121  1.00  0.00     0.001 A 
ATOM     77  C   UNL A   1      49.612  25.310  31.435  1.00  0.00     0.001 A 
ATOM     78  C   UNL A   1      50.512  25.340  30.371  1.00  0.00     0.000 A 
ENDBRANCH  60  73
ENDBRANCH  34  35
ENDBRANCH  26  29
ENDBRANCH  24  25
ENDBRANCH   1  24
TORSDOF 12
ENDMDL
MODEL 2
REMARK VINA RESULT:     -11.5      5.497      8.246
REMARK SMILES Cc1cc(C)c2c(c1)C=C(C(=O)NCCCCNC(=O)c1ccc(-c3c4nc(c(-c5ccccc5)c5ccc([nH]5)c(-c5ccccc5)c5nc(c(-c6ccccc6)c6ccc3[nH]6)C=C5)C=C4)cc1)[C@@H](C(F)(F)F)O2
REMARK SMILES IDX 16 1 15 2 14 3 13 4 11 5 12 6 10 8 1 9 2 10 3 11 8 12 4 13
REMARK SMILES IDX 7 14 5 15 6 16 9 17 74 18 69 19 70 20 71 21 72 22 73 23
REMARK SMILES IDX 17 24 18 25 19 26 20 28 21 29 22 30 68 31 23 32 67 33 24 34
REMARK SMILES IDX 25 35 26 36 61 37 27 38 66 39 60 40 62 41 28 42 65 43 59 44
REMARK SMILES IDX 58 45 29 47 51 48 36 49 50 50 37 51 40 52 49 53 63 54 38 55
REMARK SMILES IDX 39 56 48 58 64 59 41 60 30 61 31 62 35 63 32 64 34 65 33 66
REMARK SMILES IDX 52 67 53 68 57 69 54 70 56 71 55 72 42 73 43 74 47 75 44 76
REMARK SMILES IDX 46 77 45 78
REMARK H PARENT 13 7 18 27 62 46 40 57
REMARK Flexibility Score: inf
ROOT
ATOM      1  C   UNL A   1      33.465  35.477  31.577  1.00  0.00     0.023 C 
ENDROOT
BRANCH   1   2
ATOM      2  C   UNL A   1      34.644  36.032  32.382  1.00  0.00     0.023 C 
BRANCH   2   3
ATOM      3  C   UNL A   1      35.641  34.971  32.839  1.00  0.00     0.116 C 
BRANCH   3   4
ATOM      4  N   UNL A   1      35.505  34.670  34.252  1.00  0.00    -0.352 N 
ATOM      5  C   UNL A   1      36.100  33.849  35.149  1.00  0.00     0.251 C 
ATOM      6  O   UNL A   1      35.644  33.909  36.295  1.00  0.00    -0.270 OA
ATOM      7  H   UNL A   1      34.790  35.205  34.669  1.00  0.00     0.163 HD
BRANCH   5   8
ATOM      8  C   UNL A   1      37.225  32.914  34.849  1.00  0.00     0.067 C 
ATOM      9  C   UNL A   1      38.380  27.641  31.831  1.00  0.00     0.044 C 
ATOM     10  C   UNL A   1      38.707  28.895  32.588  1.00  0.00    -0.050 A 
ATOM     11  C   UNL A   1      40.020  29.149  33.005  1.00  0.00     0.010 A 
ATOM     12  C   UNL A   1      37.692  29.799  32.927  1.00  0.00     0.015 A 
ATOM     13  C   UNL A   1      40.332  30.306  33.731  1.00  0.00    -0.008 A 
ATOM     14  C   UNL A   1      37.986  30.955  33.656  1.00  0.00     0.018 A 
ATOM     15  C   UNL A   1      41.744  30.575  34.165  1.00  0.00     0.048 C 
ATOM     16  C   UNL A   1      39.302  31.198  34.056  1.00  0.00     0.130 A 
ATOM     17  C   UNL A   1      36.946  31.927  33.977  1.00  0.00     0.025 C 
ATOM     18  O   UNL A   1      39.649  32.333  34.737  1.00  0.00    -0.475 OA
ATOM     19  C   UNL A   1      38.587  32.989  35.478  1.00  0.00     0.314 C 
BRANCH  19  20
ATOM     20  C   UNL A   1      38.598  32.488  36.935  1.00  0.00     0.429 C 
ATOM     21  F   UNL A   1      39.854  32.127  37.301  1.00  0.00    -0.167 F 
ATOM     22  F   UNL A   1      38.207  33.442  37.814  1.00  0.00    -0.167 F 
ATOM     23  F   UNL A   1      37.796  31.420  37.132  1.00  0.00    -0.167 F 
ENDBRANCH  19  20
ENDBRANCH   5   8
ENDBRANCH   3   4
ENDBRANCH   2   3
ENDBRANCH   1   2
BRANCH   1  24
ATOM     24  C   UNL A   1      33.260  36.104  30.199  1.00  0.00     0.116 C 
BRANCH  24  25
ATOM     25  N   UNL A   1      32.678  35.199  29.219  1.00  0.00    -0.352 N 
ATOM     26  C   UNL A   1      33.243  34.075  28.667  1.00  0.00     0.251 C 
ATOM     27  H   UNL A   1      31.768  35.419  28.914  1.00  0.00     0.163 HD
ATOM     28  O   UNL A   1      32.664  33.440  27.794  1.00  0.00    -0.269 OA
BRANCH  26  29
ATOM     29  C   UNL A   1      34.589  33.671  29.114  1.00  0.00     0.039 A 
ATOM     30  C   UNL A   1      34.703  32.672  30.082  1.00  0.00     0.014 A 
ATOM     31  C   UNL A   1      35.724  34.225  28.517  1.00  0.00     0.014 A 
ATOM     32  C   UNL A   1      35.964  32.169  30.400  1.00  0.00     0.010 A 
ATOM     33  C   UNL A   1      36.974  33.685  28.793  1.00  0.00     0.010 A 
ATOM     34  C   UNL A   1      37.102  32.645  29.729  1.00  0.00    -0.014 A 
BRANCH  34  35
ATOM     35  C   UNL A   1      38.440  32.064  29.985  1.00  0.00     0.031 A 
ATOM     36  C   UNL A   1      39.451  32.836  30.781  1.00  0.00     0.074 A 
ATOM     37  C   UNL A   1      38.762  30.872  29.449  1.00  0.00     0.049 A 
ATOM     38  N   UNL A   1      40.694  32.529  31.048  1.00  0.00    -0.248 NA
ATOM     39  C   UNL A   1      39.014  34.128  31.330  1.00  0.00     0.031 C 
ATOM     40  C   UNL A   1      37.873  30.039  28.635  1.00  0.00     0.029 A 
ATOM     41  N   UNL A   1      39.929  30.155  29.508  1.00  0.00    -0.354 N 
ATOM     42  C   UNL A   1      41.191  33.597  31.785  1.00  0.00     0.074 A 
ATOM     43  C   UNL A   1      40.130  34.576  31.885  1.00  0.00     0.031 C 
ATOM     44  C   UNL A   1      38.519  28.910  28.298  1.00  0.00     0.029 A 
ATOM     45  C   UNL A   1      39.872  28.956  28.839  1.00  0.00     0.049 A 
ATOM     46  H   UNL A   1      40.731  30.468  29.985  1.00  0.00     0.167 HD
ATOM     47  C   UNL A   1      42.415  33.741  32.344  1.00  0.00     0.031 A 
ATOM     48  C   UNL A   1      40.809  28.002  28.680  1.00  0.00     0.031 A 
ATOM     49  C   UNL A   1      43.466  32.764  32.255  1.00  0.00     0.049 A 
ATOM     50  C   UNL A   1      42.166  28.194  29.295  1.00  0.00     0.074 A 
ATOM     51  C   UNL A   1      44.729  32.804  32.817  1.00  0.00     0.029 A 
ATOM     52  N   UNL A   1      43.371  31.569  31.561  1.00  0.00    -0.354 N 
ATOM     53  N   UNL A   1      42.611  29.195  30.014  1.00  0.00    -0.248 NA
ATOM     54  C   UNL A   1      43.147  27.120  29.080  1.00  0.00     0.031 C 
ATOM     55  C   UNL A   1      45.412  31.645  32.435  1.00  0.00     0.029 A 
ATOM     56  C   UNL A   1      44.559  30.866  31.671  1.00  0.00     0.049 A 
ATOM     57  H   UNL A   1      42.577  31.263  31.065  1.00  0.00     0.167 HD
ATOM     58  C   UNL A   1      43.916  28.866  30.353  1.00  0.00     0.074 A 
ATOM     59  C   UNL A   1      44.187  27.567  29.772  1.00  0.00     0.031 C 
ATOM     60  C   UNL A   1      44.809  29.578  31.081  1.00  0.00     0.031 A 
BRANCH  47  61
ATOM     61  C   UNL A   1      42.676  35.007  33.106  1.00  0.00    -0.014 A 
ATOM     62  C   UNL A   1      42.319  35.120  34.458  1.00  0.00     0.009 A 
ATOM     63  C   UNL A   1      43.308  36.088  32.474  1.00  0.00     0.009 A 
ATOM     64  C   UNL A   1      42.563  36.305  35.156  1.00  0.00     0.001 A 
ATOM     65  C   UNL A   1      43.572  37.263  33.181  1.00  0.00     0.001 A 
ATOM     66  C   UNL A   1      43.192  37.373  34.518  1.00  0.00     0.000 A 
ENDBRANCH  47  61
BRANCH  48  67
ATOM     67  C   UNL A   1      40.484  26.765  27.927  1.00  0.00    -0.014 A 
ATOM     68  C   UNL A   1      40.904  26.620  26.596  1.00  0.00     0.009 A 
ATOM     69  C   UNL A   1      39.770  25.721  28.534  1.00  0.00     0.009 A 
ATOM     70  C   UNL A   1      40.602  25.459  25.882  1.00  0.00     0.001 A 
ATOM     71  C   UNL A   1      39.487  24.552  27.824  1.00  0.00     0.001 A 
ATOM     72  C   UNL A   1      39.899  24.425  26.498  1.00  0.00     0.000 A 
ENDBRANCH  48  67
BRANCH  60  73
ATOM     73  C   UNL A   1      46.158  28.960  31.309  1.00  0.00    -0.014 A 
ATOM     74  C   UNL A   1      47.226  29.216  30.434  1.00  0.00     0.009 A 
ATOM     75  C   UNL A   1      46.377  28.165  32.444  1.00  0.00     0.009 A 
ATOM     76  C   UNL A   1      48.485  28.668  30.686  1.00  0.00     0.001 A 
ATOM     77  C   UNL A   1      47.643  27.638  32.703  1.00  0.00     0.001 A 
ATOM     78  C   UNL A   1      48.694  27.885  31.821  1.00  0.00     0.000 A 
ENDBRANCH  60  73
ENDBRANCH  34  35
ENDBRANCH  26  29
ENDBRANCH  24  25
ENDBRANCH   1  24
TORSDOF 12
ENDMDL
MODEL 3
REMARK VINA RESULT:     -11.4      2.458      7.542
REMARK SMILES Cc1cc(C)c2c(c1)C=C(C(=O)NCCCCNC(=O)c1ccc(-c3c4nc(c(-c5ccccc5)c5ccc([nH]5)c(-c5ccccc5)c5nc(c(-c6ccccc6)c6ccc3[nH]6)C=C5)C=C4)cc1)[C@@H](C(F)(F)F)O2
REMARK SMILES IDX 16 1 15 2 14 3 13 4 11 5 12 6 10 8 1 9 2 10 3 11 8 12 4 13
REMARK SMILES IDX 7 14 5 15 6 16 9 17 74 18 69 19 70 20 71 21 72 22 73 23
REMARK SMILES IDX 17 24 18 25 19 26 20 28 21 29 22 30 68 31 23 32 67 33 24 34
REMARK SMILES IDX 25 35 26 36 61 37 27 38 66 39 60 40 62 41 28 42 65 43 59 44
REMARK SMILES IDX 58 45 29 47 51 48 36 49 50 50 37 51 40 52 49 53 63 54 38 55
REMARK SMILES IDX 39 56 48 58 64 59 41 60 30 61 31 62 35 63 32 64 34 65 33 66
REMARK SMILES IDX 52 67 53 68 57 69 54 70 56 71 55 72 42 73 43 74 47 75 44 76
REMARK SMILES IDX 46 77 45 78
REMARK H PARENT 13 7 18 27 62 46 40 57
REMARK Flexibility Score: inf
ROOT
ATOM      1  C   UNL A   1      39.405  21.481  26.057  1.00  0.00     0.023 C 
ENDROOT
BRANCH   1   2
ATOM      2  C   UNL A   1      39.404  22.936  26.534  1.00  0.00     0.023 C 
BRANCH   2   3
ATOM      3  C   UNL A   1      38.131  23.704  26.190  1.00  0.00     0.116 C 
BRANCH   3   4
ATOM      4  N   UNL A   1      37.674  23.421  24.842  1.00  0.00    -0.352 N 
ATOM      5  C   UNL A   1      36.489  23.391  24.187  1.00  0.00     0.251 C 
ATOM      6  O   UNL A   1      36.560  23.076  22.995  1.00  0.00    -0.270 OA
ATOM      7  H   UNL A   1      38.424  23.189  24.247  1.00  0.00     0.163 HD
BRANCH   5   8
ATOM      8  C   UNL A   1      35.160  23.701  24.792  1.00  0.00     0.067 C 
ATOM      9  C   UNL A   1      31.873  28.496  26.901  1.00  0.00     0.044 C 
ATOM     10  C   UNL A   1      32.125  27.079  26.476  1.00  0.00    -0.050 A 
ATOM     11  C   UNL A   1      31.144  26.097  26.667  1.00  0.00     0.010 A 
ATOM     12  C   UNL A   1      33.363  26.716  25.929  1.00  0.00     0.015 A 
ATOM     13  C   UNL A   1      31.377  24.767  26.293  1.00  0.00    -0.008 A 
ATOM     14  C   UNL A   1      33.613  25.392  25.557  1.00  0.00     0.018 A 
ATOM     15  C   UNL A   1      30.316  23.723  26.493  1.00  0.00     0.048 C 
ATOM     16  C   UNL A   1      32.620  24.427  25.745  1.00  0.00     0.130 A 
ATOM     17  C   UNL A   1      34.880  25.009  24.945  1.00  0.00     0.025 C 
ATOM     18  O   UNL A   1      32.800  23.125  25.362  1.00  0.00    -0.475 OA
ATOM     19  C   UNL A   1      34.174  22.668  25.260  1.00  0.00     0.314 C 
BRANCH  19  20
ATOM     20  C   UNL A   1      34.591  22.007  26.588  1.00  0.00     0.429 C 
ATOM     21  F   UNL A   1      33.617  21.168  27.023  1.00  0.00    -0.167 F 
ATOM     22  F   UNL A   1      35.711  21.255  26.463  1.00  0.00    -0.167 F 
ATOM     23  F   UNL A   1      34.826  22.901  27.573  1.00  0.00    -0.167 F 
ENDBRANCH  19  20
ENDBRANCH   5   8
ENDBRANCH   3   4
ENDBRANCH   2   3
ENDBRANCH   1   2
BRANCH   1  24
ATOM     24  C   UNL A   1      40.293  20.529  26.857  1.00  0.00     0.116 C 
BRANCH  24  25
ATOM     25  N   UNL A   1      41.367  19.930  26.079  1.00  0.00    -0.352 N 
ATOM     26  C   UNL A   1      42.591  20.473  25.770  1.00  0.00     0.251 C 
ATOM     27  H   UNL A   1      41.198  19.024  25.733  1.00  0.00     0.163 HD
ATOM     28  O   UNL A   1      43.380  19.882  25.042  1.00  0.00    -0.269 OA
BRANCH  26  29
ATOM     29  C   UNL A   1      42.920  21.811  26.293  1.00  0.00     0.039 A 
ATOM     30  C   UNL A   1      43.055  22.870  25.393  1.00  0.00     0.014 A 
ATOM     31  C   UNL A   1      43.014  22.024  27.671  1.00  0.00     0.014 A 
ATOM     32  C   UNL A   1      43.211  24.166  25.882  1.00  0.00     0.010 A 
ATOM     33  C   UNL A   1      43.112  23.322  28.157  1.00  0.00     0.010 A 
ATOM     34  C   UNL A   1      43.200  24.404  27.266  1.00  0.00    -0.014 A 
BRANCH  34  35
ATOM     35  C   UNL A   1      43.273  25.781  27.806  1.00  0.00     0.031 A 
ATOM     36  C   UNL A   1      44.601  26.368  28.182  1.00  0.00     0.074 A 
ATOM     37  C   UNL A   1      42.138  26.476  28.013  1.00  0.00     0.049 A 
ATOM     38  N   UNL A   1      44.862  27.524  28.736  1.00  0.00    -0.248 NA
ATOM     39  C   UNL A   1      45.788  25.540  27.920  1.00  0.00     0.031 C 
ATOM     40  C   UNL A   1      40.786  26.003  27.711  1.00  0.00     0.029 A 
ATOM     41  N   UNL A   1      41.945  27.731  28.530  1.00  0.00    -0.354 N 
ATOM     42  C   UNL A   1      46.241  27.555  28.902  1.00  0.00     0.074 A 
ATOM     43  C   UNL A   1      46.756  26.288  28.429  1.00  0.00     0.031 C 
ATOM     44  C   UNL A   1      39.905  26.969  28.020  1.00  0.00     0.029 A 
ATOM     45  C   UNL A   1      40.625  28.111  28.573  1.00  0.00     0.049 A 
ATOM     46  H   UNL A   1      42.681  28.306  28.840  1.00  0.00     0.167 HD
ATOM     47  C   UNL A   1      47.012  28.557  29.385  1.00  0.00     0.031 A 
ATOM     48  C   UNL A   1      40.061  29.252  29.009  1.00  0.00     0.031 A 
ATOM     49  C   UNL A   1      46.503  29.820  29.844  1.00  0.00     0.049 A 
ATOM     50  C   UNL A   1      40.936  30.342  29.559  1.00  0.00     0.074 A 
ATOM     51  C   UNL A   1      47.207  30.911  30.320  1.00  0.00     0.029 A 
ATOM     52  N   UNL A   1      45.160  30.161  29.879  1.00  0.00    -0.354 N 
ATOM     53  N   UNL A   1      42.241  30.368  29.681  1.00  0.00    -0.248 NA
ATOM     54  C   UNL A   1      40.260  31.561  30.026  1.00  0.00     0.031 C 
ATOM     55  C   UNL A   1      46.286  31.903  30.675  1.00  0.00     0.029 A 
ATOM     56  C   UNL A   1      45.014  31.444  30.380  1.00  0.00     0.049 A 
ATOM     57  H   UNL A   1      44.420  29.579  29.590  1.00  0.00     0.167 HD
ATOM     58  C   UNL A   1      42.544  31.610  30.221  1.00  0.00     0.074 A 
ATOM     59  C   UNL A   1      41.289  32.314  30.392  1.00  0.00     0.031 C 
ATOM     60  C   UNL A   1      43.756  32.122  30.546  1.00  0.00     0.031 A 
BRANCH  47  61
ATOM     61  C   UNL A   1      48.492  28.319  29.438  1.00  0.00    -0.014 A 
ATOM     62  C   UNL A   1      49.314  28.650  28.348  1.00  0.00     0.009 A 
ATOM     63  C   UNL A   1      49.076  27.783  30.595  1.00  0.00     0.009 A 
ATOM     64  C   UNL A   1      50.689  28.420  28.407  1.00  0.00     0.001 A 
ATOM     65  C   UNL A   1      50.455  27.578  30.659  1.00  0.00     0.001 A 
ATOM     66  C   UNL A   1      51.259  27.888  29.562  1.00  0.00     0.000 A 
ENDBRANCH  47  61
BRANCH  48  67
ATOM     67  C   UNL A   1      38.590  29.432  28.917  1.00  0.00    -0.014 A 
ATOM     68  C   UNL A   1      37.783  29.216  30.045  1.00  0.00     0.009 A 
ATOM     69  C   UNL A   1      37.989  29.835  27.716  1.00  0.00     0.009 A 
ATOM     70  C   UNL A   1      36.399  29.383  29.965  1.00  0.00     0.001 A 
ATOM     71  C   UNL A   1      36.607  30.022  27.645  1.00  0.00     0.001 A 
ATOM     72  C   UNL A   1      35.813  29.791  28.767  1.00  0.00     0.000 A 
ENDBRANCH  48  67
BRANCH  60  73
ATOM     73  C   UNL A   1      43.786  33.517  31.101  1.00  0.00    -0.014 A 
ATOM     74  C   UNL A   1      43.852  34.630  30.250  1.00  0.00     0.009 A 
ATOM     75  C   UNL A   1      43.684  33.718  32.485  1.00  0.00     0.009 A 
ATOM     76  C   UNL A   1      43.835  35.922  30.781  1.00  0.00     0.001 A 
ATOM     77  C   UNL A   1      43.645  35.010  33.010  1.00  0.00     0.001 A 
ATOM     78  C   UNL A   1      43.726  36.110  32.158  1.00  0.00     0.000 A 
ENDBRANCH  60  73
ENDBRANCH  34  35
ENDBRANCH  26  29
ENDBRANCH  24  25
ENDBRANCH   1  24
TORSDOF 12
ENDMDL
