MODEL 1
REMARK VINA RESULT:     -11.6      0.000      0.000
REMARK SMILES O=C(NCCCCNC(=O)c1ccc2c(c1)=N[C@H](C(F)(F)F)N=2)c1ccc(-c2c3nc(c(-c4ccccc4)c4ccc([nH]4)c(-c4ccccc4)c4nc(c(-c5ccccc5)c5ccc2[nH]5)C=C4)C=C3)cc1
REMARK SMILES IDX 5 1 4 2 3 3 1 4 2 5 24 7 25 8 71 9 26 10 70 11 27 12 28 13
REMARK SMILES IDX 29 14 64 15 30 16 69 17 63 18 65 19 31 20 68 21 62 22 61 23
REMARK SMILES IDX 32 25 54 26 39 27 53 28 40 29 43 30 52 31 66 32 41 33 42 34
REMARK SMILES IDX 51 36 67 37 44 38 33 39 34 40 38 41 35 42 37 43 36 44 55 45
REMARK SMILES IDX 56 46 60 47 57 48 59 49 58 50 45 51 46 52 50 53 47 54 49 55
REMARK SMILES IDX 48 56 6 57 7 58 8 59 9 60 10 62 11 63 12 64 16 65 13 66
REMARK SMILES IDX 15 67 14 68 17 69 23 70 18 71 19 72 20 73 21 74 22 75
REMARK H PARENT 3 6 65 24 43 35 8 61
REMARK Flexibility Score: inf
ROOT
ATOM      1  C   UNL A   1      32.297  28.082  27.348  1.00  0.00     0.023 C 
ENDROOT
BRANCH   1   2
ATOM      2  C   UNL A   1      33.667  28.749  27.285  1.00  0.00     0.116 C 
BRANCH   2   3
ATOM      3  N   UNL A   1      33.652  30.115  27.782  1.00  0.00    -0.352 N 
ATOM      4  O   UNL A   1      34.364  31.934  28.896  1.00  0.00    -0.269 OA
ATOM      5  C   UNL A   1      34.631  30.825  28.427  1.00  0.00     0.251 C 
ATOM      6  H   UNL A   1      32.811  30.604  27.632  1.00  0.00     0.163 HD
BRANCH   5   7
ATOM      7  C   UNL A   1      35.996  30.277  28.583  1.00  0.00     0.039 A 
ATOM      8  C   UNL A   1      36.369  29.748  29.823  1.00  0.00     0.014 A 
ATOM      9  C   UNL A   1      36.926  30.329  27.542  1.00  0.00     0.014 A 
ATOM     10  C   UNL A   1      37.658  29.241  30.008  1.00  0.00     0.010 A 
ATOM     11  C   UNL A   1      38.188  29.761  27.705  1.00  0.00     0.010 A 
ATOM     12  C   UNL A   1      38.574  29.231  28.946  1.00  0.00    -0.014 A 
BRANCH  12  13
ATOM     13  C   UNL A   1      39.960  28.732  29.124  1.00  0.00     0.031 A 
ATOM     14  C   UNL A   1      41.008  29.639  29.711  1.00  0.00     0.074 A 
ATOM     15  C   UNL A   1      40.293  27.490  28.725  1.00  0.00     0.049 A 
ATOM     16  N   UNL A   1      42.291  29.429  29.862  1.00  0.00    -0.248 NA
ATOM     17  C   UNL A   1      40.557  30.963  30.171  1.00  0.00     0.031 C 
ATOM     18  C   UNL A   1      39.374  26.513  28.141  1.00  0.00     0.029 A 
ATOM     19  N   UNL A   1      41.502  26.837  28.750  1.00  0.00    -0.354 N 
ATOM     20  C   UNL A   1      42.800  30.598  30.412  1.00  0.00     0.074 A 
ATOM     21  C   UNL A   1      41.700  31.530  30.527  1.00  0.00     0.031 C 
ATOM     22  C   UNL A   1      40.045  25.377  27.888  1.00  0.00     0.029 A 
ATOM     23  C   UNL A   1      41.449  25.559  28.248  1.00  0.00     0.049 A 
ATOM     24  H   UNL A   1      42.328  27.247  29.095  1.00  0.00     0.167 HD
ATOM     25  C   UNL A   1      44.066  30.865  30.808  1.00  0.00     0.031 A 
ATOM     26  C   UNL A   1      42.421  24.639  28.088  1.00  0.00     0.031 A 
ATOM     27  C   UNL A   1      45.154  29.930  30.722  1.00  0.00     0.049 A 
ATOM     28  C   UNL A   1      43.828  24.970  28.503  1.00  0.00     0.074 A 
ATOM     29  C   UNL A   1      46.461  30.096  31.142  1.00  0.00     0.029 A 
ATOM     30  N   UNL A   1      45.059  28.654  30.189  1.00  0.00    -0.354 N 
ATOM     31  N   UNL A   1      44.288  26.071  29.047  1.00  0.00    -0.248 NA
ATOM     32  C   UNL A   1      44.850  23.934  28.289  1.00  0.00     0.031 C 
ATOM     33  C   UNL A   1      47.172  28.939  30.816  1.00  0.00     0.029 A 
ATOM     34  C   UNL A   1      46.292  28.031  30.249  1.00  0.00     0.049 A 
ATOM     35  H   UNL A   1      44.238  28.253  29.824  1.00  0.00     0.167 HD
ATOM     36  C   UNL A   1      45.644  25.853  29.257  1.00  0.00     0.074 A 
ATOM     37  C   UNL A   1      45.932  24.512  28.793  1.00  0.00     0.031 C 
ATOM     38  C   UNL A   1      46.565  26.694  29.787  1.00  0.00     0.031 A 
BRANCH  25  39
ATOM     39  C   UNL A   1      44.352  32.225  31.381  1.00  0.00    -0.014 A 
ATOM     40  C   UNL A   1      44.785  33.262  30.538  1.00  0.00     0.009 A 
ATOM     41  C   UNL A   1      44.271  32.461  32.762  1.00  0.00     0.009 A 
ATOM     42  C   UNL A   1      45.139  34.504  31.066  1.00  0.00     0.001 A 
ATOM     43  C   UNL A   1      44.598  33.714  33.284  1.00  0.00     0.001 A 
ATOM     44  C   UNL A   1      45.040  34.731  32.439  1.00  0.00     0.000 A 
ENDBRANCH  25  39
BRANCH  26  45
ATOM     45  C   UNL A   1      42.082  23.306  27.526  1.00  0.00    -0.014 A 
ATOM     46  C   UNL A   1      41.551  22.295  28.345  1.00  0.00     0.009 A 
ATOM     47  C   UNL A   1      42.329  23.023  26.175  1.00  0.00     0.009 A 
ATOM     48  C   UNL A   1      41.297  21.023  27.825  1.00  0.00     0.001 A 
ATOM     49  C   UNL A   1      42.048  21.759  25.652  1.00  0.00     0.001 A 
ATOM     50  C   UNL A   1      41.542  20.757  26.480  1.00  0.00     0.000 A 
ENDBRANCH  26  45
BRANCH  38  51
ATOM     51  C   UNL A   1      47.979  26.203  29.920  1.00  0.00    -0.014 A 
ATOM     52  C   UNL A   1      48.433  25.717  31.157  1.00  0.00     0.009 A 
ATOM     53  C   UNL A   1      48.893  26.344  28.865  1.00  0.00     0.009 A 
ATOM     54  C   UNL A   1      49.779  25.403  31.342  1.00  0.00     0.001 A 
ATOM     55  C   UNL A   1      50.235  26.003  29.047  1.00  0.00     0.001 A 
ATOM     56  C   UNL A   1      50.679  25.545  30.287  1.00  0.00     0.000 A 
ENDBRANCH  38  51
ENDBRANCH  12  13
ENDBRANCH   5   7
ENDBRANCH   2   3
ENDBRANCH   1   2
BRANCH   1  57
ATOM     57  C   UNL A   1      32.003  27.067  26.242  1.00  0.00     0.023 C 
BRANCH  57  58
ATOM     58  C   UNL A   1      32.832  27.225  24.970  1.00  0.00     0.116 C 
BRANCH  58  59
ATOM     59  N   UNL A   1      32.674  26.099  24.063  1.00  0.00    -0.352 N 
ATOM     60  C   UNL A   1      31.617  25.761  23.272  1.00  0.00     0.251 C 
ATOM     61  H   UNL A   1      33.445  25.491  24.012  1.00  0.00     0.163 HD
ATOM     62  O   UNL A   1      31.630  24.707  22.639  1.00  0.00    -0.269 OA
BRANCH  60  63
ATOM     63  C   UNL A   1      30.451  26.681  23.205  1.00  0.00     0.042 A 
ATOM     64  C   UNL A   1      29.217  26.372  23.912  1.00  0.00     0.016 A 
ATOM     65  C   UNL A   1      30.630  27.806  22.491  1.00  0.00     0.044 A 
ATOM     66  C   UNL A   1      28.123  27.143  23.847  1.00  0.00     0.031 A 
ATOM     67  C   UNL A   1      29.488  28.716  22.384  1.00  0.00     0.087 A 
ATOM     68  C   UNL A   1      28.218  28.373  23.060  1.00  0.00     0.086 A 
ATOM     69  N   UNL A   1      29.404  29.820  21.725  1.00  0.00    -0.247 NA
ATOM     70  N   UNL A   1      27.298  29.247  22.850  1.00  0.00    -0.247 NA
ATOM     71  C   UNL A   1      28.002  30.289  22.025  1.00  0.00     0.326 C 
BRANCH  71  72
ATOM     72  C   UNL A   1      27.987  31.681  22.725  1.00  0.00     0.431 C 
ATOM     73  F   UNL A   1      27.085  31.716  23.735  1.00  0.00    -0.167 F 
ATOM     74  F   UNL A   1      29.194  31.982  23.262  1.00  0.00    -0.167 F 
ATOM     75  F   UNL A   1      27.676  32.675  21.858  1.00  0.00    -0.167 F 
ENDBRANCH  71  72
ENDBRANCH  60  63
ENDBRANCH  58  59
ENDBRANCH  57  58
ENDBRANCH   1  57
TORSDOF 12
ENDMDL
MODEL 2
REMARK VINA RESULT:     -11.4      4.666      7.096
REMARK SMILES O=C(NCCCCNC(=O)c1ccc2c(c1)=N[C@H](C(F)(F)F)N=2)c1ccc(-c2c3nc(c(-c4ccccc4)c4ccc([nH]4)c(-c4ccccc4)c4nc(c(-c5ccccc5)c5ccc2[nH]5)C=C4)C=C3)cc1
REMARK SMILES IDX 5 1 4 2 3 3 1 4 2 5 24 7 25 8 71 9 26 10 70 11 27 12 28 13
REMARK SMILES IDX 29 14 64 15 30 16 69 17 63 18 65 19 31 20 68 21 62 22 61 23
REMARK SMILES IDX 32 25 54 26 39 27 53 28 40 29 43 30 52 31 66 32 41 33 42 34
REMARK SMILES IDX 51 36 67 37 44 38 33 39 34 40 38 41 35 42 37 43 36 44 55 45
REMARK SMILES IDX 56 46 60 47 57 48 59 49 58 50 45 51 46 52 50 53 47 54 49 55
REMARK SMILES IDX 48 56 6 57 7 58 8 59 9 60 10 62 11 63 12 64 16 65 13 66
REMARK SMILES IDX 15 67 14 68 17 69 23 70 18 71 19 72 20 73 21 74 22 75
REMARK H PARENT 3 6 65 24 43 35 8 61
REMARK Flexibility Score: inf
ROOT
ATOM      1  C   UNL A   1      35.248  34.128  28.693  1.00  0.00     0.023 C 
ENDROOT
BRANCH   1   2
ATOM      2  C   UNL A   1      34.820  32.925  29.528  1.00  0.00     0.116 C 
BRANCH   2   3
ATOM      3  N   UNL A   1      34.080  31.939  28.758  1.00  0.00    -0.352 N 
ATOM      4  O   UNL A   1      33.747  30.144  27.445  1.00  0.00    -0.269 OA
ATOM      5  C   UNL A   1      34.511  30.772  28.183  1.00  0.00     0.251 C 
ATOM      6  H   UNL A   1      33.125  32.140  28.632  1.00  0.00     0.163 HD
BRANCH   5   7
ATOM      7  C   UNL A   1      35.879  30.262  28.419  1.00  0.00     0.039 A 
ATOM      8  C   UNL A   1      36.173  29.677  29.655  1.00  0.00     0.014 A 
ATOM      9  C   UNL A   1      36.885  30.404  27.461  1.00  0.00     0.014 A 
ATOM     10  C   UNL A   1      37.462  29.205  29.916  1.00  0.00     0.010 A 
ATOM     11  C   UNL A   1      38.151  29.870  27.694  1.00  0.00     0.010 A 
ATOM     12  C   UNL A   1      38.458  29.284  28.933  1.00  0.00    -0.014 A 
BRANCH  12  13
ATOM     13  C   UNL A   1      39.844  28.823  29.194  1.00  0.00     0.031 A 
ATOM     14  C   UNL A   1      40.818  29.743  29.879  1.00  0.00     0.074 A 
ATOM     15  C   UNL A   1      40.244  27.603  28.788  1.00  0.00     0.049 A 
ATOM     16  N   UNL A   1      42.093  29.569  30.115  1.00  0.00    -0.248 NA
ATOM     17  C   UNL A   1      40.293  31.040  30.341  1.00  0.00     0.031 C 
ATOM     18  C   UNL A   1      39.400  26.616  28.113  1.00  0.00     0.029 A 
ATOM     19  N   UNL A   1      41.468  26.987  28.881  1.00  0.00    -0.354 N 
ATOM     20  C   UNL A   1      42.524  30.737  30.731  1.00  0.00     0.074 A 
ATOM     21  C   UNL A   1      41.390  31.631  30.793  1.00  0.00     0.031 C 
ATOM     22  C   UNL A   1      40.123  25.509  27.878  1.00  0.00     0.029 A 
ATOM     23  C   UNL A   1      41.492  25.723  28.342  1.00  0.00     0.049 A 
ATOM     24  H   UNL A   1      42.254  27.412  29.294  1.00  0.00     0.167 HD
ATOM     25  C   UNL A   1      43.750  31.030  31.222  1.00  0.00     0.031 A 
ATOM     26  C   UNL A   1      42.502  24.839  28.227  1.00  0.00     0.031 A 
ATOM     27  C   UNL A   1      44.871  30.131  31.189  1.00  0.00     0.049 A 
ATOM     28  C   UNL A   1      43.865  25.200  28.749  1.00  0.00     0.074 A 
ATOM     29  C   UNL A   1      46.140  30.324  31.705  1.00  0.00     0.029 A 
ATOM     30  N   UNL A   1      44.855  28.869  30.616  1.00  0.00    -0.354 N 
ATOM     31  N   UNL A   1      44.251  26.298  29.354  1.00  0.00    -0.248 NA
ATOM     32  C   UNL A   1      44.932  24.202  28.580  1.00  0.00     0.031 C 
ATOM     33  C   UNL A   1      46.908  29.200  31.399  1.00  0.00     0.029 A 
ATOM     34  C   UNL A   1      46.100  28.282  30.747  1.00  0.00     0.049 A 
ATOM     35  H   UNL A   1      44.075  28.454  30.183  1.00  0.00     0.167 HD
ATOM     36  C   UNL A   1      45.594  26.116  29.653  1.00  0.00     0.074 A 
ATOM     37  C   UNL A   1      45.957  24.798  29.175  1.00  0.00     0.031 C 
ATOM     38  C   UNL A   1      46.448  26.968  30.269  1.00  0.00     0.031 A 
BRANCH  25  39
ATOM     39  C   UNL A   1      43.951  32.381  31.850  1.00  0.00    -0.014 A 
ATOM     40  C   UNL A   1      44.430  33.448  31.074  1.00  0.00     0.009 A 
ATOM     41  C   UNL A   1      43.744  32.579  33.225  1.00  0.00     0.009 A 
ATOM     42  C   UNL A   1      44.705  34.684  31.661  1.00  0.00     0.001 A 
ATOM     43  C   UNL A   1      43.993  33.825  33.803  1.00  0.00     0.001 A 
ATOM     44  C   UNL A   1      44.481  34.873  33.024  1.00  0.00     0.000 A 
ENDBRANCH  25  39
BRANCH  26  45
ATOM     45  C   UNL A   1      42.247  23.513  27.606  1.00  0.00    -0.014 A 
ATOM     46  C   UNL A   1      42.518  23.292  26.245  1.00  0.00     0.009 A 
ATOM     47  C   UNL A   1      41.686  22.473  28.363  1.00  0.00     0.009 A 
ATOM     48  C   UNL A   1      42.213  22.064  25.652  1.00  0.00     0.001 A 
ATOM     49  C   UNL A   1      41.408  21.238  27.773  1.00  0.00     0.001 A 
ATOM     50  C   UNL A   1      41.662  21.038  26.416  1.00  0.00     0.000 A 
ENDBRANCH  26  45
BRANCH  38  51
ATOM     51  C   UNL A   1      47.864  26.517  30.489  1.00  0.00    -0.014 A 
ATOM     52  C   UNL A   1      48.808  26.658  29.457  1.00  0.00     0.009 A 
ATOM     53  C   UNL A   1      48.231  25.836  31.659  1.00  0.00     0.009 A 
ATOM     54  C   UNL A   1      50.083  26.107  29.584  1.00  0.00     0.001 A 
ATOM     55  C   UNL A   1      49.517  25.309  31.793  1.00  0.00     0.001 A 
ATOM     56  C   UNL A   1      50.436  25.434  30.753  1.00  0.00     0.000 A 
ENDBRANCH  38  51
ENDBRANCH  12  13
ENDBRANCH   5   7
ENDBRANCH   2   3
ENDBRANCH   1   2
BRANCH   1  57
ATOM     57  C   UNL A   1      34.236  35.272  28.612  1.00  0.00     0.023 C 
BRANCH  57  58
ATOM     58  C   UNL A   1      33.000  35.118  29.494  1.00  0.00     0.116 C 
BRANCH  58  59
ATOM     59  N   UNL A   1      32.775  36.279  30.340  1.00  0.00    -0.352 N 
ATOM     60  C   UNL A   1      33.128  36.490  31.639  1.00  0.00     0.251 C 
ATOM     61  H   UNL A   1      32.298  37.024  29.910  1.00  0.00     0.163 HD
ATOM     62  O   UNL A   1      32.761  37.509  32.222  1.00  0.00    -0.269 OA
BRANCH  60  63
ATOM     63  C   UNL A   1      33.945  35.461  32.335  1.00  0.00     0.042 A 
ATOM     64  C   UNL A   1      33.346  34.213  32.784  1.00  0.00     0.016 A 
ATOM     65  C   UNL A   1      35.250  35.748  32.481  1.00  0.00     0.044 A 
ATOM     66  C   UNL A   1      34.027  33.275  33.455  1.00  0.00     0.031 A 
ATOM     67  C   UNL A   1      36.073  34.765  33.189  1.00  0.00     0.087 A 
ATOM     68  C   UNL A   1      35.450  33.521  33.691  1.00  0.00     0.086 A 
ATOM     69  N   UNL A   1      37.324  34.836  33.488  1.00  0.00    -0.247 NA
ATOM     70  N   UNL A   1      36.286  32.772  34.318  1.00  0.00    -0.247 NA
ATOM     71  C   UNL A   1      37.582  33.524  34.186  1.00  0.00     0.326 C 
BRANCH  71  72
ATOM     72  C   UNL A   1      38.665  32.675  33.455  1.00  0.00     0.431 C 
ATOM     73  F   UNL A   1      39.070  31.631  34.217  1.00  0.00    -0.167 F 
ATOM     74  F   UNL A   1      38.195  32.158  32.295  1.00  0.00    -0.167 F 
ATOM     75  F   UNL A   1      39.760  33.413  33.151  1.00  0.00    -0.167 F 
ENDBRANCH  71  72
ENDBRANCH  60  63
ENDBRANCH  58  59
ENDBRANCH  57  58
ENDBRANCH   1  57
TORSDOF 12
ENDMDL
MODEL 3
REMARK VINA RESULT:     -11.3      4.751      8.888
REMARK SMILES O=C(NCCCCNC(=O)c1ccc2c(c1)=N[C@H](C(F)(F)F)N=2)c1ccc(-c2c3nc(c(-c4ccccc4)c4ccc([nH]4)c(-c4ccccc4)c4nc(c(-c5ccccc5)c5ccc2[nH]5)C=C4)C=C3)cc1
REMARK SMILES IDX 5 1 4 2 3 3 1 4 2 5 24 7 25 8 71 9 26 10 70 11 27 12 28 13
REMARK SMILES IDX 29 14 64 15 30 16 69 17 63 18 65 19 31 20 68 21 62 22 61 23
REMARK SMILES IDX 32 25 54 26 39 27 53 28 40 29 43 30 52 31 66 32 41 33 42 34
REMARK SMILES IDX 51 36 67 37 44 38 33 39 34 40 38 41 35 42 37 43 36 44 55 45
REMARK SMILES IDX 56 46 60 47 57 48 59 49 58 50 45 51 46 52 50 53 47 54 49 55
REMARK SMILES IDX 48 56 6 57 7 58 8 59 9 60 10 62 11 63 12 64 16 65 13 66
REMARK SMILES IDX 15 67 14 68 17 69 23 70 18 71 19 72 20 73 21 74 22 75
REMARK H PARENT 3 6 65 24 43 35 8 61
REMARK Flexibility Score: inf
ROOT
ATOM      1  C   UNL A   1      35.939  23.302  25.616  1.00  0.00     0.023 C 
ENDROOT
BRANCH   1   2
ATOM      2  C   UNL A   1      37.305  23.572  24.992  1.00  0.00     0.116 C 
BRANCH   2   3
ATOM      3  N   UNL A   1      38.320  22.628  25.427  1.00  0.00    -0.352 N 
ATOM      4  O   UNL A   1      40.254  21.916  26.326  1.00  0.00    -0.269 OA
ATOM      5  C   UNL A   1      39.440  22.832  26.190  1.00  0.00     0.251 C 
ATOM      6  H   UNL A   1      38.182  21.701  25.127  1.00  0.00     0.163 HD
BRANCH   5   7
ATOM      7  C   UNL A   1      39.694  24.136  26.841  1.00  0.00     0.039 A 
ATOM      8  C   UNL A   1      40.397  25.114  26.130  1.00  0.00     0.014 A 
ATOM      9  C   UNL A   1      39.298  24.383  28.157  1.00  0.00     0.014 A 
ATOM     10  C   UNL A   1      40.672  26.349  26.725  1.00  0.00     0.010 A 
ATOM     11  C   UNL A   1      39.510  25.639  28.725  1.00  0.00     0.010 A 
ATOM     12  C   UNL A   1      40.217  26.626  28.022  1.00  0.00    -0.014 A 
BRANCH  12  13
ATOM     13  C   UNL A   1      40.524  27.915  28.692  1.00  0.00     0.031 A 
ATOM     14  C   UNL A   1      41.880  28.130  29.307  1.00  0.00     0.074 A 
ATOM     15  C   UNL A   1      39.584  28.874  28.785  1.00  0.00     0.049 A 
ATOM     16  N   UNL A   1      42.315  29.140  30.015  1.00  0.00    -0.248 NA
ATOM     17  C   UNL A   1      42.872  27.057  29.119  1.00  0.00     0.031 C 
ATOM     18  C   UNL A   1      38.232  28.792  28.233  1.00  0.00     0.029 A 
ATOM     19  N   UNL A   1      39.625  30.110  29.385  1.00  0.00    -0.354 N 
ATOM     20  C   UNL A   1      43.618  28.816  30.372  1.00  0.00     0.074 A 
ATOM     21  C   UNL A   1      43.890  27.497  29.844  1.00  0.00     0.031 C 
ATOM     22  C   UNL A   1      37.581  29.938  28.495  1.00  0.00     0.029 A 
ATOM     23  C   UNL A   1      38.451  30.816  29.273  1.00  0.00     0.049 A 
ATOM     24  H   UNL A   1      40.419  30.456  29.851  1.00  0.00     0.167 HD
ATOM     25  C   UNL A   1      44.516  29.558  31.059  1.00  0.00     0.031 A 
ATOM     26  C   UNL A   1      38.111  32.030  29.748  1.00  0.00     0.031 A 
ATOM     27  C   UNL A   1      44.258  30.880  31.559  1.00  0.00     0.049 A 
ATOM     28  C   UNL A   1      39.114  32.824  30.538  1.00  0.00     0.074 A 
ATOM     29  C   UNL A   1      45.124  31.728  32.227  1.00  0.00     0.029 A 
ATOM     30  N   UNL A   1      43.050  31.548  31.440  1.00  0.00    -0.354 N 
ATOM     31  N   UNL A   1      40.351  32.514  30.844  1.00  0.00    -0.248 NA
ATOM     32  C   UNL A   1      38.680  34.134  31.046  1.00  0.00     0.031 C 
ATOM     33  C   UNL A   1      44.425  32.890  32.557  1.00  0.00     0.029 A 
ATOM     34  C   UNL A   1      43.142  32.790  32.042  1.00  0.00     0.049 A 
ATOM     35  H   UNL A   1      42.248  31.193  30.993  1.00  0.00     0.167 HD
ATOM     36  C   UNL A   1      40.847  33.596  31.561  1.00  0.00     0.074 A 
ATOM     37  C   UNL A   1      39.784  34.575  31.636  1.00  0.00     0.031 C 
ATOM     38  C   UNL A   1      42.076  33.758  32.107  1.00  0.00     0.031 A 
BRANCH  25  39
ATOM     39  C   UNL A   1      45.875  28.965  31.310  1.00  0.00    -0.014 A 
ATOM     40  C   UNL A   1      46.896  29.133  30.361  1.00  0.00     0.009 A 
ATOM     41  C   UNL A   1      46.122  28.174  32.443  1.00  0.00     0.009 A 
ATOM     42  C   UNL A   1      48.135  28.515  30.537  1.00  0.00     0.001 A 
ATOM     43  C   UNL A   1      47.372  27.581  32.630  1.00  0.00     0.001 A 
ATOM     44  C   UNL A   1      48.374  27.744  31.674  1.00  0.00     0.000 A 
ENDBRANCH  25  39
BRANCH  26  45
ATOM     45  C   UNL A   1      36.758  32.574  29.462  1.00  0.00    -0.014 A 
ATOM     46  C   UNL A   1      35.701  32.384  30.369  1.00  0.00     0.009 A 
ATOM     47  C   UNL A   1      36.504  33.248  28.258  1.00  0.00     0.009 A 
ATOM     48  C   UNL A   1      34.415  32.839  30.064  1.00  0.00     0.001 A 
ATOM     49  C   UNL A   1      35.224  33.726  27.970  1.00  0.00     0.001 A 
ATOM     50  C   UNL A   1      34.178  33.512  28.868  1.00  0.00     0.000 A 
ENDBRANCH  26  45
BRANCH  38  51
ATOM     51  C   UNL A   1      42.368  35.044  32.827  1.00  0.00    -0.014 A 
ATOM     52  C   UNL A   1      43.160  36.024  32.207  1.00  0.00     0.009 A 
ATOM     53  C   UNL A   1      41.973  35.230  34.160  1.00  0.00     0.009 A 
ATOM     54  C   UNL A   1      43.570  37.155  32.914  1.00  0.00     0.001 A 
ATOM     55  C   UNL A   1      42.363  36.375  34.857  1.00  0.00     0.001 A 
ATOM     56  C   UNL A   1      43.170  37.329  34.238  1.00  0.00     0.000 A 
ENDBRANCH  38  51
ENDBRANCH  12  13
ENDBRANCH   5   7
ENDBRANCH   2   3
ENDBRANCH   1   2
BRANCH   1  57
ATOM     57  C   UNL A   1      35.018  24.515  25.745  1.00  0.00     0.023 C 
BRANCH  57  58
ATOM     58  C   UNL A   1      33.935  24.633  24.676  1.00  0.00     0.116 C 
BRANCH  58  59
ATOM     59  N   UNL A   1      32.598  24.691  25.245  1.00  0.00    -0.352 N 
ATOM     60  C   UNL A   1      31.582  23.786  25.172  1.00  0.00     0.251 C 
ATOM     61  H   UNL A   1      32.398  25.503  25.761  1.00  0.00     0.163 HD
ATOM     62  O   UNL A   1      30.478  24.056  25.641  1.00  0.00    -0.269 OA
BRANCH  60  63
ATOM     63  C   UNL A   1      31.832  22.481  24.503  1.00  0.00     0.042 A 
ATOM     64  C   UNL A   1      31.827  22.376  23.051  1.00  0.00     0.016 A 
ATOM     65  C   UNL A   1      32.093  21.444  25.317  1.00  0.00     0.044 A 
ATOM     66  C   UNL A   1      32.001  21.218  22.401  1.00  0.00     0.031 A 
ATOM     67  C   UNL A   1      32.314  20.141  24.685  1.00  0.00     0.087 A 
ATOM     68  C   UNL A   1      32.256  20.027  23.213  1.00  0.00     0.086 A 
ATOM     69  N   UNL A   1      32.534  19.005  25.252  1.00  0.00    -0.247 NA
ATOM     70  N   UNL A   1      32.436  18.821  22.806  1.00  0.00    -0.247 NA
ATOM     71  C   UNL A   1      32.696  18.068  24.081  1.00  0.00     0.326 C 
BRANCH  71  72
ATOM     72  C   UNL A   1      34.096  17.384  24.069  1.00  0.00     0.431 C 
ATOM     73  F   UNL A   1      34.147  16.347  24.939  1.00  0.00    -0.167 F 
ATOM     74  F   UNL A   1      34.398  16.888  22.845  1.00  0.00    -0.167 F 
ATOM     75  F   UNL A   1      35.081  18.252  24.404  1.00  0.00    -0.167 F 
ENDBRANCH  71  72
ENDBRANCH  60  63
ENDBRANCH  58  59
ENDBRANCH  57  58
ENDBRANCH   1  57
TORSDOF 12
ENDMDL
