MODEL 1
REMARK VINA RESULT:     -10.5      0.000      0.000
REMARK SMILES CC(C)C[C@H](CNC(=O)Nc1ccccc1Br)C(=O)NCCCCNC(=O)c1ccc(-c2c3nc(c(-c4ccccc4)c4ccc([nH]4)c(-c4ccccc4)c4nc(c(-c5ccccc5)c5ccc2[nH]5)C=C4)C=C3)cc1
REMARK SMILES IDX 22 1 21 2 20 3 18 4 19 5 5 7 4 8 2 9 1 10 3 11 6 12 7 13
REMARK SMILES IDX 8 14 9 16 10 17 11 19 12 20 16 21 13 22 15 23 17 24 14 25
REMARK SMILES IDX 23 26 24 27 25 28 26 29 27 31 28 32 29 33 75 34 30 35 74 36
REMARK SMILES IDX 31 37 32 38 33 39 68 40 34 41 73 42 67 43 69 44 35 45 72 46
REMARK SMILES IDX 66 47 65 48 36 50 58 51 43 52 57 53 44 54 47 55 56 56 70 57
REMARK SMILES IDX 45 58 46 59 55 61 71 62 48 63 37 64 38 65 42 66 39 67 41 68
REMARK SMILES IDX 40 69 59 70 60 71 64 72 61 73 63 74 62 75 49 76 50 77 54 78
REMARK SMILES IDX 51 79 53 80 52 81
REMARK H PARENT 20 6 7 15 10 18 25 30 69 49 47 60
REMARK Flexibility Score: inf
ROOT
ATOM      1  C   UNL A   1      38.880  22.700  26.166  1.00  0.00     0.023 C 
ENDROOT
BRANCH   1   2
ATOM      2  C   UNL A   1      37.659  23.509  25.748  1.00  0.00     0.116 C 
BRANCH   2   3
ATOM      3  N   UNL A   1      37.415  23.403  24.328  1.00  0.00    -0.356 N 
ATOM      4  C   UNL A   1      36.254  23.210  23.654  1.00  0.00     0.224 C 
ATOM      5  O   UNL A   1      36.324  23.064  22.431  1.00  0.00    -0.275 OA
ATOM      6  H   UNL A   1      38.217  23.480  23.761  1.00  0.00     0.163 HD
BRANCH   4   7
ATOM      7  C   UNL A   1      34.905  23.165  24.363  1.00  0.00     0.098 C 
BRANCH   7   8
ATOM      8  C   UNL A   1      34.081  21.884  24.156  1.00  0.00     0.018 C 
BRANCH   8   9
ATOM      9  C   UNL A   1      34.280  20.816  25.253  1.00  0.00    -0.017 C 
ATOM     10  C   UNL A   1      35.529  19.966  25.021  1.00  0.00     0.007 C 
ATOM     11  C   UNL A   1      34.351  21.485  26.626  1.00  0.00     0.007 C 
ENDBRANCH   8   9
ENDBRANCH   7   8
BRANCH   7  12
ATOM     12  C   UNL A   1      34.169  24.504  24.201  1.00  0.00     0.131 C 
BRANCH  12  13
ATOM     13  N   UNL A   1      33.990  25.025  22.849  1.00  0.00    -0.337 N 
ATOM     14  C   UNL A   1      32.919  25.106  22.029  1.00  0.00     0.319 C 
ATOM     15  H   UNL A   1      34.815  25.392  22.457  1.00  0.00     0.165 HD
ATOM     16  O   UNL A   1      33.120  25.435  20.858  1.00  0.00    -0.249 OA
ATOM     17  N   UNL A   1      31.675  24.737  22.410  1.00  0.00    -0.307 N 
ATOM     18  H   UNL A   1      31.053  24.545  21.671  1.00  0.00     0.171 HD
BRANCH  17  19
ATOM     19  C   UNL A   1      31.136  24.587  23.694  1.00  0.00     0.057 A 
ATOM     20  C   UNL A   1      31.044  23.274  24.170  1.00  0.00     0.027 A 
ATOM     21  C   UNL A   1      30.804  25.659  24.541  1.00  0.00     0.041 A 
ATOM     22  C   UNL A   1      30.771  23.040  25.518  1.00  0.00     0.002 A 
ATOM     23  C   UNL A   1      30.513  25.415  25.885  1.00  0.00     0.018 A 
ATOM     24  Br  UNL A   1      30.677  27.452  23.924  1.00  0.00    -0.049 Br
ATOM     25  C   UNL A   1      30.530  24.110  26.379  1.00  0.00     0.001 A 
ENDBRANCH  17  19
ENDBRANCH  12  13
ENDBRANCH   7  12
ENDBRANCH   4   7
ENDBRANCH   2   3
ENDBRANCH   1   2
BRANCH   1  26
ATOM     26  C   UNL A   1      38.900  21.273  25.617  1.00  0.00     0.023 C 
BRANCH  26  27
ATOM     27  C   UNL A   1      39.490  20.233  26.562  1.00  0.00     0.116 C 
BRANCH  27  28
ATOM     28  N   UNL A   1      40.577  19.467  25.972  1.00  0.00    -0.352 N 
ATOM     29  C   UNL A   1      41.897  19.829  25.843  1.00  0.00     0.251 C 
ATOM     30  H   UNL A   1      40.338  18.579  25.619  1.00  0.00     0.163 HD
ATOM     31  O   UNL A   1      42.688  19.125  25.232  1.00  0.00    -0.269 OA
BRANCH  29  32
ATOM     32  C   UNL A   1      42.333  21.114  26.421  1.00  0.00     0.039 A 
ATOM     33  C   UNL A   1      42.669  22.159  25.560  1.00  0.00     0.014 A 
ATOM     34  C   UNL A   1      42.340  21.297  27.806  1.00  0.00     0.014 A 
ATOM     35  C   UNL A   1      42.950  23.419  26.090  1.00  0.00     0.010 A 
ATOM     36  C   UNL A   1      42.552  22.567  28.328  1.00  0.00     0.010 A 
ATOM     37  C   UNL A   1      42.856  23.639  27.474  1.00  0.00    -0.014 A 
BRANCH  37  38
ATOM     38  C   UNL A   1      43.073  24.987  28.051  1.00  0.00     0.031 A 
ATOM     39  C   UNL A   1      44.442  25.391  28.519  1.00  0.00     0.074 A 
ATOM     40  C   UNL A   1      42.027  25.819  28.214  1.00  0.00     0.049 A 
ATOM     41  N   UNL A   1      44.819  26.499  29.106  1.00  0.00    -0.248 NA
ATOM     42  C   UNL A   1      45.524  24.411  28.331  1.00  0.00     0.031 C 
ATOM     43  C   UNL A   1      40.642  25.525  27.842  1.00  0.00     0.029 A 
ATOM     44  N   UNL A   1      41.967  27.082  28.745  1.00  0.00    -0.354 N 
ATOM     45  C   UNL A   1      46.173  26.341  29.368  1.00  0.00     0.074 A 
ATOM     46  C   UNL A   1      46.541  25.014  28.926  1.00  0.00     0.031 C 
ATOM     47  C   UNL A   1      39.873  26.587  28.133  1.00  0.00     0.029 A 
ATOM     48  C   UNL A   1      40.704  27.620  28.744  1.00  0.00     0.049 A 
ATOM     49  H   UNL A   1      42.755  27.558  29.094  1.00  0.00     0.167 HD
ATOM     50  C   UNL A   1      47.040  27.230  29.910  1.00  0.00     0.031 A 
ATOM     51  C   UNL A   1      40.263  28.812  29.189  1.00  0.00     0.031 A 
ATOM     52  C   UNL A   1      46.678  28.553  30.337  1.00  0.00     0.049 A 
ATOM     53  C   UNL A   1      41.244  29.780  29.787  1.00  0.00     0.074 A 
ATOM     54  C   UNL A   1      47.494  29.547  30.849  1.00  0.00     0.029 A 
ATOM     55  N   UNL A   1      45.391  29.067  30.303  1.00  0.00    -0.354 N 
ATOM     56  N   UNL A   1      42.535  29.641  29.968  1.00  0.00    -0.248 NA
ATOM     57  C   UNL A   1      40.707  31.075  30.230  1.00  0.00     0.031 C 
ATOM     58  C   UNL A   1      46.691  30.650  31.163  1.00  0.00     0.029 A 
ATOM     59  C   UNL A   1      45.386  30.358  30.801  1.00  0.00     0.049 A 
ATOM     60  H   UNL A   1      44.599  28.584  29.973  1.00  0.00     0.167 HD
ATOM     61  C   UNL A   1      42.969  30.839  30.522  1.00  0.00     0.074 A 
ATOM     62  C   UNL A   1      41.807  31.697  30.632  1.00  0.00     0.031 C 
ATOM     63  C   UNL A   1      44.219  31.196  30.904  1.00  0.00     0.031 A 
BRANCH  50  64
ATOM     64  C   UNL A   1      48.468  26.787  30.070  1.00  0.00    -0.014 A 
ATOM     65  C   UNL A   1      49.428  27.067  29.084  1.00  0.00     0.009 A 
ATOM     66  C   UNL A   1      48.862  26.100  31.227  1.00  0.00     0.009 A 
ATOM     67  C   UNL A   1      50.746  26.632  29.238  1.00  0.00     0.001 A 
ATOM     68  C   UNL A   1      50.188  25.692  31.391  1.00  0.00     0.001 A 
ATOM     69  C   UNL A   1      51.125  25.950  30.393  1.00  0.00     0.000 A 
ENDBRANCH  50  64
BRANCH  51  70
ATOM     70  C   UNL A   1      38.825  29.165  29.067  1.00  0.00    -0.014 A 
ATOM     71  C   UNL A   1      38.318  29.670  27.860  1.00  0.00     0.009 A 
ATOM     72  C   UNL A   1      37.954  29.002  30.155  1.00  0.00     0.009 A 
ATOM     73  C   UNL A   1      36.971  30.029  27.754  1.00  0.00     0.001 A 
ATOM     74  C   UNL A   1      36.603  29.335  30.037  1.00  0.00     0.001 A 
ATOM     75  C   UNL A   1      36.115  29.858  28.840  1.00  0.00     0.000 A 
ENDBRANCH  51  70
BRANCH  63  76
ATOM     76  C   UNL A   1      44.400  32.584  31.447  1.00  0.00    -0.014 A 
ATOM     77  C   UNL A   1      44.308  32.844  32.823  1.00  0.00     0.009 A 
ATOM     78  C   UNL A   1      44.706  33.638  30.572  1.00  0.00     0.009 A 
ATOM     79  C   UNL A   1      44.491  34.141  33.307  1.00  0.00     0.001 A 
ATOM     80  C   UNL A   1      44.914  34.926  31.063  1.00  0.00     0.001 A 
ATOM     81  C   UNL A   1      44.798  35.179  32.429  1.00  0.00     0.000 A 
ENDBRANCH  63  76
ENDBRANCH  37  38
ENDBRANCH  29  32
ENDBRANCH  27  28
ENDBRANCH  26  27
ENDBRANCH   1  26
TORSDOF 16
ENDMDL
MODEL 2
REMARK VINA RESULT:     -10.5      1.637      6.295
REMARK SMILES CC(C)C[C@H](CNC(=O)Nc1ccccc1Br)C(=O)NCCCCNC(=O)c1ccc(-c2c3nc(c(-c4ccccc4)c4ccc([nH]4)c(-c4ccccc4)c4nc(c(-c5ccccc5)c5ccc2[nH]5)C=C4)C=C3)cc1
REMARK SMILES IDX 22 1 21 2 20 3 18 4 19 5 5 7 4 8 2 9 1 10 3 11 6 12 7 13
REMARK SMILES IDX 8 14 9 16 10 17 11 19 12 20 16 21 13 22 15 23 17 24 14 25
REMARK SMILES IDX 23 26 24 27 25 28 26 29 27 31 28 32 29 33 75 34 30 35 74 36
REMARK SMILES IDX 31 37 32 38 33 39 68 40 34 41 73 42 67 43 69 44 35 45 72 46
REMARK SMILES IDX 66 47 65 48 36 50 58 51 43 52 57 53 44 54 47 55 56 56 70 57
REMARK SMILES IDX 45 58 46 59 55 61 71 62 48 63 37 64 38 65 42 66 39 67 41 68
REMARK SMILES IDX 40 69 59 70 60 71 64 72 61 73 63 74 62 75 49 76 50 77 54 78
REMARK SMILES IDX 51 79 53 80 52 81
REMARK H PARENT 20 6 7 15 10 18 25 30 69 49 47 60
REMARK Flexibility Score: inf
ROOT
ATOM      1  C   UNL A   1      35.971  20.963  25.277  1.00  0.00     0.023 C 
ENDROOT
BRANCH   1   2
ATOM      2  C   UNL A   1      35.353  22.349  25.411  1.00  0.00     0.116 C 
BRANCH   2   3
ATOM      3  N   UNL A   1      35.007  22.900  24.121  1.00  0.00    -0.356 N 
ATOM      4  C   UNL A   1      33.861  22.789  23.403  1.00  0.00     0.224 C 
ATOM      5  O   UNL A   1      33.847  23.286  22.275  1.00  0.00    -0.275 OA
ATOM      6  H   UNL A   1      35.713  23.439  23.696  1.00  0.00     0.163 HD
BRANCH   4   7
ATOM      7  C   UNL A   1      32.631  22.074  23.950  1.00  0.00     0.098 C 
BRANCH   7   8
ATOM      8  C   UNL A   1      32.200  20.807  23.195  1.00  0.00     0.018 C 
BRANCH   8   9
ATOM      9  C   UNL A   1      32.874  19.510  23.692  1.00  0.00    -0.017 C 
ATOM     10  C   UNL A   1      32.648  19.270  25.185  1.00  0.00     0.007 C 
ATOM     11  C   UNL A   1      32.363  18.314  22.887  1.00  0.00     0.007 C 
ENDBRANCH   8   9
ENDBRANCH   7   8
BRANCH   7  12
ATOM     12  C   UNL A   1      31.530  23.090  24.295  1.00  0.00     0.131 C 
BRANCH  12  13
ATOM     13  N   UNL A   1      30.768  22.880  25.522  1.00  0.00    -0.337 N 
ATOM     14  C   UNL A   1      30.307  23.722  26.474  1.00  0.00     0.319 C 
ATOM     15  H   UNL A   1      30.544  21.936  25.690  1.00  0.00     0.165 HD
ATOM     16  O   UNL A   1      29.847  23.224  27.503  1.00  0.00    -0.249 OA
ATOM     17  N   UNL A   1      30.434  25.066  26.386  1.00  0.00    -0.307 N 
ATOM     18  H   UNL A   1      30.353  25.549  27.240  1.00  0.00     0.171 HD
BRANCH  17  19
ATOM     19  C   UNL A   1      30.662  25.876  25.266  1.00  0.00     0.057 A 
ATOM     20  C   UNL A   1      29.536  26.177  24.489  1.00  0.00     0.027 A 
ATOM     21  C   UNL A   1      31.897  26.475  24.963  1.00  0.00     0.041 A 
ATOM     22  C   UNL A   1      29.608  27.177  23.519  1.00  0.00     0.002 A 
ATOM     23  C   UNL A   1      31.965  27.462  23.976  1.00  0.00     0.018 A 
ATOM     24  Br  UNL A   1      33.520  25.961  25.808  1.00  0.00    -0.049 Br
ATOM     25  C   UNL A   1      30.814  27.834  23.280  1.00  0.00     0.001 A 
ENDBRANCH  17  19
ENDBRANCH  12  13
ENDBRANCH   7  12
ENDBRANCH   4   7
ENDBRANCH   2   3
ENDBRANCH   1   2
BRANCH   1  26
ATOM     26  C   UNL A   1      37.371  20.961  24.661  1.00  0.00     0.023 C 
BRANCH  26  27
ATOM     27  C   UNL A   1      38.511  21.056  25.667  1.00  0.00     0.116 C 
BRANCH  27  28
ATOM     28  N   UNL A   1      39.419  19.919  25.620  1.00  0.00    -0.352 N 
ATOM     29  C   UNL A   1      40.741  19.874  25.990  1.00  0.00     0.251 C 
ATOM     30  H   UNL A   1      39.038  19.078  25.279  1.00  0.00     0.163 HD
ATOM     31  O   UNL A   1      41.416  18.872  25.803  1.00  0.00    -0.269 OA
BRANCH  29  32
ATOM     32  C   UNL A   1      41.347  21.082  26.582  1.00  0.00     0.039 A 
ATOM     33  C   UNL A   1      41.911  22.036  25.734  1.00  0.00     0.014 A 
ATOM     34  C   UNL A   1      41.291  21.295  27.962  1.00  0.00     0.014 A 
ATOM     35  C   UNL A   1      42.363  23.243  26.267  1.00  0.00     0.010 A 
ATOM     36  C   UNL A   1      41.677  22.524  28.481  1.00  0.00     0.010 A 
ATOM     37  C   UNL A   1      42.214  23.510  27.638  1.00  0.00    -0.014 A 
BRANCH  37  38
ATOM     38  C   UNL A   1      42.615  24.816  28.211  1.00  0.00     0.031 A 
ATOM     39  C   UNL A   1      41.587  25.891  28.419  1.00  0.00     0.074 A 
ATOM     40  C   UNL A   1      43.913  25.056  28.481  1.00  0.00     0.049 A 
ATOM     41  N   UNL A   1      41.750  27.117  28.849  1.00  0.00    -0.248 NA
ATOM     42  C   UNL A   1      40.197  25.556  28.070  1.00  0.00     0.031 C 
ATOM     43  C   UNL A   1      45.012  24.110  28.280  1.00  0.00     0.029 A 
ATOM     44  N   UNL A   1      44.526  26.178  28.976  1.00  0.00    -0.354 N 
ATOM     45  C   UNL A   1      40.491  27.699  28.807  1.00  0.00     0.074 A 
ATOM     46  C   UNL A   1      39.584  26.713  28.262  1.00  0.00     0.031 C 
ATOM     47  C   UNL A   1      46.162  24.683  28.672  1.00  0.00     0.029 A 
ATOM     48  C   UNL A   1      45.886  26.045  29.117  1.00  0.00     0.049 A 
ATOM     49  H   UNL A   1      44.040  27.001  29.209  1.00  0.00     0.167 HD
ATOM     50  C   UNL A   1      40.117  28.938  29.207  1.00  0.00     0.031 A 
ATOM     51  C   UNL A   1      46.809  26.923  29.552  1.00  0.00     0.031 A 
ATOM     52  C   UNL A   1      41.016  29.914  29.760  1.00  0.00     0.049 A 
ATOM     53  C   UNL A   1      46.369  28.292  29.989  1.00  0.00     0.074 A 
ATOM     54  C   UNL A   1      40.725  31.177  30.244  1.00  0.00     0.029 A 
ATOM     55  N   UNL A   1      42.383  29.733  29.902  1.00  0.00    -0.354 N 
ATOM     56  N   UNL A   1      45.163  28.806  30.006  1.00  0.00    -0.248 NA
ATOM     57  C   UNL A   1      47.419  29.197  30.480  1.00  0.00     0.031 C 
ATOM     58  C   UNL A   1      41.925  31.777  30.642  1.00  0.00     0.029 A 
ATOM     59  C   UNL A   1      42.953  30.869  30.450  1.00  0.00     0.049 A 
ATOM     60  H   UNL A   1      42.875  28.918  29.651  1.00  0.00     0.167 HD
ATOM     61  C   UNL A   1      45.304  30.084  30.531  1.00  0.00     0.074 A 
ATOM     62  C   UNL A   1      46.710  30.260  30.834  1.00  0.00     0.031 C 
ATOM     63  C   UNL A   1      44.355  31.027  30.744  1.00  0.00     0.031 A 
BRANCH  50  64
ATOM     64  C   UNL A   1      38.667  29.302  29.053  1.00  0.00    -0.014 A 
ATOM     65  C   UNL A   1      37.775  29.199  30.132  1.00  0.00     0.009 A 
ATOM     66  C   UNL A   1      38.190  29.771  27.820  1.00  0.00     0.009 A 
ATOM     67  C   UNL A   1      36.426  29.522  29.968  1.00  0.00     0.001 A 
ATOM     68  C   UNL A   1      36.847  30.121  27.667  1.00  0.00     0.001 A 
ATOM     69  C   UNL A   1      35.965  29.986  28.738  1.00  0.00     0.000 A 
ENDBRANCH  50  64
BRANCH  51  70
ATOM     70  C   UNL A   1      48.239  26.529  29.616  1.00  0.00    -0.014 A 
ATOM     71  C   UNL A   1      48.747  25.880  30.752  1.00  0.00     0.009 A 
ATOM     72  C   UNL A   1      49.104  26.799  28.545  1.00  0.00     0.009 A 
ATOM     73  C   UNL A   1      50.099  25.534  30.824  1.00  0.00     0.001 A 
ATOM     74  C   UNL A   1      50.449  26.427  28.608  1.00  0.00     0.001 A 
ATOM     75  C   UNL A   1      50.947  25.804  29.751  1.00  0.00     0.000 A 
ENDBRANCH  51  70
BRANCH  63  76
ATOM     76  C   UNL A   1      44.799  32.321  31.362  1.00  0.00    -0.014 A 
ATOM     77  C   UNL A   1      44.844  32.484  32.755  1.00  0.00     0.009 A 
ATOM     78  C   UNL A   1      45.218  33.376  30.537  1.00  0.00     0.009 A 
ATOM     79  C   UNL A   1      45.272  33.692  33.308  1.00  0.00     0.001 A 
ATOM     80  C   UNL A   1      45.670  34.572  31.094  1.00  0.00     0.001 A 
ATOM     81  C   UNL A   1      45.689  34.732  32.479  1.00  0.00     0.000 A 
ENDBRANCH  63  76
ENDBRANCH  37  38
ENDBRANCH  29  32
ENDBRANCH  27  28
ENDBRANCH  26  27
ENDBRANCH   1  26
TORSDOF 16
ENDMDL
MODEL 3
REMARK VINA RESULT:     -10.5      3.632      8.730
REMARK SMILES CC(C)C[C@H](CNC(=O)Nc1ccccc1Br)C(=O)NCCCCNC(=O)c1ccc(-c2c3nc(c(-c4ccccc4)c4ccc([nH]4)c(-c4ccccc4)c4nc(c(-c5ccccc5)c5ccc2[nH]5)C=C4)C=C3)cc1
REMARK SMILES IDX 22 1 21 2 20 3 18 4 19 5 5 7 4 8 2 9 1 10 3 11 6 12 7 13
REMARK SMILES IDX 8 14 9 16 10 17 11 19 12 20 16 21 13 22 15 23 17 24 14 25
REMARK SMILES IDX 23 26 24 27 25 28 26 29 27 31 28 32 29 33 75 34 30 35 74 36
REMARK SMILES IDX 31 37 32 38 33 39 68 40 34 41 73 42 67 43 69 44 35 45 72 46
REMARK SMILES IDX 66 47 65 48 36 50 58 51 43 52 57 53 44 54 47 55 56 56 70 57
REMARK SMILES IDX 45 58 46 59 55 61 71 62 48 63 37 64 38 65 42 66 39 67 41 68
REMARK SMILES IDX 40 69 59 70 60 71 64 72 61 73 63 74 62 75 49 76 50 77 54 78
REMARK SMILES IDX 51 79 53 80 52 81
REMARK H PARENT 20 6 7 15 10 18 25 30 69 49 47 60
REMARK Flexibility Score: inf
ROOT
ATOM      1  C   UNL A   1      34.462  30.820  27.698  1.00  0.00     0.023 C 
ENDROOT
BRANCH   1   2
ATOM      2  C   UNL A   1      34.243  29.373  27.275  1.00  0.00     0.116 C 
BRANCH   2   3
ATOM      3  N   UNL A   1      33.041  28.827  27.862  1.00  0.00    -0.356 N 
ATOM      4  C   UNL A   1      32.066  28.066  27.305  1.00  0.00     0.224 C 
ATOM      5  O   UNL A   1      31.086  27.798  28.003  1.00  0.00    -0.275 OA
ATOM      6  H   UNL A   1      32.908  29.041  28.814  1.00  0.00     0.163 HD
BRANCH   4   7
ATOM      7  C   UNL A   1      32.157  27.558  25.870  1.00  0.00     0.098 C 
BRANCH   7   8
ATOM      8  C   UNL A   1      31.034  28.013  24.925  1.00  0.00     0.018 C 
BRANCH   8   9
ATOM      9  C   UNL A   1      30.697  27.004  23.807  1.00  0.00    -0.017 C 
ATOM     10  C   UNL A   1      29.330  26.348  24.004  1.00  0.00     0.007 C 
ATOM     11  C   UNL A   1      30.752  27.697  22.445  1.00  0.00     0.007 C 
ENDBRANCH   8   9
ENDBRANCH   7   8
BRANCH   7  12
ATOM     12  C   UNL A   1      32.524  26.066  25.852  1.00  0.00     0.131 C 
BRANCH  12  13
ATOM     13  N   UNL A   1      31.724  25.156  26.665  1.00  0.00    -0.337 N 
ATOM     14  C   UNL A   1      31.688  23.809  26.772  1.00  0.00     0.319 C 
ATOM     15  H   UNL A   1      31.081  25.615  27.252  1.00  0.00     0.165 HD
ATOM     16  O   UNL A   1      30.764  23.312  27.419  1.00  0.00    -0.249 OA
ATOM     17  N   UNL A   1      32.548  22.999  26.114  1.00  0.00    -0.307 N 
ATOM     18  H   UNL A   1      32.250  22.065  26.016  1.00  0.00     0.171 HD
BRANCH  17  19
ATOM     19  C   UNL A   1      33.800  23.283  25.552  1.00  0.00     0.057 A 
ATOM     20  C   UNL A   1      34.873  23.347  26.448  1.00  0.00     0.027 A 
ATOM     21  C   UNL A   1      34.039  23.386  24.170  1.00  0.00     0.041 A 
ATOM     22  C   UNL A   1      36.182  23.362  25.966  1.00  0.00     0.002 A 
ATOM     23  C   UNL A   1      35.353  23.420  23.696  1.00  0.00     0.018 A 
ATOM     24  Br  UNL A   1      32.639  23.539  22.895  1.00  0.00    -0.049 Br
ATOM     25  C   UNL A   1      36.422  23.374  24.593  1.00  0.00     0.001 A 
ENDBRANCH  17  19
ENDBRANCH  12  13
ENDBRANCH   7  12
ENDBRANCH   4   7
ENDBRANCH   2   3
ENDBRANCH   1   2
BRANCH   1  26
ATOM     26  C   UNL A   1      33.183  31.657  27.742  1.00  0.00     0.023 C 
BRANCH  26  27
ATOM     27  C   UNL A   1      33.331  33.078  27.211  1.00  0.00     0.116 C 
BRANCH  27  28
ATOM     28  N   UNL A   1      32.769  34.086  28.096  1.00  0.00    -0.352 N 
ATOM     29  C   UNL A   1      33.279  34.552  29.284  1.00  0.00     0.251 C 
ATOM     30  H   UNL A   1      31.915  34.485  27.809  1.00  0.00     0.163 HD
ATOM     31  O   UNL A   1      32.648  35.334  29.980  1.00  0.00    -0.269 OA
BRANCH  29  32
ATOM     32  C   UNL A   1      34.594  34.050  29.729  1.00  0.00     0.039 A 
ATOM     33  C   UNL A   1      34.650  33.195  30.830  1.00  0.00     0.014 A 
ATOM     34  C   UNL A   1      35.749  34.373  29.014  1.00  0.00     0.014 A 
ATOM     35  C   UNL A   1      35.865  32.605  31.177  1.00  0.00     0.010 A 
ATOM     36  C   UNL A   1      36.944  33.732  29.317  1.00  0.00     0.010 A 
ATOM     37  C   UNL A   1      37.011  32.841  30.400  1.00  0.00    -0.014 A 
BRANCH  37  38
ATOM     38  C   UNL A   1      38.294  32.163  30.703  1.00  0.00     0.031 A 
ATOM     39  C   UNL A   1      39.281  32.807  31.634  1.00  0.00     0.074 A 
ATOM     40  C   UNL A   1      38.597  31.003  30.089  1.00  0.00     0.049 A 
ATOM     41  N   UNL A   1      40.479  32.403  31.975  1.00  0.00    -0.248 NA
ATOM     42  C   UNL A   1      38.883  34.088  32.239  1.00  0.00     0.031 C 
ATOM     43  C   UNL A   1      37.742  30.301  29.130  1.00  0.00     0.029 A 
ATOM     44  N   UNL A   1      39.716  30.215  30.177  1.00  0.00    -0.354 N 
ATOM     45  C   UNL A   1      40.979  33.385  32.818  1.00  0.00     0.074 A 
ATOM     46  C   UNL A   1      39.980  34.428  32.897  1.00  0.00     0.031 C 
ATOM     47  C   UNL A   1      38.357  29.173  28.737  1.00  0.00     0.029 A 
ATOM     48  C   UNL A   1      39.661  29.092  29.387  1.00  0.00     0.049 A 
ATOM     49  H   UNL A   1      40.485  30.432  30.750  1.00  0.00     0.167 HD
ATOM     50  C   UNL A   1      42.157  33.408  33.486  1.00  0.00     0.031 A 
ATOM     51  C   UNL A   1      40.562  28.109  29.205  1.00  0.00     0.031 A 
ATOM     52  C   UNL A   1      43.145  32.366  33.418  1.00  0.00     0.049 A 
ATOM     53  C   UNL A   1      41.862  28.158  29.956  1.00  0.00     0.074 A 
ATOM     54  C   UNL A   1      44.347  32.271  34.098  1.00  0.00     0.029 A 
ATOM     55  N   UNL A   1      43.043  31.237  32.621  1.00  0.00    -0.354 N 
ATOM     56  N   UNL A   1      42.294  29.061  30.802  1.00  0.00    -0.248 NA
ATOM     57  C   UNL A   1      42.794  27.042  29.736  1.00  0.00     0.031 C 
ATOM     58  C   UNL A   1      44.992  31.102  33.680  1.00  0.00     0.029 A 
ATOM     59  C   UNL A   1      44.169  30.447  32.777  1.00  0.00     0.049 A 
ATOM     60  H   UNL A   1      42.283  31.028  32.031  1.00  0.00     0.167 HD
ATOM     61  C   UNL A   1      43.535  28.612  31.235  1.00  0.00     0.074 A 
ATOM     62  C   UNL A   1      43.779  27.348  30.570  1.00  0.00     0.031 C 
ATOM     63  C   UNL A   1      44.395  29.193  32.106  1.00  0.00     0.031 A 
BRANCH  50  64
ATOM     64  C   UNL A   1      42.436  34.608  34.347  1.00  0.00    -0.014 A 
ATOM     65  C   UNL A   1      43.053  35.753  33.818  1.00  0.00     0.009 A 
ATOM     66  C   UNL A   1      42.060  34.603  35.698  1.00  0.00     0.009 A 
ATOM     67  C   UNL A   1      43.324  36.853  34.634  1.00  0.00     0.001 A 
ATOM     68  C   UNL A   1      42.305  35.716  36.506  1.00  0.00     0.001 A 
ATOM     69  C   UNL A   1      42.945  36.835  35.976  1.00  0.00     0.000 A 
ENDBRANCH  50  64
BRANCH  51  70
ATOM     70  C   UNL A   1      40.258  26.983  28.286  1.00  0.00    -0.014 A 
ATOM     71  C   UNL A   1      39.459  25.912  28.715  1.00  0.00     0.009 A 
ATOM     72  C   UNL A   1      40.765  26.970  26.978  1.00  0.00     0.009 A 
ATOM     73  C   UNL A   1      39.195  24.838  27.859  1.00  0.00     0.001 A 
ATOM     74  C   UNL A   1      40.477  25.909  26.116  1.00  0.00     0.001 A 
ATOM     75  C   UNL A   1      39.701  24.840  26.561  1.00  0.00     0.000 A 
ENDBRANCH  51  70
BRANCH  63  76
ATOM     76  C   UNL A   1      45.665  28.453  32.413  1.00  0.00    -0.014 A 
ATOM     77  C   UNL A   1      45.724  27.508  33.449  1.00  0.00     0.009 A 
ATOM     78  C   UNL A   1      46.806  28.676  31.626  1.00  0.00     0.009 A 
ATOM     79  C   UNL A   1      46.912  26.823  33.709  1.00  0.00     0.001 A 
ATOM     80  C   UNL A   1      47.983  27.970  31.873  1.00  0.00     0.001 A 
ATOM     81  C   UNL A   1      48.038  27.051  32.919  1.00  0.00     0.000 A 
ENDBRANCH  63  76
ENDBRANCH  37  38
ENDBRANCH  29  32
ENDBRANCH  27  28
ENDBRANCH  26  27
ENDBRANCH   1  26
TORSDOF 16
ENDMDL
