MODEL 1
REMARK VINA RESULT:     -11.7      0.000      0.000
REMARK SMILES O=C(Cn1cc(NC(=O)N2CC[N@H+]3CCC[C@@H]3C2)cn1)NCCCCNC(=O)c1ccc(-c2c3nc(c(-c4ccccc4)c4ccc([nH]4)c(-c4ccccc4)c4nc(c(-c5ccccc5)c5ccc2[nH]5)C=C4)C=C3)cc1
REMARK SMILES IDX 23 1 22 2 21 3 1 4 2 5 3 7 4 8 5 9 20 10 6 11 19 12 7 13
REMARK SMILES IDX 8 14 9 16 10 17 11 18 18 19 12 20 17 21 13 22 16 23 14 24
REMARK SMILES IDX 15 26 24 27 25 28 26 29 27 30 28 32 29 33 30 34 76 35 31 36
REMARK SMILES IDX 75 37 32 38 33 39 34 40 69 41 35 42 74 43 68 44 70 45 36 46
REMARK SMILES IDX 73 47 67 48 66 49 37 51 59 52 44 53 58 54 45 55 48 56 57 57
REMARK SMILES IDX 71 58 46 59 47 60 56 62 72 63 49 64 38 65 39 66 43 67 40 68
REMARK SMILES IDX 42 69 41 70 60 71 61 72 65 73 62 74 64 75 63 76 50 77 51 78
REMARK SMILES IDX 55 79 52 80 54 81 53 82
REMARK H PARENT 21 6 7 15 13 25 26 31 70 50 48 61
REMARK Flexibility Score: inf
ROOT
ATOM      1  C   UNL A   1      41.379  19.961  27.634  1.00  0.00     0.023 C 
ENDROOT
BRANCH   1   2
ATOM      2  C   UNL A   1      40.987  21.222  26.855  1.00  0.00     0.116 C 
BRANCH   2   3
ATOM      3  N   UNL A   1      39.800  21.050  26.032  1.00  0.00    -0.354 N 
ATOM      4  O   UNL A   1      38.907  23.108  26.516  1.00  0.00    -0.273 OA
ATOM      5  C   UNL A   1      38.862  22.059  25.874  1.00  0.00     0.241 C 
ATOM      6  H   UNL A   1      39.658  20.191  25.572  1.00  0.00     0.163 HD
BRANCH   5   7
ATOM      7  C   UNL A   1      37.690  21.746  24.956  1.00  0.00     0.244 C 
BRANCH   7   8
ATOM      8  N   UNL A   1      36.473  22.467  25.285  1.00  0.00    -0.261 N 
ATOM      9  C   UNL A   1      35.482  22.063  26.146  1.00  0.00     0.135 A 
ATOM     10  N   UNL A   1      36.230  23.661  24.725  1.00  0.00    -0.179 NA
ATOM     11  C   UNL A   1      34.469  22.984  26.016  1.00  0.00     0.081 A 
ATOM     12  C   UNL A   1      35.021  23.984  25.180  1.00  0.00     0.161 A 
BRANCH  11  13
ATOM     13  N   UNL A   1      33.218  22.890  26.605  1.00  0.00    -0.305 N 
ATOM     14  C   UNL A   1      32.076  22.438  25.998  1.00  0.00     0.322 C 
ATOM     15  H   UNL A   1      33.143  23.174  27.545  1.00  0.00     0.171 HD
ATOM     16  O   UNL A   1      30.977  22.880  26.331  1.00  0.00    -0.248 OA
BRANCH  14  17
ATOM     17  N   UNL A   1      32.208  21.465  25.033  1.00  0.00    -0.313 N 
ATOM     18  C   UNL A   1      31.861  21.714  23.614  1.00  0.00     0.183 C 
ATOM     19  C   UNL A   1      32.572  20.111  25.475  1.00  0.00     0.186 C 
ATOM     20  C   UNL A   1      32.215  20.601  22.610  1.00  0.00     0.284 C 
ATOM     21  C   UNL A   1      33.080  19.259  24.330  1.00  0.00     0.204 C 
ATOM     22  N   UNL A   1      32.123  19.270  23.215  1.00  0.00    -0.330 N 
ATOM     23  C   UNL A   1      33.319  17.791  24.581  1.00  0.00     0.073 C 
ATOM     24  C   UNL A   1      32.525  18.172  22.337  1.00  0.00     0.262 C 
ATOM     25  H   UNL A   1      31.146  19.120  23.468  1.00  0.00     0.348 HD
ATOM     26  C   UNL A   1      33.468  17.285  23.154  1.00  0.00     0.068 C 
ENDBRANCH  14  17
ENDBRANCH  11  13
ENDBRANCH   7   8
ENDBRANCH   5   7
ENDBRANCH   2   3
ENDBRANCH   1   2
BRANCH   1  27
ATOM     27  C   UNL A   1      42.592  19.184  27.098  1.00  0.00     0.023 C 
BRANCH  27  28
ATOM     28  C   UNL A   1      42.607  18.954  25.588  1.00  0.00     0.116 C 
BRANCH  28  29
ATOM     29  N   UNL A   1      43.917  18.594  25.055  1.00  0.00    -0.352 N 
ATOM     30  C   UNL A   1      44.874  19.431  24.501  1.00  0.00     0.251 C 
ATOM     31  H   UNL A   1      44.150  17.637  25.095  1.00  0.00     0.163 HD
ATOM     32  O   UNL A   1      45.714  18.983  23.736  1.00  0.00    -0.269 OA
BRANCH  30  33
ATOM     33  C   UNL A   1      44.882  20.876  24.844  1.00  0.00     0.039 A 
ATOM     34  C   UNL A   1      43.990  21.773  24.242  1.00  0.00     0.014 A 
ATOM     35  C   UNL A   1      45.817  21.353  25.759  1.00  0.00     0.014 A 
ATOM     36  C   UNL A   1      43.974  23.116  24.649  1.00  0.00     0.010 A 
ATOM     37  C   UNL A   1      45.750  22.658  26.214  1.00  0.00     0.010 A 
ATOM     38  C   UNL A   1      44.835  23.553  25.670  1.00  0.00    -0.014 A 
BRANCH  38  39
ATOM     39  C   UNL A   1      44.600  24.797  26.425  1.00  0.00     0.031 A 
ATOM     40  C   UNL A   1      45.616  25.829  26.145  1.00  0.00     0.074 A 
ATOM     41  C   UNL A   1      43.527  25.082  27.201  1.00  0.00     0.049 A 
ATOM     42  N   UNL A   1      46.586  26.105  26.949  1.00  0.00    -0.248 NA
ATOM     43  C   UNL A   1      45.721  26.477  24.834  1.00  0.00     0.031 C 
ATOM     44  C   UNL A   1      42.548  24.122  27.704  1.00  0.00     0.029 A 
ATOM     45  N   UNL A   1      43.073  26.282  27.717  1.00  0.00    -0.354 N 
ATOM     46  C   UNL A   1      47.252  27.175  26.382  1.00  0.00     0.074 A 
ATOM     47  C   UNL A   1      46.827  27.208  25.004  1.00  0.00     0.031 C 
ATOM     48  C   UNL A   1      41.581  24.778  28.387  1.00  0.00     0.029 A 
ATOM     49  C   UNL A   1      41.802  26.225  28.308  1.00  0.00     0.049 A 
ATOM     50  H   UNL A   1      43.600  27.113  27.674  1.00  0.00     0.167 HD
ATOM     51  C   UNL A   1      47.781  28.126  27.204  1.00  0.00     0.031 A 
ATOM     52  C   UNL A   1      41.153  27.101  29.133  1.00  0.00     0.031 A 
ATOM     53  C   UNL A   1      47.820  27.651  28.574  1.00  0.00     0.049 A 
ATOM     54  C   UNL A   1      42.210  27.787  29.887  1.00  0.00     0.074 A 
ATOM     55  C   UNL A   1      48.547  26.750  29.324  1.00  0.00     0.029 A 
ATOM     56  N   UNL A   1      46.647  27.874  29.246  1.00  0.00    -0.354 N 
ATOM     57  N   UNL A   1      42.859  27.189  30.838  1.00  0.00    -0.248 NA
ATOM     58  C   UNL A   1      42.808  29.017  29.379  1.00  0.00     0.031 C 
ATOM     59  C   UNL A   1      47.692  26.330  30.393  1.00  0.00     0.029 A 
ATOM     60  C   UNL A   1      46.494  27.026  30.304  1.00  0.00     0.049 A 
ATOM     61  H   UNL A   1      45.992  28.566  28.996  1.00  0.00     0.167 HD
ATOM     62  C   UNL A   1      44.140  27.669  30.691  1.00  0.00     0.074 A 
ATOM     63  C   UNL A   1      44.015  28.910  29.936  1.00  0.00     0.031 C 
ATOM     64  C   UNL A   1      45.201  26.849  30.912  1.00  0.00     0.031 A 
BRANCH  51  65
ATOM     65  C   UNL A   1      47.660  29.617  26.919  1.00  0.00    -0.014 A 
ATOM     66  C   UNL A   1      48.726  30.452  27.309  1.00  0.00     0.009 A 
ATOM     67  C   UNL A   1      46.462  30.266  26.570  1.00  0.00     0.009 A 
ATOM     68  C   UNL A   1      48.569  31.839  27.435  1.00  0.00     0.001 A 
ATOM     69  C   UNL A   1      46.306  31.652  26.672  1.00  0.00     0.001 A 
ATOM     70  C   UNL A   1      47.352  32.436  27.131  1.00  0.00     0.000 A 
ENDBRANCH  51  65
BRANCH  52  71
ATOM     71  C   UNL A   1      39.945  27.912  28.801  1.00  0.00    -0.014 A 
ATOM     72  C   UNL A   1      38.954  28.153  29.768  1.00  0.00     0.009 A 
ATOM     73  C   UNL A   1      39.846  28.616  27.590  1.00  0.00     0.009 A 
ATOM     74  C   UNL A   1      37.872  29.009  29.500  1.00  0.00     0.001 A 
ATOM     75  C   UNL A   1      38.750  29.446  27.308  1.00  0.00     0.001 A 
ATOM     76  C   UNL A   1      37.758  29.637  28.262  1.00  0.00     0.000 A 
ENDBRANCH  52  71
BRANCH  64  77
ATOM     77  C   UNL A   1      44.926  25.620  31.720  1.00  0.00    -0.014 A 
ATOM     78  C   UNL A   1      44.452  24.418  31.167  1.00  0.00     0.009 A 
ATOM     79  C   UNL A   1      45.154  25.683  33.097  1.00  0.00     0.009 A 
ATOM     80  C   UNL A   1      44.191  23.313  31.981  1.00  0.00     0.001 A 
ATOM     81  C   UNL A   1      44.911  24.575  33.908  1.00  0.00     0.001 A 
ATOM     82  C   UNL A   1      44.425  23.392  33.352  1.00  0.00     0.000 A 
ENDBRANCH  64  77
ENDBRANCH  38  39
ENDBRANCH  30  33
ENDBRANCH  28  29
ENDBRANCH  27  28
ENDBRANCH   1  27
TORSDOF 14
ENDMDL
MODEL 2
REMARK VINA RESULT:     -11.6      6.277     11.359
REMARK SMILES O=C(Cn1cc(NC(=O)N2CC[N@H+]3CCC[C@@H]3C2)cn1)NCCCCNC(=O)c1ccc(-c2c3nc(c(-c4ccccc4)c4ccc([nH]4)c(-c4ccccc4)c4nc(c(-c5ccccc5)c5ccc2[nH]5)C=C4)C=C3)cc1
REMARK SMILES IDX 23 1 22 2 21 3 1 4 2 5 3 7 4 8 5 9 20 10 6 11 19 12 7 13
REMARK SMILES IDX 8 14 9 16 10 17 11 18 18 19 12 20 17 21 13 22 16 23 14 24
REMARK SMILES IDX 15 26 24 27 25 28 26 29 27 30 28 32 29 33 30 34 76 35 31 36
REMARK SMILES IDX 75 37 32 38 33 39 34 40 69 41 35 42 74 43 68 44 70 45 36 46
REMARK SMILES IDX 73 47 67 48 66 49 37 51 59 52 44 53 58 54 45 55 48 56 57 57
REMARK SMILES IDX 71 58 46 59 47 60 56 62 72 63 49 64 38 65 39 66 43 67 40 68
REMARK SMILES IDX 42 69 41 70 60 71 61 72 65 73 62 74 64 75 63 76 50 77 51 78
REMARK SMILES IDX 55 79 52 80 54 81 53 82
REMARK H PARENT 21 6 7 15 13 25 26 31 70 50 48 61
REMARK Flexibility Score: inf
ROOT
ATOM      1  C   UNL A   1      34.777  34.610  27.882  1.00  0.00     0.023 C 
ENDROOT
BRANCH   1   2
ATOM      2  C   UNL A   1      34.772  33.212  28.513  1.00  0.00     0.116 C 
BRANCH   2   3
ATOM      3  N   UNL A   1      33.732  32.341  27.986  1.00  0.00    -0.354 N 
ATOM      4  O   UNL A   1      35.067  30.480  27.843  1.00  0.00    -0.273 OA
ATOM      5  C   UNL A   1      33.953  30.993  27.747  1.00  0.00     0.241 C 
ATOM      6  H   UNL A   1      32.844  32.721  27.793  1.00  0.00     0.163 HD
BRANCH   5   7
ATOM      7  C   UNL A   1      32.762  30.202  27.228  1.00  0.00     0.244 C 
BRANCH   7   8
ATOM      8  N   UNL A   1      33.118  29.122  26.324  1.00  0.00    -0.261 N 
ATOM      9  C   UNL A   1      33.332  29.216  24.971  1.00  0.00     0.135 A 
ATOM     10  N   UNL A   1      33.271  27.877  26.797  1.00  0.00    -0.179 NA
ATOM     11  C   UNL A   1      33.485  27.926  24.521  1.00  0.00     0.081 A 
ATOM     12  C   UNL A   1      33.510  27.151  25.706  1.00  0.00     0.161 A 
BRANCH  11  13
ATOM     13  N   UNL A   1      33.589  27.546  23.193  1.00  0.00    -0.305 N 
ATOM     14  C   UNL A   1      32.584  27.013  22.428  1.00  0.00     0.322 C 
ATOM     15  H   UNL A   1      34.465  27.670  22.759  1.00  0.00     0.171 HD
ATOM     16  O   UNL A   1      32.845  26.218  21.524  1.00  0.00    -0.248 OA
BRANCH  14  17
ATOM     17  N   UNL A   1      31.296  27.417  22.695  1.00  0.00    -0.313 N 
ATOM     18  C   UNL A   1      30.284  26.495  23.260  1.00  0.00     0.183 C 
ATOM     19  C   UNL A   1      30.903  28.768  22.266  1.00  0.00     0.186 C 
ATOM     20  C   UNL A   1      28.935  27.115  23.669  1.00  0.00     0.284 C 
ATOM     21  C   UNL A   1      29.642  29.238  22.961  1.00  0.00     0.204 C 
ATOM     22  N   UNL A   1      28.570  28.244  22.810  1.00  0.00    -0.330 N 
ATOM     23  C   UNL A   1      29.004  30.523  22.496  1.00  0.00     0.073 C 
ATOM     24  C   UNL A   1      27.337  28.929  23.195  1.00  0.00     0.262 C 
ATOM     25  H   UNL A   1      28.436  27.876  21.868  1.00  0.00     0.348 HD
ATOM     26  C   UNL A   1      27.650  30.428  23.183  1.00  0.00     0.068 C 
ENDBRANCH  14  17
ENDBRANCH  11  13
ENDBRANCH   7   8
ENDBRANCH   5   7
ENDBRANCH   2   3
ENDBRANCH   1   2
BRANCH   1  27
ATOM     27  C   UNL A   1      34.199  35.742  28.746  1.00  0.00     0.023 C 
BRANCH  27  28
ATOM     28  C   UNL A   1      32.920  35.400  29.506  1.00  0.00     0.116 C 
BRANCH  28  29
ATOM     29  N   UNL A   1      32.675  36.246  30.669  1.00  0.00    -0.352 N 
ATOM     30  C   UNL A   1      33.029  36.009  31.989  1.00  0.00     0.251 C 
ATOM     31  H   UNL A   1      32.199  37.091  30.494  1.00  0.00     0.163 HD
ATOM     32  O   UNL A   1      32.425  36.559  32.896  1.00  0.00    -0.269 OA
BRANCH  30  33
ATOM     33  C   UNL A   1      34.152  35.088  32.300  1.00  0.00     0.039 A 
ATOM     34  C   UNL A   1      33.995  33.698  32.227  1.00  0.00     0.014 A 
ATOM     35  C   UNL A   1      35.375  35.617  32.704  1.00  0.00     0.014 A 
ATOM     36  C   UNL A   1      35.100  32.861  32.451  1.00  0.00     0.010 A 
ATOM     37  C   UNL A   1      36.479  34.797  32.850  1.00  0.00     0.010 A 
ATOM     38  C   UNL A   1      36.361  33.417  32.727  1.00  0.00    -0.014 A 
BRANCH  38  39
ATOM     39  C   UNL A   1      37.613  32.659  32.564  1.00  0.00     0.031 A 
ATOM     40  C   UNL A   1      38.324  32.457  33.840  1.00  0.00     0.074 A 
ATOM     41  C   UNL A   1      38.059  32.068  31.429  1.00  0.00     0.049 A 
ATOM     42  N   UNL A   1      39.360  33.142  34.189  1.00  0.00    -0.248 NA
ATOM     43  C   UNL A   1      37.781  31.607  34.903  1.00  0.00     0.031 C 
ATOM     44  C   UNL A   1      37.567  32.318  30.077  1.00  0.00     0.029 A 
ATOM     45  N   UNL A   1      39.046  31.121  31.226  1.00  0.00    -0.354 N 
ATOM     46  C   UNL A   1      39.785  32.599  35.388  1.00  0.00     0.074 A 
ATOM     47  C   UNL A   1      38.667  31.833  35.880  1.00  0.00     0.031 C 
ATOM     48  C   UNL A   1      38.201  31.498  29.206  1.00  0.00     0.029 A 
ATOM     49  C   UNL A   1      39.090  30.585  29.930  1.00  0.00     0.049 A 
ATOM     50  H   UNL A   1      39.672  30.845  31.935  1.00  0.00     0.167 HD
ATOM     51  C   UNL A   1      41.123  32.541  35.643  1.00  0.00     0.031 A 
ATOM     52  C   UNL A   1      40.053  29.855  29.290  1.00  0.00     0.031 A 
ATOM     53  C   UNL A   1      41.855  33.379  34.712  1.00  0.00     0.049 A 
ATOM     54  C   UNL A   1      41.328  30.286  29.877  1.00  0.00     0.074 A 
ATOM     55  C   UNL A   1      42.062  34.725  34.494  1.00  0.00     0.029 A 
ATOM     56  N   UNL A   1      42.158  32.734  33.542  1.00  0.00    -0.354 N 
ATOM     57  N   UNL A   1      41.847  31.441  29.594  1.00  0.00    -0.248 NA
ATOM     58  C   UNL A   1      41.874  29.609  31.049  1.00  0.00     0.031 C 
ATOM     59  C   UNL A   1      42.355  34.869  33.100  1.00  0.00     0.029 A 
ATOM     60  C   UNL A   1      42.378  33.608  32.517  1.00  0.00     0.049 A 
ATOM     61  H   UNL A   1      42.212  31.755  33.451  1.00  0.00     0.167 HD
ATOM     62  C   UNL A   1      42.394  31.839  30.793  1.00  0.00     0.074 A 
ATOM     63  C   UNL A   1      42.560  30.622  31.578  1.00  0.00     0.031 C 
ATOM     64  C   UNL A   1      42.354  33.149  31.154  1.00  0.00     0.031 A 
BRANCH  51  65
ATOM     65  C   UNL A   1      41.790  31.314  36.249  1.00  0.00    -0.014 A 
ATOM     66  C   UNL A   1      42.911  31.516  37.080  1.00  0.00     0.009 A 
ATOM     67  C   UNL A   1      41.568  29.993  35.821  1.00  0.00     0.009 A 
ATOM     68  C   UNL A   1      43.804  30.479  37.379  1.00  0.00     0.001 A 
ATOM     69  C   UNL A   1      42.444  28.949  36.135  1.00  0.00     0.001 A 
ATOM     70  C   UNL A   1      43.578  29.197  36.892  1.00  0.00     0.000 A 
ENDBRANCH  51  65
BRANCH  52  71
ATOM     71  C   UNL A   1      39.964  28.423  28.882  1.00  0.00    -0.014 A 
ATOM     72  C   UNL A   1      39.234  27.502  29.653  1.00  0.00     0.009 A 
ATOM     73  C   UNL A   1      40.432  27.987  27.632  1.00  0.00     0.009 A 
ATOM     74  C   UNL A   1      39.047  26.178  29.218  1.00  0.00     0.001 A 
ATOM     75  C   UNL A   1      40.275  26.658  27.210  1.00  0.00     0.001 A 
ATOM     76  C   UNL A   1      39.588  25.750  28.007  1.00  0.00     0.000 A 
ENDBRANCH  52  71
BRANCH  64  77
ATOM     77  C   UNL A   1      42.121  34.130  30.048  1.00  0.00    -0.014 A 
ATOM     78  C   UNL A   1      43.156  34.702  29.288  1.00  0.00     0.009 A 
ATOM     79  C   UNL A   1      40.801  34.492  29.767  1.00  0.00     0.009 A 
ATOM     80  C   UNL A   1      42.873  35.633  28.284  1.00  0.00     0.001 A 
ATOM     81  C   UNL A   1      40.516  35.407  28.754  1.00  0.00     0.001 A 
ATOM     82  C   UNL A   1      41.551  35.980  28.016  1.00  0.00     0.000 A 
ENDBRANCH  64  77
ENDBRANCH  38  39
ENDBRANCH  30  33
ENDBRANCH  28  29
ENDBRANCH  27  28
ENDBRANCH   1  27
TORSDOF 14
ENDMDL
MODEL 3
REMARK VINA RESULT:     -11.5      5.464     10.822
REMARK SMILES O=C(Cn1cc(NC(=O)N2CC[N@H+]3CCC[C@@H]3C2)cn1)NCCCCNC(=O)c1ccc(-c2c3nc(c(-c4ccccc4)c4ccc([nH]4)c(-c4ccccc4)c4nc(c(-c5ccccc5)c5ccc2[nH]5)C=C4)C=C3)cc1
REMARK SMILES IDX 23 1 22 2 21 3 1 4 2 5 3 7 4 8 5 9 20 10 6 11 19 12 7 13
REMARK SMILES IDX 8 14 9 16 10 17 11 18 18 19 12 20 17 21 13 22 16 23 14 24
REMARK SMILES IDX 15 26 24 27 25 28 26 29 27 30 28 32 29 33 30 34 76 35 31 36
REMARK SMILES IDX 75 37 32 38 33 39 34 40 69 41 35 42 74 43 68 44 70 45 36 46
REMARK SMILES IDX 73 47 67 48 66 49 37 51 59 52 44 53 58 54 45 55 48 56 57 57
REMARK SMILES IDX 71 58 46 59 47 60 56 62 72 63 49 64 38 65 39 66 43 67 40 68
REMARK SMILES IDX 42 69 41 70 60 71 61 72 65 73 62 74 64 75 63 76 50 77 51 78
REMARK SMILES IDX 55 79 52 80 54 81 53 82
REMARK H PARENT 21 6 7 15 13 25 26 31 70 50 48 61
REMARK Flexibility Score: inf
ROOT
ATOM      1  C   UNL A   1      35.629  32.846  28.147  1.00  0.00     0.023 C 
ENDROOT
BRANCH   1   2
ATOM      2  C   UNL A   1      34.787  34.122  28.029  1.00  0.00     0.116 C 
BRANCH   2   3
ATOM      3  N   UNL A   1      34.602  34.815  29.294  1.00  0.00    -0.354 N 
ATOM      4  O   UNL A   1      32.513  35.622  28.790  1.00  0.00    -0.273 OA
ATOM      5  C   UNL A   1      33.422  35.474  29.606  1.00  0.00     0.241 C 
ATOM      6  H   UNL A   1      35.337  34.817  29.950  1.00  0.00     0.163 HD
BRANCH   5   7
ATOM      7  C   UNL A   1      33.363  36.124  30.980  1.00  0.00     0.244 C 
BRANCH   7   8
ATOM      8  N   UNL A   1      33.761  35.246  32.067  1.00  0.00    -0.261 N 
ATOM      9  C   UNL A   1      34.228  35.622  33.302  1.00  0.00     0.135 A 
ATOM     10  N   UNL A   1      33.690  33.916  31.913  1.00  0.00    -0.179 NA
ATOM     11  C   UNL A   1      34.621  34.462  33.927  1.00  0.00     0.081 A 
ATOM     12  C   UNL A   1      34.196  33.438  33.047  1.00  0.00     0.161 A 
BRANCH  11  13
ATOM     13  N   UNL A   1      35.277  34.390  35.146  1.00  0.00    -0.305 N 
ATOM     14  C   UNL A   1      36.392  33.641  35.416  1.00  0.00     0.322 C 
ATOM     15  H   UNL A   1      34.908  34.927  35.886  1.00  0.00     0.171 HD
ATOM     16  O   UNL A   1      36.578  33.185  36.544  1.00  0.00    -0.248 OA
BRANCH  14  17
ATOM     17  N   UNL A   1      37.292  33.445  34.392  1.00  0.00    -0.313 N 
ATOM     18  C   UNL A   1      37.715  34.547  33.497  1.00  0.00     0.183 C 
ATOM     19  C   UNL A   1      37.719  32.065  34.114  1.00  0.00     0.186 C 
ATOM     20  C   UNL A   1      38.850  34.233  32.504  1.00  0.00     0.284 C 
ATOM     21  C   UNL A   1      38.979  32.021  33.276  1.00  0.00     0.204 C 
ATOM     22  N   UNL A   1      38.821  32.836  32.064  1.00  0.00    -0.330 N 
ATOM     23  C   UNL A   1      39.443  30.686  32.750  1.00  0.00     0.073 C 
ATOM     24  C   UNL A   1      39.922  32.453  31.181  1.00  0.00     0.262 C 
ATOM     25  H   UNL A   1      37.951  32.700  31.549  1.00  0.00     0.348 HD
ATOM     26  C   UNL A   1      40.475  31.132  31.725  1.00  0.00     0.068 C 
ENDBRANCH  14  17
ENDBRANCH  11  13
ENDBRANCH   7   8
ENDBRANCH   5   7
ENDBRANCH   2   3
ENDBRANCH   1   2
BRANCH   1  27
ATOM     27  C   UNL A   1      34.988  31.560  27.602  1.00  0.00     0.023 C 
BRANCH  27  28
ATOM     28  C   UNL A   1      35.454  30.264  28.264  1.00  0.00     0.116 C 
BRANCH  28  29
ATOM     29  N   UNL A   1      35.701  30.385  29.697  1.00  0.00    -0.352 N 
ATOM     30  C   UNL A   1      36.642  29.711  30.462  1.00  0.00     0.251 C 
ATOM     31  H   UNL A   1      35.128  31.025  30.180  1.00  0.00     0.163 HD
ATOM     32  O   UNL A   1      36.479  29.584  31.666  1.00  0.00    -0.269 OA
BRANCH  30  33
ATOM     33  C   UNL A   1      37.856  29.149  29.817  1.00  0.00     0.039 A 
ATOM     34  C   UNL A   1      38.487  29.808  28.754  1.00  0.00     0.014 A 
ATOM     35  C   UNL A   1      38.356  27.926  30.257  1.00  0.00     0.014 A 
ATOM     36  C   UNL A   1      39.677  29.286  28.221  1.00  0.00     0.010 A 
ATOM     37  C   UNL A   1      39.567  27.453  29.783  1.00  0.00     0.010 A 
ATOM     38  C   UNL A   1      40.241  28.120  28.766  1.00  0.00    -0.014 A 
BRANCH  38  39
ATOM     39  C   UNL A   1      41.652  27.753  28.557  1.00  0.00     0.031 A 
ATOM     40  C   UNL A   1      41.810  26.603  27.646  1.00  0.00     0.074 A 
ATOM     41  C   UNL A   1      42.739  28.424  29.009  1.00  0.00     0.049 A 
ATOM     42  N   UNL A   1      42.069  25.407  28.053  1.00  0.00    -0.248 NA
ATOM     43  C   UNL A   1      41.475  26.694  26.221  1.00  0.00     0.031 C 
ATOM     44  C   UNL A   1      42.746  29.455  30.044  1.00  0.00     0.029 A 
ATOM     45  N   UNL A   1      44.072  28.338  28.653  1.00  0.00    -0.354 N 
ATOM     46  C   UNL A   1      42.232  24.647  26.909  1.00  0.00     0.074 A 
ATOM     47  C   UNL A   1      41.639  25.421  25.846  1.00  0.00     0.031 C 
ATOM     48  C   UNL A   1      43.999  29.948  30.183  1.00  0.00     0.029 A 
ATOM     49  C   UNL A   1      44.890  29.344  29.189  1.00  0.00     0.049 A 
ATOM     50  H   UNL A   1      44.422  27.625  28.070  1.00  0.00     0.167 HD
ATOM     51  C   UNL A   1      43.162  23.650  26.912  1.00  0.00     0.031 A 
ATOM     52  C   UNL A   1      46.251  29.442  29.284  1.00  0.00     0.031 A 
ATOM     53  C   UNL A   1      43.593  23.362  28.267  1.00  0.00     0.049 A 
ATOM     54  C   UNL A   1      46.738  28.060  29.387  1.00  0.00     0.074 A 
ATOM     55  C   UNL A   1      43.086  22.749  29.393  1.00  0.00     0.029 A 
ATOM     56  N   UNL A   1      44.617  24.173  28.681  1.00  0.00    -0.354 N 
ATOM     57  N   UNL A   1      46.592  27.372  30.476  1.00  0.00    -0.248 NA
ATOM     58  C   UNL A   1      47.075  27.300  28.189  1.00  0.00     0.031 C 
ATOM     59  C   UNL A   1      43.751  23.344  30.513  1.00  0.00     0.029 A 
ATOM     60  C   UNL A   1      44.684  24.258  30.042  1.00  0.00     0.049 A 
ATOM     61  H   UNL A   1      45.233  24.638  28.070  1.00  0.00     0.167 HD
ATOM     62  C   UNL A   1      46.325  26.105  30.011  1.00  0.00     0.074 A 
ATOM     63  C   UNL A   1      46.825  26.070  28.641  1.00  0.00     0.031 C 
ATOM     64  C   UNL A   1      45.435  25.314  30.667  1.00  0.00     0.031 A 
BRANCH  51  65
ATOM     65  C   UNL A   1      44.106  23.405  25.744  1.00  0.00    -0.014 A 
ATOM     66  C   UNL A   1      44.115  22.122  25.161  1.00  0.00     0.009 A 
ATOM     67  C   UNL A   1      45.172  24.252  25.390  1.00  0.00     0.009 A 
ATOM     68  C   UNL A   1      45.175  21.684  24.355  1.00  0.00     0.001 A 
ATOM     69  C   UNL A   1      46.221  23.829  24.568  1.00  0.00     0.001 A 
ATOM     70  C   UNL A   1      46.237  22.535  24.072  1.00  0.00     0.000 A 
ENDBRANCH  51  65
BRANCH  52  71
ATOM     71  C   UNL A   1      47.130  30.400  28.553  1.00  0.00    -0.014 A 
ATOM     72  C   UNL A   1      46.641  31.129  27.456  1.00  0.00     0.009 A 
ATOM     73  C   UNL A   1      48.399  30.750  29.043  1.00  0.00     0.009 A 
ATOM     74  C   UNL A   1      47.424  32.118  26.833  1.00  0.00     0.001 A 
ATOM     75  C   UNL A   1      49.195  31.714  28.405  1.00  0.00     0.001 A 
ATOM     76  C   UNL A   1      48.709  32.393  27.293  1.00  0.00     0.000 A 
ENDBRANCH  52  71
BRANCH  64  77
ATOM     77  C   UNL A   1      45.138  25.694  32.084  1.00  0.00    -0.014 A 
ATOM     78  C   UNL A   1      44.120  26.592  32.449  1.00  0.00     0.009 A 
ATOM     79  C   UNL A   1      45.922  25.121  33.089  1.00  0.00     0.009 A 
ATOM     80  C   UNL A   1      43.911  26.925  33.790  1.00  0.00     0.001 A 
ATOM     81  C   UNL A   1      45.702  25.439  34.429  1.00  0.00     0.001 A 
ATOM     82  C   UNL A   1      44.700  26.343  34.779  1.00  0.00     0.000 A 
ENDBRANCH  64  77
ENDBRANCH  38  39
ENDBRANCH  30  33
ENDBRANCH  28  29
ENDBRANCH  27  28
ENDBRANCH   1  27
TORSDOF 14
ENDMDL
