MODEL 1
REMARK VINA RESULT:     -11.0      0.000      0.000
REMARK SMILES O=C(CCCCCN1C(=O)/C(=C/c2cccc(O)c2)SC1=S)NCCCCNC(=O)c1ccc(-c2c3nc(c(-c4ccccc4)c4ccc([nH]4)c(-c4ccccc4)c4nc(c(-c5ccccc5)c5ccc2[nH]5)C=C4)C=C3)cc1
REMARK SMILES IDX 1 1 2 2 23 3 3 5 4 6 5 7 6 8 7 9 8 10 9 11 21 12 10 13 11 14
REMARK SMILES IDX 20 15 22 16 12 17 13 18 14 19 19 20 15 21 17 22 16 23 18 24
REMARK SMILES IDX 24 26 25 27 26 28 27 29 28 30 29 31 30 33 31 34 32 35 78 36
REMARK SMILES IDX 33 37 77 38 34 39 35 40 36 41 71 42 37 43 76 44 70 45 72 46
REMARK SMILES IDX 38 47 75 48 69 49 68 50 39 52 61 53 46 54 60 55 47 56 50 57
REMARK SMILES IDX 59 58 73 59 48 60 49 61 58 63 74 64 51 65 40 66 41 67 45 68
REMARK SMILES IDX 42 69 44 70 43 71 62 72 63 73 67 74 64 75 66 76 65 77 52 78
REMARK SMILES IDX 53 79 57 80 54 81 56 82 55 83
REMARK H PARENT 23 4 18 25 28 32 72 51 50 62
REMARK Flexibility Score: inf
ROOT
ATOM      1  O   UNL A   1      36.805  24.118  26.093  1.00  0.00    -0.275 OA
ATOM      2  C   UNL A   1      35.685  23.827  25.690  1.00  0.00     0.219 C 
ATOM      3  N   UNL A   1      35.425  22.755  24.868  1.00  0.00    -0.356 N 
ATOM      4  H   UNL A   1      34.489  22.546  24.642  1.00  0.00     0.163 HD
ENDROOT
BRANCH   2   5
ATOM      5  C   UNL A   1      34.456  24.641  26.058  1.00  0.00     0.100 C 
BRANCH   5   6
ATOM      6  C   UNL A   1      34.333  25.944  25.264  1.00  0.00     0.010 C 
BRANCH   6   7
ATOM      7  C   UNL A   1      33.047  26.748  25.483  1.00  0.00     0.002 C 
BRANCH   7   8
ATOM      8  C   UNL A   1      31.839  25.933  25.956  1.00  0.00     0.022 C 
BRANCH   8   9
ATOM      9  C   UNL A   1      30.994  25.305  24.839  1.00  0.00     0.127 C 
BRANCH   9  10
ATOM     10  N   UNL A   1      31.519  24.044  24.313  1.00  0.00    -0.293 N 
ATOM     11  C   UNL A   1      31.411  22.900  25.094  1.00  0.00     0.266 C 
ATOM     12  C   UNL A   1      32.194  23.904  23.116  1.00  0.00     0.148 C 
ATOM     13  O   UNL A   1      30.915  22.829  26.208  1.00  0.00    -0.268 OA
ATOM     14  C   UNL A   1      32.026  21.740  24.394  1.00  0.00     0.081 C 
ATOM     15  S   UNL A   1      32.528  22.210  22.819  1.00  0.00    -0.054 SA
ATOM     16  S   UNL A   1      32.681  25.082  22.038  1.00  0.00    -0.052 S 
ATOM     17  C   UNL A   1      32.153  20.533  24.965  1.00  0.00     0.029 C 
BRANCH  17  18
ATOM     18  C   UNL A   1      32.741  19.360  24.305  1.00  0.00    -0.021 A 
ATOM     19  C   UNL A   1      32.239  18.879  23.087  1.00  0.00     0.008 A 
ATOM     20  C   UNL A   1      33.802  18.687  24.917  1.00  0.00     0.054 A 
ATOM     21  C   UNL A   1      32.740  17.702  22.528  1.00  0.00     0.004 A 
ATOM     22  C   UNL A   1      34.303  17.521  24.345  1.00  0.00     0.116 A 
ATOM     23  C   UNL A   1      33.772  17.015  23.163  1.00  0.00     0.046 A 
BRANCH  22  24
ATOM     24  O   UNL A   1      35.320  16.883  24.995  1.00  0.00    -0.508 OA
ATOM     25  H   UNL A   1      35.158  16.072  25.436  1.00  0.00     0.293 HD
ENDBRANCH  22  24
ENDBRANCH  17  18
ENDBRANCH   9  10
ENDBRANCH   8   9
ENDBRANCH   7   8
ENDBRANCH   6   7
ENDBRANCH   5   6
ENDBRANCH   2   5
BRANCH   3  26
ATOM     26  C   UNL A   1      36.475  21.919  24.322  1.00  0.00     0.116 C 
BRANCH  26  27
ATOM     27  C   UNL A   1      36.536  20.553  25.003  1.00  0.00     0.023 C 
BRANCH  27  28
ATOM     28  C   UNL A   1      37.843  19.776  24.805  1.00  0.00     0.023 C 
BRANCH  28  29
ATOM     29  C   UNL A   1      38.991  20.173  25.727  1.00  0.00     0.116 C 
BRANCH  29  30
ATOM     30  N   UNL A   1      40.021  19.149  25.814  1.00  0.00    -0.352 N 
ATOM     31  C   UNL A   1      41.372  19.269  26.035  1.00  0.00     0.251 C 
ATOM     32  H   UNL A   1      39.700  18.226  25.695  1.00  0.00     0.163 HD
ATOM     33  O   UNL A   1      42.098  18.287  25.907  1.00  0.00    -0.269 OA
BRANCH  31  34
ATOM     34  C   UNL A   1      41.968  20.575  26.399  1.00  0.00     0.039 A 
ATOM     35  C   UNL A   1      42.307  21.466  25.377  1.00  0.00     0.014 A 
ATOM     36  C   UNL A   1      42.216  20.919  27.731  1.00  0.00     0.014 A 
ATOM     37  C   UNL A   1      42.826  22.725  25.693  1.00  0.00     0.010 A 
ATOM     38  C   UNL A   1      42.660  22.202  28.047  1.00  0.00     0.010 A 
ATOM     39  C   UNL A   1      42.969  23.120  27.032  1.00  0.00    -0.014 A 
BRANCH  39  40
ATOM     40  C   UNL A   1      43.423  24.490  27.388  1.00  0.00     0.031 A 
ATOM     41  C   UNL A   1      42.432  25.539  27.814  1.00  0.00     0.074 A 
ATOM     42  C   UNL A   1      44.727  24.811  27.270  1.00  0.00     0.049 A 
ATOM     43  N   UNL A   1      42.639  26.798  28.116  1.00  0.00    -0.248 NA
ATOM     44  C   UNL A   1      41.022  25.127  27.895  1.00  0.00     0.031 C 
ATOM     45  C   UNL A   1      45.789  23.901  26.837  1.00  0.00     0.029 A 
ATOM     46  N   UNL A   1      45.382  25.997  27.500  1.00  0.00    -0.354 N 
ATOM     47  C   UNL A   1      41.387  27.328  28.403  1.00  0.00     0.074 A 
ATOM     48  C   UNL A   1      40.423  26.269  28.195  1.00  0.00     0.031 C 
ATOM     49  C   UNL A   1      46.964  24.551  26.862  1.00  0.00     0.029 A 
ATOM     50  C   UNL A   1      46.734  25.935  27.264  1.00  0.00     0.049 A 
ATOM     51  H   UNL A   1      44.925  26.814  27.806  1.00  0.00     0.167 HD
ATOM     52  C   UNL A   1      41.068  28.578  28.819  1.00  0.00     0.031 A 
ATOM     53  C   UNL A   1      47.683  26.886  27.348  1.00  0.00     0.031 A 
ATOM     54  C   UNL A   1      42.026  29.633  29.024  1.00  0.00     0.049 A 
ATOM     55  C   UNL A   1      47.299  28.275  27.776  1.00  0.00     0.074 A 
ATOM     56  C   UNL A   1      41.806  30.917  29.495  1.00  0.00     0.029 A 
ATOM     57  N   UNL A   1      43.384  29.531  28.763  1.00  0.00    -0.354 N 
ATOM     58  N   UNL A   1      46.121  28.741  28.113  1.00  0.00    -0.248 NA
ATOM     59  C   UNL A   1      48.381  29.268  27.845  1.00  0.00     0.031 C 
ATOM     60  C   UNL A   1      43.020  31.611  29.456  1.00  0.00     0.029 A 
ATOM     61  C   UNL A   1      44.008  30.739  29.030  1.00  0.00     0.049 A 
ATOM     62  H   UNL A   1      43.837  28.721  28.435  1.00  0.00     0.167 HD
ATOM     63  C   UNL A   1      46.325  30.069  28.463  1.00  0.00     0.074 A 
ATOM     64  C   UNL A   1      47.741  30.330  28.315  1.00  0.00     0.031 C 
ATOM     65  C   UNL A   1      45.418  30.989  28.875  1.00  0.00     0.031 A 
BRANCH  52  66
ATOM     66  C   UNL A   1      39.614  28.878  29.062  1.00  0.00    -0.014 A 
ATOM     67  C   UNL A   1      39.025  28.671  30.321  1.00  0.00     0.009 A 
ATOM     68  C   UNL A   1      38.830  29.413  28.028  1.00  0.00     0.009 A 
ATOM     69  C   UNL A   1      37.672  28.951  30.524  1.00  0.00     0.001 A 
ATOM     70  C   UNL A   1      37.485  29.723  28.244  1.00  0.00     0.001 A 
ATOM     71  C   UNL A   1      36.905  29.482  29.488  1.00  0.00     0.000 A 
ENDBRANCH  52  66
BRANCH  53  72
ATOM     72  C   UNL A   1      49.098  26.557  27.029  1.00  0.00    -0.014 A 
ATOM     73  C   UNL A   1      49.577  26.667  25.715  1.00  0.00     0.009 A 
ATOM     74  C   UNL A   1      49.976  26.121  28.035  1.00  0.00     0.009 A 
ATOM     75  C   UNL A   1      50.895  26.322  25.409  1.00  0.00     0.001 A 
ATOM     76  C   UNL A   1      51.303  25.808  27.732  1.00  0.00     0.001 A 
ATOM     77  C   UNL A   1      51.758  25.898  26.418  1.00  0.00     0.000 A 
ENDBRANCH  53  72
BRANCH  65  78
ATOM     78  C   UNL A   1      45.936  32.356  29.234  1.00  0.00    -0.014 A 
ATOM     79  C   UNL A   1      45.985  33.394  28.292  1.00  0.00     0.009 A 
ATOM     80  C   UNL A   1      46.346  32.617  30.551  1.00  0.00     0.009 A 
ATOM     81  C   UNL A   1      46.468  34.654  28.651  1.00  0.00     0.001 A 
ATOM     82  C   UNL A   1      46.796  33.886  30.917  1.00  0.00     0.001 A 
ATOM     83  C   UNL A   1      46.867  34.901  29.964  1.00  0.00     0.000 A 
ENDBRANCH  65  78
ENDBRANCH  39  40
ENDBRANCH  31  34
ENDBRANCH  29  30
ENDBRANCH  28  29
ENDBRANCH  27  28
ENDBRANCH  26  27
ENDBRANCH   3  26
TORSDOF 18
ENDMDL
MODEL 2
REMARK VINA RESULT:     -11.0      1.298      5.902
REMARK SMILES O=C(CCCCCN1C(=O)/C(=C/c2cccc(O)c2)SC1=S)NCCCCNC(=O)c1ccc(-c2c3nc(c(-c4ccccc4)c4ccc([nH]4)c(-c4ccccc4)c4nc(c(-c5ccccc5)c5ccc2[nH]5)C=C4)C=C3)cc1
REMARK SMILES IDX 1 1 2 2 23 3 3 5 4 6 5 7 6 8 7 9 8 10 9 11 21 12 10 13 11 14
REMARK SMILES IDX 20 15 22 16 12 17 13 18 14 19 19 20 15 21 17 22 16 23 18 24
REMARK SMILES IDX 24 26 25 27 26 28 27 29 28 30 29 31 30 33 31 34 32 35 78 36
REMARK SMILES IDX 33 37 77 38 34 39 35 40 36 41 71 42 37 43 76 44 70 45 72 46
REMARK SMILES IDX 38 47 75 48 69 49 68 50 39 52 61 53 46 54 60 55 47 56 50 57
REMARK SMILES IDX 59 58 73 59 48 60 49 61 58 63 74 64 51 65 40 66 41 67 45 68
REMARK SMILES IDX 42 69 44 70 43 71 62 72 63 73 67 74 64 75 66 76 65 77 52 78
REMARK SMILES IDX 53 79 57 80 54 81 56 82 55 83
REMARK H PARENT 23 4 18 25 28 32 72 51 50 62
REMARK Flexibility Score: inf
ROOT
ATOM      1  O   UNL A   1      36.785  24.071  26.133  1.00  0.00    -0.275 OA
ATOM      2  C   UNL A   1      35.667  23.789  25.716  1.00  0.00     0.219 C 
ATOM      3  N   UNL A   1      35.411  22.725  24.880  1.00  0.00    -0.356 N 
ATOM      4  H   UNL A   1      34.477  22.523  24.644  1.00  0.00     0.163 HD
ENDROOT
BRANCH   2   5
ATOM      5  C   UNL A   1      34.439  24.604  26.080  1.00  0.00     0.100 C 
BRANCH   5   6
ATOM      6  C   UNL A   1      34.331  25.919  25.302  1.00  0.00     0.010 C 
BRANCH   6   7
ATOM      7  C   UNL A   1      33.027  26.702  25.479  1.00  0.00     0.002 C 
BRANCH   7   8
ATOM      8  C   UNL A   1      31.824  25.874  25.942  1.00  0.00     0.022 C 
BRANCH   8   9
ATOM      9  C   UNL A   1      30.987  25.249  24.816  1.00  0.00     0.127 C 
BRANCH   9  10
ATOM     10  N   UNL A   1      31.518  23.991  24.288  1.00  0.00    -0.293 N 
ATOM     11  C   UNL A   1      31.410  22.844  25.065  1.00  0.00     0.266 C 
ATOM     12  C   UNL A   1      32.199  23.857  23.093  1.00  0.00     0.148 C 
ATOM     13  O   UNL A   1      30.909  22.768  26.176  1.00  0.00    -0.268 OA
ATOM     14  C   UNL A   1      32.031  21.688  24.363  1.00  0.00     0.081 C 
ATOM     15  S   UNL A   1      32.539  22.165  22.792  1.00  0.00    -0.054 SA
ATOM     16  S   UNL A   1      32.687  25.041  22.021  1.00  0.00    -0.052 S 
ATOM     17  C   UNL A   1      32.160  20.479  24.930  1.00  0.00     0.029 C 
BRANCH  17  18
ATOM     18  C   UNL A   1      32.754  19.310  24.268  1.00  0.00    -0.021 A 
ATOM     19  C   UNL A   1      32.267  18.841  23.039  1.00  0.00     0.008 A 
ATOM     20  C   UNL A   1      33.805  18.630  24.889  1.00  0.00     0.054 A 
ATOM     21  C   UNL A   1      32.774  17.668  22.478  1.00  0.00     0.004 A 
ATOM     22  C   UNL A   1      34.311  17.468  24.315  1.00  0.00     0.116 A 
ATOM     23  C   UNL A   1      33.795  16.973  23.121  1.00  0.00     0.046 A 
BRANCH  22  24
ATOM     24  O   UNL A   1      35.318  16.822  24.972  1.00  0.00    -0.508 OA
ATOM     25  H   UNL A   1      35.151  16.415  25.800  1.00  0.00     0.293 HD
ENDBRANCH  22  24
ENDBRANCH  17  18
ENDBRANCH   9  10
ENDBRANCH   8   9
ENDBRANCH   7   8
ENDBRANCH   6   7
ENDBRANCH   5   6
ENDBRANCH   2   5
BRANCH   3  26
ATOM     26  C   UNL A   1      36.463  21.891  24.336  1.00  0.00     0.116 C 
BRANCH  26  27
ATOM     27  C   UNL A   1      36.474  20.498  24.962  1.00  0.00     0.023 C 
BRANCH  27  28
ATOM     28  C   UNL A   1      37.796  19.731  24.840  1.00  0.00     0.023 C 
BRANCH  28  29
ATOM     29  C   UNL A   1      38.939  20.245  25.711  1.00  0.00     0.116 C 
BRANCH  29  30
ATOM     30  N   UNL A   1      40.065  19.326  25.758  1.00  0.00    -0.352 N 
ATOM     31  C   UNL A   1      41.381  19.554  26.080  1.00  0.00     0.251 C 
ATOM     32  H   UNL A   1      39.851  18.394  25.523  1.00  0.00     0.163 HD
ATOM     33  O   UNL A   1      42.213  18.670  25.899  1.00  0.00    -0.269 OA
BRANCH  31  34
ATOM     34  C   UNL A   1      41.815  20.865  26.617  1.00  0.00     0.039 A 
ATOM     35  C   UNL A   1      42.298  21.828  25.727  1.00  0.00     0.014 A 
ATOM     36  C   UNL A   1      41.769  21.145  27.986  1.00  0.00     0.014 A 
ATOM     37  C   UNL A   1      42.668  23.091  26.198  1.00  0.00     0.010 A 
ATOM     38  C   UNL A   1      42.064  22.428  28.443  1.00  0.00     0.010 A 
ATOM     39  C   UNL A   1      42.516  23.415  27.555  1.00  0.00    -0.014 A 
BRANCH  39  40
ATOM     40  C   UNL A   1      42.808  24.784  28.057  1.00  0.00     0.031 A 
ATOM     41  C   UNL A   1      44.208  25.175  28.447  1.00  0.00     0.074 A 
ATOM     42  C   UNL A   1      41.799  25.664  28.219  1.00  0.00     0.049 A 
ATOM     43  N   UNL A   1      44.642  26.306  28.948  1.00  0.00    -0.248 NA
ATOM     44  C   UNL A   1      45.255  24.157  28.269  1.00  0.00     0.031 C 
ATOM     45  C   UNL A   1      40.392  25.405  27.911  1.00  0.00     0.029 A 
ATOM     46  N   UNL A   1      41.803  26.954  28.690  1.00  0.00    -0.354 N 
ATOM     47  C   UNL A   1      46.004  26.128  29.160  1.00  0.00     0.074 A 
ATOM     48  C   UNL A   1      46.315  24.767  28.779  1.00  0.00     0.031 C 
ATOM     49  C   UNL A   1      39.674  26.510  28.172  1.00  0.00     0.029 A 
ATOM     50  C   UNL A   1      40.560  27.538  28.710  1.00  0.00     0.049 A 
ATOM     51  H   UNL A   1      42.621  27.418  28.984  1.00  0.00     0.167 HD
ATOM     52  C   UNL A   1      46.917  27.020  29.614  1.00  0.00     0.031 A 
ATOM     53  C   UNL A   1      40.169  28.757  29.126  1.00  0.00     0.031 A 
ATOM     54  C   UNL A   1      46.608  28.373  29.997  1.00  0.00     0.049 A 
ATOM     55  C   UNL A   1      41.196  29.716  29.662  1.00  0.00     0.074 A 
ATOM     56  C   UNL A   1      47.473  29.368  30.419  1.00  0.00     0.029 A 
ATOM     57  N   UNL A   1      45.334  28.920  30.013  1.00  0.00    -0.354 N 
ATOM     58  N   UNL A   1      42.491  29.557  29.789  1.00  0.00    -0.248 NA
ATOM     59  C   UNL A   1      40.706  31.030  30.103  1.00  0.00     0.031 C 
ATOM     60  C   UNL A   1      46.716  30.495  30.753  1.00  0.00     0.029 A 
ATOM     61  C   UNL A   1      45.386  30.226  30.470  1.00  0.00     0.049 A 
ATOM     62  H   UNL A   1      44.513  28.448  29.740  1.00  0.00     0.167 HD
ATOM     63  C   UNL A   1      42.973  30.757  30.293  1.00  0.00     0.074 A 
ATOM     64  C   UNL A   1      41.835  31.642  30.432  1.00  0.00     0.031 C 
ATOM     65  C   UNL A   1      44.247  31.097  30.608  1.00  0.00     0.031 A 
BRANCH  52  66
ATOM     66  C   UNL A   1      48.341  26.550  29.742  1.00  0.00    -0.014 A 
ATOM     67  C   UNL A   1      49.272  26.749  28.709  1.00  0.00     0.009 A 
ATOM     68  C   UNL A   1      48.769  25.935  30.929  1.00  0.00     0.009 A 
ATOM     69  C   UNL A   1      50.588  26.301  28.845  1.00  0.00     0.001 A 
ATOM     70  C   UNL A   1      50.094  25.518  31.076  1.00  0.00     0.001 A 
ATOM     71  C   UNL A   1      50.998  25.692  30.030  1.00  0.00     0.000 A 
ENDBRANCH  52  66
BRANCH  53  72
ATOM     72  C   UNL A   1      38.738  29.150  29.045  1.00  0.00    -0.014 A 
ATOM     73  C   UNL A   1      37.894  29.002  30.157  1.00  0.00     0.009 A 
ATOM     74  C   UNL A   1      38.203  29.665  27.853  1.00  0.00     0.009 A 
ATOM     75  C   UNL A   1      36.540  29.335  30.068  1.00  0.00     0.001 A 
ATOM     76  C   UNL A   1      36.857  30.029  27.778  1.00  0.00     0.001 A 
ATOM     77  C   UNL A   1      36.024  29.853  28.882  1.00  0.00     0.000 A 
ENDBRANCH  53  72
BRANCH  65  78
ATOM     78  C   UNL A   1      44.486  32.499  31.099  1.00  0.00    -0.014 A 
ATOM     79  C   UNL A   1      44.754  33.553  30.213  1.00  0.00     0.009 A 
ATOM     80  C   UNL A   1      44.400  32.775  32.474  1.00  0.00     0.009 A 
ATOM     81  C   UNL A   1      44.969  34.846  30.695  1.00  0.00     0.001 A 
ATOM     82  C   UNL A   1      44.581  34.074  32.950  1.00  0.00     0.001 A 
ATOM     83  C   UNL A   1      44.877  35.107  32.062  1.00  0.00     0.000 A 
ENDBRANCH  65  78
ENDBRANCH  39  40
ENDBRANCH  31  34
ENDBRANCH  29  30
ENDBRANCH  28  29
ENDBRANCH  27  28
ENDBRANCH  26  27
ENDBRANCH   3  26
TORSDOF 18
ENDMDL
MODEL 3
REMARK VINA RESULT:     -10.5      5.901     10.032
REMARK SMILES O=C(CCCCCN1C(=O)/C(=C/c2cccc(O)c2)SC1=S)NCCCCNC(=O)c1ccc(-c2c3nc(c(-c4ccccc4)c4ccc([nH]4)c(-c4ccccc4)c4nc(c(-c5ccccc5)c5ccc2[nH]5)C=C4)C=C3)cc1
REMARK SMILES IDX 1 1 2 2 23 3 3 5 4 6 5 7 6 8 7 9 8 10 9 11 21 12 10 13 11 14
REMARK SMILES IDX 20 15 22 16 12 17 13 18 14 19 19 20 15 21 17 22 16 23 18 24
REMARK SMILES IDX 24 26 25 27 26 28 27 29 28 30 29 31 30 33 31 34 32 35 78 36
REMARK SMILES IDX 33 37 77 38 34 39 35 40 36 41 71 42 37 43 76 44 70 45 72 46
REMARK SMILES IDX 38 47 75 48 69 49 68 50 39 52 61 53 46 54 60 55 47 56 50 57
REMARK SMILES IDX 59 58 73 59 48 60 49 61 58 63 74 64 51 65 40 66 41 67 45 68
REMARK SMILES IDX 42 69 44 70 43 71 62 72 63 73 67 74 64 75 66 76 65 77 52 78
REMARK SMILES IDX 53 79 57 80 54 81 56 82 55 83
REMARK H PARENT 23 4 18 25 28 32 72 51 50 62
REMARK Flexibility Score: inf
ROOT
ATOM      1  O   UNL A   1      34.966  29.838  26.887  1.00  0.00    -0.275 OA
ATOM      2  C   UNL A   1      33.879  30.234  27.294  1.00  0.00     0.219 C 
ATOM      3  N   UNL A   1      33.676  31.485  27.831  1.00  0.00    -0.356 N 
ATOM      4  H   UNL A   1      32.760  31.754  28.072  1.00  0.00     0.163 HD
ENDROOT
BRANCH   2   5
ATOM      5  C   UNL A   1      32.635  29.365  27.252  1.00  0.00     0.100 C 
BRANCH   5   6
ATOM      6  C   UNL A   1      32.872  27.997  26.606  1.00  0.00     0.010 C 
BRANCH   6   7
ATOM      7  C   UNL A   1      31.823  27.543  25.586  1.00  0.00     0.002 C 
BRANCH   7   8
ATOM      8  C   UNL A   1      31.080  26.251  25.942  1.00  0.00     0.022 C 
BRANCH   8   9
ATOM      9  C   UNL A   1      30.479  25.491  24.751  1.00  0.00     0.127 C 
BRANCH   9  10
ATOM     10  N   UNL A   1      31.224  24.296  24.352  1.00  0.00    -0.293 N 
ATOM     11  C   UNL A   1      31.050  23.127  25.083  1.00  0.00     0.266 C 
ATOM     12  C   UNL A   1      32.161  24.247  23.338  1.00  0.00     0.148 C 
ATOM     13  O   UNL A   1      30.325  22.984  26.055  1.00  0.00    -0.268 OA
ATOM     14  C   UNL A   1      31.911  22.045  24.534  1.00  0.00     0.081 C 
ATOM     15  S   UNL A   1      32.709  22.598  23.116  1.00  0.00    -0.054 SA
ATOM     16  S   UNL A   1      32.766  25.491  22.403  1.00  0.00    -0.052 S 
ATOM     17  C   UNL A   1      32.019  20.840  25.114  1.00  0.00     0.029 C 
BRANCH  17  18
ATOM     18  C   UNL A   1      32.847  19.741  24.598  1.00  0.00    -0.021 A 
ATOM     19  C   UNL A   1      32.309  18.751  23.763  1.00  0.00     0.008 A 
ATOM     20  C   UNL A   1      34.190  19.660  24.973  1.00  0.00     0.054 A 
ATOM     21  C   UNL A   1      33.083  17.659  23.370  1.00  0.00     0.004 A 
ATOM     22  C   UNL A   1      34.957  18.572  24.565  1.00  0.00     0.116 A 
ATOM     23  C   UNL A   1      34.411  17.563  23.778  1.00  0.00     0.046 A 
BRANCH  22  24
ATOM     24  O   UNL A   1      36.256  18.521  24.979  1.00  0.00    -0.508 OA
ATOM     25  H   UNL A   1      36.640  17.700  25.217  1.00  0.00     0.293 HD
ENDBRANCH  22  24
ENDBRANCH  17  18
ENDBRANCH   9  10
ENDBRANCH   8   9
ENDBRANCH   7   8
ENDBRANCH   6   7
ENDBRANCH   5   6
ENDBRANCH   2   5
BRANCH   3  26
ATOM     26  C   UNL A   1      34.758  32.423  28.053  1.00  0.00     0.116 C 
BRANCH  26  27
ATOM     27  C   UNL A   1      34.440  33.413  29.171  1.00  0.00     0.023 C 
BRANCH  27  28
ATOM     28  C   UNL A   1      33.237  34.329  28.917  1.00  0.00     0.023 C 
BRANCH  28  29
ATOM     29  C   UNL A   1      33.389  35.767  29.403  1.00  0.00     0.116 C 
BRANCH  29  30
ATOM     30  N   UNL A   1      32.558  36.060  30.560  1.00  0.00    -0.352 N 
ATOM     31  C   UNL A   1      32.700  35.676  31.872  1.00  0.00     0.251 C 
ATOM     32  H   UNL A   1      31.770  36.621  30.375  1.00  0.00     0.163 HD
ATOM     33  O   UNL A   1      31.793  35.894  32.671  1.00  0.00    -0.269 OA
BRANCH  31  34
ATOM     34  C   UNL A   1      33.923  34.977  32.330  1.00  0.00     0.039 A 
ATOM     35  C   UNL A   1      33.806  33.678  32.831  1.00  0.00     0.014 A 
ATOM     36  C   UNL A   1      35.176  35.595  32.290  1.00  0.00     0.014 A 
ATOM     37  C   UNL A   1      34.948  32.975  33.224  1.00  0.00     0.010 A 
ATOM     38  C   UNL A   1      36.321  34.868  32.609  1.00  0.00     0.010 A 
ATOM     39  C   UNL A   1      36.221  33.550  33.079  1.00  0.00    -0.014 A 
BRANCH  39  40
ATOM     40  C   UNL A   1      37.454  32.781  33.396  1.00  0.00     0.031 A 
ATOM     41  C   UNL A   1      38.205  33.033  34.675  1.00  0.00     0.074 A 
ATOM     42  C   UNL A   1      37.933  31.893  32.503  1.00  0.00     0.049 A 
ATOM     43  N   UNL A   1      39.323  32.494  35.098  1.00  0.00    -0.248 NA
ATOM     44  C   UNL A   1      37.639  34.036  35.592  1.00  0.00     0.031 C 
ATOM     45  C   UNL A   1      37.322  31.575  31.211  1.00  0.00     0.029 A 
ATOM     46  N   UNL A   1      39.052  31.097  32.544  1.00  0.00    -0.354 N 
ATOM     47  C   UNL A   1      39.600  33.103  36.316  1.00  0.00     0.074 A 
ATOM     48  C   UNL A   1      38.561  34.084  36.542  1.00  0.00     0.031 C 
ATOM     49  C   UNL A   1      38.055  30.631  30.598  1.00  0.00     0.029 A 
ATOM     50  C   UNL A   1      39.212  30.312  31.428  1.00  0.00     0.049 A 
ATOM     51  H   UNL A   1      39.679  31.088  33.303  1.00  0.00     0.167 HD
ATOM     52  C   UNL A   1      40.616  32.857  37.177  1.00  0.00     0.031 A 
ATOM     53  C   UNL A   1      40.186  29.443  31.099  1.00  0.00     0.031 A 
ATOM     54  C   UNL A   1      41.652  31.883  36.952  1.00  0.00     0.049 A 
ATOM     55  C   UNL A   1      41.323  29.215  32.056  1.00  0.00     0.074 A 
ATOM     56  C   UNL A   1      42.694  31.523  37.790  1.00  0.00     0.029 A 
ATOM     57  N   UNL A   1      41.783  31.117  35.803  1.00  0.00    -0.354 N 
ATOM     58  N   UNL A   1      41.533  29.746  33.235  1.00  0.00    -0.248 NA
ATOM     59  C   UNL A   1      42.356  28.255  31.637  1.00  0.00     0.031 C 
ATOM     60  C   UNL A   1      43.492  30.590  37.122  1.00  0.00     0.029 A 
ATOM     61  C   UNL A   1      42.907  30.313  35.897  1.00  0.00     0.049 A 
ATOM     62  H   UNL A   1      41.168  31.143  35.035  1.00  0.00     0.167 HD
ATOM     63  C   UNL A   1      42.700  29.165  33.712  1.00  0.00     0.074 A 
ATOM     64  C   UNL A   1      43.145  28.227  32.702  1.00  0.00     0.031 C 
ATOM     65  C   UNL A   1      43.343  29.386  34.884  1.00  0.00     0.031 A 
BRANCH  52  66
ATOM     66  C   UNL A   1      40.668  33.674  38.440  1.00  0.00    -0.014 A 
ATOM     67  C   UNL A   1      40.024  33.247  39.614  1.00  0.00     0.009 A 
ATOM     68  C   UNL A   1      41.404  34.868  38.469  1.00  0.00     0.009 A 
ATOM     69  C   UNL A   1      40.080  34.023  40.774  1.00  0.00     0.001 A 
ATOM     70  C   UNL A   1      41.486  35.625  39.639  1.00  0.00     0.001 A 
ATOM     71  C   UNL A   1      40.815  35.207  40.788  1.00  0.00     0.000 A 
ENDBRANCH  52  66
BRANCH  53  72
ATOM     72  C   UNL A   1      40.126  28.711  29.806  1.00  0.00    -0.014 A 
ATOM     73  C   UNL A   1      40.659  29.280  28.639  1.00  0.00     0.009 A 
ATOM     74  C   UNL A   1      39.528  27.442  29.728  1.00  0.00     0.009 A 
ATOM     75  C   UNL A   1      40.569  28.608  27.418  1.00  0.00     0.001 A 
ATOM     76  C   UNL A   1      39.469  26.759  28.512  1.00  0.00     0.001 A 
ATOM     77  C   UNL A   1      39.979  27.347  27.356  1.00  0.00     0.000 A 
ENDBRANCH  53  72
BRANCH  65  78
ATOM     78  C   UNL A   1      44.578  28.571  35.158  1.00  0.00    -0.014 A 
ATOM     79  C   UNL A   1      45.848  28.996  34.738  1.00  0.00     0.009 A 
ATOM     80  C   UNL A   1      44.470  27.375  35.886  1.00  0.00     0.009 A 
ATOM     81  C   UNL A   1      46.978  28.221  35.007  1.00  0.00     0.001 A 
ATOM     82  C   UNL A   1      45.606  26.620  36.184  1.00  0.00     0.001 A 
ATOM     83  C   UNL A   1      46.857  27.038  35.735  1.00  0.00     0.000 A 
ENDBRANCH  65  78
ENDBRANCH  39  40
ENDBRANCH  31  34
ENDBRANCH  29  30
ENDBRANCH  28  29
ENDBRANCH  27  28
ENDBRANCH  26  27
ENDBRANCH   3  26
TORSDOF 18
ENDMDL
