MODEL 1
REMARK VINA RESULT:     -10.2      0.000      0.000
REMARK SMILES CC(C)(C)OC(=O)N[C@@H](CC(=O)NCCCCNC(=O)c1ccc(-c2c3nc(c(-c4ccccc4)c4ccc([nH]4)c(-c4ccccc4)c4nc(c(-c5ccccc5)c5ccc2[nH]5)C=C4)C=C3)cc1)c1cccnc1
REMARK SMILES IDX 14 1 13 2 11 3 12 4 10 6 9 7 8 8 6 9 7 10 5 12 2 13 1 14
REMARK SMILES IDX 3 15 4 16 69 17 70 18 74 19 71 20 73 21 72 22 15 23 16 24
REMARK SMILES IDX 17 25 18 26 19 27 20 29 21 30 22 31 68 32 23 33 67 34 24 35
REMARK SMILES IDX 25 36 26 37 61 38 27 39 66 40 60 41 62 42 28 43 65 44 59 45
REMARK SMILES IDX 58 46 29 48 51 49 36 50 50 51 37 52 40 53 49 54 63 55 38 56
REMARK SMILES IDX 39 57 48 59 64 60 41 61 30 62 31 63 35 64 32 65 34 66 33 67
REMARK SMILES IDX 52 68 53 69 57 70 54 71 56 72 55 73 42 74 43 75 47 76 44 77
REMARK SMILES IDX 46 78 45 79
REMARK H PARENT 13 5 8 11 18 28 62 47 40 58
REMARK Flexibility Score: inf
ROOT
ATOM      1  C   UNL A   1      34.185  28.412  26.556  1.00  0.00     0.116 C 
ENDROOT
BRANCH   1   2
ATOM      2  N   UNL A   1      34.167  28.890  25.190  1.00  0.00    -0.356 N 
ATOM      3  C   UNL A   1      33.228  28.712  24.219  1.00  0.00     0.222 C 
ATOM      4  O   UNL A   1      33.449  29.221  23.118  1.00  0.00    -0.275 OA
ATOM      5  H   UNL A   1      34.950  29.423  24.922  1.00  0.00     0.163 HD
BRANCH   3   6
ATOM      6  C   UNL A   1      31.947  27.938  24.479  1.00  0.00     0.130 C 
BRANCH   6   7
ATOM      7  C   UNL A   1      31.086  27.517  23.269  1.00  0.00     0.126 C 
BRANCH   7   8
ATOM      8  N   UNL A   1      31.868  27.189  22.090  1.00  0.00    -0.314 N 
ATOM      9  C   UNL A   1      32.369  26.012  21.644  1.00  0.00     0.408 C 
ATOM     10  O   UNL A   1      33.188  26.020  20.734  1.00  0.00    -0.225 OA
ATOM     11  H   UNL A   1      32.070  27.959  21.511  1.00  0.00     0.167 HD
BRANCH   9  12
ATOM     12  O   UNL A   1      31.859  24.915  22.243  1.00  0.00    -0.444 OA
BRANCH  12  13
ATOM     13  C   UNL A   1      32.681  24.222  23.225  1.00  0.00     0.106 C 
ATOM     14  C   UNL A   1      33.029  22.872  22.584  1.00  0.00     0.056 C 
ATOM     15  C   UNL A   1      31.877  23.979  24.507  1.00  0.00     0.056 C 
ATOM     16  C   UNL A   1      34.006  24.950  23.522  1.00  0.00     0.056 C 
ENDBRANCH  12  13
ENDBRANCH   9  12
ENDBRANCH   7   8
BRANCH   7  17
ATOM     17  C   UNL A   1      30.010  28.498  22.847  1.00  0.00    -0.007 A 
ATOM     18  C   UNL A   1      30.262  29.600  22.016  1.00  0.00     0.009 A 
ATOM     19  C   UNL A   1      28.676  28.255  23.166  1.00  0.00     0.116 A 
ATOM     20  C   UNL A   1      29.213  30.387  21.551  1.00  0.00     0.020 A 
ATOM     21  N   UNL A   1      27.636  29.000  22.728  1.00  0.00    -0.264 NA
ATOM     22  C   UNL A   1      27.928  30.047  21.928  1.00  0.00     0.111 A 
ENDBRANCH   7  17
ENDBRANCH   6   7
ENDBRANCH   3   6
ENDBRANCH   1   2
BRANCH   1  23
ATOM     23  C   UNL A   1      34.368  29.563  27.544  1.00  0.00     0.023 C 
BRANCH  23  24
ATOM     24  C   UNL A   1      33.268  30.610  27.560  1.00  0.00     0.023 C 
BRANCH  24  25
ATOM     25  C   UNL A   1      33.700  31.982  27.089  1.00  0.00     0.116 C 
BRANCH  25  26
ATOM     26  N   UNL A   1      32.971  33.083  27.709  1.00  0.00    -0.352 N 
ATOM     27  C   UNL A   1      33.357  33.858  28.779  1.00  0.00     0.251 C 
ATOM     28  H   UNL A   1      32.095  33.297  27.313  1.00  0.00     0.163 HD
ATOM     29  O   UNL A   1      32.618  34.715  29.248  1.00  0.00    -0.269 OA
BRANCH  27  30
ATOM     30  C   UNL A   1      34.673  33.590  29.386  1.00  0.00     0.039 A 
ATOM     31  C   UNL A   1      34.760  32.685  30.445  1.00  0.00     0.014 A 
ATOM     32  C   UNL A   1      35.823  34.126  28.805  1.00  0.00     0.014 A 
ATOM     33  C   UNL A   1      36.016  32.242  30.861  1.00  0.00     0.010 A 
ATOM     34  C   UNL A   1      37.060  33.603  29.145  1.00  0.00     0.010 A 
ATOM     35  C   UNL A   1      37.169  32.658  30.178  1.00  0.00    -0.014 A 
BRANCH  35  36
ATOM     36  C   UNL A   1      38.517  32.143  30.522  1.00  0.00     0.031 A 
ATOM     37  C   UNL A   1      38.989  30.856  29.905  1.00  0.00     0.074 A 
ATOM     38  C   UNL A   1      39.265  32.765  31.453  1.00  0.00     0.049 A 
ATOM     39  N   UNL A   1      40.057  30.151  30.176  1.00  0.00    -0.248 NA
ATOM     40  C   UNL A   1      38.118  30.260  28.877  1.00  0.00     0.031 C 
ATOM     41  C   UNL A   1      38.904  34.000  32.155  1.00  0.00     0.029 A 
ATOM     42  N   UNL A   1      40.487  32.430  31.980  1.00  0.00    -0.354 N 
ATOM     43  C   UNL A   1      39.964  29.016  29.380  1.00  0.00     0.074 A 
ATOM     44  C   UNL A   1      38.712  29.097  28.665  1.00  0.00     0.031 C 
ATOM     45  C   UNL A   1      39.898  34.334  32.993  1.00  0.00     0.029 A 
ATOM     46  C   UNL A   1      40.941  33.316  32.927  1.00  0.00     0.049 A 
ATOM     47  H   UNL A   1      40.991  31.630  31.705  1.00  0.00     0.167 HD
ATOM     48  C   UNL A   1      40.854  28.006  29.239  1.00  0.00     0.031 A 
ATOM     49  C   UNL A   1      42.068  33.303  33.662  1.00  0.00     0.031 A 
ATOM     50  C   UNL A   1      42.112  27.941  29.930  1.00  0.00     0.049 A 
ATOM     51  C   UNL A   1      43.043  32.171  33.489  1.00  0.00     0.074 A 
ATOM     52  C   UNL A   1      43.113  26.993  29.814  1.00  0.00     0.029 A 
ATOM     53  N   UNL A   1      42.543  28.871  30.864  1.00  0.00    -0.354 N 
ATOM     54  N   UNL A   1      42.966  31.129  32.698  1.00  0.00    -0.248 NA
ATOM     55  C   UNL A   1      44.261  32.219  34.308  1.00  0.00     0.031 C 
ATOM     56  C   UNL A   1      44.133  27.328  30.711  1.00  0.00     0.029 A 
ATOM     57  C   UNL A   1      43.789  28.512  31.344  1.00  0.00     0.049 A 
ATOM     58  H   UNL A   1      42.037  29.668  31.143  1.00  0.00     0.167 HD
ATOM     59  C   UNL A   1      44.140  30.415  32.898  1.00  0.00     0.074 A 
ATOM     60  C   UNL A   1      44.914  31.148  33.880  1.00  0.00     0.031 C 
ATOM     61  C   UNL A   1      44.544  29.259  32.318  1.00  0.00     0.031 A 
BRANCH  48  62
ATOM     62  C   UNL A   1      40.481  26.893  28.300  1.00  0.00    -0.014 A 
ATOM     63  C   UNL A   1      40.978  26.850  26.986  1.00  0.00     0.009 A 
ATOM     64  C   UNL A   1      39.616  25.877  28.730  1.00  0.00     0.009 A 
ATOM     65  C   UNL A   1      40.575  25.842  26.109  1.00  0.00     0.001 A 
ATOM     66  C   UNL A   1      39.241  24.850  27.861  1.00  0.00     0.001 A 
ATOM     67  C   UNL A   1      39.710  24.841  26.548  1.00  0.00     0.000 A 
ENDBRANCH  48  62
BRANCH  49  68
ATOM     68  C   UNL A   1      42.354  34.413  34.608  1.00  0.00    -0.014 A 
ATOM     69  C   UNL A   1      41.959  34.315  35.951  1.00  0.00     0.009 A 
ATOM     70  C   UNL A   1      43.022  35.570  34.180  1.00  0.00     0.009 A 
ATOM     71  C   UNL A   1      42.206  35.362  36.841  1.00  0.00     0.001 A 
ATOM     72  C   UNL A   1      43.291  36.605  35.080  1.00  0.00     0.001 A 
ATOM     73  C   UNL A   1      42.876  36.504  36.407  1.00  0.00     0.000 A 
ENDBRANCH  49  68
BRANCH  61  74
ATOM     74  C   UNL A   1      45.901  28.738  32.696  1.00  0.00    -0.014 A 
ATOM     75  C   UNL A   1      46.068  27.831  33.753  1.00  0.00     0.009 A 
ATOM     76  C   UNL A   1      47.023  29.126  31.945  1.00  0.00     0.009 A 
ATOM     77  C   UNL A   1      47.338  27.345  34.069  1.00  0.00     0.001 A 
ATOM     78  C   UNL A   1      48.286  28.617  32.246  1.00  0.00     0.001 A 
ATOM     79  C   UNL A   1      48.444  27.733  33.312  1.00  0.00     0.000 A 
ENDBRANCH  61  74
ENDBRANCH  35  36
ENDBRANCH  27  30
ENDBRANCH  25  26
ENDBRANCH  24  25
ENDBRANCH  23  24
ENDBRANCH   1  23
TORSDOF 16
ENDMDL
MODEL 2
REMARK VINA RESULT:      -9.8      3.795      8.912
REMARK SMILES CC(C)(C)OC(=O)N[C@@H](CC(=O)NCCCCNC(=O)c1ccc(-c2c3nc(c(-c4ccccc4)c4ccc([nH]4)c(-c4ccccc4)c4nc(c(-c5ccccc5)c5ccc2[nH]5)C=C4)C=C3)cc1)c1cccnc1
REMARK SMILES IDX 14 1 13 2 11 3 12 4 10 6 9 7 8 8 6 9 7 10 5 12 2 13 1 14
REMARK SMILES IDX 3 15 4 16 69 17 70 18 74 19 71 20 73 21 72 22 15 23 16 24
REMARK SMILES IDX 17 25 18 26 19 27 20 29 21 30 22 31 68 32 23 33 67 34 24 35
REMARK SMILES IDX 25 36 26 37 61 38 27 39 66 40 60 41 62 42 28 43 65 44 59 45
REMARK SMILES IDX 58 46 29 48 51 49 36 50 50 51 37 52 40 53 49 54 63 55 38 56
REMARK SMILES IDX 39 57 48 59 64 60 41 61 30 62 31 63 35 64 32 65 34 66 33 67
REMARK SMILES IDX 52 68 53 69 57 70 54 71 56 72 55 73 42 74 43 75 47 76 44 77
REMARK SMILES IDX 46 78 45 79
REMARK H PARENT 13 5 8 11 18 28 62 47 40 58
REMARK Flexibility Score: inf
ROOT
ATOM      1  C   UNL A   1      36.825  22.881  24.981  1.00  0.00     0.116 C 
ENDROOT
BRANCH   1   2
ATOM      2  N   UNL A   1      36.142  23.223  23.752  1.00  0.00    -0.356 N 
ATOM      3  C   UNL A   1      34.820  23.465  23.529  1.00  0.00     0.222 C 
ATOM      4  O   UNL A   1      34.479  23.734  22.376  1.00  0.00    -0.275 OA
ATOM      5  H   UNL A   1      36.719  23.290  22.957  1.00  0.00     0.163 HD
BRANCH   3   6
ATOM      6  C   UNL A   1      33.802  23.429  24.657  1.00  0.00     0.130 C 
BRANCH   6   7
ATOM      7  C   UNL A   1      32.489  22.648  24.435  1.00  0.00     0.126 C 
BRANCH   7   8
ATOM      8  N   UNL A   1      31.490  22.894  25.460  1.00  0.00    -0.314 N 
ATOM      9  C   UNL A   1      31.334  23.916  26.335  1.00  0.00     0.408 C 
ATOM     10  O   UNL A   1      30.539  23.795  27.258  1.00  0.00    -0.225 OA
ATOM     11  H   UNL A   1      30.803  22.192  25.533  1.00  0.00     0.167 HD
BRANCH   9  12
ATOM     12  O   UNL A   1      32.067  25.016  26.058  1.00  0.00    -0.444 OA
BRANCH  12  13
ATOM     13  C   UNL A   1      31.371  26.208  25.592  1.00  0.00     0.106 C 
ATOM     14  C   UNL A   1      32.193  26.719  24.401  1.00  0.00     0.056 C 
ATOM     15  C   UNL A   1      31.360  27.275  26.692  1.00  0.00     0.056 C 
ATOM     16  C   UNL A   1      29.948  25.912  25.080  1.00  0.00     0.056 C 
ENDBRANCH  12  13
ENDBRANCH   9  12
ENDBRANCH   7   8
BRANCH   7  17
ATOM     17  C   UNL A   1      32.629  21.146  24.283  1.00  0.00    -0.007 A 
ATOM     18  C   UNL A   1      33.015  20.302  25.335  1.00  0.00     0.009 A 
ATOM     19  C   UNL A   1      32.236  20.522  23.101  1.00  0.00     0.116 A 
ATOM     20  C   UNL A   1      32.993  18.920  25.175  1.00  0.00     0.020 A 
ATOM     21  N   UNL A   1      32.203  19.182  22.916  1.00  0.00    -0.264 NA
ATOM     22  C   UNL A   1      32.579  18.412  23.959  1.00  0.00     0.111 A 
ENDBRANCH   7  17
ENDBRANCH   6   7
ENDBRANCH   3   6
ENDBRANCH   1   2
BRANCH   1  23
ATOM     23  C   UNL A   1      36.626  21.407  25.334  1.00  0.00     0.023 C 
BRANCH  23  24
ATOM     24  C   UNL A   1      37.773  20.476  24.985  1.00  0.00     0.023 C 
BRANCH  24  25
ATOM     25  C   UNL A   1      39.035  20.703  25.791  1.00  0.00     0.116 C 
BRANCH  25  26
ATOM     26  N   UNL A   1      39.957  19.573  25.786  1.00  0.00    -0.352 N 
ATOM     27  C   UNL A   1      41.287  19.564  26.142  1.00  0.00     0.251 C 
ATOM     28  H   UNL A   1      39.582  18.712  25.493  1.00  0.00     0.163 HD
ATOM     29  O   UNL A   1      41.972  18.555  26.031  1.00  0.00    -0.269 OA
BRANCH  27  30
ATOM     30  C   UNL A   1      41.883  20.827  26.614  1.00  0.00     0.039 A 
ATOM     31  C   UNL A   1      42.327  21.760  25.676  1.00  0.00     0.014 A 
ATOM     32  C   UNL A   1      41.863  21.133  27.976  1.00  0.00     0.014 A 
ATOM     33  C   UNL A   1      42.664  23.046  26.100  1.00  0.00     0.010 A 
ATOM     34  C   UNL A   1      42.091  22.439  28.378  1.00  0.00     0.010 A 
ATOM     35  C   UNL A   1      42.495  23.408  27.445  1.00  0.00    -0.014 A 
BRANCH  35  36
ATOM     36  C   UNL A   1      42.750  24.788  27.927  1.00  0.00     0.031 A 
ATOM     37  C   UNL A   1      44.143  25.175  28.339  1.00  0.00     0.074 A 
ATOM     38  C   UNL A   1      41.727  25.648  28.092  1.00  0.00     0.049 A 
ATOM     39  N   UNL A   1      44.559  26.268  28.925  1.00  0.00    -0.248 NA
ATOM     40  C   UNL A   1      45.201  24.180  28.098  1.00  0.00     0.031 C 
ATOM     41  C   UNL A   1      40.323  25.382  27.768  1.00  0.00     0.029 A 
ATOM     42  N   UNL A   1      41.715  26.927  28.591  1.00  0.00    -0.354 N 
ATOM     43  C   UNL A   1      45.914  26.073  29.154  1.00  0.00     0.074 A 
ATOM     44  C   UNL A   1      46.237  24.740  28.700  1.00  0.00     0.031 C 
ATOM     45  C   UNL A   1      39.594  26.475  28.044  1.00  0.00     0.029 A 
ATOM     46  C   UNL A   1      40.466  27.499  28.610  1.00  0.00     0.049 A 
ATOM     47  H   UNL A   1      42.525  27.391  28.904  1.00  0.00     0.167 HD
ATOM     48  C   UNL A   1      46.818  26.936  29.675  1.00  0.00     0.031 A 
ATOM     49  C   UNL A   1      40.069  28.710  29.042  1.00  0.00     0.031 A 
ATOM     50  C   UNL A   1      46.501  28.271  30.099  1.00  0.00     0.049 A 
ATOM     51  C   UNL A   1      41.090  29.653  29.617  1.00  0.00     0.074 A 
ATOM     52  C   UNL A   1      47.352  29.247  30.585  1.00  0.00     0.029 A 
ATOM     53  N   UNL A   1      45.227  28.819  30.081  1.00  0.00    -0.354 N 
ATOM     54  N   UNL A   1      42.377  29.476  29.783  1.00  0.00    -0.248 NA
ATOM     55  C   UNL A   1      40.600  30.966  30.058  1.00  0.00     0.031 C 
ATOM     56  C   UNL A   1      46.585  30.374  30.900  1.00  0.00     0.029 A 
ATOM     57  C   UNL A   1      45.266  30.116  30.561  1.00  0.00     0.049 A 
ATOM     58  H   UNL A   1      44.417  28.354  29.773  1.00  0.00     0.167 HD
ATOM     59  C   UNL A   1      42.859  30.664  30.316  1.00  0.00     0.074 A 
ATOM     60  C   UNL A   1      41.724  31.557  30.438  1.00  0.00     0.031 C 
ATOM     61  C   UNL A   1      44.126  30.989  30.669  1.00  0.00     0.031 A 
BRANCH  48  62
ATOM     62  C   UNL A   1      48.232  26.445  29.811  1.00  0.00    -0.014 A 
ATOM     63  C   UNL A   1      49.161  26.596  28.768  1.00  0.00     0.009 A 
ATOM     64  C   UNL A   1      48.641  25.815  30.996  1.00  0.00     0.009 A 
ATOM     65  C   UNL A   1      50.453  26.082  28.889  1.00  0.00     0.001 A 
ATOM     66  C   UNL A   1      49.945  25.332  31.128  1.00  0.00     0.001 A 
ATOM     67  C   UNL A   1      50.845  25.453  30.070  1.00  0.00     0.000 A 
ENDBRANCH  48  62
BRANCH  49  68
ATOM     68  C   UNL A   1      38.644  29.116  28.921  1.00  0.00    -0.014 A 
ATOM     69  C   UNL A   1      38.169  29.674  27.724  1.00  0.00     0.009 A 
ATOM     70  C   UNL A   1      37.753  28.947  29.991  1.00  0.00     0.009 A 
ATOM     71  C   UNL A   1      36.837  30.076  27.609  1.00  0.00     0.001 A 
ATOM     72  C   UNL A   1      36.414  29.326  29.864  1.00  0.00     0.001 A 
ATOM     73  C   UNL A   1      35.959  29.897  28.676  1.00  0.00     0.000 A 
ENDBRANCH  49  68
BRANCH  61  74
ATOM     74  C   UNL A   1      44.362  32.382  31.178  1.00  0.00    -0.014 A 
ATOM     75  C   UNL A   1      44.642  33.442  30.304  1.00  0.00     0.009 A 
ATOM     76  C   UNL A   1      44.251  32.642  32.554  1.00  0.00     0.009 A 
ATOM     77  C   UNL A   1      44.834  34.733  30.802  1.00  0.00     0.001 A 
ATOM     78  C   UNL A   1      44.417  33.937  33.045  1.00  0.00     0.001 A 
ATOM     79  C   UNL A   1      44.717  34.980  32.170  1.00  0.00     0.000 A 
ENDBRANCH  61  74
ENDBRANCH  35  36
ENDBRANCH  27  30
ENDBRANCH  25  26
ENDBRANCH  24  25
ENDBRANCH  23  24
ENDBRANCH   1  23
TORSDOF 16
ENDMDL
MODEL 3
REMARK VINA RESULT:      -9.7      0.950      6.074
REMARK SMILES CC(C)(C)OC(=O)N[C@@H](CC(=O)NCCCCNC(=O)c1ccc(-c2c3nc(c(-c4ccccc4)c4ccc([nH]4)c(-c4ccccc4)c4nc(c(-c5ccccc5)c5ccc2[nH]5)C=C4)C=C3)cc1)c1cccnc1
REMARK SMILES IDX 14 1 13 2 11 3 12 4 10 6 9 7 8 8 6 9 7 10 5 12 2 13 1 14
REMARK SMILES IDX 3 15 4 16 69 17 70 18 74 19 71 20 73 21 72 22 15 23 16 24
REMARK SMILES IDX 17 25 18 26 19 27 20 29 21 30 22 31 68 32 23 33 67 34 24 35
REMARK SMILES IDX 25 36 26 37 61 38 27 39 66 40 60 41 62 42 28 43 65 44 59 45
REMARK SMILES IDX 58 46 29 48 51 49 36 50 50 51 37 52 40 53 49 54 63 55 38 56
REMARK SMILES IDX 39 57 48 59 64 60 41 61 30 62 31 63 35 64 32 65 34 66 33 67
REMARK SMILES IDX 52 68 53 69 57 70 54 71 56 72 55 73 42 74 43 75 47 76 44 77
REMARK SMILES IDX 46 78 45 79
REMARK H PARENT 13 5 8 11 18 28 62 47 40 58
REMARK Flexibility Score: inf
ROOT
ATOM      1  C   UNL A   1      31.389  28.767  27.599  1.00  0.00     0.116 C 
ENDROOT
BRANCH   1   2
ATOM      2  N   UNL A   1      31.601  27.422  27.104  1.00  0.00    -0.356 N 
ATOM      3  C   UNL A   1      31.700  26.973  25.822  1.00  0.00     0.222 C 
ATOM      4  O   UNL A   1      31.876  25.764  25.658  1.00  0.00    -0.275 OA
ATOM      5  H   UNL A   1      31.685  26.729  27.799  1.00  0.00     0.163 HD
BRANCH   3   6
ATOM      6  C   UNL A   1      31.619  27.919  24.637  1.00  0.00     0.130 C 
BRANCH   6   7
ATOM      7  C   UNL A   1      30.915  27.429  23.353  1.00  0.00     0.126 C 
BRANCH   7   8
ATOM      8  N   UNL A   1      31.830  27.172  22.254  1.00  0.00    -0.314 N 
ATOM      9  C   UNL A   1      32.424  26.031  21.830  1.00  0.00     0.408 C 
ATOM     10  O   UNL A   1      33.333  26.102  21.013  1.00  0.00    -0.225 OA
ATOM     11  H   UNL A   1      32.059  27.969  21.724  1.00  0.00     0.167 HD
BRANCH   9  12
ATOM     12  O   UNL A   1      31.900  24.895  22.338  1.00  0.00    -0.444 OA
BRANCH  12  13
ATOM     13  C   UNL A   1      32.815  23.880  22.842  1.00  0.00     0.106 C 
ATOM     14  C   UNL A   1      33.286  23.106  21.603  1.00  0.00     0.056 C 
ATOM     15  C   UNL A   1      32.075  22.924  23.782  1.00  0.00     0.056 C 
ATOM     16  C   UNL A   1      34.065  24.479  23.517  1.00  0.00     0.056 C 
ENDBRANCH  12  13
ENDBRANCH   9  12
ENDBRANCH   7   8
BRANCH   7  17
ATOM     17  C   UNL A   1      29.804  28.316  22.826  1.00  0.00    -0.007 A 
ATOM     18  C   UNL A   1      28.466  28.191  23.230  1.00  0.00     0.009 A 
ATOM     19  C   UNL A   1      30.105  29.401  22.006  1.00  0.00     0.116 A 
ATOM     20  C   UNL A   1      27.515  29.119  22.817  1.00  0.00     0.020 A 
ATOM     21  N   UNL A   1      29.203  30.320  21.591  1.00  0.00    -0.264 NA
ATOM     22  C   UNL A   1      27.930  30.160  22.009  1.00  0.00     0.111 A 
ENDBRANCH   7  17
ENDBRANCH   6   7
ENDBRANCH   3   6
ENDBRANCH   1   2
BRANCH   1  23
ATOM     23  C   UNL A   1      32.500  29.708  27.137  1.00  0.00     0.023 C 
BRANCH  23  24
ATOM     24  C   UNL A   1      32.093  31.150  26.888  1.00  0.00     0.023 C 
BRANCH  24  25
ATOM     25  C   UNL A   1      33.179  32.168  27.169  1.00  0.00     0.116 C 
BRANCH  25  26
ATOM     26  N   UNL A   1      32.682  33.460  27.624  1.00  0.00    -0.352 N 
ATOM     27  C   UNL A   1      33.249  34.308  28.548  1.00  0.00     0.251 C 
ATOM     28  H   UNL A   1      31.837  33.764  27.220  1.00  0.00     0.163 HD
ATOM     29  O   UNL A   1      32.693  35.343  28.893  1.00  0.00    -0.269 OA
BRANCH  27  30
ATOM     30  C   UNL A   1      34.530  33.906  29.158  1.00  0.00     0.039 A 
ATOM     31  C   UNL A   1      34.515  33.106  30.302  1.00  0.00     0.014 A 
ATOM     32  C   UNL A   1      35.727  34.206  28.508  1.00  0.00     0.014 A 
ATOM     33  C   UNL A   1      35.705  32.523  30.740  1.00  0.00     0.010 A 
ATOM     34  C   UNL A   1      36.884  33.539  28.879  1.00  0.00     0.010 A 
ATOM     35  C   UNL A   1      36.885  32.693  30.000  1.00  0.00    -0.014 A 
BRANCH  35  36
ATOM     36  C   UNL A   1      38.152  32.018  30.373  1.00  0.00     0.031 A 
ATOM     37  C   UNL A   1      39.103  32.711  31.308  1.00  0.00     0.074 A 
ATOM     38  C   UNL A   1      38.492  30.848  29.800  1.00  0.00     0.049 A 
ATOM     39  N   UNL A   1      40.322  32.377  31.646  1.00  0.00    -0.248 NA
ATOM     40  C   UNL A   1      38.636  33.973  31.907  1.00  0.00     0.031 C 
ATOM     41  C   UNL A   1      37.675  30.092  28.847  1.00  0.00     0.029 A 
ATOM     42  N   UNL A   1      39.631  30.094  29.929  1.00  0.00    -0.354 N 
ATOM     43  C   UNL A   1      40.775  33.404  32.464  1.00  0.00     0.074 A 
ATOM     44  C   UNL A   1      39.727  34.397  32.523  1.00  0.00     0.031 C 
ATOM     45  C   UNL A   1      38.325  28.968  28.506  1.00  0.00     0.029 A 
ATOM     46  C   UNL A   1      39.622  28.946  29.174  1.00  0.00     0.049 A 
ATOM     47  H   UNL A   1      40.384  30.351  30.510  1.00  0.00     0.167 HD
ATOM     48  C   UNL A   1      41.950  33.501  33.129  1.00  0.00     0.031 A 
ATOM     49  C   UNL A   1      40.558  27.990  29.033  1.00  0.00     0.031 A 
ATOM     50  C   UNL A   1      42.979  32.500  33.092  1.00  0.00     0.049 A 
ATOM     51  C   UNL A   1      41.856  28.118  29.780  1.00  0.00     0.074 A 
ATOM     52  C   UNL A   1      44.181  32.471  33.775  1.00  0.00     0.029 A 
ATOM     53  N   UNL A   1      42.919  31.341  32.331  1.00  0.00    -0.354 N 
ATOM     54  N   UNL A   1      42.252  29.069  30.589  1.00  0.00    -0.248 NA
ATOM     55  C   UNL A   1      42.832  27.035  29.597  1.00  0.00     0.031 C 
ATOM     56  C   UNL A   1      44.869  31.315  33.395  1.00  0.00     0.029 A 
ATOM     57  C   UNL A   1      44.071  30.598  32.517  1.00  0.00     0.049 A 
ATOM     58  H   UNL A   1      42.170  31.086  31.748  1.00  0.00     0.167 HD
ATOM     59  C   UNL A   1      43.509  28.686  31.039  1.00  0.00     0.074 A 
ATOM     60  C   UNL A   1      43.804  27.410  30.417  1.00  0.00     0.031 C 
ATOM     61  C   UNL A   1      44.342  29.329  31.892  1.00  0.00     0.031 A 
BRANCH  48  62
ATOM     62  C   UNL A   1      42.172  34.744  33.945  1.00  0.00    -0.014 A 
ATOM     63  C   UNL A   1      41.816  34.797  35.303  1.00  0.00     0.009 A 
ATOM     64  C   UNL A   1      42.739  35.879  33.348  1.00  0.00     0.009 A 
ATOM     65  C   UNL A   1      41.975  35.978  36.031  1.00  0.00     0.001 A 
ATOM     66  C   UNL A   1      42.929  37.048  34.088  1.00  0.00     0.001 A 
ATOM     67  C   UNL A   1      42.535  37.101  35.424  1.00  0.00     0.000 A 
ENDBRANCH  48  62
BRANCH  49  68
ATOM     68  C   UNL A   1      40.291  26.808  28.171  1.00  0.00    -0.014 A 
ATOM     69  C   UNL A   1      40.754  26.781  26.847  1.00  0.00     0.009 A 
ATOM     70  C   UNL A   1      39.580  25.703  28.664  1.00  0.00     0.009 A 
ATOM     71  C   UNL A   1      40.491  25.683  26.026  1.00  0.00     0.001 A 
ATOM     72  C   UNL A   1      39.340  24.595  27.847  1.00  0.00     0.001 A 
ATOM     73  C   UNL A   1      39.789  24.588  26.527  1.00  0.00     0.000 A 
ENDBRANCH  49  68
BRANCH  61  74
ATOM     74  C   UNL A   1      45.633  28.643  32.240  1.00  0.00    -0.014 A 
ATOM     75  C   UNL A   1      45.717  27.746  33.316  1.00  0.00     0.009 A 
ATOM     76  C   UNL A   1      46.768  28.863  31.443  1.00  0.00     0.009 A 
ATOM     77  C   UNL A   1      46.923  27.105  33.603  1.00  0.00     0.001 A 
ATOM     78  C   UNL A   1      47.964  28.200  31.717  1.00  0.00     0.001 A 
ATOM     79  C   UNL A   1      48.043  27.328  32.802  1.00  0.00     0.000 A 
ENDBRANCH  61  74
ENDBRANCH  35  36
ENDBRANCH  27  30
ENDBRANCH  25  26
ENDBRANCH  24  25
ENDBRANCH  23  24
ENDBRANCH   1  23
TORSDOF 16
ENDMDL
