MODEL 1
REMARK VINA RESULT:     -10.2      0.000      0.000
REMARK SMILES CC(C)OCCS(=O)(=O)N1CCC[C@H](C(=O)NCCCCNC(=O)c2ccc(-c3c4nc(c(-c5ccccc5)c5ccc([nH]5)c(-c5ccccc5)c5nc(c(-c6ccccc6)c6ccc3[nH]6)C=C5)C=C4)cc2)C1
REMARK SMILES IDX 18 1 17 2 15 3 16 4 14 6 10 7 11 8 73 9 12 10 13 11 7 12
REMARK SMILES IDX 8 13 9 14 6 15 5 16 4 17 2 18 1 19 3 20 19 21 20 22 21 23
REMARK SMILES IDX 22 24 23 25 24 27 25 28 26 29 72 30 27 31 71 32 28 33 29 34
REMARK SMILES IDX 30 35 65 36 31 37 70 38 64 39 66 40 32 41 69 42 63 43 62 44
REMARK SMILES IDX 33 46 55 47 40 48 54 49 41 50 44 51 53 52 67 53 42 54 43 55
REMARK SMILES IDX 52 57 68 58 45 59 34 60 35 61 39 62 36 63 38 64 37 65 56 66
REMARK SMILES IDX 57 67 61 68 58 69 60 70 59 71 46 72 47 73 51 74 48 75 50 76
REMARK SMILES IDX 49 77
REMARK H PARENT 17 5 22 26 66 45 44 56
REMARK Flexibility Score: inf
ROOT
ATOM      1  C   UNL A   1      37.005  23.575  25.220  1.00  0.00     0.116 C 
ENDROOT
BRANCH   1   2
ATOM      2  N   UNL A   1      35.746  23.741  25.915  1.00  0.00    -0.356 N 
ATOM      3  C   UNL A   1      34.512  24.095  25.467  1.00  0.00     0.224 C 
ATOM      4  O   UNL A   1      33.566  23.781  26.202  1.00  0.00    -0.275 OA
ATOM      5  H   UNL A   1      35.790  23.566  26.883  1.00  0.00     0.163 HD
BRANCH   3   6
ATOM      6  C   UNL A   1      34.221  24.850  24.164  1.00  0.00     0.093 C 
ATOM      7  N   UNL A   1      31.923  25.792  24.255  1.00  0.00    -0.201 NA
ATOM      8  C   UNL A   1      31.531  25.086  22.987  1.00  0.00     0.102 C 
ATOM      9  C   UNL A   1      33.363  26.108  24.296  1.00  0.00     0.115 C 
ATOM     10  C   UNL A   1      32.369  23.842  22.696  1.00  0.00     0.018 C 
ATOM     11  C   UNL A   1      33.859  23.990  22.959  1.00  0.00     0.016 C 
BRANCH   7  12
ATOM     12  S   UNL A   1      30.779  26.969  24.720  1.00  0.00     0.216 S 
ATOM     13  O   UNL A   1      31.058  27.284  26.107  1.00  0.00    -0.212 OA
ATOM     14  O   UNL A   1      29.481  26.425  24.362  1.00  0.00    -0.212 OA
BRANCH  12  15
ATOM     15  C   UNL A   1      30.971  28.448  23.715  1.00  0.00     0.182 C 
BRANCH  15  16
ATOM     16  C   UNL A   1      30.188  28.482  22.414  1.00  0.00     0.178 C 
BRANCH  16  17
ATOM     17  O   UNL A   1      29.455  29.702  22.328  1.00  0.00    -0.378 OA
BRANCH  17  18
ATOM     18  C   UNL A   1      28.374  29.908  23.238  1.00  0.00     0.112 C 
ATOM     19  C   UNL A   1      27.816  31.320  23.194  1.00  0.00     0.038 C 
ATOM     20  C   UNL A   1      27.257  28.896  23.089  1.00  0.00     0.038 C 
ENDBRANCH  17  18
ENDBRANCH  16  17
ENDBRANCH  15  16
ENDBRANCH  12  15
ENDBRANCH   7  12
ENDBRANCH   3   6
ENDBRANCH   1   2
BRANCH   1  21
ATOM     21  C   UNL A   1      36.992  22.464  24.180  1.00  0.00     0.023 C 
BRANCH  21  22
ATOM     22  C   UNL A   1      37.432  21.103  24.718  1.00  0.00     0.023 C 
BRANCH  22  23
ATOM     23  C   UNL A   1      38.580  21.125  25.727  1.00  0.00     0.116 C 
BRANCH  23  24
ATOM     24  N   UNL A   1      39.445  19.953  25.676  1.00  0.00    -0.352 N 
ATOM     25  C   UNL A   1      40.774  19.848  26.026  1.00  0.00     0.251 C 
ATOM     26  H   UNL A   1      39.023  19.127  25.347  1.00  0.00     0.163 HD
ATOM     27  O   UNL A   1      41.398  18.818  25.838  1.00  0.00    -0.269 OA
BRANCH  25  28
ATOM     28  C   UNL A   1      41.448  21.032  26.598  1.00  0.00     0.039 A 
ATOM     29  C   UNL A   1      42.023  21.966  25.733  1.00  0.00     0.014 A 
ATOM     30  C   UNL A   1      41.432  21.253  27.977  1.00  0.00     0.014 A 
ATOM     31  C   UNL A   1      42.502  23.171  26.249  1.00  0.00     0.010 A 
ATOM     32  C   UNL A   1      41.829  22.488  28.475  1.00  0.00     0.010 A 
ATOM     33  C   UNL A   1      42.363  23.462  27.617  1.00  0.00    -0.014 A 
BRANCH  33  34
ATOM     34  C   UNL A   1      42.754  24.784  28.167  1.00  0.00     0.031 A 
ATOM     35  C   UNL A   1      41.711  25.842  28.395  1.00  0.00     0.074 A 
ATOM     36  C   UNL A   1      44.055  25.062  28.379  1.00  0.00     0.049 A 
ATOM     37  N   UNL A   1      41.863  27.076  28.806  1.00  0.00    -0.248 NA
ATOM     38  C   UNL A   1      40.319  25.479  28.088  1.00  0.00     0.031 C 
ATOM     39  C   UNL A   1      45.172  24.146  28.134  1.00  0.00     0.029 A 
ATOM     40  N   UNL A   1      44.660  26.205  28.838  1.00  0.00    -0.354 N 
ATOM     41  C   UNL A   1      40.594  27.640  28.778  1.00  0.00     0.074 A 
ATOM     42  C   UNL A   1      39.694  26.634  28.260  1.00  0.00     0.031 C 
ATOM     43  C   UNL A   1      46.321  24.752  28.471  1.00  0.00     0.029 A 
ATOM     44  C   UNL A   1      46.029  26.110  28.917  1.00  0.00     0.049 A 
ATOM     45  H   UNL A   1      44.162  27.016  29.088  1.00  0.00     0.167 HD
ATOM     46  C   UNL A   1      40.208  28.878  29.168  1.00  0.00     0.031 A 
ATOM     47  C   UNL A   1      46.948  27.017  29.302  1.00  0.00     0.031 A 
ATOM     48  C   UNL A   1      41.100  29.871  29.702  1.00  0.00     0.049 A 
ATOM     49  C   UNL A   1      46.494  28.377  29.751  1.00  0.00     0.074 A 
ATOM     50  C   UNL A   1      40.795  31.123  30.205  1.00  0.00     0.029 A 
ATOM     51  N   UNL A   1      42.476  29.723  29.799  1.00  0.00    -0.354 N 
ATOM     52  N   UNL A   1      45.278  28.864  29.809  1.00  0.00    -0.248 NA
ATOM     53  C   UNL A   1      47.538  29.308  30.204  1.00  0.00     0.031 C 
ATOM     54  C   UNL A   1      41.992  31.756  30.553  1.00  0.00     0.029 A 
ATOM     55  C   UNL A   1      43.037  30.875  30.325  1.00  0.00     0.049 A 
ATOM     56  H   UNL A   1      42.978  28.920  29.532  1.00  0.00     0.167 HD
ATOM     57  C   UNL A   1      45.407  30.147  30.324  1.00  0.00     0.074 A 
ATOM     58  C   UNL A   1      46.818  30.355  30.579  1.00  0.00     0.031 C 
ATOM     59  C   UNL A   1      44.443  31.069  30.565  1.00  0.00     0.031 A 
BRANCH  46  60
ATOM     60  C   UNL A   1      38.752  29.225  29.015  1.00  0.00    -0.014 A 
ATOM     61  C   UNL A   1      37.849  29.079  30.082  1.00  0.00     0.009 A 
ATOM     62  C   UNL A   1      38.279  29.719  27.790  1.00  0.00     0.009 A 
ATOM     63  C   UNL A   1      36.495  29.374  29.908  1.00  0.00     0.001 A 
ATOM     64  C   UNL A   1      36.931  30.046  27.630  1.00  0.00     0.001 A 
ATOM     65  C   UNL A   1      36.038  29.861  28.684  1.00  0.00     0.000 A 
ENDBRANCH  46  60
BRANCH  47  66
ATOM     66  C   UNL A   1      48.391  26.658  29.293  1.00  0.00    -0.014 A 
ATOM     67  C   UNL A   1      49.189  26.933  28.172  1.00  0.00     0.009 A 
ATOM     68  C   UNL A   1      48.980  26.048  30.412  1.00  0.00     0.009 A 
ATOM     69  C   UNL A   1      50.542  26.582  28.163  1.00  0.00     0.001 A 
ATOM     70  C   UNL A   1      50.339  25.724  30.411  1.00  0.00     0.001 A 
ATOM     71  C   UNL A   1      51.117  25.984  29.283  1.00  0.00     0.000 A 
ENDBRANCH  47  66
BRANCH  59  72
ATOM     72  C   UNL A   1      44.878  32.379  31.160  1.00  0.00    -0.014 A 
ATOM     73  C   UNL A   1      45.208  33.475  30.347  1.00  0.00     0.009 A 
ATOM     74  C   UNL A   1      44.911  32.532  32.555  1.00  0.00     0.009 A 
ATOM     75  C   UNL A   1      45.594  34.688  30.922  1.00  0.00     0.001 A 
ATOM     76  C   UNL A   1      45.267  33.755  33.125  1.00  0.00     0.001 A 
ATOM     77  C   UNL A   1      45.617  34.828  32.309  1.00  0.00     0.000 A 
ENDBRANCH  59  72
ENDBRANCH  33  34
ENDBRANCH  25  28
ENDBRANCH  23  24
ENDBRANCH  22  23
ENDBRANCH  21  22
ENDBRANCH   1  21
TORSDOF 16
ENDMDL
MODEL 2
REMARK VINA RESULT:     -10.0      2.217      7.889
REMARK SMILES CC(C)OCCS(=O)(=O)N1CCC[C@H](C(=O)NCCCCNC(=O)c2ccc(-c3c4nc(c(-c5ccccc5)c5ccc([nH]5)c(-c5ccccc5)c5nc(c(-c6ccccc6)c6ccc3[nH]6)C=C5)C=C4)cc2)C1
REMARK SMILES IDX 18 1 17 2 15 3 16 4 14 6 10 7 11 8 73 9 12 10 13 11 7 12
REMARK SMILES IDX 8 13 9 14 6 15 5 16 4 17 2 18 1 19 3 20 19 21 20 22 21 23
REMARK SMILES IDX 22 24 23 25 24 27 25 28 26 29 72 30 27 31 71 32 28 33 29 34
REMARK SMILES IDX 30 35 65 36 31 37 70 38 64 39 66 40 32 41 69 42 63 43 62 44
REMARK SMILES IDX 33 46 55 47 40 48 54 49 41 50 44 51 53 52 67 53 42 54 43 55
REMARK SMILES IDX 52 57 68 58 45 59 34 60 35 61 39 62 36 63 38 64 37 65 56 66
REMARK SMILES IDX 57 67 61 68 58 69 60 70 59 71 46 72 47 73 51 74 48 75 50 76
REMARK SMILES IDX 49 77
REMARK H PARENT 17 5 22 26 66 45 44 56
REMARK Flexibility Score: inf
ROOT
ATOM      1  C   UNL A   1      31.082  26.664  26.354  1.00  0.00     0.116 C 
ENDROOT
BRANCH   1   2
ATOM      2  N   UNL A   1      30.755  27.059  25.000  1.00  0.00    -0.356 N 
ATOM      3  C   UNL A   1      31.105  26.526  23.799  1.00  0.00     0.224 C 
ATOM      4  O   UNL A   1      30.376  26.831  22.846  1.00  0.00    -0.275 OA
ATOM      5  H   UNL A   1      30.177  27.853  24.937  1.00  0.00     0.163 HD
BRANCH   3   6
ATOM      6  C   UNL A   1      32.314  25.616  23.547  1.00  0.00     0.093 C 
ATOM      7  N   UNL A   1      32.508  23.971  25.400  1.00  0.00    -0.201 NA
ATOM      8  C   UNL A   1      33.916  24.403  25.702  1.00  0.00     0.102 C 
ATOM      9  C   UNL A   1      32.159  24.158  23.979  1.00  0.00     0.115 C 
ATOM     10  C   UNL A   1      34.228  25.828  25.249  1.00  0.00     0.018 C 
ATOM     11  C   UNL A   1      33.678  26.208  23.882  1.00  0.00     0.016 C 
BRANCH   7  12
ATOM     12  S   UNL A   1      32.093  22.520  26.196  1.00  0.00     0.216 S 
ATOM     13  O   UNL A   1      30.739  22.203  25.786  1.00  0.00    -0.212 OA
ATOM     14  O   UNL A   1      32.375  22.743  27.602  1.00  0.00    -0.212 OA
BRANCH  12  15
ATOM     15  C   UNL A   1      33.201  21.198  25.689  1.00  0.00     0.182 C 
BRANCH  15  16
ATOM     16  C   UNL A   1      32.547  19.972  25.076  1.00  0.00     0.178 C 
BRANCH  16  17
ATOM     17  O   UNL A   1      33.507  19.253  24.305  1.00  0.00    -0.378 OA
BRANCH  17  18
ATOM     18  C   UNL A   1      33.747  17.883  24.631  1.00  0.00     0.112 C 
ATOM     19  C   UNL A   1      32.615  17.250  25.422  1.00  0.00     0.038 C 
ATOM     20  C   UNL A   1      34.093  17.027  23.430  1.00  0.00     0.038 C 
ENDBRANCH  17  18
ENDBRANCH  16  17
ENDBRANCH  15  16
ENDBRANCH  12  15
ENDBRANCH   7  12
ENDBRANCH   3   6
ENDBRANCH   1   2
BRANCH   1  21
ATOM     21  C   UNL A   1      31.441  27.829  27.265  1.00  0.00     0.023 C 
BRANCH  21  22
ATOM     22  C   UNL A   1      32.294  28.903  26.593  1.00  0.00     0.023 C 
BRANCH  22  23
ATOM     23  C   UNL A   1      33.637  29.201  27.258  1.00  0.00     0.116 C 
BRANCH  23  24
ATOM     24  N   UNL A   1      33.695  30.488  27.940  1.00  0.00    -0.352 N 
ATOM     25  C   UNL A   1      34.735  31.036  28.661  1.00  0.00     0.251 C 
ATOM     26  H   UNL A   1      32.882  31.041  27.877  1.00  0.00     0.163 HD
ATOM     27  O   UNL A   1      34.605  32.088  29.260  1.00  0.00    -0.269 OA
BRANCH  25  28
ATOM     28  C   UNL A   1      36.010  30.292  28.732  1.00  0.00     0.039 A 
ATOM     29  C   UNL A   1      36.868  30.315  27.630  1.00  0.00     0.014 A 
ATOM     30  C   UNL A   1      36.385  29.649  29.913  1.00  0.00     0.014 A 
ATOM     31  C   UNL A   1      38.147  29.768  27.748  1.00  0.00     0.010 A 
ATOM     32  C   UNL A   1      37.687  29.185  30.056  1.00  0.00     0.010 A 
ATOM     33  C   UNL A   1      38.584  29.245  28.977  1.00  0.00    -0.014 A 
BRANCH  33  34
ATOM     34  C   UNL A   1      39.978  28.770  29.161  1.00  0.00     0.031 A 
ATOM     35  C   UNL A   1      41.027  29.704  29.696  1.00  0.00     0.074 A 
ATOM     36  C   UNL A   1      40.318  27.528  28.766  1.00  0.00     0.049 A 
ATOM     37  N   UNL A   1      42.308  29.496  29.865  1.00  0.00    -0.248 NA
ATOM     38  C   UNL A   1      40.587  31.061  30.053  1.00  0.00     0.031 C 
ATOM     39  C   UNL A   1      39.410  26.545  28.170  1.00  0.00     0.029 A 
ATOM     40  N   UNL A   1      41.529  26.881  28.795  1.00  0.00    -0.354 N 
ATOM     41  C   UNL A   1      42.828  30.701  30.319  1.00  0.00     0.074 A 
ATOM     42  C   UNL A   1      41.736  31.649  30.348  1.00  0.00     0.031 C 
ATOM     43  C   UNL A   1      40.088  25.414  27.915  1.00  0.00     0.029 A 
ATOM     44  C   UNL A   1      41.485  25.603  28.293  1.00  0.00     0.049 A 
ATOM     45  H   UNL A   1      42.352  27.294  29.144  1.00  0.00     0.167 HD
ATOM     46  C   UNL A   1      44.095  30.989  30.699  1.00  0.00     0.031 A 
ATOM     47  C   UNL A   1      42.461  24.686  28.147  1.00  0.00     0.031 A 
ATOM     48  C   UNL A   1      45.175  30.040  30.691  1.00  0.00     0.049 A 
ATOM     49  C   UNL A   1      43.855  25.020  28.597  1.00  0.00     0.074 A 
ATOM     50  C   UNL A   1      46.474  30.208  31.136  1.00  0.00     0.029 A 
ATOM     51  N   UNL A   1      45.081  28.744  30.206  1.00  0.00    -0.354 N 
ATOM     52  N   UNL A   1      44.310  26.135  29.114  1.00  0.00    -0.248 NA
ATOM     53  C   UNL A   1      44.867  23.963  28.457  1.00  0.00     0.031 C 
ATOM     54  C   UNL A   1      47.182  29.032  30.869  1.00  0.00     0.029 A 
ATOM     55  C   UNL A   1      46.308  28.111  30.314  1.00  0.00     0.049 A 
ATOM     56  H   UNL A   1      44.263  28.335  29.840  1.00  0.00     0.167 HD
ATOM     57  C   UNL A   1      45.654  25.908  29.382  1.00  0.00     0.074 A 
ATOM     58  C   UNL A   1      45.934  24.543  28.987  1.00  0.00     0.031 C 
ATOM     59  C   UNL A   1      46.573  26.754  29.910  1.00  0.00     0.031 A 
BRANCH  46  60
ATOM     60  C   UNL A   1      44.377  32.397  31.145  1.00  0.00    -0.014 A 
ATOM     61  C   UNL A   1      44.790  33.385  30.234  1.00  0.00     0.009 A 
ATOM     62  C   UNL A   1      44.216  32.746  32.494  1.00  0.00     0.009 A 
ATOM     63  C   UNL A   1      45.080  34.677  30.675  1.00  0.00     0.001 A 
ATOM     64  C   UNL A   1      44.473  34.049  32.926  1.00  0.00     0.001 A 
ATOM     65  C   UNL A   1      44.918  35.009  32.019  1.00  0.00     0.000 A 
ENDBRANCH  46  60
BRANCH  47  66
ATOM     66  C   UNL A   1      42.144  23.355  27.564  1.00  0.00    -0.014 A 
ATOM     67  C   UNL A   1      41.501  22.373  28.332  1.00  0.00     0.009 A 
ATOM     68  C   UNL A   1      42.476  23.064  26.231  1.00  0.00     0.009 A 
ATOM     69  C   UNL A   1      41.217  21.119  27.785  1.00  0.00     0.001 A 
ATOM     70  C   UNL A   1      42.166  21.820  25.678  1.00  0.00     0.001 A 
ATOM     71  C   UNL A   1      41.544  20.846  26.458  1.00  0.00     0.000 A 
ENDBRANCH  47  66
BRANCH  59  72
ATOM     72  C   UNL A   1      47.962  26.220  30.115  1.00  0.00    -0.014 A 
ATOM     73  C   UNL A   1      48.905  26.221  29.075  1.00  0.00     0.009 A 
ATOM     74  C   UNL A   1      48.346  25.754  31.382  1.00  0.00     0.009 A 
ATOM     75  C   UNL A   1      50.195  25.734  29.294  1.00  0.00     0.001 A 
ATOM     76  C   UNL A   1      49.646  25.297  31.605  1.00  0.00     0.001 A 
ATOM     77  C   UNL A   1      50.565  25.279  30.559  1.00  0.00     0.000 A 
ENDBRANCH  59  72
ENDBRANCH  33  34
ENDBRANCH  25  28
ENDBRANCH  23  24
ENDBRANCH  22  23
ENDBRANCH  21  22
ENDBRANCH   1  21
TORSDOF 16
ENDMDL
MODEL 3
REMARK VINA RESULT:     -10.0      3.269      8.478
REMARK SMILES CC(C)OCCS(=O)(=O)N1CCC[C@H](C(=O)NCCCCNC(=O)c2ccc(-c3c4nc(c(-c5ccccc5)c5ccc([nH]5)c(-c5ccccc5)c5nc(c(-c6ccccc6)c6ccc3[nH]6)C=C5)C=C4)cc2)C1
REMARK SMILES IDX 18 1 17 2 15 3 16 4 14 6 10 7 11 8 73 9 12 10 13 11 7 12
REMARK SMILES IDX 8 13 9 14 6 15 5 16 4 17 2 18 1 19 3 20 19 21 20 22 21 23
REMARK SMILES IDX 22 24 23 25 24 27 25 28 26 29 72 30 27 31 71 32 28 33 29 34
REMARK SMILES IDX 30 35 65 36 31 37 70 38 64 39 66 40 32 41 69 42 63 43 62 44
REMARK SMILES IDX 33 46 55 47 40 48 54 49 41 50 44 51 53 52 67 53 42 54 43 55
REMARK SMILES IDX 52 57 68 58 45 59 34 60 35 61 39 62 36 63 38 64 37 65 56 66
REMARK SMILES IDX 57 67 61 68 58 69 60 70 59 71 46 72 47 73 51 74 48 75 50 76
REMARK SMILES IDX 49 77
REMARK H PARENT 17 5 22 26 66 45 44 56
REMARK Flexibility Score: inf
ROOT
ATOM      1  C   UNL A   1      32.044  27.822  25.652  1.00  0.00     0.116 C 
ENDROOT
BRANCH   1   2
ATOM      2  N   UNL A   1      31.019  27.049  26.322  1.00  0.00    -0.356 N 
ATOM      3  C   UNL A   1      30.186  26.077  25.868  1.00  0.00     0.224 C 
ATOM      4  O   UNL A   1      29.699  25.340  26.736  1.00  0.00    -0.275 OA
ATOM      5  H   UNL A   1      30.907  27.265  27.276  1.00  0.00     0.163 HD
BRANCH   3   6
ATOM      6  C   UNL A   1      29.802  25.847  24.400  1.00  0.00     0.093 C 
ATOM      7  N   UNL A   1      31.856  25.843  23.002  1.00  0.00    -0.201 NA
ATOM      8  C   UNL A   1      31.323  26.944  22.129  1.00  0.00     0.102 C 
ATOM      9  C   UNL A   1      30.779  25.013  23.574  1.00  0.00     0.115 C 
ATOM     10  C   UNL A   1      30.272  27.815  22.816  1.00  0.00     0.018 C 
ATOM     11  C   UNL A   1      29.254  27.058  23.655  1.00  0.00     0.016 C 
BRANCH   7  12
ATOM     12  S   UNL A   1      33.241  25.102  22.335  1.00  0.00     0.216 S 
ATOM     13  O   UNL A   1      34.358  25.501  23.168  1.00  0.00    -0.212 OA
ATOM     14  O   UNL A   1      33.242  25.457  20.927  1.00  0.00    -0.212 OA
BRANCH  12  15
ATOM     15  C   UNL A   1      33.066  23.313  22.378  1.00  0.00     0.182 C 
BRANCH  15  16
ATOM     16  C   UNL A   1      33.952  22.576  23.367  1.00  0.00     0.178 C 
BRANCH  16  17
ATOM     17  O   UNL A   1      33.268  22.437  24.610  1.00  0.00    -0.378 OA
BRANCH  17  18
ATOM     18  C   UNL A   1      33.914  22.907  25.794  1.00  0.00     0.112 C 
ATOM     19  C   UNL A   1      33.384  24.248  26.271  1.00  0.00     0.038 C 
ATOM     20  C   UNL A   1      33.904  21.903  26.929  1.00  0.00     0.038 C 
ENDBRANCH  17  18
ENDBRANCH  16  17
ENDBRANCH  15  16
ENDBRANCH  12  15
ENDBRANCH   7  12
ENDBRANCH   3   6
ENDBRANCH   1   2
BRANCH   1  21
ATOM     21  C   UNL A   1      31.761  29.317  25.615  1.00  0.00     0.023 C 
BRANCH  21  22
ATOM     22  C   UNL A   1      31.908  30.011  26.968  1.00  0.00     0.023 C 
BRANCH  22  23
ATOM     23  C   UNL A   1      32.985  31.093  27.048  1.00  0.00     0.116 C 
BRANCH  23  24
ATOM     24  N   UNL A   1      32.469  32.434  27.296  1.00  0.00    -0.352 N 
ATOM     25  C   UNL A   1      33.039  33.455  28.026  1.00  0.00     0.251 C 
ATOM     26  H   UNL A   1      31.597  32.637  26.886  1.00  0.00     0.163 HD
ATOM     27  O   UNL A   1      32.443  34.498  28.228  1.00  0.00    -0.269 OA
BRANCH  25  28
ATOM     28  C   UNL A   1      34.383  33.242  28.605  1.00  0.00     0.039 A 
ATOM     29  C   UNL A   1      34.495  32.575  29.826  1.00  0.00     0.014 A 
ATOM     30  C   UNL A   1      35.523  33.628  27.897  1.00  0.00     0.014 A 
ATOM     31  C   UNL A   1      35.758  32.211  30.294  1.00  0.00     0.010 A 
ATOM     32  C   UNL A   1      36.771  33.188  28.320  1.00  0.00     0.010 A 
ATOM     33  C   UNL A   1      36.902  32.471  29.519  1.00  0.00    -0.014 A 
BRANCH  33  34
ATOM     34  C   UNL A   1      38.241  31.987  29.937  1.00  0.00     0.031 A 
ATOM     35  C   UNL A   1      38.765  30.677  29.416  1.00  0.00     0.074 A 
ATOM     36  C   UNL A   1      38.948  32.680  30.851  1.00  0.00     0.049 A 
ATOM     37  N   UNL A   1      39.878  30.057  29.714  1.00  0.00    -0.248 NA
ATOM     38  C   UNL A   1      37.910  29.953  28.464  1.00  0.00     0.031 C 
ATOM     39  C   UNL A   1      38.524  33.931  31.484  1.00  0.00     0.029 A 
ATOM     40  N   UNL A   1      40.173  32.424  31.415  1.00  0.00    -0.354 N 
ATOM     41  C   UNL A   1      39.841  28.861  29.009  1.00  0.00     0.074 A 
ATOM     42  C   UNL A   1      38.574  28.817  28.313  1.00  0.00     0.031 C 
ATOM     43  C   UNL A   1      39.482  34.345  32.329  1.00  0.00     0.029 A 
ATOM     44  C   UNL A   1      40.570  33.373  32.326  1.00  0.00     0.049 A 
ATOM     45  H   UNL A   1      40.716  31.635  31.189  1.00  0.00     0.167 HD
ATOM     46  C   UNL A   1      40.786  27.893  28.930  1.00  0.00     0.031 A 
ATOM     47  C   UNL A   1      41.684  33.450  33.080  1.00  0.00     0.031 A 
ATOM     48  C   UNL A   1      42.053  27.947  29.605  1.00  0.00     0.049 A 
ATOM     49  C   UNL A   1      42.728  32.377  32.959  1.00  0.00     0.074 A 
ATOM     50  C   UNL A   1      43.112  27.059  29.523  1.00  0.00     0.029 A 
ATOM     51  N   UNL A   1      42.432  28.943  30.492  1.00  0.00    -0.354 N 
ATOM     52  N   UNL A   1      42.719  31.298  32.215  1.00  0.00    -0.248 NA
ATOM     53  C   UNL A   1      43.942  32.539  33.771  1.00  0.00     0.031 C 
ATOM     54  C   UNL A   1      44.109  27.489  30.403  1.00  0.00     0.029 A 
ATOM     55  C   UNL A   1      43.697  28.676  30.988  1.00  0.00     0.049 A 
ATOM     56  H   UNL A   1      41.883  29.724  30.734  1.00  0.00     0.167 HD
ATOM     57  C   UNL A   1      43.933  30.665  32.450  1.00  0.00     0.074 A 
ATOM     58  C   UNL A   1      44.659  31.491  33.392  1.00  0.00     0.031 C 
ATOM     59  C   UNL A   1      44.404  29.504  31.931  1.00  0.00     0.031 A 
BRANCH  46  60
ATOM     60  C   UNL A   1      40.468  26.688  28.088  1.00  0.00    -0.014 A 
ATOM     61  C   UNL A   1      40.927  26.578  26.764  1.00  0.00     0.009 A 
ATOM     62  C   UNL A   1      39.709  25.640  28.631  1.00  0.00     0.009 A 
ATOM     63  C   UNL A   1      40.591  25.466  25.989  1.00  0.00     0.001 A 
ATOM     64  C   UNL A   1      39.404  24.514  27.864  1.00  0.00     0.001 A 
ATOM     65  C   UNL A   1      39.833  24.434  26.541  1.00  0.00     0.000 A 
ENDBRANCH  46  60
BRANCH  47  66
ATOM     66  C   UNL A   1      41.874  34.600  34.004  1.00  0.00    -0.014 A 
ATOM     67  C   UNL A   1      42.457  35.792  33.550  1.00  0.00     0.009 A 
ATOM     68  C   UNL A   1      41.463  34.513  35.344  1.00  0.00     0.009 A 
ATOM     69  C   UNL A   1      42.646  36.866  34.424  1.00  0.00     0.001 A 
ATOM     70  C   UNL A   1      41.628  35.598  36.208  1.00  0.00     0.001 A 
ATOM     71  C   UNL A   1      42.226  36.770  35.749  1.00  0.00     0.000 A 
ENDBRANCH  47  66
BRANCH  59  72
ATOM     72  C   UNL A   1      45.780  29.071  32.351  1.00  0.00    -0.014 A 
ATOM     73  C   UNL A   1      45.977  28.247  33.470  1.00  0.00     0.009 A 
ATOM     74  C   UNL A   1      46.892  29.456  31.585  1.00  0.00     0.009 A 
ATOM     75  C   UNL A   1      47.264  27.844  33.830  1.00  0.00     0.001 A 
ATOM     76  C   UNL A   1      48.174  29.026  31.931  1.00  0.00     0.001 A 
ATOM     77  C   UNL A   1      48.359  28.229  33.058  1.00  0.00     0.000 A 
ENDBRANCH  59  72
ENDBRANCH  33  34
ENDBRANCH  25  28
ENDBRANCH  23  24
ENDBRANCH  22  23
ENDBRANCH  21  22
ENDBRANCH   1  21
TORSDOF 16
ENDMDL
