MODEL 1
REMARK VINA RESULT:     -10.8      0.000      0.000
REMARK SMILES C[C@@H](C(=O)NCCCCNC(=O)c1ccc(-c2c3nc(c(-c4ccccc4)c4ccc([nH]4)c(-c4ccccc4)c4nc(c(-c5ccccc5)c5ccc2[nH]5)C=C4)C=C3)cc1)[C@@H](C)C(=O)c1ccc(Br)cc1
REMARK SMILES IDX 7 1 6 2 5 3 3 4 4 5 2 7 1 8 61 9 62 10 63 11 64 12 65 13
REMARK SMILES IDX 66 14 71 15 67 16 70 17 68 18 69 19 8 20 9 21 10 22 11 23
REMARK SMILES IDX 12 25 13 26 14 27 60 28 15 29 59 30 16 31 17 32 18 33 53 34
REMARK SMILES IDX 19 35 58 36 52 37 54 38 20 39 57 40 51 41 50 42 21 44 43 45
REMARK SMILES IDX 28 46 42 47 29 48 32 49 41 50 55 51 30 52 31 53 40 55 56 56
REMARK SMILES IDX 33 57 22 58 23 59 27 60 24 61 26 62 25 63 44 64 45 65 49 66
REMARK SMILES IDX 46 67 48 68 47 69 34 70 35 71 39 72 36 73 38 74 37 75
REMARK H PARENT 5 6 10 24 54 43 32 54
REMARK Flexibility Score: inf
ROOT
ATOM      1  C   UNL A   1      36.375  20.281  25.013  1.00  0.00     0.023 C 
ENDROOT
BRANCH   1   2
ATOM      2  C   UNL A   1      36.333  21.733  25.491  1.00  0.00     0.116 C 
BRANCH   2   3
ATOM      3  N   UNL A   1      35.478  21.878  26.654  1.00  0.00    -0.356 N 
ATOM      4  C   UNL A   1      34.319  22.576  26.810  1.00  0.00     0.223 C 
ATOM      5  O   UNL A   1      33.872  22.679  27.949  1.00  0.00    -0.275 OA
ATOM      6  H   UNL A   1      35.783  21.396  27.456  1.00  0.00     0.163 HD
BRANCH   4   7
ATOM      7  C   UNL A   1      33.626  23.187  25.592  1.00  0.00     0.086 C 
ATOM      8  C   UNL A   1      33.316  24.662  25.877  1.00  0.00     0.019 C 
BRANCH   7   9
ATOM      9  C   UNL A   1      32.340  22.407  25.227  1.00  0.00     0.070 C 
ATOM     10  C   UNL A   1      31.139  23.330  24.989  1.00  0.00     0.017 C 
BRANCH   9  11
ATOM     11  C   UNL A   1      32.438  21.422  24.052  1.00  0.00     0.166 C 
ATOM     12  O   UNL A   1      32.604  21.820  22.899  1.00  0.00    -0.294 OA
BRANCH  11  13
ATOM     13  C   UNL A   1      32.560  19.957  24.288  1.00  0.00     0.018 A 
ATOM     14  C   UNL A   1      32.740  19.537  25.615  1.00  0.00     0.013 A 
ATOM     15  C   UNL A   1      32.533  19.009  23.263  1.00  0.00     0.013 A 
ATOM     16  C   UNL A   1      32.847  18.178  25.919  1.00  0.00     0.016 A 
ATOM     17  C   UNL A   1      32.635  17.647  23.568  1.00  0.00     0.016 A 
ATOM     18  C   UNL A   1      32.784  17.238  24.893  1.00  0.00     0.018 A 
ATOM     19  Br  UNL A   1      32.919  15.397  25.297  1.00  0.00    -0.051 Br
ENDBRANCH  11  13
ENDBRANCH   9  11
ENDBRANCH   7   9
ENDBRANCH   4   7
ENDBRANCH   2   3
ENDBRANCH   1   2
BRANCH   1  20
ATOM     20  C   UNL A   1      37.775  19.744  24.704  1.00  0.00     0.023 C 
BRANCH  20  21
ATOM     21  C   UNL A   1      38.868  20.194  25.665  1.00  0.00     0.116 C 
BRANCH  21  22
ATOM     22  N   UNL A   1      39.953  19.231  25.777  1.00  0.00    -0.352 N 
ATOM     23  C   UNL A   1      41.255  19.426  26.157  1.00  0.00     0.251 C 
ATOM     24  H   UNL A   1      39.716  18.304  25.545  1.00  0.00     0.163 HD
ATOM     25  O   UNL A   1      42.066  18.508  26.054  1.00  0.00    -0.269 OA
BRANCH  23  26
ATOM     26  C   UNL A   1      41.696  20.743  26.664  1.00  0.00     0.039 A 
ATOM     27  C   UNL A   1      42.130  21.702  25.744  1.00  0.00     0.014 A 
ATOM     28  C   UNL A   1      41.686  21.037  28.031  1.00  0.00     0.014 A 
ATOM     29  C   UNL A   1      42.500  22.971  26.192  1.00  0.00     0.010 A 
ATOM     30  C   UNL A   1      41.977  22.328  28.465  1.00  0.00     0.010 A 
ATOM     31  C   UNL A   1      42.394  23.307  27.552  1.00  0.00    -0.014 A 
BRANCH  31  32
ATOM     32  C   UNL A   1      42.717  24.678  28.021  1.00  0.00     0.031 A 
ATOM     33  C   UNL A   1      44.143  25.084  28.275  1.00  0.00     0.074 A 
ATOM     34  C   UNL A   1      41.718  25.554  28.247  1.00  0.00     0.049 A 
ATOM     35  N   UNL A   1      44.613  26.237  28.679  1.00  0.00    -0.248 NA
ATOM     36  C   UNL A   1      45.176  24.055  28.070  1.00  0.00     0.031 C 
ATOM     37  C   UNL A   1      40.289  25.272  28.089  1.00  0.00     0.029 A 
ATOM     38  N   UNL A   1      41.752  26.864  28.657  1.00  0.00    -0.354 N 
ATOM     39  C   UNL A   1      45.989  26.073  28.773  1.00  0.00     0.074 A 
ATOM     40  C   UNL A   1      46.273  24.692  28.451  1.00  0.00     0.031 C 
ATOM     41  C   UNL A   1      39.588  26.383  28.363  1.00  0.00     0.029 A 
ATOM     42  C   UNL A   1      40.511  27.444  28.751  1.00  0.00     0.049 A 
ATOM     43  H   UNL A   1      42.588  27.342  28.862  1.00  0.00     0.167 HD
ATOM     44  C   UNL A   1      46.937  26.993  29.072  1.00  0.00     0.031 A 
ATOM     45  C   UNL A   1      40.154  28.691  29.112  1.00  0.00     0.031 A 
ATOM     46  C   UNL A   1      46.658  28.366  29.400  1.00  0.00     0.049 A 
ATOM     47  C   UNL A   1      41.224  29.688  29.459  1.00  0.00     0.074 A 
ATOM     48  C   UNL A   1      47.551  29.384  29.689  1.00  0.00     0.029 A 
ATOM     49  N   UNL A   1      45.387  28.915  29.484  1.00  0.00    -0.354 N 
ATOM     50  N   UNL A   1      42.526  29.533  29.475  1.00  0.00    -0.248 NA
ATOM     51  C   UNL A   1      40.773  31.039  29.822  1.00  0.00     0.031 C 
ATOM     52  C   UNL A   1      46.819  30.535  29.995  1.00  0.00     0.029 A 
ATOM     53  C   UNL A   1      45.472  30.252  29.836  1.00  0.00     0.049 A 
ATOM     54  H   UNL A   1      44.549  28.427  29.317  1.00  0.00     0.167 HD
ATOM     55  C   UNL A   1      43.050  30.772  29.821  1.00  0.00     0.074 A 
ATOM     56  C   UNL A   1      41.926  31.673  29.980  1.00  0.00     0.031 C 
ATOM     57  C   UNL A   1      44.345  31.134  29.993  1.00  0.00     0.031 A 
BRANCH  44  58
ATOM     58  C   UNL A   1      48.371  26.541  29.051  1.00  0.00    -0.014 A 
ATOM     59  C   UNL A   1      49.144  26.644  27.883  1.00  0.00     0.009 A 
ATOM     60  C   UNL A   1      48.970  26.040  30.216  1.00  0.00     0.009 A 
ATOM     61  C   UNL A   1      50.476  26.224  27.873  1.00  0.00     0.001 A 
ATOM     62  C   UNL A   1      50.311  25.649  30.213  1.00  0.00     0.001 A 
ATOM     63  C   UNL A   1      51.059  25.732  29.040  1.00  0.00     0.000 A 
ENDBRANCH  44  58
BRANCH  45  64
ATOM     64  C   UNL A   1      38.717  29.077  29.155  1.00  0.00    -0.014 A 
ATOM     65  C   UNL A   1      38.070  29.560  28.006  1.00  0.00     0.009 A 
ATOM     66  C   UNL A   1      37.994  28.989  30.353  1.00  0.00     0.009 A 
ATOM     67  C   UNL A   1      36.740  29.983  28.068  1.00  0.00     0.001 A 
ATOM     68  C   UNL A   1      36.654  29.381  30.405  1.00  0.00     0.001 A 
ATOM     69  C   UNL A   1      36.033  29.890  29.266  1.00  0.00     0.000 A 
ENDBRANCH  45  64
BRANCH  57  70
ATOM     70  C   UNL A   1      44.613  32.573  30.337  1.00  0.00    -0.014 A 
ATOM     71  C   UNL A   1      44.784  33.545  29.338  1.00  0.00     0.009 A 
ATOM     72  C   UNL A   1      44.676  32.964  31.684  1.00  0.00     0.009 A 
ATOM     73  C   UNL A   1      45.060  34.870  29.683  1.00  0.00     0.001 A 
ATOM     74  C   UNL A   1      44.919  34.295  32.025  1.00  0.00     0.001 A 
ATOM     75  C   UNL A   1      45.123  35.244  31.024  1.00  0.00     0.000 A 
ENDBRANCH  57  70
ENDBRANCH  31  32
ENDBRANCH  23  26
ENDBRANCH  21  22
ENDBRANCH  20  21
ENDBRANCH   1  20
TORSDOF 14
ENDMDL
MODEL 2
REMARK VINA RESULT:     -10.7      5.648     10.341
REMARK SMILES C[C@@H](C(=O)NCCCCNC(=O)c1ccc(-c2c3nc(c(-c4ccccc4)c4ccc([nH]4)c(-c4ccccc4)c4nc(c(-c5ccccc5)c5ccc2[nH]5)C=C4)C=C3)cc1)[C@@H](C)C(=O)c1ccc(Br)cc1
REMARK SMILES IDX 7 1 6 2 5 3 3 4 4 5 2 7 1 8 61 9 62 10 63 11 64 12 65 13
REMARK SMILES IDX 66 14 71 15 67 16 70 17 68 18 69 19 8 20 9 21 10 22 11 23
REMARK SMILES IDX 12 25 13 26 14 27 60 28 15 29 59 30 16 31 17 32 18 33 53 34
REMARK SMILES IDX 19 35 58 36 52 37 54 38 20 39 57 40 51 41 50 42 21 44 43 45
REMARK SMILES IDX 28 46 42 47 29 48 32 49 41 50 55 51 30 52 31 53 40 55 56 56
REMARK SMILES IDX 33 57 22 58 23 59 27 60 24 61 26 62 25 63 44 64 45 65 49 66
REMARK SMILES IDX 46 67 48 68 47 69 34 70 35 71 39 72 36 73 38 74 37 75
REMARK H PARENT 5 6 10 24 54 43 32 54
REMARK Flexibility Score: inf
ROOT
ATOM      1  C   UNL A   1      31.426  30.805  25.766  1.00  0.00     0.023 C 
ENDROOT
BRANCH   1   2
ATOM      2  C   UNL A   1      32.706  30.063  26.156  1.00  0.00     0.116 C 
BRANCH   2   3
ATOM      3  N   UNL A   1      33.341  29.467  24.996  1.00  0.00    -0.356 N 
ATOM      4  C   UNL A   1      33.183  28.232  24.446  1.00  0.00     0.223 C 
ATOM      5  O   UNL A   1      33.967  27.905  23.558  1.00  0.00    -0.275 OA
ATOM      6  H   UNL A   1      33.988  30.047  24.534  1.00  0.00     0.163 HD
BRANCH   4   7
ATOM      7  C   UNL A   1      32.059  27.317  24.932  1.00  0.00     0.086 C 
ATOM      8  C   UNL A   1      32.652  26.225  25.830  1.00  0.00     0.019 C 
BRANCH   7   9
ATOM      9  C   UNL A   1      31.280  26.702  23.745  1.00  0.00     0.070 C 
ATOM     10  C   UNL A   1      31.459  25.182  23.648  1.00  0.00     0.017 C 
BRANCH   9  11
ATOM     11  C   UNL A   1      29.779  27.022  23.662  1.00  0.00     0.166 C 
ATOM     12  O   UNL A   1      28.946  26.329  24.248  1.00  0.00    -0.294 OA
BRANCH  11  13
ATOM     13  C   UNL A   1      29.299  28.297  23.061  1.00  0.00     0.018 A 
ATOM     14  C   UNL A   1      30.244  29.073  22.373  1.00  0.00     0.013 A 
ATOM     15  C   UNL A   1      27.985  28.754  23.178  1.00  0.00     0.013 A 
ATOM     16  C   UNL A   1      29.868  30.275  21.770  1.00  0.00     0.016 A 
ATOM     17  C   UNL A   1      27.607  29.956  22.568  1.00  0.00     0.016 A 
ATOM     18  C   UNL A   1      28.547  30.705  21.862  1.00  0.00     0.018 A 
ATOM     19  Br  UNL A   1      28.028  32.326  21.039  1.00  0.00    -0.051 Br
ENDBRANCH  11  13
ENDBRANCH   9  11
ENDBRANCH   7   9
ENDBRANCH   4   7
ENDBRANCH   2   3
ENDBRANCH   1   2
BRANCH   1  20
ATOM     20  C   UNL A   1      31.201  32.130  26.499  1.00  0.00     0.023 C 
BRANCH  20  21
ATOM     21  C   UNL A   1      32.444  32.736  27.139  1.00  0.00     0.116 C 
BRANCH  21  22
ATOM     22  N   UNL A   1      32.244  34.113  27.564  1.00  0.00    -0.352 N 
ATOM     23  C   UNL A   1      32.936  34.846  28.493  1.00  0.00     0.251 C 
ATOM     24  H   UNL A   1      31.504  34.586  27.120  1.00  0.00     0.163 HD
ATOM     25  O   UNL A   1      32.527  35.958  28.821  1.00  0.00    -0.269 OA
BRANCH  23  26
ATOM     26  C   UNL A   1      34.153  34.295  29.124  1.00  0.00     0.039 A 
ATOM     27  C   UNL A   1      34.013  33.495  30.261  1.00  0.00     0.014 A 
ATOM     28  C   UNL A   1      35.425  34.561  28.607  1.00  0.00     0.014 A 
ATOM     29  C   UNL A   1      35.142  32.918  30.844  1.00  0.00     0.010 A 
ATOM     30  C   UNL A   1      36.540  33.919  29.140  1.00  0.00     0.010 A 
ATOM     31  C   UNL A   1      36.412  33.096  30.268  1.00  0.00    -0.014 A 
BRANCH  31  32
ATOM     32  C   UNL A   1      37.605  32.424  30.843  1.00  0.00     0.031 A 
ATOM     33  C   UNL A   1      38.242  32.943  32.104  1.00  0.00     0.074 A 
ATOM     34  C   UNL A   1      38.135  31.359  30.210  1.00  0.00     0.049 A 
ATOM     35  N   UNL A   1      39.282  32.481  32.752  1.00  0.00    -0.248 NA
ATOM     36  C   UNL A   1      37.649  34.150  32.703  1.00  0.00     0.031 C 
ATOM     37  C   UNL A   1      37.645  30.787  28.954  1.00  0.00     0.029 A 
ATOM     38  N   UNL A   1      39.204  30.563  30.540  1.00  0.00    -0.354 N 
ATOM     39  C   UNL A   1      39.464  33.336  33.832  1.00  0.00     0.074 A 
ATOM     40  C   UNL A   1      38.472  34.382  33.715  1.00  0.00     0.031 C 
ATOM     41  C   UNL A   1      38.388  29.714  28.640  1.00  0.00     0.029 A 
ATOM     42  C   UNL A   1      39.427  29.544  29.648  1.00  0.00     0.049 A 
ATOM     43  H   UNL A   1      39.758  30.710  31.341  1.00  0.00     0.167 HD
ATOM     44  C   UNL A   1      40.356  33.246  34.847  1.00  0.00     0.031 A 
ATOM     45  C   UNL A   1      40.366  28.578  29.640  1.00  0.00     0.031 A 
ATOM     46  C   UNL A   1      41.349  32.210  34.963  1.00  0.00     0.049 A 
ATOM     47  C   UNL A   1      41.358  28.512  30.769  1.00  0.00     0.074 A 
ATOM     48  C   UNL A   1      42.279  32.015  35.969  1.00  0.00     0.029 A 
ATOM     49  N   UNL A   1      41.541  31.195  34.040  1.00  0.00    -0.354 N 
ATOM     50  N   UNL A   1      41.470  29.288  31.818  1.00  0.00    -0.248 NA
ATOM     51  C   UNL A   1      42.342  27.422  30.717  1.00  0.00     0.031 C 
ATOM     52  C   UNL A   1      43.066  30.910  35.630  1.00  0.00     0.029 A 
ATOM     53  C   UNL A   1      42.586  30.380  34.444  1.00  0.00     0.049 A 
ATOM     54  H   UNL A   1      41.013  31.071  33.218  1.00  0.00     0.167 HD
ATOM     55  C   UNL A   1      42.518  28.765  32.566  1.00  0.00     0.074 A 
ATOM     56  C   UNL A   1      42.989  27.590  31.861  1.00  0.00     0.031 C 
ATOM     57  C   UNL A   1      43.044  29.216  33.730  1.00  0.00     0.031 A 
BRANCH  44  58
ATOM     58  C   UNL A   1      40.291  34.298  35.921  1.00  0.00    -0.014 A 
ATOM     59  C   UNL A   1      41.043  35.479  35.820  1.00  0.00     0.009 A 
ATOM     60  C   UNL A   1      39.444  34.125  37.026  1.00  0.00     0.009 A 
ATOM     61  C   UNL A   1      40.974  36.451  36.821  1.00  0.00     0.001 A 
ATOM     62  C   UNL A   1      39.354  35.112  38.010  1.00  0.00     0.001 A 
ATOM     63  C   UNL A   1      40.125  36.268  37.912  1.00  0.00     0.000 A 
ENDBRANCH  44  58
BRANCH  45  64
ATOM     64  C   UNL A   1      40.410  27.584  28.534  1.00  0.00    -0.014 A 
ATOM     65  C   UNL A   1      39.727  26.362  28.640  1.00  0.00     0.009 A 
ATOM     66  C   UNL A   1      41.161  27.843  27.377  1.00  0.00     0.009 A 
ATOM     67  C   UNL A   1      39.827  25.405  27.627  1.00  0.00     0.001 A 
ATOM     68  C   UNL A   1      41.231  26.899  26.350  1.00  0.00     0.001 A 
ATOM     69  C   UNL A   1      40.575  25.676  26.482  1.00  0.00     0.000 A 
ENDBRANCH  45  64
BRANCH  57  70
ATOM     70  C   UNL A   1      44.165  28.413  34.330  1.00  0.00    -0.014 A 
ATOM     71  C   UNL A   1      43.913  27.345  35.207  1.00  0.00     0.009 A 
ATOM     72  C   UNL A   1      45.494  28.719  33.996  1.00  0.00     0.009 A 
ATOM     73  C   UNL A   1      44.972  26.632  35.773  1.00  0.00     0.001 A 
ATOM     74  C   UNL A   1      46.548  27.982  34.538  1.00  0.00     0.001 A 
ATOM     75  C   UNL A   1      46.287  26.948  35.435  1.00  0.00     0.000 A 
ENDBRANCH  57  70
ENDBRANCH  31  32
ENDBRANCH  23  26
ENDBRANCH  21  22
ENDBRANCH  20  21
ENDBRANCH   1  20
TORSDOF 14
ENDMDL
MODEL 3
REMARK VINA RESULT:     -10.6      0.767      6.110
REMARK SMILES C[C@@H](C(=O)NCCCCNC(=O)c1ccc(-c2c3nc(c(-c4ccccc4)c4ccc([nH]4)c(-c4ccccc4)c4nc(c(-c5ccccc5)c5ccc2[nH]5)C=C4)C=C3)cc1)[C@@H](C)C(=O)c1ccc(Br)cc1
REMARK SMILES IDX 7 1 6 2 5 3 3 4 4 5 2 7 1 8 61 9 62 10 63 11 64 12 65 13
REMARK SMILES IDX 66 14 71 15 67 16 70 17 68 18 69 19 8 20 9 21 10 22 11 23
REMARK SMILES IDX 12 25 13 26 14 27 60 28 15 29 59 30 16 31 17 32 18 33 53 34
REMARK SMILES IDX 19 35 58 36 52 37 54 38 20 39 57 40 51 41 50 42 21 44 43 45
REMARK SMILES IDX 28 46 42 47 29 48 32 49 41 50 55 51 30 52 31 53 40 55 56 56
REMARK SMILES IDX 33 57 22 58 23 59 27 60 24 61 26 62 25 63 44 64 45 65 49 66
REMARK SMILES IDX 46 67 48 68 47 69 34 70 35 71 39 72 36 73 38 74 37 75
REMARK H PARENT 5 6 10 24 54 43 32 54
REMARK Flexibility Score: inf
ROOT
ATOM      1  C   UNL A   1      36.595  20.574  24.995  1.00  0.00     0.023 C 
ENDROOT
BRANCH   1   2
ATOM      2  C   UNL A   1      36.827  22.035  25.384  1.00  0.00     0.116 C 
BRANCH   2   3
ATOM      3  N   UNL A   1      35.782  22.516  26.267  1.00  0.00    -0.356 N 
ATOM      4  C   UNL A   1      34.563  23.049  25.977  1.00  0.00     0.223 C 
ATOM      5  O   UNL A   1      33.926  23.538  26.907  1.00  0.00    -0.275 OA
ATOM      6  H   UNL A   1      35.986  22.445  27.227  1.00  0.00     0.163 HD
BRANCH   4   7
ATOM      7  C   UNL A   1      34.036  23.015  24.542  1.00  0.00     0.086 C 
ATOM      8  C   UNL A   1      34.090  24.430  23.954  1.00  0.00     0.019 C 
BRANCH   7   9
ATOM      9  C   UNL A   1      32.601  22.441  24.483  1.00  0.00     0.070 C 
ATOM     10  C   UNL A   1      31.539  23.528  24.280  1.00  0.00     0.017 C 
BRANCH   9  11
ATOM     11  C   UNL A   1      32.348  21.316  23.468  1.00  0.00     0.166 C 
ATOM     12  O   UNL A   1      32.198  21.560  22.270  1.00  0.00    -0.294 OA
BRANCH  11  13
ATOM     13  C   UNL A   1      32.493  19.886  23.855  1.00  0.00     0.018 A 
ATOM     14  C   UNL A   1      32.645  19.608  25.222  1.00  0.00     0.013 A 
ATOM     15  C   UNL A   1      32.516  18.838  22.932  1.00  0.00     0.013 A 
ATOM     16  C   UNL A   1      32.774  18.290  25.666  1.00  0.00     0.016 A 
ATOM     17  C   UNL A   1      32.638  17.517  23.377  1.00  0.00     0.016 A 
ATOM     18  C   UNL A   1      32.759  17.249  24.740  1.00  0.00     0.018 A 
ATOM     19  Br  UNL A   1      32.923  15.462  25.334  1.00  0.00    -0.051 Br
ENDBRANCH  11  13
ENDBRANCH   9  11
ENDBRANCH   7   9
ENDBRANCH   4   7
ENDBRANCH   2   3
ENDBRANCH   1   2
BRANCH   1  20
ATOM     20  C   UNL A   1      37.868  19.733  24.866  1.00  0.00     0.023 C 
BRANCH  20  21
ATOM     21  C   UNL A   1      39.035  20.185  25.734  1.00  0.00     0.116 C 
BRANCH  21  22
ATOM     22  N   UNL A   1      40.083  19.182  25.837  1.00  0.00    -0.352 N 
ATOM     23  C   UNL A   1      41.412  19.338  26.136  1.00  0.00     0.251 C 
ATOM     24  H   UNL A   1      39.796  18.256  25.666  1.00  0.00     0.163 HD
ATOM     25  O   UNL A   1      42.177  18.381  26.036  1.00  0.00    -0.269 OA
BRANCH  23  26
ATOM     26  C   UNL A   1      41.935  20.658  26.549  1.00  0.00     0.039 A 
ATOM     27  C   UNL A   1      42.385  21.537  25.560  1.00  0.00     0.014 A 
ATOM     28  C   UNL A   1      41.985  21.031  27.895  1.00  0.00     0.014 A 
ATOM     29  C   UNL A   1      42.832  22.809  25.919  1.00  0.00     0.010 A 
ATOM     30  C   UNL A   1      42.355  22.328  28.242  1.00  0.00     0.010 A 
ATOM     31  C   UNL A   1      42.789  23.229  27.260  1.00  0.00    -0.014 A 
BRANCH  31  32
ATOM     32  C   UNL A   1      43.195  24.607  27.636  1.00  0.00     0.031 A 
ATOM     33  C   UNL A   1      42.158  25.658  27.928  1.00  0.00     0.074 A 
ATOM     34  C   UNL A   1      44.505  24.921  27.687  1.00  0.00     0.049 A 
ATOM     35  N   UNL A   1      42.328  26.908  28.278  1.00  0.00    -0.248 NA
ATOM     36  C   UNL A   1      40.748  25.260  27.788  1.00  0.00     0.031 C 
ATOM     37  C   UNL A   1      45.609  24.010  27.378  1.00  0.00     0.029 A 
ATOM     38  N   UNL A   1      45.130  26.097  28.021  1.00  0.00    -0.354 N 
ATOM     39  C   UNL A   1      41.051  27.442  28.401  1.00  0.00     0.074 A 
ATOM     40  C   UNL A   1      40.119  26.402  28.024  1.00  0.00     0.031 C 
ATOM     41  C   UNL A   1      46.774  24.649  27.571  1.00  0.00     0.029 A 
ATOM     42  C   UNL A   1      46.501  26.022  27.980  1.00  0.00     0.049 A 
ATOM     43  H   UNL A   1      44.641  26.915  28.268  1.00  0.00     0.167 HD
ATOM     44  C   UNL A   1      40.682  28.676  28.819  1.00  0.00     0.031 A 
ATOM     45  C   UNL A   1      47.435  26.956  28.242  1.00  0.00     0.031 A 
ATOM     46  C   UNL A   1      41.606  29.716  29.189  1.00  0.00     0.049 A 
ATOM     47  C   UNL A   1      46.999  28.325  28.684  1.00  0.00     0.074 A 
ATOM     48  C   UNL A   1      41.331  30.990  29.653  1.00  0.00     0.029 A 
ATOM     49  N   UNL A   1      42.987  29.600  29.135  1.00  0.00    -0.354 N 
ATOM     50  N   UNL A   1      45.787  28.790  28.863  1.00  0.00    -0.248 NA
ATOM     51  C   UNL A   1      48.066  29.293  28.978  1.00  0.00     0.031 C 
ATOM     52  C   UNL A   1      42.545  31.662  29.833  1.00  0.00     0.029 A 
ATOM     53  C   UNL A   1      43.577  30.785  29.541  1.00  0.00     0.049 A 
ATOM     54  H   UNL A   1      43.476  28.794  28.851  1.00  0.00     0.167 HD
ATOM     55  C   UNL A   1      45.945  30.094  29.316  1.00  0.00     0.074 A 
ATOM     56  C   UNL A   1      47.370  30.335  29.409  1.00  0.00     0.031 C 
ATOM     57  C   UNL A   1      44.996  31.011  29.626  1.00  0.00     0.031 A 
BRANCH  44  58
ATOM     58  C   UNL A   1      39.209  28.966  28.905  1.00  0.00    -0.014 A 
ATOM     59  C   UNL A   1      38.497  28.745  30.095  1.00  0.00     0.009 A 
ATOM     60  C   UNL A   1      38.530  29.500  27.799  1.00  0.00     0.009 A 
ATOM     61  C   UNL A   1      37.129  29.020  30.165  1.00  0.00     0.001 A 
ATOM     62  C   UNL A   1      37.169  29.803  27.881  1.00  0.00     0.001 A 
ATOM     63  C   UNL A   1      36.468  29.553  29.060  1.00  0.00     0.000 A 
ENDBRANCH  44  58
BRANCH  45  64
ATOM     64  C   UNL A   1      48.880  26.629  28.105  1.00  0.00    -0.014 A 
ATOM     65  C   UNL A   1      49.549  26.830  26.887  1.00  0.00     0.009 A 
ATOM     66  C   UNL A   1      49.591  26.087  29.187  1.00  0.00     0.009 A 
ATOM     67  C   UNL A   1      50.888  26.459  26.745  1.00  0.00     0.001 A 
ATOM     68  C   UNL A   1      50.940  25.750  29.053  1.00  0.00     0.001 A 
ATOM     69  C   UNL A   1      51.583  25.923  27.828  1.00  0.00     0.000 A 
ENDBRANCH  45  64
BRANCH  57  70
ATOM     70  C   UNL A   1      45.473  32.345  30.130  1.00  0.00    -0.014 A 
ATOM     71  C   UNL A   1      45.683  33.425  29.257  1.00  0.00     0.009 A 
ATOM     72  C   UNL A   1      45.697  32.528  31.504  1.00  0.00     0.009 A 
ATOM     73  C   UNL A   1      46.153  34.646  29.746  1.00  0.00     0.001 A 
ATOM     74  C   UNL A   1      46.134  33.759  31.993  1.00  0.00     0.001 A 
ATOM     75  C   UNL A   1      46.374  34.813  31.112  1.00  0.00     0.000 A 
ENDBRANCH  57  70
ENDBRANCH  31  32
ENDBRANCH  23  26
ENDBRANCH  21  22
ENDBRANCH  20  21
ENDBRANCH   1  20
TORSDOF 14
ENDMDL
