MODEL 1
REMARK VINA RESULT:     -12.4      0.000      0.000
REMARK SMILES O=C(NCCCCNC(=O)c1ccc(-c2c3nc(c(-c4ccccc4)c4ccc([nH]4)c(-c4ccccc4)c4nc(c(-c5ccccc5)c5ccc2[nH]5)C=C4)C=C3)cc1)c1ccc(NS(=O)(=O)C2=Cc3ccccc3CC2)cc1
REMARK SMILES IDX 5 1 4 2 3 3 1 4 2 5 59 7 60 8 78 9 61 10 77 11 62 12 63 13
REMARK SMILES IDX 64 15 65 16 66 17 67 18 68 19 76 20 69 21 75 22 70 23 74 24
REMARK SMILES IDX 71 25 73 26 72 27 6 28 7 29 8 30 9 31 10 33 11 34 12 35
REMARK SMILES IDX 58 36 13 37 57 38 14 39 15 40 16 41 51 42 17 43 56 44 50 45
REMARK SMILES IDX 52 46 18 47 55 48 49 49 48 50 19 52 41 53 26 54 40 55 27 56
REMARK SMILES IDX 30 57 39 58 53 59 28 60 29 61 38 63 54 64 31 65 20 66 21 67
REMARK SMILES IDX 25 68 22 69 24 70 23 71 42 72 43 73 47 74 44 75 46 76 45 77
REMARK SMILES IDX 32 78 33 79 37 80 34 81 36 82 35 83
REMARK H PARENT 3 6 63 14 8 32 52 51 30 62
REMARK Flexibility Score: inf
ROOT
ATOM      1  C   UNL A   1      36.371  20.936  24.700  1.00  0.00     0.023 C 
ENDROOT
BRANCH   1   2
ATOM      2  C   UNL A   1      35.287  21.022  25.770  1.00  0.00     0.116 C 
BRANCH   2   3
ATOM      3  N   UNL A   1      34.340  19.926  25.677  1.00  0.00    -0.352 N 
ATOM      4  O   UNL A   1      32.312  18.985  25.365  1.00  0.00    -0.269 OA
ATOM      5  C   UNL A   1      33.054  19.946  25.197  1.00  0.00     0.251 C 
ATOM      6  H   UNL A   1      34.662  19.053  25.999  1.00  0.00     0.163 HD
BRANCH   5   7
ATOM      7  C   UNL A   1      32.568  21.128  24.455  1.00  0.00     0.039 A 
ATOM      8  C   UNL A   1      31.820  22.106  25.114  1.00  0.00     0.016 A 
ATOM      9  C   UNL A   1      32.946  21.316  23.124  1.00  0.00     0.016 A 
ATOM     10  C   UNL A   1      31.427  23.255  24.432  1.00  0.00     0.027 A 
ATOM     11  C   UNL A   1      32.533  22.467  22.439  1.00  0.00     0.027 A 
ATOM     12  C   UNL A   1      31.759  23.435  23.088  1.00  0.00     0.049 A 
BRANCH  12  13
ATOM     13  N   UNL A   1      31.513  24.689  22.449  1.00  0.00    -0.280 N 
ATOM     14  H   UNL A   1      30.611  24.892  22.111  1.00  0.00     0.180 HD
BRANCH  13  15
ATOM     15  S   UNL A   1      32.753  25.841  22.264  1.00  0.00     0.258 S 
ATOM     16  O   UNL A   1      33.716  25.491  23.289  1.00  0.00    -0.202 OA
ATOM     17  O   UNL A   1      33.148  25.741  20.870  1.00  0.00    -0.202 OA
BRANCH  15  18
ATOM     18  C   UNL A   1      32.096  27.454  22.562  1.00  0.00     0.066 C 
ATOM     19  C   UNL A   1      31.252  27.576  23.612  1.00  0.00     0.026 C 
ATOM     20  C   UNL A   1      33.081  28.582  22.376  1.00  0.00     0.055 C 
ATOM     21  C   UNL A   1      31.932  27.904  24.898  1.00  0.00    -0.021 A 
ATOM     22  C   UNL A   1      33.983  28.698  23.615  1.00  0.00     0.041 C 
ATOM     23  C   UNL A   1      31.257  27.684  26.103  1.00  0.00     0.008 A 
ATOM     24  C   UNL A   1      33.244  28.424  24.908  1.00  0.00    -0.040 A 
ATOM     25  C   UNL A   1      31.902  27.924  27.317  1.00  0.00     0.001 A 
ATOM     26  C   UNL A   1      33.887  28.635  26.133  1.00  0.00     0.004 A 
ATOM     27  C   UNL A   1      33.219  28.381  27.331  1.00  0.00     0.000 A 
ENDBRANCH  15  18
ENDBRANCH  13  15
ENDBRANCH  12  13
ENDBRANCH   5   7
ENDBRANCH   2   3
ENDBRANCH   1   2
BRANCH   1  28
ATOM     28  C   UNL A   1      37.464  19.899  24.963  1.00  0.00     0.023 C 
BRANCH  28  29
ATOM     29  C   UNL A   1      38.726  20.429  25.635  1.00  0.00     0.116 C 
BRANCH  29  30
ATOM     30  N   UNL A   1      39.812  19.462  25.652  1.00  0.00    -0.352 N 
ATOM     31  C   UNL A   1      41.125  19.615  26.024  1.00  0.00     0.251 C 
ATOM     32  H   UNL A   1      39.568  18.557  25.350  1.00  0.00     0.163 HD
ATOM     33  O   UNL A   1      41.918  18.695  25.843  1.00  0.00    -0.269 OA
BRANCH  31  34
ATOM     34  C   UNL A   1      41.601  20.889  26.607  1.00  0.00     0.039 A 
ATOM     35  C   UNL A   1      42.078  21.880  25.744  1.00  0.00     0.014 A 
ATOM     36  C   UNL A   1      41.587  21.114  27.987  1.00  0.00     0.014 A 
ATOM     37  C   UNL A   1      42.473  23.117  26.258  1.00  0.00     0.010 A 
ATOM     38  C   UNL A   1      41.907  22.374  28.490  1.00  0.00     0.010 A 
ATOM     39  C   UNL A   1      42.354  23.388  27.631  1.00  0.00    -0.014 A 
BRANCH  39  40
ATOM     40  C   UNL A   1      42.673  24.737  28.164  1.00  0.00     0.031 A 
ATOM     41  C   UNL A   1      44.088  25.125  28.491  1.00  0.00     0.074 A 
ATOM     42  C   UNL A   1      41.671  25.611  28.390  1.00  0.00     0.049 A 
ATOM     43  N   UNL A   1      44.551  26.275  28.913  1.00  0.00    -0.248 NA
ATOM     44  C   UNL A   1      45.115  24.080  28.349  1.00  0.00     0.031 C 
ATOM     45  C   UNL A   1      40.248  25.342  28.176  1.00  0.00     0.029 A 
ATOM     46  N   UNL A   1      41.701  26.907  28.839  1.00  0.00    -0.354 N 
ATOM     47  C   UNL A   1      45.915  26.088  29.103  1.00  0.00     0.074 A 
ATOM     48  C   UNL A   1      46.196  24.703  28.795  1.00  0.00     0.031 C 
ATOM     49  C   UNL A   1      39.546  26.455  28.442  1.00  0.00     0.029 A 
ATOM     50  C   UNL A   1      40.464  27.504  28.874  1.00  0.00     0.049 A 
ATOM     51  H   UNL A   1      42.529  27.365  29.112  1.00  0.00     0.167 HD
ATOM     52  C   UNL A   1      46.852  26.992  29.478  1.00  0.00     0.031 A 
ATOM     53  C   UNL A   1      40.109  28.761  29.196  1.00  0.00     0.031 A 
ATOM     54  C   UNL A   1      46.579  28.374  29.771  1.00  0.00     0.049 A 
ATOM     55  C   UNL A   1      41.171  29.749  29.587  1.00  0.00     0.074 A 
ATOM     56  C   UNL A   1      47.473  29.383  30.085  1.00  0.00     0.029 A 
ATOM     57  N   UNL A   1      45.314  28.939  29.792  1.00  0.00    -0.354 N 
ATOM     58  N   UNL A   1      42.467  29.583  29.668  1.00  0.00    -0.248 NA
ATOM     59  C   UNL A   1      40.713  31.108  29.913  1.00  0.00     0.031 C 
ATOM     60  C   UNL A   1      46.743  30.549  30.342  1.00  0.00     0.029 A 
ATOM     61  C   UNL A   1      45.400  30.278  30.139  1.00  0.00     0.049 A 
ATOM     62  H   UNL A   1      44.477  28.460  29.592  1.00  0.00     0.167 HD
ATOM     63  C   UNL A   1      42.986  30.819  30.027  1.00  0.00     0.074 A 
ATOM     64  C   UNL A   1      41.863  31.730  30.130  1.00  0.00     0.031 C 
ATOM     65  C   UNL A   1      44.276  31.169  30.249  1.00  0.00     0.031 A 
BRANCH  52  66
ATOM     66  C   UNL A   1      48.269  26.501  29.601  1.00  0.00    -0.014 A 
ATOM     67  C   UNL A   1      48.750  25.957  30.803  1.00  0.00     0.009 A 
ATOM     68  C   UNL A   1      49.127  26.563  28.493  1.00  0.00     0.009 A 
ATOM     69  C   UNL A   1      50.075  25.525  30.905  1.00  0.00     0.001 A 
ATOM     70  C   UNL A   1      50.443  26.103  28.589  1.00  0.00     0.001 A 
ATOM     71  C   UNL A   1      50.917  25.595  29.798  1.00  0.00     0.000 A 
ENDBRANCH  52  66
BRANCH  53  72
ATOM     72  C   UNL A   1      38.686  29.177  29.106  1.00  0.00    -0.014 A 
ATOM     73  C   UNL A   1      38.171  29.673  27.898  1.00  0.00     0.009 A 
ATOM     74  C   UNL A   1      37.839  29.086  30.220  1.00  0.00     0.009 A 
ATOM     75  C   UNL A   1      36.841  30.091  27.814  1.00  0.00     0.001 A 
ATOM     76  C   UNL A   1      36.503  29.481  30.127  1.00  0.00     0.001 A 
ATOM     77  C   UNL A   1      36.008  29.990  28.927  1.00  0.00     0.000 A 
ENDBRANCH  53  72
BRANCH  65  78
ATOM     78  C   UNL A   1      44.537  32.607  30.599  1.00  0.00    -0.014 A 
ATOM     79  C   UNL A   1      44.562  33.041  31.934  1.00  0.00     0.009 A 
ATOM     80  C   UNL A   1      44.766  33.541  29.576  1.00  0.00     0.009 A 
ATOM     81  C   UNL A   1      44.764  34.390  32.235  1.00  0.00     0.001 A 
ATOM     82  C   UNL A   1      44.997  34.883  29.881  1.00  0.00     0.001 A 
ATOM     83  C   UNL A   1      44.983  35.308  31.209  1.00  0.00     0.000 A 
ENDBRANCH  65  78
ENDBRANCH  39  40
ENDBRANCH  31  34
ENDBRANCH  29  30
ENDBRANCH  28  29
ENDBRANCH   1  28
TORSDOF 14
ENDMDL
MODEL 2
REMARK VINA RESULT:     -12.3      0.417      5.817
REMARK SMILES O=C(NCCCCNC(=O)c1ccc(-c2c3nc(c(-c4ccccc4)c4ccc([nH]4)c(-c4ccccc4)c4nc(c(-c5ccccc5)c5ccc2[nH]5)C=C4)C=C3)cc1)c1ccc(NS(=O)(=O)C2=Cc3ccccc3CC2)cc1
REMARK SMILES IDX 5 1 4 2 3 3 1 4 2 5 59 7 60 8 78 9 61 10 77 11 62 12 63 13
REMARK SMILES IDX 64 15 65 16 66 17 67 18 68 19 76 20 69 21 75 22 70 23 74 24
REMARK SMILES IDX 71 25 73 26 72 27 6 28 7 29 8 30 9 31 10 33 11 34 12 35
REMARK SMILES IDX 58 36 13 37 57 38 14 39 15 40 16 41 51 42 17 43 56 44 50 45
REMARK SMILES IDX 52 46 18 47 55 48 49 49 48 50 19 52 41 53 26 54 40 55 27 56
REMARK SMILES IDX 30 57 39 58 53 59 28 60 29 61 38 63 54 64 31 65 20 66 21 67
REMARK SMILES IDX 25 68 22 69 24 70 23 71 42 72 43 73 47 74 44 75 46 76 45 77
REMARK SMILES IDX 32 78 33 79 37 80 34 81 36 82 35 83
REMARK H PARENT 3 6 63 14 8 32 52 51 30 62
REMARK Flexibility Score: inf
ROOT
ATOM      1  C   UNL A   1      36.316  21.094  24.761  1.00  0.00     0.023 C 
ENDROOT
BRANCH   1   2
ATOM      2  C   UNL A   1      35.271  21.128  25.872  1.00  0.00     0.116 C 
BRANCH   2   3
ATOM      3  N   UNL A   1      34.334  20.024  25.772  1.00  0.00    -0.352 N 
ATOM      4  O   UNL A   1      32.318  19.066  25.431  1.00  0.00    -0.269 OA
ATOM      5  C   UNL A   1      33.057  20.030  25.267  1.00  0.00     0.251 C 
ATOM      6  H   UNL A   1      34.655  19.157  26.110  1.00  0.00     0.163 HD
BRANCH   5   7
ATOM      7  C   UNL A   1      32.579  21.201  24.503  1.00  0.00     0.039 A 
ATOM      8  C   UNL A   1      31.908  22.236  25.158  1.00  0.00     0.016 A 
ATOM      9  C   UNL A   1      32.888  21.318  23.146  1.00  0.00     0.016 A 
ATOM     10  C   UNL A   1      31.525  23.372  24.450  1.00  0.00     0.027 A 
ATOM     11  C   UNL A   1      32.484  22.456  22.435  1.00  0.00     0.027 A 
ATOM     12  C   UNL A   1      31.787  23.482  23.083  1.00  0.00     0.049 A 
BRANCH  12  13
ATOM     13  N   UNL A   1      31.557  24.719  22.405  1.00  0.00    -0.280 N 
ATOM     14  H   UNL A   1      30.657  24.922  22.061  1.00  0.00     0.180 HD
BRANCH  13  15
ATOM     15  S   UNL A   1      32.811  25.848  22.184  1.00  0.00     0.258 S 
ATOM     16  O   UNL A   1      33.792  25.488  23.187  1.00  0.00    -0.202 OA
ATOM     17  O   UNL A   1      33.170  25.734  20.781  1.00  0.00    -0.202 OA
BRANCH  15  18
ATOM     18  C   UNL A   1      32.187  27.473  22.488  1.00  0.00     0.066 C 
ATOM     19  C   UNL A   1      31.315  27.602  23.512  1.00  0.00     0.026 C 
ATOM     20  C   UNL A   1      33.209  28.577  22.352  1.00  0.00     0.055 C 
ATOM     21  C   UNL A   1      31.961  27.891  24.824  1.00  0.00    -0.021 A 
ATOM     22  C   UNL A   1      34.073  28.649  23.620  1.00  0.00     0.041 C 
ATOM     23  C   UNL A   1      31.242  27.671  26.003  1.00  0.00     0.008 A 
ATOM     24  C   UNL A   1      33.286  28.374  24.885  1.00  0.00    -0.040 A 
ATOM     25  C   UNL A   1      31.854  27.874  27.241  1.00  0.00     0.001 A 
ATOM     26  C   UNL A   1      33.895  28.548  26.133  1.00  0.00     0.004 A 
ATOM     27  C   UNL A   1      33.182  28.293  27.305  1.00  0.00     0.000 A 
ENDBRANCH  15  18
ENDBRANCH  13  15
ENDBRANCH  12  13
ENDBRANCH   5   7
ENDBRANCH   2   3
ENDBRANCH   1   2
BRANCH   1  28
ATOM     28  C   UNL A   1      37.413  20.042  24.930  1.00  0.00     0.023 C 
BRANCH  28  29
ATOM     29  C   UNL A   1      38.654  20.500  25.689  1.00  0.00     0.116 C 
BRANCH  29  30
ATOM     30  N   UNL A   1      39.697  19.488  25.740  1.00  0.00    -0.352 N 
ATOM     31  C   UNL A   1      41.020  19.600  26.090  1.00  0.00     0.251 C 
ATOM     32  H   UNL A   1      39.409  18.581  25.486  1.00  0.00     0.163 HD
ATOM     33  O   UNL A   1      41.769  18.638  25.946  1.00  0.00    -0.269 OA
BRANCH  31  34
ATOM     34  C   UNL A   1      41.558  20.878  26.605  1.00  0.00     0.039 A 
ATOM     35  C   UNL A   1      42.113  21.783  25.696  1.00  0.00     0.014 A 
ATOM     36  C   UNL A   1      41.528  21.191  27.968  1.00  0.00     0.014 A 
ATOM     37  C   UNL A   1      42.569  23.026  26.142  1.00  0.00     0.010 A 
ATOM     38  C   UNL A   1      41.911  22.460  28.400  1.00  0.00     0.010 A 
ATOM     39  C   UNL A   1      42.437  23.390  27.492  1.00  0.00    -0.014 A 
BRANCH  39  40
ATOM     40  C   UNL A   1      42.825  24.748  27.949  1.00  0.00     0.031 A 
ATOM     41  C   UNL A   1      41.786  25.804  28.205  1.00  0.00     0.074 A 
ATOM     42  C   UNL A   1      44.131  25.045  28.101  1.00  0.00     0.049 A 
ATOM     43  N   UNL A   1      41.943  27.023  28.657  1.00  0.00    -0.248 NA
ATOM     44  C   UNL A   1      40.391  25.456  27.891  1.00  0.00     0.031 C 
ATOM     45  C   UNL A   1      45.245  24.134  27.827  1.00  0.00     0.029 A 
ATOM     46  N   UNL A   1      44.741  26.195  28.535  1.00  0.00    -0.354 N 
ATOM     47  C   UNL A   1      40.675  27.591  28.666  1.00  0.00     0.074 A 
ATOM     48  C   UNL A   1      39.767  26.601  28.130  1.00  0.00     0.031 C 
ATOM     49  C   UNL A   1      46.398  24.741  28.150  1.00  0.00     0.029 A 
ATOM     50  C   UNL A   1      46.108  26.091  28.623  1.00  0.00     0.049 A 
ATOM     51  H   UNL A   1      44.247  27.017  28.760  1.00  0.00     0.167 HD
ATOM     52  C   UNL A   1      40.296  28.817  29.100  1.00  0.00     0.031 A 
ATOM     53  C   UNL A   1      47.025  26.974  29.057  1.00  0.00     0.031 A 
ATOM     54  C   UNL A   1      41.194  29.800  29.647  1.00  0.00     0.049 A 
ATOM     55  C   UNL A   1      46.577  28.319  29.554  1.00  0.00     0.074 A 
ATOM     56  C   UNL A   1      40.893  31.040  30.184  1.00  0.00     0.029 A 
ATOM     57  N   UNL A   1      42.570  29.655  29.721  1.00  0.00    -0.354 N 
ATOM     58  N   UNL A   1      45.364  28.805  29.645  1.00  0.00    -0.248 NA
ATOM     59  C   UNL A   1      47.631  29.229  30.026  1.00  0.00     0.031 C 
ATOM     60  C   UNL A   1      42.094  31.665  30.539  1.00  0.00     0.029 A 
ATOM     61  C   UNL A   1      43.137  30.793  30.271  1.00  0.00     0.049 A 
ATOM     62  H   UNL A   1      43.072  28.861  29.426  1.00  0.00     0.167 HD
ATOM     63  C   UNL A   1      45.503  30.066  30.209  1.00  0.00     0.074 A 
ATOM     64  C   UNL A   1      46.918  30.261  30.455  1.00  0.00     0.031 C 
ATOM     65  C   UNL A   1      44.545  30.979  30.500  1.00  0.00     0.031 A 
BRANCH  52  66
ATOM     66  C   UNL A   1      38.837  29.165  28.988  1.00  0.00    -0.014 A 
ATOM     67  C   UNL A   1      38.297  29.669  27.793  1.00  0.00     0.009 A 
ATOM     68  C   UNL A   1      37.986  28.965  30.085  1.00  0.00     0.009 A 
ATOM     69  C   UNL A   1      36.944  30.005  27.714  1.00  0.00     0.001 A 
ATOM     70  C   UNL A   1      36.627  29.276  29.994  1.00  0.00     0.001 A 
ATOM     71  C   UNL A   1      36.111  29.805  28.812  1.00  0.00     0.000 A 
ENDBRANCH  52  66
BRANCH  53  72
ATOM     72  C   UNL A   1      48.461  26.595  29.098  1.00  0.00    -0.014 A 
ATOM     73  C   UNL A   1      48.987  25.942  30.223  1.00  0.00     0.009 A 
ATOM     74  C   UNL A   1      49.311  26.883  28.020  1.00  0.00     0.009 A 
ATOM     75  C   UNL A   1      50.342  25.607  30.278  1.00  0.00     0.001 A 
ATOM     76  C   UNL A   1      50.659  26.524  28.067  1.00  0.00     0.001 A 
ATOM     77  C   UNL A   1      51.175  25.894  29.199  1.00  0.00     0.000 A 
ENDBRANCH  53  72
BRANCH  65  78
ATOM     78  C   UNL A   1      45.001  32.259  31.142  1.00  0.00    -0.014 A 
ATOM     79  C   UNL A   1      45.082  32.387  32.537  1.00  0.00     0.009 A 
ATOM     80  C   UNL A   1      45.359  33.352  30.336  1.00  0.00     0.009 A 
ATOM     81  C   UNL A   1      45.466  33.600  33.114  1.00  0.00     0.001 A 
ATOM     82  C   UNL A   1      45.771  34.553  30.915  1.00  0.00     0.001 A 
ATOM     83  C   UNL A   1      45.812  34.680  32.303  1.00  0.00     0.000 A 
ENDBRANCH  65  78
ENDBRANCH  39  40
ENDBRANCH  31  34
ENDBRANCH  29  30
ENDBRANCH  28  29
ENDBRANCH   1  28
TORSDOF 14
ENDMDL
MODEL 3
REMARK VINA RESULT:     -12.3      2.292      7.876
REMARK SMILES O=C(NCCCCNC(=O)c1ccc(-c2c3nc(c(-c4ccccc4)c4ccc([nH]4)c(-c4ccccc4)c4nc(c(-c5ccccc5)c5ccc2[nH]5)C=C4)C=C3)cc1)c1ccc(NS(=O)(=O)C2=Cc3ccccc3CC2)cc1
REMARK SMILES IDX 5 1 4 2 3 3 1 4 2 5 59 7 60 8 78 9 61 10 77 11 62 12 63 13
REMARK SMILES IDX 64 15 65 16 66 17 67 18 68 19 76 20 69 21 75 22 70 23 74 24
REMARK SMILES IDX 71 25 73 26 72 27 6 28 7 29 8 30 9 31 10 33 11 34 12 35
REMARK SMILES IDX 58 36 13 37 57 38 14 39 15 40 16 41 51 42 17 43 56 44 50 45
REMARK SMILES IDX 52 46 18 47 55 48 49 49 48 50 19 52 41 53 26 54 40 55 27 56
REMARK SMILES IDX 30 57 39 58 53 59 28 60 29 61 38 63 54 64 31 65 20 66 21 67
REMARK SMILES IDX 25 68 22 69 24 70 23 71 42 72 43 73 47 74 44 75 46 76 45 77
REMARK SMILES IDX 32 78 33 79 37 80 34 81 36 82 35 83
REMARK H PARENT 3 6 63 14 8 32 52 51 30 62
REMARK Flexibility Score: inf
ROOT
ATOM      1  C   UNL A   1      31.824  29.674  25.705  1.00  0.00     0.023 C 
ENDROOT
BRANCH   1   2
ATOM      2  C   UNL A   1      32.374  29.473  24.297  1.00  0.00     0.116 C 
BRANCH   2   3
ATOM      3  N   UNL A   1      31.366  29.705  23.279  1.00  0.00    -0.352 N 
ATOM      4  O   UNL A   1      29.916  29.115  21.652  1.00  0.00    -0.269 OA
ATOM      5  C   UNL A   1      30.582  28.785  22.627  1.00  0.00     0.251 C 
ATOM      6  H   UNL A   1      31.223  30.645  23.023  1.00  0.00     0.163 HD
BRANCH   5   7
ATOM      7  C   UNL A   1      30.529  27.392  23.116  1.00  0.00     0.039 A 
ATOM      8  C   UNL A   1      31.399  26.434  22.592  1.00  0.00     0.016 A 
ATOM      9  C   UNL A   1      29.680  27.060  24.174  1.00  0.00     0.016 A 
ATOM     10  C   UNL A   1      31.398  25.140  23.108  1.00  0.00     0.027 A 
ATOM     11  C   UNL A   1      29.672  25.752  24.677  1.00  0.00     0.027 A 
ATOM     12  C   UNL A   1      30.523  24.782  24.135  1.00  0.00     0.049 A 
BRANCH  12  13
ATOM     13  N   UNL A   1      30.652  23.514  24.779  1.00  0.00    -0.280 N 
ATOM     14  H   UNL A   1      30.180  22.733  24.412  1.00  0.00     0.180 HD
BRANCH  13  15
ATOM     15  S   UNL A   1      31.612  23.330  26.174  1.00  0.00     0.258 S 
ATOM     16  O   UNL A   1      32.440  24.518  26.192  1.00  0.00    -0.202 OA
ATOM     17  O   UNL A   1      30.662  23.123  27.253  1.00  0.00    -0.202 OA
BRANCH  15  18
ATOM     18  C   UNL A   1      32.612  21.883  26.002  1.00  0.00     0.066 C 
ATOM     19  C   UNL A   1      33.303  21.762  24.847  1.00  0.00     0.026 C 
ATOM     20  C   UNL A   1      33.348  21.472  27.254  1.00  0.00     0.055 C 
ATOM     21  C   UNL A   1      34.662  22.375  24.888  1.00  0.00    -0.021 A 
ATOM     22  C   UNL A   1      34.602  22.343  27.434  1.00  0.00     0.041 C 
ATOM     23  C   UNL A   1      35.319  22.662  23.687  1.00  0.00     0.008 A 
ATOM     24  C   UNL A   1      35.282  22.673  26.121  1.00  0.00    -0.040 A 
ATOM     25  C   UNL A   1      36.563  23.296  23.708  1.00  0.00     0.001 A 
ATOM     26  C   UNL A   1      36.517  23.331  26.125  1.00  0.00     0.004 A 
ATOM     27  C   UNL A   1      37.150  23.645  24.923  1.00  0.00     0.000 A 
ENDBRANCH  15  18
ENDBRANCH  13  15
ENDBRANCH  12  13
ENDBRANCH   5   7
ENDBRANCH   2   3
ENDBRANCH   1   2
BRANCH   1  28
ATOM     28  C   UNL A   1      32.327  28.677  26.750  1.00  0.00     0.023 C 
BRANCH  28  29
ATOM     29  C   UNL A   1      33.715  28.959  27.314  1.00  0.00     0.116 C 
BRANCH  29  30
ATOM     30  N   UNL A   1      33.801  30.239  28.001  1.00  0.00    -0.352 N 
ATOM     31  C   UNL A   1      34.852  30.808  28.678  1.00  0.00     0.251 C 
ATOM     32  H   UNL A   1      32.979  30.780  27.976  1.00  0.00     0.163 HD
ATOM     33  O   UNL A   1      34.678  31.852  29.300  1.00  0.00    -0.269 OA
BRANCH  31  34
ATOM     34  C   UNL A   1      36.180  30.157  28.695  1.00  0.00     0.039 A 
ATOM     35  C   UNL A   1      36.971  30.226  27.545  1.00  0.00     0.014 A 
ATOM     36  C   UNL A   1      36.650  29.479  29.824  1.00  0.00     0.014 A 
ATOM     37  C   UNL A   1      38.257  29.679  27.551  1.00  0.00     0.010 A 
ATOM     38  C   UNL A   1      37.960  29.002  29.855  1.00  0.00     0.010 A 
ATOM     39  C   UNL A   1      38.776  29.096  28.719  1.00  0.00    -0.014 A 
BRANCH  39  40
ATOM     40  C   UNL A   1      40.178  28.608  28.759  1.00  0.00     0.031 A 
ATOM     41  C   UNL A   1      40.514  27.190  28.394  1.00  0.00     0.074 A 
ATOM     42  C   UNL A   1      41.155  29.444  29.164  1.00  0.00     0.049 A 
ATOM     43  N   UNL A   1      41.688  26.612  28.323  1.00  0.00    -0.248 NA
ATOM     44  C   UNL A   1      39.386  26.294  28.092  1.00  0.00     0.031 C 
ATOM     45  C   UNL A   1      40.960  30.826  29.606  1.00  0.00     0.029 A 
ATOM     46  N   UNL A   1      42.511  29.254  29.258  1.00  0.00    -0.354 N 
ATOM     47  C   UNL A   1      41.440  25.288  27.986  1.00  0.00     0.074 A 
ATOM     48  C   UNL A   1      40.003  25.134  27.913  1.00  0.00     0.031 C 
ATOM     49  C   UNL A   1      42.155  31.376  29.872  1.00  0.00     0.029 A 
ATOM     50  C   UNL A   1      43.197  30.378  29.650  1.00  0.00     0.049 A 
ATOM     51  H   UNL A   1      42.950  28.394  29.064  1.00  0.00     0.167 HD
ATOM     52  C   UNL A   1      42.326  24.293  27.739  1.00  0.00     0.031 A 
ATOM     53  C   UNL A   1      44.517  30.590  29.794  1.00  0.00     0.031 A 
ATOM     54  C   UNL A   1      43.756  24.444  27.797  1.00  0.00     0.049 A 
ATOM     55  C   UNL A   1      45.480  29.477  29.492  1.00  0.00     0.074 A 
ATOM     56  C   UNL A   1      44.735  23.516  27.488  1.00  0.00     0.029 A 
ATOM     57  N   UNL A   1      44.410  25.599  28.195  1.00  0.00    -0.354 N 
ATOM     58  N   UNL A   1      45.233  28.258  29.082  1.00  0.00    -0.248 NA
ATOM     59  C   UNL A   1      46.909  29.783  29.657  1.00  0.00     0.031 C 
ATOM     60  C   UNL A   1      45.983  24.096  27.747  1.00  0.00     0.029 A 
ATOM     61  C   UNL A   1      45.781  25.400  28.166  1.00  0.00     0.049 A 
ATOM     62  H   UNL A   1      43.967  26.437  28.461  1.00  0.00     0.167 HD
ATOM     63  C   UNL A   1      46.473  27.657  28.913  1.00  0.00     0.074 A 
ATOM     64  C   UNL A   1      47.471  28.654  29.249  1.00  0.00     0.031 C 
ATOM     65  C   UNL A   1      46.761  26.395  28.514  1.00  0.00     0.031 A 
BRANCH  52  66
ATOM     66  C   UNL A   1      41.763  22.942  27.391  1.00  0.00    -0.014 A 
ATOM     67  C   UNL A   1      41.661  21.924  28.354  1.00  0.00     0.009 A 
ATOM     68  C   UNL A   1      41.308  22.691  26.088  1.00  0.00     0.009 A 
ATOM     69  C   UNL A   1      41.154  20.670  28.008  1.00  0.00     0.001 A 
ATOM     70  C   UNL A   1      40.775  21.444  25.751  1.00  0.00     0.001 A 
ATOM     71  C   UNL A   1      40.709  20.432  26.709  1.00  0.00     0.000 A 
ENDBRANCH  52  66
BRANCH  53  72
ATOM     72  C   UNL A   1      45.016  31.932  30.191  1.00  0.00    -0.014 A 
ATOM     73  C   UNL A   1      45.306  32.894  29.212  1.00  0.00     0.009 A 
ATOM     74  C   UNL A   1      45.205  32.257  31.542  1.00  0.00     0.009 A 
ATOM     75  C   UNL A   1      45.799  34.149  29.577  1.00  0.00     0.001 A 
ATOM     76  C   UNL A   1      45.675  33.520  31.906  1.00  0.00     0.001 A 
ATOM     77  C   UNL A   1      45.980  34.462  30.923  1.00  0.00     0.000 A 
ENDBRANCH  53  72
BRANCH  65  78
ATOM     78  C   UNL A   1      48.215  26.036  28.394  1.00  0.00    -0.014 A 
ATOM     79  C   UNL A   1      48.897  26.152  27.172  1.00  0.00     0.009 A 
ATOM     80  C   UNL A   1      48.914  25.577  29.522  1.00  0.00     0.009 A 
ATOM     81  C   UNL A   1      50.238  25.772  27.073  1.00  0.00     0.001 A 
ATOM     82  C   UNL A   1      50.261  25.226  29.426  1.00  0.00     0.001 A 
ATOM     83  C   UNL A   1      50.918  25.312  28.199  1.00  0.00     0.000 A 
ENDBRANCH  65  78
ENDBRANCH  39  40
ENDBRANCH  31  34
ENDBRANCH  29  30
ENDBRANCH  28  29
ENDBRANCH   1  28
TORSDOF 14
ENDMDL
