MODEL 1
REMARK VINA RESULT:     -12.8      0.000      0.000
REMARK SMILES O=C(C[C@]1(C(=O)NC2CCCCC2)CC(c2ccc([N+](=O)[O-])cc2)=NO1)NCCCCNC(=O)c1ccc(-c2c3nc(c(-c4ccccc4)c4ccc([nH]4)c(-c4ccccc4)c4nc(c(-c5ccccc5)c5ccc2[nH]5)C=C4)C=C3)cc1
REMARK SMILES IDX 29 1 28 2 27 3 1 4 2 5 3 7 4 8 14 9 26 10 15 11 25 12 5 13
REMARK SMILES IDX 6 14 7 15 8 17 9 18 13 19 10 20 12 21 11 22 16 23 17 24
REMARK SMILES IDX 24 25 18 26 23 27 19 28 20 29 21 30 22 31 30 32 31 33 32 34
REMARK SMILES IDX 33 35 34 37 35 38 36 39 82 40 37 41 81 42 38 43 39 44 40 45
REMARK SMILES IDX 75 46 41 47 80 48 74 49 76 50 42 51 79 52 73 53 72 54 43 56
REMARK SMILES IDX 65 57 50 58 64 59 51 60 54 61 63 62 77 63 52 64 53 65 62 67
REMARK SMILES IDX 78 68 55 69 44 70 45 71 49 72 46 73 48 74 47 75 66 76 67 77
REMARK SMILES IDX 71 78 68 79 70 80 69 81 56 82 57 83 61 84 58 85 60 86 59 87
REMARK H PARENT 27 6 7 16 32 36 76 55 54 66
REMARK Flexibility Score: inf
ROOT
ATOM      1  C   UNL A   1      36.210  20.824  24.974  1.00  0.00     0.023 C 
ENDROOT
BRANCH   1   2
ATOM      2  C   UNL A   1      36.511  22.225  25.499  1.00  0.00     0.116 C 
BRANCH   2   3
ATOM      3  N   UNL A   1      35.375  22.873  26.123  1.00  0.00    -0.356 N 
ATOM      4  O   UNL A   1      35.023  24.379  24.456  1.00  0.00    -0.275 OA
ATOM      5  C   UNL A   1      34.644  23.848  25.500  1.00  0.00     0.224 C 
ATOM      6  H   UNL A   1      35.118  22.600  27.033  1.00  0.00     0.163 HD
BRANCH   5   7
ATOM      7  C   UNL A   1      33.334  24.289  26.147  1.00  0.00     0.162 C 
BRANCH   7   8
ATOM      8  C   UNL A   1      31.970  23.714  25.689  1.00  0.00     0.229 C 
ATOM      9  C   UNL A   1      31.856  22.214  25.994  1.00  0.00     0.123 C 
ATOM     10  O   UNL A   1      31.762  23.792  24.275  1.00  0.00    -0.378 OA
ATOM     11  C   UNL A   1      32.127  21.682  24.638  1.00  0.00     0.092 C 
ATOM     12  N   UNL A   1      32.115  22.557  23.686  1.00  0.00    -0.089 NA
BRANCH   8  13
ATOM     13  C   UNL A   1      30.823  24.452  26.420  1.00  0.00     0.268 C 
ATOM     14  O   UNL A   1      30.118  23.847  27.238  1.00  0.00    -0.270 OA
ATOM     15  N   UNL A   1      30.576  25.785  26.287  1.00  0.00    -0.350 N 
ATOM     16  H   UNL A   1      29.917  26.129  26.933  1.00  0.00     0.163 HD
BRANCH  15  17
ATOM     17  C   UNL A   1      31.094  26.816  25.375  1.00  0.00     0.082 C 
ATOM     18  C   UNL A   1      30.068  27.064  24.253  1.00  0.00     0.025 C 
ATOM     19  C   UNL A   1      31.394  28.128  26.098  1.00  0.00     0.025 C 
ATOM     20  C   UNL A   1      30.468  28.211  23.325  1.00  0.00     0.002 C 
ATOM     21  C   UNL A   1      31.799  29.260  25.165  1.00  0.00     0.002 C 
ATOM     22  C   UNL A   1      30.745  29.494  24.099  1.00  0.00     0.000 C 
ENDBRANCH  15  17
ENDBRANCH   8  13
BRANCH  11  23
ATOM     23  C   UNL A   1      32.418  20.263  24.409  1.00  0.00    -0.000 A 
ATOM     24  C   UNL A   1      32.888  19.505  25.484  1.00  0.00     0.017 A 
ATOM     25  C   UNL A   1      32.277  19.694  23.141  1.00  0.00     0.017 A 
ATOM     26  C   UNL A   1      33.228  18.166  25.298  1.00  0.00     0.086 A 
ATOM     27  C   UNL A   1      32.644  18.359  22.941  1.00  0.00     0.086 A 
ATOM     28  C   UNL A   1      33.127  17.605  24.019  1.00  0.00     0.269 A 
BRANCH  28  29
ATOM     29  N   UNL A   1      33.566  16.222  23.804  1.00  0.00     0.062 N 
ATOM     30  O   UNL A   1      33.235  15.386  24.653  1.00  0.00    -0.258 OA
ATOM     31  O   UNL A   1      34.252  15.988  22.800  1.00  0.00    -0.258 OA
ENDBRANCH  28  29
ENDBRANCH  11  23
ENDBRANCH   7   8
ENDBRANCH   5   7
ENDBRANCH   2   3
ENDBRANCH   1   2
BRANCH   1  32
ATOM     32  C   UNL A   1      37.406  19.872  24.946  1.00  0.00     0.023 C 
BRANCH  32  33
ATOM     33  C   UNL A   1      38.673  20.380  25.629  1.00  0.00     0.116 C 
BRANCH  33  34
ATOM     34  N   UNL A   1      39.742  19.400  25.672  1.00  0.00    -0.352 N 
ATOM     35  C   UNL A   1      41.054  19.559  26.053  1.00  0.00     0.251 C 
ATOM     36  H   UNL A   1      39.492  18.490  25.390  1.00  0.00     0.163 HD
ATOM     37  O   UNL A   1      41.851  18.634  25.909  1.00  0.00    -0.269 OA
BRANCH  35  38
ATOM     38  C   UNL A   1      41.529  20.850  26.603  1.00  0.00     0.039 A 
ATOM     39  C   UNL A   1      42.083  21.790  25.729  1.00  0.00     0.014 A 
ATOM     40  C   UNL A   1      41.444  21.138  27.967  1.00  0.00     0.014 A 
ATOM     41  C   UNL A   1      42.479  23.044  26.208  1.00  0.00     0.010 A 
ATOM     42  C   UNL A   1      41.782  22.411  28.429  1.00  0.00     0.010 A 
ATOM     43  C   UNL A   1      42.291  23.386  27.557  1.00  0.00    -0.014 A 
BRANCH  43  44
ATOM     44  C   UNL A   1      42.599  24.758  28.058  1.00  0.00     0.031 A 
ATOM     45  C   UNL A   1      43.993  25.125  28.498  1.00  0.00     0.074 A 
ATOM     46  C   UNL A   1      41.606  25.662  28.196  1.00  0.00     0.049 A 
ATOM     47  N   UNL A   1      44.436  26.251  29.005  1.00  0.00    -0.248 NA
ATOM     48  C   UNL A   1      45.026  24.085  28.368  1.00  0.00     0.031 C 
ATOM     49  C   UNL A   1      40.196  25.435  27.872  1.00  0.00     0.029 A 
ATOM     50  N   UNL A   1      41.632  26.954  28.664  1.00  0.00    -0.354 N 
ATOM     51  C   UNL A   1      45.783  26.043  29.275  1.00  0.00     0.074 A 
ATOM     52  C   UNL A   1      46.077  24.671  28.921  1.00  0.00     0.031 C 
ATOM     53  C   UNL A   1      39.498  26.553  28.129  1.00  0.00     0.029 A 
ATOM     54  C   UNL A   1      40.399  27.563  28.678  1.00  0.00     0.049 A 
ATOM     55  H   UNL A   1      42.456  27.403  28.962  1.00  0.00     0.167 HD
ATOM     56  C   UNL A   1      46.704  26.917  29.750  1.00  0.00     0.031 A 
ATOM     57  C   UNL A   1      40.025  28.788  29.095  1.00  0.00     0.031 A 
ATOM     58  C   UNL A   1      46.420  28.283  30.110  1.00  0.00     0.049 A 
ATOM     59  C   UNL A   1      41.060  29.735  29.638  1.00  0.00     0.074 A 
ATOM     60  C   UNL A   1      47.302  29.261  30.538  1.00  0.00     0.029 A 
ATOM     61  N   UNL A   1      45.161  28.858  30.095  1.00  0.00    -0.354 N 
ATOM     62  N   UNL A   1      42.348  29.554  29.793  1.00  0.00    -0.248 NA
ATOM     63  C   UNL A   1      40.587  31.067  30.047  1.00  0.00     0.031 C 
ATOM     64  C   UNL A   1      46.565  30.412  30.836  1.00  0.00     0.029 A 
ATOM     65  C   UNL A   1      45.237  30.172  30.529  1.00  0.00     0.049 A 
ATOM     66  H   UNL A   1      44.333  28.401  29.819  1.00  0.00     0.167 HD
ATOM     67  C   UNL A   1      42.843  30.753  30.289  1.00  0.00     0.074 A 
ATOM     68  C   UNL A   1      41.721  31.662  30.390  1.00  0.00     0.031 C 
ATOM     69  C   UNL A   1      44.116  31.072  30.628  1.00  0.00     0.031 A 
BRANCH  56  70
ATOM     70  C   UNL A   1      48.115  26.417  29.909  1.00  0.00    -0.014 A 
ATOM     71  C   UNL A   1      49.054  26.551  28.872  1.00  0.00     0.009 A 
ATOM     72  C   UNL A   1      48.524  25.841  31.121  1.00  0.00     0.009 A 
ATOM     73  C   UNL A   1      50.358  26.076  29.030  1.00  0.00     0.001 A 
ATOM     74  C   UNL A   1      49.839  25.399  31.289  1.00  0.00     0.001 A 
ATOM     75  C   UNL A   1      50.750  25.505  30.239  1.00  0.00     0.000 A 
ENDBRANCH  56  70
BRANCH  57  76
ATOM     76  C   UNL A   1      38.600  29.203  29.002  1.00  0.00    -0.014 A 
ATOM     77  C   UNL A   1      38.085  29.721  27.802  1.00  0.00     0.009 A 
ATOM     78  C   UNL A   1      37.749  29.096  30.113  1.00  0.00     0.009 A 
ATOM     79  C   UNL A   1      36.757  30.149  27.728  1.00  0.00     0.001 A 
ATOM     80  C   UNL A   1      36.414  29.494  30.027  1.00  0.00     0.001 A 
ATOM     81  C   UNL A   1      35.921  30.030  28.838  1.00  0.00     0.000 A 
ENDBRANCH  57  76
BRANCH  69  82
ATOM     82  C   UNL A   1      44.378  32.477  31.098  1.00  0.00    -0.014 A 
ATOM     83  C   UNL A   1      44.675  33.510  30.194  1.00  0.00     0.009 A 
ATOM     84  C   UNL A   1      44.286  32.779  32.466  1.00  0.00     0.009 A 
ATOM     85  C   UNL A   1      44.909  34.807  30.657  1.00  0.00     0.001 A 
ATOM     86  C   UNL A   1      44.486  34.083  32.921  1.00  0.00     0.001 A 
ATOM     87  C   UNL A   1      44.809  35.094  32.017  1.00  0.00     0.000 A 
ENDBRANCH  69  82
ENDBRANCH  43  44
ENDBRANCH  35  38
ENDBRANCH  33  34
ENDBRANCH  32  33
ENDBRANCH   1  32
TORSDOF 16
ENDMDL
MODEL 2
REMARK VINA RESULT:     -12.5      1.411      5.724
REMARK SMILES O=C(C[C@]1(C(=O)NC2CCCCC2)CC(c2ccc([N+](=O)[O-])cc2)=NO1)NCCCCNC(=O)c1ccc(-c2c3nc(c(-c4ccccc4)c4ccc([nH]4)c(-c4ccccc4)c4nc(c(-c5ccccc5)c5ccc2[nH]5)C=C4)C=C3)cc1
REMARK SMILES IDX 29 1 28 2 27 3 1 4 2 5 3 7 4 8 14 9 26 10 15 11 25 12 5 13
REMARK SMILES IDX 6 14 7 15 8 17 9 18 13 19 10 20 12 21 11 22 16 23 17 24
REMARK SMILES IDX 24 25 18 26 23 27 19 28 20 29 21 30 22 31 30 32 31 33 32 34
REMARK SMILES IDX 33 35 34 37 35 38 36 39 82 40 37 41 81 42 38 43 39 44 40 45
REMARK SMILES IDX 75 46 41 47 80 48 74 49 76 50 42 51 79 52 73 53 72 54 43 56
REMARK SMILES IDX 65 57 50 58 64 59 51 60 54 61 63 62 77 63 52 64 53 65 62 67
REMARK SMILES IDX 78 68 55 69 44 70 45 71 49 72 46 73 48 74 47 75 66 76 67 77
REMARK SMILES IDX 71 78 68 79 70 80 69 81 56 82 57 83 61 84 58 85 60 86 59 87
REMARK H PARENT 27 6 7 16 32 36 76 55 54 66
REMARK Flexibility Score: inf
ROOT
ATOM      1  C   UNL A   1      36.373  20.766  25.266  1.00  0.00     0.023 C 
ENDROOT
BRANCH   1   2
ATOM      2  C   UNL A   1      36.628  22.232  25.603  1.00  0.00     0.116 C 
BRANCH   2   3
ATOM      3  N   UNL A   1      35.491  22.902  26.202  1.00  0.00    -0.356 N 
ATOM      4  O   UNL A   1      35.034  24.229  24.413  1.00  0.00    -0.275 OA
ATOM      5  C   UNL A   1      34.707  23.789  25.515  1.00  0.00     0.224 C 
ATOM      6  H   UNL A   1      35.272  22.710  27.143  1.00  0.00     0.163 HD
BRANCH   5   7
ATOM      7  C   UNL A   1      33.404  24.249  26.164  1.00  0.00     0.162 C 
BRANCH   7   8
ATOM      8  C   UNL A   1      32.037  23.649  25.749  1.00  0.00     0.229 C 
ATOM      9  C   UNL A   1      31.965  22.145  26.045  1.00  0.00     0.123 C 
ATOM     10  O   UNL A   1      31.777  23.735  24.344  1.00  0.00    -0.378 OA
ATOM     11  C   UNL A   1      32.199  21.630  24.675  1.00  0.00     0.092 C 
ATOM     12  N   UNL A   1      32.133  22.513  23.732  1.00  0.00    -0.089 NA
BRANCH   8  13
ATOM     13  C   UNL A   1      30.901  24.356  26.527  1.00  0.00     0.268 C 
ATOM     14  O   UNL A   1      30.127  23.696  27.233  1.00  0.00    -0.270 OA
ATOM     15  N   UNL A   1      30.735  25.708  26.561  1.00  0.00    -0.350 N 
ATOM     16  H   UNL A   1      30.069  26.006  27.221  1.00  0.00     0.163 HD
BRANCH  15  17
ATOM     17  C   UNL A   1      31.350  26.813  25.811  1.00  0.00     0.082 C 
ATOM     18  C   UNL A   1      30.525  27.086  24.539  1.00  0.00     0.025 C 
ATOM     19  C   UNL A   1      31.450  28.091  26.644  1.00  0.00     0.025 C 
ATOM     20  C   UNL A   1      31.020  28.304  23.758  1.00  0.00     0.002 C 
ATOM     21  C   UNL A   1      31.953  29.293  25.858  1.00  0.00     0.002 C 
ATOM     22  C   UNL A   1      31.090  29.548  24.635  1.00  0.00     0.000 C 
ENDBRANCH  15  17
ENDBRANCH   8  13
BRANCH  11  23
ATOM     23  C   UNL A   1      32.510  20.220  24.423  1.00  0.00    -0.000 A 
ATOM     24  C   UNL A   1      32.914  19.430  25.502  1.00  0.00     0.017 A 
ATOM     25  C   UNL A   1      32.455  19.689  23.132  1.00  0.00     0.017 A 
ATOM     26  C   UNL A   1      33.272  18.099  25.298  1.00  0.00     0.086 A 
ATOM     27  C   UNL A   1      32.840  18.362  22.916  1.00  0.00     0.086 A 
ATOM     28  C   UNL A   1      33.256  17.576  23.999  1.00  0.00     0.269 A 
BRANCH  28  29
ATOM     29  N   UNL A   1      33.715  16.202  23.771  1.00  0.00     0.062 N 
ATOM     30  O   UNL A   1      33.417  15.358  24.625  1.00  0.00    -0.258 OA
ATOM     31  O   UNL A   1      34.384  15.983  22.753  1.00  0.00    -0.258 OA
ENDBRANCH  28  29
ENDBRANCH  11  23
ENDBRANCH   7   8
ENDBRANCH   5   7
ENDBRANCH   2   3
ENDBRANCH   1   2
BRANCH   1  32
ATOM     32  C   UNL A   1      37.620  19.958  24.908  1.00  0.00     0.023 C 
BRANCH  32  33
ATOM     33  C   UNL A   1      38.884  20.309  25.688  1.00  0.00     0.116 C 
BRANCH  33  34
ATOM     34  N   UNL A   1      39.845  19.224  25.757  1.00  0.00    -0.352 N 
ATOM     35  C   UNL A   1      41.193  19.270  26.026  1.00  0.00     0.251 C 
ATOM     36  H   UNL A   1      39.479  18.325  25.588  1.00  0.00     0.163 HD
ATOM     37  O   UNL A   1      41.874  18.252  25.921  1.00  0.00    -0.269 OA
BRANCH  35  38
ATOM     38  C   UNL A   1      41.843  20.546  26.406  1.00  0.00     0.039 A 
ATOM     39  C   UNL A   1      42.351  21.369  25.396  1.00  0.00     0.014 A 
ATOM     40  C   UNL A   1      41.965  20.933  27.743  1.00  0.00     0.014 A 
ATOM     41  C   UNL A   1      42.911  22.610  25.720  1.00  0.00     0.010 A 
ATOM     42  C   UNL A   1      42.467  22.198  28.055  1.00  0.00     0.010 A 
ATOM     43  C   UNL A   1      42.934  23.060  27.050  1.00  0.00    -0.014 A 
BRANCH  43  44
ATOM     44  C   UNL A   1      43.419  24.428  27.397  1.00  0.00     0.031 A 
ATOM     45  C   UNL A   1      42.453  25.507  27.816  1.00  0.00     0.074 A 
ATOM     46  C   UNL A   1      44.727  24.733  27.261  1.00  0.00     0.049 A 
ATOM     47  N   UNL A   1      42.685  26.764  28.108  1.00  0.00    -0.248 NA
ATOM     48  C   UNL A   1      41.033  25.128  27.903  1.00  0.00     0.031 C 
ATOM     49  C   UNL A   1      45.773  23.814  26.806  1.00  0.00     0.029 A 
ATOM     50  N   UNL A   1      45.397  25.913  27.478  1.00  0.00    -0.354 N 
ATOM     51  C   UNL A   1      41.446  27.326  28.386  1.00  0.00     0.074 A 
ATOM     52  C   UNL A   1      40.458  26.288  28.183  1.00  0.00     0.031 C 
ATOM     53  C   UNL A   1      46.952  24.457  26.799  1.00  0.00     0.029 A 
ATOM     54  C   UNL A   1      46.743  25.844  27.204  1.00  0.00     0.049 A 
ATOM     55  H   UNL A   1      44.956  26.732  27.799  1.00  0.00     0.167 HD
ATOM     56  C   UNL A   1      41.151  28.583  28.798  1.00  0.00     0.031 A 
ATOM     57  C   UNL A   1      47.703  26.787  27.259  1.00  0.00     0.031 A 
ATOM     58  C   UNL A   1      42.126  29.623  28.999  1.00  0.00     0.049 A 
ATOM     59  C   UNL A   1      47.351  28.181  27.700  1.00  0.00     0.074 A 
ATOM     60  C   UNL A   1      41.929  30.908  29.477  1.00  0.00     0.029 A 
ATOM     61  N   UNL A   1      43.477  29.504  28.722  1.00  0.00    -0.354 N 
ATOM     62  N   UNL A   1      46.187  28.668  28.054  1.00  0.00    -0.248 NA
ATOM     63  C   UNL A   1      48.454  29.152  27.765  1.00  0.00     0.031 C 
ATOM     64  C   UNL A   1      43.153  31.583  29.436  1.00  0.00     0.029 A 
ATOM     65  C   UNL A   1      44.124  30.698  28.997  1.00  0.00     0.049 A 
ATOM     66  H   UNL A   1      43.915  28.691  28.379  1.00  0.00     0.167 HD
ATOM     67  C   UNL A   1      46.421  29.990  28.410  1.00  0.00     0.074 A 
ATOM     68  C   UNL A   1      47.841  30.224  28.249  1.00  0.00     0.031 C 
ATOM     69  C   UNL A   1      45.537  30.926  28.834  1.00  0.00     0.031 A 
BRANCH  56  70
ATOM     70  C   UNL A   1      39.703  28.903  29.062  1.00  0.00    -0.014 A 
ATOM     71  C   UNL A   1      38.891  29.468  28.064  1.00  0.00     0.009 A 
ATOM     72  C   UNL A   1      39.133  28.602  30.308  1.00  0.00     0.009 A 
ATOM     73  C   UNL A   1      37.552  29.767  28.324  1.00  0.00     0.001 A 
ATOM     74  C   UNL A   1      37.784  28.871  30.554  1.00  0.00     0.001 A 
ATOM     75  C   UNL A   1      36.999  29.464  29.566  1.00  0.00     0.000 A 
ENDBRANCH  56  70
BRANCH  57  76
ATOM     76  C   UNL A   1      49.106  26.443  26.901  1.00  0.00    -0.014 A 
ATOM     77  C   UNL A   1      49.573  26.626  25.590  1.00  0.00     0.009 A 
ATOM     78  C   UNL A   1      49.981  25.918  27.864  1.00  0.00     0.009 A 
ATOM     79  C   UNL A   1      50.878  26.265  25.245  1.00  0.00     0.001 A 
ATOM     80  C   UNL A   1      51.295  25.587  27.525  1.00  0.00     0.001 A 
ATOM     81  C   UNL A   1      51.739  25.750  26.214  1.00  0.00     0.000 A 
ENDBRANCH  57  76
BRANCH  69  82
ATOM     82  C   UNL A   1      46.082  32.279  29.202  1.00  0.00    -0.014 A 
ATOM     83  C   UNL A   1      46.093  33.341  28.283  1.00  0.00     0.009 A 
ATOM     84  C   UNL A   1      46.557  32.504  30.504  1.00  0.00     0.009 A 
ATOM     85  C   UNL A   1      46.600  34.589  28.653  1.00  0.00     0.001 A 
ATOM     86  C   UNL A   1      47.031  33.761  30.880  1.00  0.00     0.001 A 
ATOM     87  C   UNL A   1      47.063  34.800  29.951  1.00  0.00     0.000 A 
ENDBRANCH  69  82
ENDBRANCH  43  44
ENDBRANCH  35  38
ENDBRANCH  33  34
ENDBRANCH  32  33
ENDBRANCH   1  32
TORSDOF 16
ENDMDL
MODEL 3
REMARK VINA RESULT:     -12.0      1.850      2.683
REMARK SMILES O=C(C[C@]1(C(=O)NC2CCCCC2)CC(c2ccc([N+](=O)[O-])cc2)=NO1)NCCCCNC(=O)c1ccc(-c2c3nc(c(-c4ccccc4)c4ccc([nH]4)c(-c4ccccc4)c4nc(c(-c5ccccc5)c5ccc2[nH]5)C=C4)C=C3)cc1
REMARK SMILES IDX 29 1 28 2 27 3 1 4 2 5 3 7 4 8 14 9 26 10 15 11 25 12 5 13
REMARK SMILES IDX 6 14 7 15 8 17 9 18 13 19 10 20 12 21 11 22 16 23 17 24
REMARK SMILES IDX 24 25 18 26 23 27 19 28 20 29 21 30 22 31 30 32 31 33 32 34
REMARK SMILES IDX 33 35 34 37 35 38 36 39 82 40 37 41 81 42 38 43 39 44 40 45
REMARK SMILES IDX 75 46 41 47 80 48 74 49 76 50 42 51 79 52 73 53 72 54 43 56
REMARK SMILES IDX 65 57 50 58 64 59 51 60 54 61 63 62 77 63 52 64 53 65 62 67
REMARK SMILES IDX 78 68 55 69 44 70 45 71 49 72 46 73 48 74 47 75 66 76 67 77
REMARK SMILES IDX 71 78 68 79 70 80 69 81 56 82 57 83 61 84 58 85 60 86 59 87
REMARK H PARENT 27 6 7 16 32 36 76 55 54 66
REMARK Flexibility Score: inf
ROOT
ATOM      1  C   UNL A   1      36.764  22.674  23.492  1.00  0.00     0.023 C 
ENDROOT
BRANCH   1   2
ATOM      2  C   UNL A   1      35.679  23.745  23.550  1.00  0.00     0.116 C 
BRANCH   2   3
ATOM      3  N   UNL A   1      34.701  23.534  24.599  1.00  0.00    -0.356 N 
ATOM      4  O   UNL A   1      34.556  25.716  25.223  1.00  0.00    -0.275 OA
ATOM      5  C   UNL A   1      34.130  24.562  25.297  1.00  0.00     0.224 C 
ATOM      6  H   UNL A   1      34.436  22.611  24.817  1.00  0.00     0.163 HD
BRANCH   5   7
ATOM      7  C   UNL A   1      32.945  24.244  26.206  1.00  0.00     0.162 C 
BRANCH   7   8
ATOM      8  C   UNL A   1      31.638  23.629  25.646  1.00  0.00     0.229 C 
ATOM      9  C   UNL A   1      31.552  22.123  25.935  1.00  0.00     0.123 C 
ATOM     10  O   UNL A   1      31.530  23.711  24.222  1.00  0.00    -0.378 OA
ATOM     11  C   UNL A   1      31.938  21.611  24.599  1.00  0.00     0.092 C 
ATOM     12  N   UNL A   1      31.965  22.493  23.654  1.00  0.00    -0.089 NA
BRANCH   8  13
ATOM     13  C   UNL A   1      30.417  24.322  26.296  1.00  0.00     0.268 C 
ATOM     14  O   UNL A   1      29.813  23.773  27.227  1.00  0.00    -0.270 OA
ATOM     15  N   UNL A   1      29.993  25.574  25.963  1.00  0.00    -0.350 N 
ATOM     16  H   UNL A   1      29.306  25.931  26.573  1.00  0.00     0.163 HD
BRANCH  15  17
ATOM     17  C   UNL A   1      30.353  26.500  24.880  1.00  0.00     0.082 C 
ATOM     18  C   UNL A   1      29.078  26.910  24.117  1.00  0.00     0.025 C 
ATOM     19  C   UNL A   1      31.065  27.748  25.401  1.00  0.00     0.025 C 
ATOM     20  C   UNL A   1      29.341  27.971  23.048  1.00  0.00     0.002 C 
ATOM     21  C   UNL A   1      31.329  28.793  24.326  1.00  0.00     0.002 C 
ATOM     22  C   UNL A   1      30.043  29.194  23.625  1.00  0.00     0.000 C 
ENDBRANCH  15  17
ENDBRANCH   8  13
BRANCH  11  23
ATOM     23  C   UNL A   1      32.291  20.204  24.384  1.00  0.00    -0.000 A 
ATOM     24  C   UNL A   1      32.795  19.478  25.466  1.00  0.00     0.017 A 
ATOM     25  C   UNL A   1      32.176  19.617  23.122  1.00  0.00     0.017 A 
ATOM     26  C   UNL A   1      33.194  18.154  25.293  1.00  0.00     0.086 A 
ATOM     27  C   UNL A   1      32.602  18.298  22.935  1.00  0.00     0.086 A 
ATOM     28  C   UNL A   1      33.118  17.576  24.020  1.00  0.00     0.269 A 
BRANCH  28  29
ATOM     29  N   UNL A   1      33.618  16.212  23.818  1.00  0.00     0.062 N 
ATOM     30  O   UNL A   1      33.333  15.372  24.681  1.00  0.00    -0.258 OA
ATOM     31  O   UNL A   1      34.306  15.997  22.812  1.00  0.00    -0.258 OA
ENDBRANCH  28  29
ENDBRANCH  11  23
ENDBRANCH   7   8
ENDBRANCH   5   7
ENDBRANCH   2   3
ENDBRANCH   1   2
BRANCH   1  32
ATOM     32  C   UNL A   1      37.004  21.925  24.803  1.00  0.00     0.023 C 
BRANCH  32  33
ATOM     33  C   UNL A   1      38.003  22.569  25.761  1.00  0.00     0.116 C 
BRANCH  33  34
ATOM     34  N   UNL A   1      39.265  21.859  25.847  1.00  0.00    -0.352 N 
ATOM     35  C   UNL A   1      40.502  22.326  26.227  1.00  0.00     0.251 C 
ATOM     36  H   UNL A   1      39.232  20.907  25.600  1.00  0.00     0.163 HD
ATOM     37  O   UNL A   1      41.490  21.602  26.122  1.00  0.00    -0.269 OA
BRANCH  35  38
ATOM     38  C   UNL A   1      40.664  23.711  26.728  1.00  0.00     0.039 A 
ATOM     39  C   UNL A   1      41.080  23.904  28.048  1.00  0.00     0.014 A 
ATOM     40  C   UNL A   1      40.402  24.817  25.915  1.00  0.00     0.014 A 
ATOM     41  C   UNL A   1      41.306  25.199  28.530  1.00  0.00     0.010 A 
ATOM     42  C   UNL A   1      40.689  26.102  26.379  1.00  0.00     0.010 A 
ATOM     43  C   UNL A   1      41.157  26.312  27.687  1.00  0.00    -0.014 A 
BRANCH  43  44
ATOM     44  C   UNL A   1      41.507  27.687  28.149  1.00  0.00     0.031 A 
ATOM     45  C   UNL A   1      42.944  28.140  28.208  1.00  0.00     0.074 A 
ATOM     46  C   UNL A   1      40.538  28.514  28.595  1.00  0.00     0.049 A 
ATOM     47  N   UNL A   1      43.440  29.279  28.627  1.00  0.00    -0.248 NA
ATOM     48  C   UNL A   1      43.962  27.179  27.751  1.00  0.00     0.031 C 
ATOM     49  C   UNL A   1      39.110  28.197  28.657  1.00  0.00     0.029 A 
ATOM     50  N   UNL A   1      40.614  29.791  29.098  1.00  0.00    -0.354 N 
ATOM     51  C   UNL A   1      44.819  29.159  28.508  1.00  0.00     0.074 A 
ATOM     52  C   UNL A   1      45.087  27.823  28.023  1.00  0.00     0.031 C 
ATOM     53  C   UNL A   1      38.444  29.255  29.148  1.00  0.00     0.029 A 
ATOM     54  C   UNL A   1      39.398  30.310  29.477  1.00  0.00     0.049 A 
ATOM     55  H   UNL A   1      41.459  30.289  29.180  1.00  0.00     0.167 HD
ATOM     56  C   UNL A   1      45.781  30.083  28.754  1.00  0.00     0.031 A 
ATOM     57  C   UNL A   1      39.081  31.493  30.037  1.00  0.00     0.031 A 
ATOM     58  C   UNL A   1      45.526  31.414  29.241  1.00  0.00     0.049 A 
ATOM     59  C   UNL A   1      40.165  32.496  30.320  1.00  0.00     0.074 A 
ATOM     60  C   UNL A   1      46.430  32.439  29.457  1.00  0.00     0.029 A 
ATOM     61  N   UNL A   1      44.279  31.899  29.598  1.00  0.00    -0.354 N 
ATOM     62  N   UNL A   1      41.455  32.402  30.109  1.00  0.00    -0.248 NA
ATOM     63  C   UNL A   1      39.744  33.778  30.904  1.00  0.00     0.031 C 
ATOM     64  C   UNL A   1      45.737  33.527  29.999  1.00  0.00     0.029 A 
ATOM     65  C   UNL A   1      44.392  33.202  30.056  1.00  0.00     0.049 A 
ATOM     66  H   UNL A   1      43.436  31.393  29.538  1.00  0.00     0.167 HD
ATOM     67  C   UNL A   1      41.994  33.619  30.506  1.00  0.00     0.074 A 
ATOM     68  C   UNL A   1      40.891  34.442  30.952  1.00  0.00     0.031 C 
ATOM     69  C   UNL A   1      43.290  34.017  30.499  1.00  0.00     0.031 A 
BRANCH  56  70
ATOM     70  C   UNL A   1      47.209  29.680  28.498  1.00  0.00    -0.014 A 
ATOM     71  C   UNL A   1      47.774  29.784  27.215  1.00  0.00     0.009 A 
ATOM     72  C   UNL A   1      48.012  29.228  29.556  1.00  0.00     0.009 A 
ATOM     73  C   UNL A   1      49.098  29.400  26.990  1.00  0.00     0.001 A 
ATOM     74  C   UNL A   1      49.346  28.877  29.334  1.00  0.00     0.001 A 
ATOM     75  C   UNL A   1      49.883  28.952  28.050  1.00  0.00     0.000 A 
ENDBRANCH  56  70
BRANCH  57  76
ATOM     76  C   UNL A   1      37.662  31.809  30.356  1.00  0.00    -0.014 A 
ATOM     77  C   UNL A   1      36.841  32.440  29.408  1.00  0.00     0.009 A 
ATOM     78  C   UNL A   1      37.124  31.492  31.613  1.00  0.00     0.009 A 
ATOM     79  C   UNL A   1      35.521  32.773  29.723  1.00  0.00     0.001 A 
ATOM     80  C   UNL A   1      35.795  31.797  31.914  1.00  0.00     0.001 A 
ATOM     81  C   UNL A   1      34.998  32.447  30.974  1.00  0.00     0.000 A 
ENDBRANCH  57  76
BRANCH  69  82
ATOM     82  C   UNL A   1      43.585  35.423  30.945  1.00  0.00    -0.014 A 
ATOM     83  C   UNL A   1      43.620  36.491  30.033  1.00  0.00     0.009 A 
ATOM     84  C   UNL A   1      43.794  35.689  32.307  1.00  0.00     0.009 A 
ATOM     85  C   UNL A   1      43.892  37.787  30.474  1.00  0.00     0.001 A 
ATOM     86  C   UNL A   1      44.032  36.991  32.750  1.00  0.00     0.001 A 
ATOM     87  C   UNL A   1      44.091  38.038  31.831  1.00  0.00     0.000 A 
ENDBRANCH  69  82
ENDBRANCH  43  44
ENDBRANCH  35  38
ENDBRANCH  33  34
ENDBRANCH  32  33
ENDBRANCH   1  32
TORSDOF 16
ENDMDL
