MODEL 1
REMARK VINA RESULT:     -11.5      0.000      0.000
REMARK SMILES CC[NH+]1CCC2(CC1)OC[C@H](C(=O)NCCCCNC(=O)c1ccc(-c3c4nc(c(-c5ccccc5)c5ccc([nH]5)c(-c5ccccc5)c5nc(c(-c6ccccc6)c6ccc3[nH]6)C=C5)C=C4)cc1)N2C(=O)c1ccccc1
REMARK SMILES IDX 16 1 15 2 14 3 12 4 13 5 11 7 3 8 4 9 8 10 5 12 7 13 6 14
REMARK SMILES IDX 9 15 70 16 10 17 2 18 1 19 71 20 72 21 73 22 74 23 78 24
REMARK SMILES IDX 75 25 77 26 76 27 17 28 18 29 19 30 20 31 21 33 22 34 23 35
REMARK SMILES IDX 69 36 24 37 68 38 25 39 26 40 27 41 62 42 28 43 67 44 61 45
REMARK SMILES IDX 63 46 29 47 66 48 60 49 59 50 30 52 52 53 37 54 51 55 38 56
REMARK SMILES IDX 41 57 50 58 64 59 39 60 40 61 49 63 65 64 42 65 31 66 32 67
REMARK SMILES IDX 36 68 33 69 35 70 34 71 53 72 54 73 58 74 55 75 57 76 56 77
REMARK SMILES IDX 43 78 44 79 48 80 45 81 47 82 46 83
REMARK H PARENT 14 6 3 11 19 32 63 51 41 62
REMARK Flexibility Score: inf
ROOT
ATOM      1  C   UNL A   1      34.413  30.785  27.897  1.00  0.00     0.023 C 
ENDROOT
BRANCH   1   2
ATOM      2  C   UNL A   1      34.374  29.319  27.487  1.00  0.00     0.116 C 
BRANCH   2   3
ATOM      3  N   UNL A   1      33.066  28.706  27.648  1.00  0.00    -0.354 N 
ATOM      4  C   UNL A   1      32.096  28.307  26.774  1.00  0.00     0.245 C 
ATOM      5  O   UNL A   1      31.256  27.544  27.273  1.00  0.00    -0.273 OA
ATOM      6  H   UNL A   1      32.829  28.544  28.589  1.00  0.00     0.163 HD
BRANCH   4   7
ATOM      7  C   UNL A   1      32.025  28.650  25.255  1.00  0.00     0.203 C 
ATOM      8  N   UNL A   1      33.317  24.099  23.146  1.00  0.00    -0.335 N 
ATOM      9  C   UNL A   1      33.035  24.509  24.510  1.00  0.00     0.267 C 
ATOM     10  C   UNL A   1      33.143  25.120  22.119  1.00  0.00     0.267 C 
ATOM     11  H   UNL A   1      32.542  23.467  22.949  1.00  0.00     0.348 HD
ATOM     12  C   UNL A   1      33.592  25.867  24.866  1.00  0.00     0.120 C 
ATOM     13  C   UNL A   1      33.357  26.588  22.487  1.00  0.00     0.120 C 
ATOM     14  C   UNL A   1      33.085  26.979  23.939  1.00  0.00     0.155 C 
ATOM     15  O   UNL A   1      33.993  28.121  24.139  1.00  0.00    -0.352 OA
ATOM     16  N   UNL A   1      31.784  27.517  24.363  1.00  0.00    -0.295 N 
ATOM     17  C   UNL A   1      33.239  29.250  24.620  1.00  0.00     0.198 C 
BRANCH   8  18
ATOM     18  C   UNL A   1      34.496  23.254  22.986  1.00  0.00     0.258 C 
ATOM     19  C   UNL A   1      34.734  22.409  24.239  1.00  0.00     0.071 C 
ENDBRANCH   8  18
BRANCH  16  20
ATOM     20  C   UNL A   1      30.468  27.221  24.048  1.00  0.00     0.256 C 
ATOM     21  O   UNL A   1      29.890  26.219  24.465  1.00  0.00    -0.269 OA
BRANCH  20  22
ATOM     22  C   UNL A   1      29.634  28.152  23.279  1.00  0.00     0.040 A 
ATOM     23  C   UNL A   1      30.246  29.086  22.435  1.00  0.00     0.014 A 
ATOM     24  C   UNL A   1      28.255  28.193  23.493  1.00  0.00     0.014 A 
ATOM     25  C   UNL A   1      29.456  29.983  21.711  1.00  0.00     0.001 A 
ATOM     26  C   UNL A   1      27.466  29.071  22.748  1.00  0.00     0.001 A 
ATOM     27  C   UNL A   1      28.066  29.956  21.848  1.00  0.00     0.000 A 
ENDBRANCH  20  22
ENDBRANCH  16  20
ENDBRANCH   4   7
ENDBRANCH   2   3
ENDBRANCH   1   2
BRANCH   1  28
ATOM     28  C   UNL A   1      33.101  31.537  27.693  1.00  0.00     0.023 C 
BRANCH  28  29
ATOM     29  C   UNL A   1      33.221  32.940  27.102  1.00  0.00     0.116 C 
BRANCH  29  30
ATOM     30  N   UNL A   1      32.710  33.996  27.963  1.00  0.00    -0.352 N 
ATOM     31  C   UNL A   1      33.267  34.526  29.104  1.00  0.00     0.251 C 
ATOM     32  H   UNL A   1      31.847  34.385  27.691  1.00  0.00     0.163 HD
ATOM     33  O   UNL A   1      32.665  35.364  29.761  1.00  0.00    -0.269 OA
BRANCH  31  34
ATOM     34  C   UNL A   1      34.589  34.041  29.557  1.00  0.00     0.039 A 
ATOM     35  C   UNL A   1      34.654  33.219  30.686  1.00  0.00     0.014 A 
ATOM     36  C   UNL A   1      35.750  34.359  28.849  1.00  0.00     0.014 A 
ATOM     37  C   UNL A   1      35.874  32.656  31.059  1.00  0.00     0.010 A 
ATOM     38  C   UNL A   1      36.950  33.733  29.174  1.00  0.00     0.010 A 
ATOM     39  C   UNL A   1      37.025  32.876  30.282  1.00  0.00    -0.014 A 
BRANCH  39  40
ATOM     40  C   UNL A   1      38.310  32.212  30.616  1.00  0.00     0.031 A 
ATOM     41  C   UNL A   1      39.264  32.850  31.588  1.00  0.00     0.074 A 
ATOM     42  C   UNL A   1      38.644  31.059  30.005  1.00  0.00     0.049 A 
ATOM     43  N   UNL A   1      40.436  32.429  31.992  1.00  0.00    -0.248 NA
ATOM     44  C   UNL A   1      38.862  34.145  32.162  1.00  0.00     0.031 C 
ATOM     45  C   UNL A   1      37.834  30.363  29.001  1.00  0.00     0.029 A 
ATOM     46  N   UNL A   1      39.757  30.267  30.138  1.00  0.00    -0.354 N 
ATOM     47  C   UNL A   1      40.914  33.409  32.852  1.00  0.00     0.074 A 
ATOM     48  C   UNL A   1      39.933  34.472  32.867  1.00  0.00     0.031 C 
ATOM     49  C   UNL A   1      38.459  29.232  28.639  1.00  0.00     0.029 A 
ATOM     50  C   UNL A   1      39.726  29.138  29.355  1.00  0.00     0.049 A 
ATOM     51  H   UNL A   1      40.507  30.487  30.737  1.00  0.00     0.167 HD
ATOM     52  C   UNL A   1      42.053  33.416  33.583  1.00  0.00     0.031 A 
ATOM     53  C   UNL A   1      40.618  28.136  29.230  1.00  0.00     0.031 A 
ATOM     54  C   UNL A   1      43.025  32.356  33.577  1.00  0.00     0.049 A 
ATOM     55  C   UNL A   1      41.876  28.167  30.054  1.00  0.00     0.074 A 
ATOM     56  C   UNL A   1      44.182  32.242  34.327  1.00  0.00     0.029 A 
ATOM     57  N   UNL A   1      42.953  31.226  32.777  1.00  0.00    -0.354 N 
ATOM     58  N   UNL A   1      42.274  29.064  30.923  1.00  0.00    -0.248 NA
ATOM     59  C   UNL A   1      42.798  27.035  29.889  1.00  0.00     0.031 C 
ATOM     60  C   UNL A   1      44.837  31.066  33.945  1.00  0.00     0.029 A 
ATOM     61  C   UNL A   1      44.058  30.420  32.999  1.00  0.00     0.049 A 
ATOM     62  H   UNL A   1      42.225  31.026  32.146  1.00  0.00     0.167 HD
ATOM     63  C   UNL A   1      43.478  28.592  31.429  1.00  0.00     0.074 A 
ATOM     64  C   UNL A   1      43.734  27.321  30.784  1.00  0.00     0.031 C 
ATOM     65  C   UNL A   1      44.301  29.161  32.344  1.00  0.00     0.031 A 
BRANCH  52  66
ATOM     66  C   UNL A   1      42.308  34.618  34.451  1.00  0.00    -0.014 A 
ATOM     67  C   UNL A   1      42.984  35.744  33.953  1.00  0.00     0.009 A 
ATOM     68  C   UNL A   1      41.847  34.635  35.776  1.00  0.00     0.009 A 
ATOM     69  C   UNL A   1      43.228  36.846  34.776  1.00  0.00     0.001 A 
ATOM     70  C   UNL A   1      42.064  35.750  36.587  1.00  0.00     0.001 A 
ATOM     71  C   UNL A   1      42.764  36.850  36.090  1.00  0.00     0.000 A 
ENDBRANCH  52  66
BRANCH  53  72
ATOM     72  C   UNL A   1      40.344  27.002  28.310  1.00  0.00    -0.014 A 
ATOM     73  C   UNL A   1      40.838  27.016  26.996  1.00  0.00     0.009 A 
ATOM     74  C   UNL A   1      39.576  25.907  28.734  1.00  0.00     0.009 A 
ATOM     75  C   UNL A   1      40.545  25.970  26.118  1.00  0.00     0.001 A 
ATOM     76  C   UNL A   1      39.309  24.849  27.862  1.00  0.00     0.001 A 
ATOM     77  C   UNL A   1      39.785  24.886  26.552  1.00  0.00     0.000 A 
ENDBRANCH  53  72
BRANCH  65  78
ATOM     78  C   UNL A   1      45.536  28.393  32.722  1.00  0.00    -0.014 A 
ATOM     79  C   UNL A   1      46.752  28.589  32.050  1.00  0.00     0.009 A 
ATOM     80  C   UNL A   1      45.488  27.479  33.786  1.00  0.00     0.009 A 
ATOM     81  C   UNL A   1      47.883  27.852  32.407  1.00  0.00     0.001 A 
ATOM     82  C   UNL A   1      46.627  26.767  34.162  1.00  0.00     0.001 A 
ATOM     83  C   UNL A   1      47.820  26.945  33.465  1.00  0.00     0.000 A 
ENDBRANCH  65  78
ENDBRANCH  39  40
ENDBRANCH  31  34
ENDBRANCH  29  30
ENDBRANCH  28  29
ENDBRANCH   1  28
TORSDOF 14
ENDMDL
MODEL 2
REMARK VINA RESULT:     -11.4      3.523      8.994
REMARK SMILES CC[NH+]1CCC2(CC1)OC[C@H](C(=O)NCCCCNC(=O)c1ccc(-c3c4nc(c(-c5ccccc5)c5ccc([nH]5)c(-c5ccccc5)c5nc(c(-c6ccccc6)c6ccc3[nH]6)C=C5)C=C4)cc1)N2C(=O)c1ccccc1
REMARK SMILES IDX 16 1 15 2 14 3 12 4 13 5 11 7 3 8 4 9 8 10 5 12 7 13 6 14
REMARK SMILES IDX 9 15 70 16 10 17 2 18 1 19 71 20 72 21 73 22 74 23 78 24
REMARK SMILES IDX 75 25 77 26 76 27 17 28 18 29 19 30 20 31 21 33 22 34 23 35
REMARK SMILES IDX 69 36 24 37 68 38 25 39 26 40 27 41 62 42 28 43 67 44 61 45
REMARK SMILES IDX 63 46 29 47 66 48 60 49 59 50 30 52 52 53 37 54 51 55 38 56
REMARK SMILES IDX 41 57 50 58 64 59 39 60 40 61 49 63 65 64 42 65 31 66 32 67
REMARK SMILES IDX 36 68 33 69 35 70 34 71 53 72 54 73 58 74 55 75 57 76 56 77
REMARK SMILES IDX 43 78 44 79 48 80 45 81 47 82 46 83
REMARK H PARENT 14 6 3 11 19 32 63 51 41 62
REMARK Flexibility Score: inf
ROOT
ATOM      1  C   UNL A   1      38.992  22.763  26.164  1.00  0.00     0.023 C 
ENDROOT
BRANCH   1   2
ATOM      2  C   UNL A   1      37.842  23.698  25.817  1.00  0.00     0.116 C 
BRANCH   2   3
ATOM      3  N   UNL A   1      37.244  23.429  24.520  1.00  0.00    -0.354 N 
ATOM      4  C   UNL A   1      36.067  22.865  24.120  1.00  0.00     0.245 C 
ATOM      5  O   UNL A   1      35.780  23.092  22.936  1.00  0.00    -0.273 OA
ATOM      6  H   UNL A   1      37.812  23.713  23.767  1.00  0.00     0.163 HD
BRANCH   4   7
ATOM      7  C   UNL A   1      35.070  22.076  25.022  1.00  0.00     0.203 C 
ATOM      8  N   UNL A   1      31.240  25.528  25.523  1.00  0.00    -0.335 N 
ATOM      9  C   UNL A   1      32.443  25.500  24.709  1.00  0.00     0.267 C 
ATOM     10  C   UNL A   1      30.976  24.335  26.321  1.00  0.00     0.267 C 
ATOM     11  H   UNL A   1      30.505  25.478  24.818  1.00  0.00     0.348 HD
ATOM     12  C   UNL A   1      33.648  24.934  25.422  1.00  0.00     0.120 C 
ATOM     13  C   UNL A   1      32.154  23.490  26.807  1.00  0.00     0.120 C 
ATOM     14  C   UNL A   1      33.416  23.512  25.945  1.00  0.00     0.155 C 
ATOM     15  O   UNL A   1      34.481  23.261  26.932  1.00  0.00    -0.352 OA
ATOM     16  N   UNL A   1      33.670  22.486  24.922  1.00  0.00    -0.295 N 
ATOM     17  C   UNL A   1      35.272  22.138  26.502  1.00  0.00     0.198 C 
BRANCH   8  18
ATOM     18  C   UNL A   1      30.980  26.794  26.198  1.00  0.00     0.258 C 
ATOM     19  C   UNL A   1      31.446  27.973  25.342  1.00  0.00     0.071 C 
ENDBRANCH   8  18
BRANCH  16  20
ATOM     20  C   UNL A   1      32.878  21.831  23.994  1.00  0.00     0.256 C 
ATOM     21  O   UNL A   1      32.366  22.400  23.032  1.00  0.00    -0.269 OA
BRANCH  20  22
ATOM     22  C   UNL A   1      32.685  20.377  24.037  1.00  0.00     0.040 A 
ATOM     23  C   UNL A   1      32.797  19.705  25.260  1.00  0.00     0.014 A 
ATOM     24  C   UNL A   1      32.530  19.658  22.850  1.00  0.00     0.014 A 
ATOM     25  C   UNL A   1      32.628  18.319  25.303  1.00  0.00     0.001 A 
ATOM     26  C   UNL A   1      32.334  18.277  22.900  1.00  0.00     0.001 A 
ATOM     27  C   UNL A   1      32.370  17.610  24.127  1.00  0.00     0.000 A 
ENDBRANCH  20  22
ENDBRANCH  16  20
ENDBRANCH   4   7
ENDBRANCH   2   3
ENDBRANCH   1   2
BRANCH   1  28
ATOM     28  C   UNL A   1      38.888  21.372  25.547  1.00  0.00     0.023 C 
BRANCH  28  29
ATOM     29  C   UNL A   1      39.347  20.215  26.432  1.00  0.00     0.116 C 
BRANCH  29  30
ATOM     30  N   UNL A   1      40.473  19.463  25.895  1.00  0.00    -0.352 N 
ATOM     31  C   UNL A   1      41.802  19.816  25.846  1.00  0.00     0.251 C 
ATOM     32  H   UNL A   1      40.252  18.583  25.514  1.00  0.00     0.163 HD
ATOM     33  O   UNL A   1      42.617  19.096  25.285  1.00  0.00    -0.269 OA
BRANCH  31  34
ATOM     34  C   UNL A   1      42.233  21.099  26.443  1.00  0.00     0.039 A 
ATOM     35  C   UNL A   1      42.597  22.147  25.594  1.00  0.00     0.014 A 
ATOM     36  C   UNL A   1      42.238  21.278  27.828  1.00  0.00     0.014 A 
ATOM     37  C   UNL A   1      42.892  23.400  26.133  1.00  0.00     0.010 A 
ATOM     38  C   UNL A   1      42.454  22.546  28.358  1.00  0.00     0.010 A 
ATOM     39  C   UNL A   1      42.784  23.620  27.517  1.00  0.00    -0.014 A 
BRANCH  39  40
ATOM     40  C   UNL A   1      43.009  24.969  28.096  1.00  0.00     0.031 A 
ATOM     41  C   UNL A   1      44.386  25.388  28.531  1.00  0.00     0.074 A 
ATOM     42  C   UNL A   1      41.964  25.799  28.278  1.00  0.00     0.049 A 
ATOM     43  N   UNL A   1      44.773  26.516  29.070  1.00  0.00    -0.248 NA
ATOM     44  C   UNL A   1      45.465  24.400  28.367  1.00  0.00     0.031 C 
ATOM     45  C   UNL A   1      40.569  25.495  27.949  1.00  0.00     0.029 A 
ATOM     46  N   UNL A   1      41.913  27.073  28.787  1.00  0.00    -0.354 N 
ATOM     47  C   UNL A   1      46.132  26.369  29.320  1.00  0.00     0.074 A 
ATOM     48  C   UNL A   1      46.490  25.023  28.928  1.00  0.00     0.031 C 
ATOM     49  C   UNL A   1      39.807  26.564  28.229  1.00  0.00     0.029 A 
ATOM     50  C   UNL A   1      40.650  27.616  28.788  1.00  0.00     0.049 A 
ATOM     51  H   UNL A   1      42.706  27.552  29.119  1.00  0.00     0.167 HD
ATOM     52  C   UNL A   1      47.010  27.277  29.807  1.00  0.00     0.031 A 
ATOM     53  C   UNL A   1      40.220  28.826  29.191  1.00  0.00     0.031 A 
ATOM     54  C   UNL A   1      46.658  28.618  30.188  1.00  0.00     0.049 A 
ATOM     55  C   UNL A   1      41.215  29.817  29.729  1.00  0.00     0.074 A 
ATOM     56  C   UNL A   1      47.486  29.632  30.637  1.00  0.00     0.029 A 
ATOM     57  N   UNL A   1      45.371  29.132  30.167  1.00  0.00    -0.354 N 
ATOM     58  N   UNL A   1      42.510  29.688  29.882  1.00  0.00    -0.248 NA
ATOM     59  C   UNL A   1      40.687  31.128  30.132  1.00  0.00     0.031 C 
ATOM     60  C   UNL A   1      46.692  30.745  30.936  1.00  0.00     0.029 A 
ATOM     61  C   UNL A   1      45.378  30.442  30.616  1.00  0.00     0.049 A 
ATOM     62  H   UNL A   1      44.570  28.639  29.874  1.00  0.00     0.167 HD
ATOM     63  C   UNL A   1      42.956  30.908  30.374  1.00  0.00     0.074 A 
ATOM     64  C   UNL A   1      41.796  31.769  30.472  1.00  0.00     0.031 C 
ATOM     65  C   UNL A   1      44.214  31.283  30.715  1.00  0.00     0.031 A 
BRANCH  52  66
ATOM     66  C   UNL A   1      48.441  26.840  29.958  1.00  0.00    -0.014 A 
ATOM     67  C   UNL A   1      48.890  26.212  31.131  1.00  0.00     0.009 A 
ATOM     68  C   UNL A   1      49.348  27.037  28.905  1.00  0.00     0.009 A 
ATOM     69  C   UNL A   1      50.226  25.827  31.263  1.00  0.00     0.001 A 
ATOM     70  C   UNL A   1      50.675  26.622  29.027  1.00  0.00     0.001 A 
ATOM     71  C   UNL A   1      51.116  26.029  30.210  1.00  0.00     0.000 A 
ENDBRANCH  52  66
BRANCH  53  72
ATOM     72  C   UNL A   1      38.782  29.184  29.077  1.00  0.00    -0.014 A 
ATOM     73  C   UNL A   1      38.260  29.658  27.864  1.00  0.00     0.009 A 
ATOM     74  C   UNL A   1      37.926  29.065  30.183  1.00  0.00     0.009 A 
ATOM     75  C   UNL A   1      36.918  30.034  27.769  1.00  0.00     0.001 A 
ATOM     76  C   UNL A   1      36.578  29.414  30.077  1.00  0.00     0.001 A 
ATOM     77  C   UNL A   1      36.078  29.908  28.872  1.00  0.00     0.000 A 
ENDBRANCH  53  72
BRANCH  65  78
ATOM     78  C   UNL A   1      44.399  32.695  31.195  1.00  0.00    -0.014 A 
ATOM     79  C   UNL A   1      44.325  33.019  32.559  1.00  0.00     0.009 A 
ATOM     80  C   UNL A   1      44.678  33.713  30.270  1.00  0.00     0.009 A 
ATOM     81  C   UNL A   1      44.484  34.340  32.980  1.00  0.00     0.001 A 
ATOM     82  C   UNL A   1      44.867  35.027  30.696  1.00  0.00     0.001 A 
ATOM     83  C   UNL A   1      44.758  35.342  32.050  1.00  0.00     0.000 A 
ENDBRANCH  65  78
ENDBRANCH  39  40
ENDBRANCH  31  34
ENDBRANCH  29  30
ENDBRANCH  28  29
ENDBRANCH   1  28
TORSDOF 14
ENDMDL
MODEL 3
REMARK VINA RESULT:     -11.4      2.741      5.125
REMARK SMILES CC[NH+]1CCC2(CC1)OC[C@H](C(=O)NCCCCNC(=O)c1ccc(-c3c4nc(c(-c5ccccc5)c5ccc([nH]5)c(-c5ccccc5)c5nc(c(-c6ccccc6)c6ccc3[nH]6)C=C5)C=C4)cc1)N2C(=O)c1ccccc1
REMARK SMILES IDX 16 1 15 2 14 3 12 4 13 5 11 7 3 8 4 9 8 10 5 12 7 13 6 14
REMARK SMILES IDX 9 15 70 16 10 17 2 18 1 19 71 20 72 21 73 22 74 23 78 24
REMARK SMILES IDX 75 25 77 26 76 27 17 28 18 29 19 30 20 31 21 33 22 34 23 35
REMARK SMILES IDX 69 36 24 37 68 38 25 39 26 40 27 41 62 42 28 43 67 44 61 45
REMARK SMILES IDX 63 46 29 47 66 48 60 49 59 50 30 52 52 53 37 54 51 55 38 56
REMARK SMILES IDX 41 57 50 58 64 59 39 60 40 61 49 63 65 64 42 65 31 66 32 67
REMARK SMILES IDX 36 68 33 69 35 70 34 71 53 72 54 73 58 74 55 75 57 76 56 77
REMARK SMILES IDX 43 78 44 79 48 80 45 81 47 82 46 83
REMARK H PARENT 14 6 3 11 19 32 63 51 41 62
REMARK Flexibility Score: inf
ROOT
ATOM      1  C   UNL A   1      33.668  27.892  24.512  1.00  0.00     0.023 C 
ENDROOT
BRANCH   1   2
ATOM      2  C   UNL A   1      32.932  26.915  23.605  1.00  0.00     0.116 C 
BRANCH   2   3
ATOM      3  N   UNL A   1      31.871  26.184  24.278  1.00  0.00    -0.354 N 
ATOM      4  C   UNL A   1      31.541  24.863  24.364  1.00  0.00     0.245 C 
ATOM      5  O   UNL A   1      30.752  24.602  25.284  1.00  0.00    -0.273 OA
ATOM      6  H   UNL A   1      31.257  26.769  24.780  1.00  0.00     0.163 HD
BRANCH   4   7
ATOM      7  C   UNL A   1      32.124  23.708  23.493  1.00  0.00     0.203 C 
ATOM      8  N   UNL A   1      36.564  22.736  25.979  1.00  0.00    -0.335 N 
ATOM      9  C   UNL A   1      35.426  23.584  26.287  1.00  0.00     0.267 C 
ATOM     10  C   UNL A   1      36.448  21.918  24.776  1.00  0.00     0.267 C 
ATOM     11  H   UNL A   1      36.513  22.034  26.717  1.00  0.00     0.348 HD
ATOM     12  C   UNL A   1      34.856  24.299  25.086  1.00  0.00     0.120 C 
ATOM     13  C   UNL A   1      35.591  22.421  23.615  1.00  0.00     0.120 C 
ATOM     14  C   UNL A   1      34.423  23.340  23.972  1.00  0.00     0.155 C 
ATOM     15  O   UNL A   1      34.281  24.162  22.758  1.00  0.00    -0.352 OA
ATOM     16  N   UNL A   1      33.063  22.818  24.174  1.00  0.00    -0.295 N 
ATOM     17  C   UNL A   1      32.922  24.083  22.286  1.00  0.00     0.198 C 
BRANCH   8  18
ATOM     18  C   UNL A   1      37.869  23.353  26.185  1.00  0.00     0.258 C 
ATOM     19  C   UNL A   1      38.981  22.304  26.137  1.00  0.00     0.071 C 
ENDBRANCH   8  18
BRANCH  16  20
ATOM     20  C   UNL A   1      32.544  21.688  24.784  1.00  0.00     0.256 C 
ATOM     21  O   UNL A   1      31.798  21.738  25.760  1.00  0.00    -0.269 OA
BRANCH  20  22
ATOM     22  C   UNL A   1      32.764  20.346  24.231  1.00  0.00     0.040 A 
ATOM     23  C   UNL A   1      33.680  19.490  24.852  1.00  0.00     0.014 A 
ATOM     24  C   UNL A   1      32.168  19.984  23.022  1.00  0.00     0.014 A 
ATOM     25  C   UNL A   1      33.903  18.216  24.321  1.00  0.00     0.001 A 
ATOM     26  C   UNL A   1      32.372  18.701  22.509  1.00  0.00     0.001 A 
ATOM     27  C   UNL A   1      33.228  17.815  23.166  1.00  0.00     0.000 A 
ENDBRANCH  20  22
ENDBRANCH  16  20
ENDBRANCH   4   7
ENDBRANCH   2   3
ENDBRANCH   1   2
BRANCH   1  28
ATOM     28  C   UNL A   1      32.904  28.289  25.771  1.00  0.00     0.023 C 
BRANCH  28  29
ATOM     29  C   UNL A   1      33.753  28.517  27.020  1.00  0.00     0.116 C 
BRANCH  29  30
ATOM     30  N   UNL A   1      33.670  29.867  27.559  1.00  0.00    -0.352 N 
ATOM     31  C   UNL A   1      34.636  30.595  28.217  1.00  0.00     0.251 C 
ATOM     32  H   UNL A   1      32.805  30.321  27.437  1.00  0.00     0.163 HD
ATOM     33  O   UNL A   1      34.377  31.698  28.679  1.00  0.00    -0.269 OA
BRANCH  31  34
ATOM     34  C   UNL A   1      35.983  30.014  28.398  1.00  0.00     0.039 A 
ATOM     35  C   UNL A   1      36.913  30.135  27.362  1.00  0.00     0.014 A 
ATOM     36  C   UNL A   1      36.340  29.392  29.597  1.00  0.00     0.014 A 
ATOM     37  C   UNL A   1      38.224  29.699  27.558  1.00  0.00     0.010 A 
ATOM     38  C   UNL A   1      37.665  29.031  29.819  1.00  0.00     0.010 A 
ATOM     39  C   UNL A   1      38.621  29.180  28.803  1.00  0.00    -0.014 A 
BRANCH  39  40
ATOM     40  C   UNL A   1      40.032  28.795  29.054  1.00  0.00     0.031 A 
ATOM     41  C   UNL A   1      40.974  29.759  29.722  1.00  0.00     0.074 A 
ATOM     42  C   UNL A   1      40.482  27.596  28.636  1.00  0.00     0.049 A 
ATOM     43  N   UNL A   1      42.242  29.608  30.012  1.00  0.00    -0.248 NA
ATOM     44  C   UNL A   1      40.429  31.077  30.087  1.00  0.00     0.031 C 
ATOM     45  C   UNL A   1      39.687  26.590  27.928  1.00  0.00     0.029 A 
ATOM     46  N   UNL A   1      41.723  27.020  28.746  1.00  0.00    -0.354 N 
ATOM     47  C   UNL A   1      42.646  30.810  30.577  1.00  0.00     0.074 A 
ATOM     48  C   UNL A   1      41.506  31.700  30.538  1.00  0.00     0.031 C 
ATOM     49  C   UNL A   1      40.447  25.508  27.700  1.00  0.00     0.029 A 
ATOM     50  C   UNL A   1      41.790  25.754  28.214  1.00  0.00     0.049 A 
ATOM     51  H   UNL A   1      42.491  27.470  29.165  1.00  0.00     0.167 HD
ATOM     52  C   UNL A   1      43.849  31.139  31.106  1.00  0.00     0.031 A 
ATOM     53  C   UNL A   1      42.820  24.888  28.149  1.00  0.00     0.031 A 
ATOM     54  C   UNL A   1      44.980  30.253  31.155  1.00  0.00     0.049 A 
ATOM     55  C   UNL A   1      44.145  25.276  28.744  1.00  0.00     0.074 A 
ATOM     56  C   UNL A   1      46.223  30.472  31.722  1.00  0.00     0.029 A 
ATOM     57  N   UNL A   1      45.006  28.977  30.614  1.00  0.00    -0.354 N 
ATOM     58  N   UNL A   1      44.486  26.389  29.348  1.00  0.00    -0.248 NA
ATOM     59  C   UNL A   1      45.221  24.279  28.662  1.00  0.00     0.031 C 
ATOM     60  C   UNL A   1      47.019  29.346  31.480  1.00  0.00     0.029 A 
ATOM     61  C   UNL A   1      46.252  28.405  30.813  1.00  0.00     0.049 A 
ATOM     62  H   UNL A   1      44.251  28.542  30.155  1.00  0.00     0.167 HD
ATOM     63  C   UNL A   1      45.807  26.215  29.741  1.00  0.00     0.074 A 
ATOM     64  C   UNL A   1      46.196  24.884  29.326  1.00  0.00     0.031 C 
ATOM     65  C   UNL A   1      46.626  27.081  30.387  1.00  0.00     0.031 A 
BRANCH  52  66
ATOM     66  C   UNL A   1      43.997  32.525  31.671  1.00  0.00    -0.014 A 
ATOM     67  C   UNL A   1      44.427  33.594  30.869  1.00  0.00     0.009 A 
ATOM     68  C   UNL A   1      43.681  32.770  33.016  1.00  0.00     0.009 A 
ATOM     69  C   UNL A   1      44.577  34.872  31.413  1.00  0.00     0.001 A 
ATOM     70  C   UNL A   1      43.801  34.055  33.549  1.00  0.00     0.001 A 
ATOM     71  C   UNL A   1      44.260  35.102  32.750  1.00  0.00     0.000 A 
ENDBRANCH  52  66
BRANCH  53  72
ATOM     72  C   UNL A   1      42.633  23.553  27.523  1.00  0.00    -0.014 A 
ATOM     73  C   UNL A   1      42.215  22.457  28.294  1.00  0.00     0.009 A 
ATOM     74  C   UNL A   1      42.885  23.363  26.155  1.00  0.00     0.009 A 
ATOM     75  C   UNL A   1      42.081  21.193  27.714  1.00  0.00     0.001 A 
ATOM     76  C   UNL A   1      42.722  22.105  25.572  1.00  0.00     0.001 A 
ATOM     77  C   UNL A   1      42.330  21.019  26.354  1.00  0.00     0.000 A 
ENDBRANCH  53  72
BRANCH  65  78
ATOM     78  C   UNL A   1      48.012  26.599  30.710  1.00  0.00    -0.014 A 
ATOM     79  C   UNL A   1      49.080  26.799  29.823  1.00  0.00     0.009 A 
ATOM     80  C   UNL A   1      48.256  25.958  31.935  1.00  0.00     0.009 A 
ATOM     81  C   UNL A   1      50.356  26.327  30.136  1.00  0.00     0.001 A 
ATOM     82  C   UNL A   1      49.539  25.515  32.259  1.00  0.00     0.001 A 
ATOM     83  C   UNL A   1      50.585  25.689  31.355  1.00  0.00     0.000 A 
ENDBRANCH  65  78
ENDBRANCH  39  40
ENDBRANCH  31  34
ENDBRANCH  29  30
ENDBRANCH  28  29
ENDBRANCH   1  28
TORSDOF 14
ENDMDL
