MODEL 1
REMARK VINA RESULT:     -10.4      0.000      0.000
REMARK SMILES CCN(CCC(=O)NCCCCNC(=O)c1ccc(-c2c3nc(c(-c4ccccc4)c4ccc([nH]4)c(-c4ccccc4)c4nc(c(-c5ccccc5)c5ccc2[nH]5)C=C4)C=C3)cc1)C(=O)N(C)CCc1cccs1
REMARK SMILES IDX 6 1 7 2 8 3 5 5 4 6 3 7 2 8 1 9 64 10 65 11 66 12 67 13
REMARK SMILES IDX 68 14 69 15 70 16 71 17 74 18 72 19 73 20 9 21 10 22 11 23
REMARK SMILES IDX 12 24 13 25 14 26 15 28 16 29 17 30 63 31 18 32 62 33 19 34
REMARK SMILES IDX 20 35 21 36 56 37 22 38 61 39 55 40 57 41 23 42 60 43 54 44
REMARK SMILES IDX 53 45 24 47 46 48 31 49 45 50 32 51 35 52 44 53 58 54 33 55
REMARK SMILES IDX 34 56 43 58 59 59 36 60 25 61 26 62 30 63 27 64 29 65 28 66
REMARK SMILES IDX 47 67 48 68 52 69 49 70 51 71 50 72 37 73 38 74 42 75 39 76
REMARK SMILES IDX 41 77 40 78
REMARK H PARENT 8 4 13 27 57 46 35 57
REMARK Flexibility Score: inf
ROOT
ATOM      1  C   UNL A   1      31.249  23.788  26.932  1.00  0.00     0.221 C 
ATOM      2  O   UNL A   1      30.230  23.161  27.238  1.00  0.00    -0.275 OA
ATOM      3  N   UNL A   1      31.115  25.076  26.510  1.00  0.00    -0.356 N 
ATOM      4  H   UNL A   1      30.172  25.359  26.529  1.00  0.00     0.163 HD
ENDROOT
BRANCH   1   5
ATOM      5  C   UNL A   1      32.587  23.143  27.030  1.00  0.00     0.121 C 
BRANCH   5   6
ATOM      6  C   UNL A   1      33.304  23.189  25.701  1.00  0.00     0.131 C 
BRANCH   6   7
ATOM      7  N   UNL A   1      34.191  22.048  25.474  1.00  0.00    -0.324 N 
BRANCH   7   8
ATOM      8  C   UNL A   1      35.502  22.211  26.170  1.00  0.00     0.118 C 
ATOM      9  C   UNL A   1      36.419  23.407  25.966  1.00  0.00     0.027 C 
ENDBRANCH   7   8
BRANCH   7  10
ATOM     10  C   UNL A   1      33.827  20.961  24.637  1.00  0.00     0.319 C 
ATOM     11  O   UNL A   1      34.382  19.864  24.707  1.00  0.00    -0.248 OA
BRANCH  10  12
ATOM     12  N   UNL A   1      32.730  21.195  23.730  1.00  0.00    -0.327 N 
ATOM     13  C   UNL A   1      32.234  19.869  23.348  1.00  0.00     0.148 C 
BRANCH  12  14
ATOM     14  C   UNL A   1      32.758  22.167  22.496  1.00  0.00     0.126 C 
BRANCH  14  15
ATOM     15  C   UNL A   1      33.141  23.808  22.101  1.00  0.00     0.068 C 
BRANCH  15  16
ATOM     16  C   UNL A   1      32.537  25.327  22.286  1.00  0.00     0.006 A 
ATOM     17  C   UNL A   1      31.188  25.707  22.374  1.00  0.00     0.015 A 
ATOM     18  S   UNL A   1      33.361  26.831  22.166  1.00  0.00    -0.149 S 
ATOM     19  C   UNL A   1      30.957  27.116  22.633  1.00  0.00     0.012 A 
ATOM     20  C   UNL A   1      32.124  27.823  22.702  1.00  0.00     0.065 A 
ENDBRANCH  15  16
ENDBRANCH  14  15
ENDBRANCH  12  14
ENDBRANCH  10  12
ENDBRANCH   7  10
ENDBRANCH   6   7
ENDBRANCH   5   6
ENDBRANCH   1   5
BRANCH   3  21
ATOM     21  C   UNL A   1      31.998  26.175  26.029  1.00  0.00     0.116 C 
BRANCH  21  22
ATOM     22  C   UNL A   1      32.393  27.629  26.757  1.00  0.00     0.023 C 
BRANCH  22  23
ATOM     23  C   UNL A   1      33.572  28.534  27.371  1.00  0.00     0.023 C 
BRANCH  23  24
ATOM     24  C   UNL A   1      33.977  29.997  27.068  1.00  0.00     0.116 C 
BRANCH  24  25
ATOM     25  N   UNL A   1      34.007  30.866  28.232  1.00  0.00    -0.352 N 
ATOM     26  C   UNL A   1      35.077  31.170  29.041  1.00  0.00     0.251 C 
ATOM     27  H   UNL A   1      33.153  31.291  28.472  1.00  0.00     0.163 HD
ATOM     28  O   UNL A   1      35.015  32.100  29.848  1.00  0.00    -0.269 OA
BRANCH  26  29
ATOM     29  C   UNL A   1      36.268  30.304  29.025  1.00  0.00     0.039 A 
ATOM     30  C   UNL A   1      36.997  30.286  27.837  1.00  0.00     0.014 A 
ATOM     31  C   UNL A   1      36.706  29.588  30.144  1.00  0.00     0.014 A 
ATOM     32  C   UNL A   1      38.230  29.648  27.799  1.00  0.00     0.010 A 
ATOM     33  C   UNL A   1      37.969  28.999  30.124  1.00  0.00     0.010 A 
ATOM     34  C   UNL A   1      38.750  29.057  28.960  1.00  0.00    -0.014 A 
BRANCH  34  35
ATOM     35  C   UNL A   1      40.138  28.547  28.946  1.00  0.00     0.031 A 
ATOM     36  C   UNL A   1      40.410  27.123  28.569  1.00  0.00     0.074 A 
ATOM     37  C   UNL A   1      41.139  29.391  29.263  1.00  0.00     0.049 A 
ATOM     38  N   UNL A   1      41.557  26.509  28.448  1.00  0.00    -0.248 NA
ATOM     39  C   UNL A   1      39.237  26.273  28.314  1.00  0.00     0.031 C 
ATOM     40  C   UNL A   1      40.965  30.785  29.686  1.00  0.00     0.029 A 
ATOM     41  N   UNL A   1      42.499  29.217  29.262  1.00  0.00    -0.354 N 
ATOM     42  C   UNL A   1      41.244  25.201  28.102  1.00  0.00     0.074 A 
ATOM     43  C   UNL A   1      39.802  25.095  28.096  1.00  0.00     0.031 C 
ATOM     44  C   UNL A   1      42.171  31.349  29.860  1.00  0.00     0.029 A 
ATOM     45  C   UNL A   1      43.199  30.352  29.593  1.00  0.00     0.049 A 
ATOM     46  H   UNL A   1      42.931  28.359  29.046  1.00  0.00     0.167 HD
ATOM     47  C   UNL A   1      42.088  24.190  27.789  1.00  0.00     0.031 A 
ATOM     48  C   UNL A   1      44.527  30.562  29.658  1.00  0.00     0.031 A 
ATOM     49  C   UNL A   1      43.520  24.321  27.800  1.00  0.00     0.049 A 
ATOM     50  C   UNL A   1      45.442  29.426  29.294  1.00  0.00     0.074 A 
ATOM     51  C   UNL A   1      44.481  23.374  27.495  1.00  0.00     0.029 A 
ATOM     52  N   UNL A   1      44.195  25.489  28.131  1.00  0.00    -0.354 N 
ATOM     53  N   UNL A   1      45.133  28.206  28.922  1.00  0.00    -0.248 NA
ATOM     54  C   UNL A   1      46.885  29.696  29.336  1.00  0.00     0.031 C 
ATOM     55  C   UNL A   1      45.739  23.961  27.673  1.00  0.00     0.029 A 
ATOM     56  C   UNL A   1      45.560  25.287  28.041  1.00  0.00     0.049 A 
ATOM     57  H   UNL A   1      43.765  26.335  28.391  1.00  0.00     0.167 HD
ATOM     58  C   UNL A   1      46.338  27.567  28.668  1.00  0.00     0.074 A 
ATOM     59  C   UNL A   1      47.383  28.546  28.904  1.00  0.00     0.031 C 
ATOM     60  C   UNL A   1      46.567  26.288  28.283  1.00  0.00     0.031 A 
BRANCH  47  61
ATOM     61  C   UNL A   1      41.469  22.873  27.414  1.00  0.00    -0.014 A 
ATOM     62  C   UNL A   1      41.836  21.687  28.073  1.00  0.00     0.009 A 
ATOM     63  C   UNL A   1      40.518  22.808  26.384  1.00  0.00     0.009 A 
ATOM     64  C   UNL A   1      41.302  20.460  27.675  1.00  0.00     0.001 A 
ATOM     65  C   UNL A   1      39.962  21.582  26.010  1.00  0.00     0.001 A 
ATOM     66  C   UNL A   1      40.364  20.408  26.646  1.00  0.00     0.000 A 
ENDBRANCH  47  61
BRANCH  48  67
ATOM     67  C   UNL A   1      45.064  31.891  30.061  1.00  0.00    -0.014 A 
ATOM     68  C   UNL A   1      45.326  32.186  31.409  1.00  0.00     0.009 A 
ATOM     69  C   UNL A   1      45.319  32.878  29.095  1.00  0.00     0.009 A 
ATOM     70  C   UNL A   1      45.800  33.448  31.781  1.00  0.00     0.001 A 
ATOM     71  C   UNL A   1      45.822  34.127  29.467  1.00  0.00     0.001 A 
ATOM     72  C   UNL A   1      46.052  34.415  30.810  1.00  0.00     0.000 A 
ENDBRANCH  48  67
BRANCH  60  73
ATOM     73  C   UNL A   1      47.998  25.893  28.071  1.00  0.00    -0.014 A 
ATOM     74  C   UNL A   1      48.593  25.978  26.803  1.00  0.00     0.009 A 
ATOM     75  C   UNL A   1      48.772  25.475  29.164  1.00  0.00     0.009 A 
ATOM     76  C   UNL A   1      49.931  25.622  26.630  1.00  0.00     0.001 A 
ATOM     77  C   UNL A   1      50.117  25.149  28.993  1.00  0.00     0.001 A 
ATOM     78  C   UNL A   1      50.692  25.214  27.725  1.00  0.00     0.000 A 
ENDBRANCH  60  73
ENDBRANCH  34  35
ENDBRANCH  26  29
ENDBRANCH  24  25
ENDBRANCH  23  24
ENDBRANCH  22  23
ENDBRANCH  21  22
ENDBRANCH   3  21
TORSDOF 19
ENDMDL
MODEL 2
REMARK VINA RESULT:     -10.3      1.995      7.347
REMARK SMILES CCN(CCC(=O)NCCCCNC(=O)c1ccc(-c2c3nc(c(-c4ccccc4)c4ccc([nH]4)c(-c4ccccc4)c4nc(c(-c5ccccc5)c5ccc2[nH]5)C=C4)C=C3)cc1)C(=O)N(C)CCc1cccs1
REMARK SMILES IDX 6 1 7 2 8 3 5 5 4 6 3 7 2 8 1 9 64 10 65 11 66 12 67 13
REMARK SMILES IDX 68 14 69 15 70 16 71 17 74 18 72 19 73 20 9 21 10 22 11 23
REMARK SMILES IDX 12 24 13 25 14 26 15 28 16 29 17 30 63 31 18 32 62 33 19 34
REMARK SMILES IDX 20 35 21 36 56 37 22 38 61 39 55 40 57 41 23 42 60 43 54 44
REMARK SMILES IDX 53 45 24 47 46 48 31 49 45 50 32 51 35 52 44 53 58 54 33 55
REMARK SMILES IDX 34 56 43 58 59 59 36 60 25 61 26 62 30 63 27 64 29 65 28 66
REMARK SMILES IDX 47 67 48 68 52 69 49 70 51 71 50 72 37 73 38 74 42 75 39 76
REMARK SMILES IDX 41 77 40 78
REMARK H PARENT 8 4 13 27 57 46 35 57
REMARK Flexibility Score: inf
ROOT
ATOM      1  C   UNL A   1      33.660  24.121  22.672  1.00  0.00     0.221 C 
ATOM      2  O   UNL A   1      33.337  25.026  21.895  1.00  0.00    -0.275 OA
ATOM      3  N   UNL A   1      34.783  24.284  23.424  1.00  0.00    -0.356 N 
ATOM      4  H   UNL A   1      35.198  25.160  23.258  1.00  0.00     0.163 HD
ENDROOT
BRANCH   1   5
ATOM      5  C   UNL A   1      32.831  22.889  22.776  1.00  0.00     0.121 C 
BRANCH   5   6
ATOM      6  C   UNL A   1      31.741  23.061  23.808  1.00  0.00     0.131 C 
BRANCH   6   7
ATOM      7  N   UNL A   1      32.057  22.452  25.100  1.00  0.00    -0.324 N 
BRANCH   7   8
ATOM      8  C   UNL A   1      32.151  20.964  25.010  1.00  0.00     0.118 C 
ATOM      9  C   UNL A   1      33.455  20.194  25.155  1.00  0.00     0.027 C 
ENDBRANCH   7   8
BRANCH   7  10
ATOM     10  C   UNL A   1      32.193  23.220  26.286  1.00  0.00     0.319 C 
ATOM     11  O   UNL A   1      33.266  23.330  26.878  1.00  0.00    -0.248 OA
BRANCH  10  12
ATOM     12  N   UNL A   1      31.009  23.912  26.734  1.00  0.00    -0.327 N 
ATOM     13  C   UNL A   1      29.961  22.891  26.840  1.00  0.00     0.148 C 
BRANCH  12  14
ATOM     14  C   UNL A   1      30.442  25.243  26.120  1.00  0.00     0.126 C 
BRANCH  14  15
ATOM     15  C   UNL A   1      30.696  26.302  24.775  1.00  0.00     0.068 C 
BRANCH  15  16
ATOM     16  C   UNL A   1      31.848  27.290  24.142  1.00  0.00     0.006 A 
ATOM     17  C   UNL A   1      33.217  27.319  24.455  1.00  0.00     0.015 A 
ATOM     18  S   UNL A   1      31.644  28.679  23.149  1.00  0.00    -0.149 S 
ATOM     19  C   UNL A   1      34.015  28.236  23.663  1.00  0.00     0.012 A 
ATOM     20  C   UNL A   1      33.254  28.940  22.773  1.00  0.00     0.065 A 
ENDBRANCH  15  16
ENDBRANCH  14  15
ENDBRANCH  12  14
ENDBRANCH  10  12
ENDBRANCH   7  10
ENDBRANCH   6   7
ENDBRANCH   5   6
ENDBRANCH   1   5
BRANCH   3  21
ATOM     21  C   UNL A   1      35.556  23.504  24.431  1.00  0.00     0.116 C 
BRANCH  21  22
ATOM     22  C   UNL A   1      36.752  22.356  24.208  1.00  0.00     0.023 C 
BRANCH  22  23
ATOM     23  C   UNL A   1      37.466  21.043  24.803  1.00  0.00     0.023 C 
BRANCH  23  24
ATOM     24  C   UNL A   1      38.621  20.903  25.825  1.00  0.00     0.116 C 
BRANCH  24  25
ATOM     25  N   UNL A   1      39.561  19.836  25.525  1.00  0.00    -0.352 N 
ATOM     26  C   UNL A   1      40.856  19.692  25.967  1.00  0.00     0.251 C 
ATOM     27  H   UNL A   1      39.229  19.126  24.930  1.00  0.00     0.163 HD
ATOM     28  O   UNL A   1      41.457  18.625  25.825  1.00  0.00    -0.269 OA
BRANCH  26  29
ATOM     29  C   UNL A   1      41.571  20.859  26.511  1.00  0.00     0.039 A 
ATOM     30  C   UNL A   1      42.015  21.796  25.579  1.00  0.00     0.014 A 
ATOM     31  C   UNL A   1      41.745  21.075  27.882  1.00  0.00     0.014 A 
ATOM     32  C   UNL A   1      42.527  23.010  26.017  1.00  0.00     0.010 A 
ATOM     33  C   UNL A   1      42.204  22.317  28.322  1.00  0.00     0.010 A 
ATOM     34  C   UNL A   1      42.564  23.300  27.389  1.00  0.00    -0.014 A 
BRANCH  34  35
ATOM     35  C   UNL A   1      42.941  24.663  27.825  1.00  0.00     0.031 A 
ATOM     36  C   UNL A   1      44.382  25.069  27.855  1.00  0.00     0.074 A 
ATOM     37  C   UNL A   1      41.963  25.522  28.173  1.00  0.00     0.049 A 
ATOM     38  N   UNL A   1      44.903  26.229  28.155  1.00  0.00    -0.248 NA
ATOM     39  C   UNL A   1      45.368  24.028  27.526  1.00  0.00     0.031 C 
ATOM     40  C   UNL A   1      40.532  25.199  28.215  1.00  0.00     0.029 A 
ATOM     41  N   UNL A   1      42.011  26.842  28.538  1.00  0.00    -0.354 N 
ATOM     42  C   UNL A   1      46.276  26.059  28.049  1.00  0.00     0.074 A 
ATOM     43  C   UNL A   1      46.510  24.670  27.722  1.00  0.00     0.031 C 
ATOM     44  C   UNL A   1      39.839  26.302  28.541  1.00  0.00     0.029 A 
ATOM     45  C   UNL A   1      40.774  27.397  28.761  1.00  0.00     0.049 A 
ATOM     46  H   UNL A   1      42.853  27.344  28.631  1.00  0.00     0.167 HD
ATOM     47  C   UNL A   1      47.251  26.989  28.185  1.00  0.00     0.031 A 
ATOM     48  C   UNL A   1      40.437  28.657  29.094  1.00  0.00     0.031 A 
ATOM     49  C   UNL A   1      46.994  28.365  28.509  1.00  0.00     0.049 A 
ATOM     50  C   UNL A   1      41.539  29.673  29.226  1.00  0.00     0.074 A 
ATOM     51  C   UNL A   1      47.894  29.404  28.666  1.00  0.00     0.029 A 
ATOM     52  N   UNL A   1      45.727  28.894  28.720  1.00  0.00    -0.354 N 
ATOM     53  N   UNL A   1      42.832  29.509  29.077  1.00  0.00    -0.248 NA
ATOM     54  C   UNL A   1      41.138  31.047  29.551  1.00  0.00     0.031 C 
ATOM     55  C   UNL A   1      47.173  30.555  29.003  1.00  0.00     0.029 A 
ATOM     56  C   UNL A   1      45.821  30.244  29.007  1.00  0.00     0.049 A 
ATOM     57  H   UNL A   1      44.887  28.385  28.670  1.00  0.00     0.167 HD
ATOM     58  C   UNL A   1      43.399  30.760  29.271  1.00  0.00     0.074 A 
ATOM     59  C   UNL A   1      42.304  31.677  29.522  1.00  0.00     0.031 C 
ATOM     60  C   UNL A   1      44.705  31.122  29.251  1.00  0.00     0.031 A 
BRANCH  47  61
ATOM     61  C   UNL A   1      48.668  26.529  27.981  1.00  0.00    -0.014 A 
ATOM     62  C   UNL A   1      49.238  26.491  26.697  1.00  0.00     0.009 A 
ATOM     63  C   UNL A   1      49.440  26.115  29.076  1.00  0.00     0.009 A 
ATOM     64  C   UNL A   1      50.533  26.003  26.509  1.00  0.00     0.001 A 
ATOM     65  C   UNL A   1      50.747  25.657  28.889  1.00  0.00     0.001 A 
ATOM     66  C   UNL A   1      51.287  25.588  27.605  1.00  0.00     0.000 A 
ENDBRANCH  47  61
BRANCH  48  67
ATOM     67  C   UNL A   1      39.011  29.029  29.302  1.00  0.00    -0.014 A 
ATOM     68  C   UNL A   1      38.419  28.940  30.572  1.00  0.00     0.009 A 
ATOM     69  C   UNL A   1      38.228  29.479  28.227  1.00  0.00     0.009 A 
ATOM     70  C   UNL A   1      37.070  29.261  30.753  1.00  0.00     0.001 A 
ATOM     71  C   UNL A   1      36.889  29.829  28.416  1.00  0.00     0.001 A 
ATOM     72  C   UNL A   1      36.307  29.709  29.676  1.00  0.00     0.000 A 
ENDBRANCH  48  67
BRANCH  60  73
ATOM     73  C   UNL A   1      45.007  32.573  29.484  1.00  0.00    -0.014 A 
ATOM     74  C   UNL A   1      45.268  33.061  30.773  1.00  0.00     0.009 A 
ATOM     75  C   UNL A   1      45.079  33.450  28.391  1.00  0.00     0.009 A 
ATOM     76  C   UNL A   1      45.565  34.411  30.967  1.00  0.00     0.001 A 
ATOM     77  C   UNL A   1      45.405  34.792  28.584  1.00  0.00     0.001 A 
ATOM     78  C   UNL A   1      45.639  35.272  29.872  1.00  0.00     0.000 A 
ENDBRANCH  60  73
ENDBRANCH  34  35
ENDBRANCH  26  29
ENDBRANCH  24  25
ENDBRANCH  23  24
ENDBRANCH  22  23
ENDBRANCH  21  22
ENDBRANCH   3  21
TORSDOF 19
ENDMDL
MODEL 3
REMARK VINA RESULT:     -10.2      2.204      7.318
REMARK SMILES CCN(CCC(=O)NCCCCNC(=O)c1ccc(-c2c3nc(c(-c4ccccc4)c4ccc([nH]4)c(-c4ccccc4)c4nc(c(-c5ccccc5)c5ccc2[nH]5)C=C4)C=C3)cc1)C(=O)N(C)CCc1cccs1
REMARK SMILES IDX 6 1 7 2 8 3 5 5 4 6 3 7 2 8 1 9 64 10 65 11 66 12 67 13
REMARK SMILES IDX 68 14 69 15 70 16 71 17 74 18 72 19 73 20 9 21 10 22 11 23
REMARK SMILES IDX 12 24 13 25 14 26 15 28 16 29 17 30 63 31 18 32 62 33 19 34
REMARK SMILES IDX 20 35 21 36 56 37 22 38 61 39 55 40 57 41 23 42 60 43 54 44
REMARK SMILES IDX 53 45 24 47 46 48 31 49 45 50 32 51 35 52 44 53 58 54 33 55
REMARK SMILES IDX 34 56 43 58 59 59 36 60 25 61 26 62 30 63 27 64 29 65 28 66
REMARK SMILES IDX 47 67 48 68 52 69 49 70 51 71 50 72 37 73 38 74 42 75 39 76
REMARK SMILES IDX 41 77 40 78
REMARK H PARENT 8 4 13 27 57 46 35 57
REMARK Flexibility Score: inf
ROOT
ATOM      1  C   UNL A   1      34.020  23.858  22.802  1.00  0.00     0.221 C 
ATOM      2  O   UNL A   1      33.789  24.826  22.070  1.00  0.00    -0.275 OA
ATOM      3  N   UNL A   1      35.120  23.900  23.603  1.00  0.00    -0.356 N 
ATOM      4  H   UNL A   1      35.599  24.754  23.504  1.00  0.00     0.163 HD
ENDROOT
BRANCH   1   5
ATOM      5  C   UNL A   1      33.108  22.681  22.803  1.00  0.00     0.121 C 
BRANCH   5   6
ATOM      6  C   UNL A   1      31.949  22.900  23.746  1.00  0.00     0.131 C 
BRANCH   6   7
ATOM      7  N   UNL A   1      32.143  22.294  25.063  1.00  0.00    -0.324 N 
BRANCH   7   8
ATOM      8  C   UNL A   1      32.154  20.802  24.996  1.00  0.00     0.118 C 
ATOM      9  C   UNL A   1      33.300  19.945  25.513  1.00  0.00     0.027 C 
ENDBRANCH   7   8
BRANCH   7  10
ATOM     10  C   UNL A   1      32.246  23.070  26.247  1.00  0.00     0.319 C 
ATOM     11  O   UNL A   1      33.270  23.094  26.929  1.00  0.00    -0.248 OA
BRANCH  10  12
ATOM     12  N   UNL A   1      31.097  23.877  26.581  1.00  0.00    -0.327 N 
ATOM     13  C   UNL A   1      30.015  22.932  26.876  1.00  0.00     0.148 C 
BRANCH  12  14
ATOM     14  C   UNL A   1      30.569  25.101  25.750  1.00  0.00     0.126 C 
BRANCH  14  15
ATOM     15  C   UNL A   1      30.854  26.797  25.549  1.00  0.00     0.068 C 
BRANCH  15  16
ATOM     16  C   UNL A   1      31.910  27.967  26.019  1.00  0.00     0.006 A 
ATOM     17  C   UNL A   1      33.011  27.829  26.879  1.00  0.00     0.015 A 
ATOM     18  S   UNL A   1      31.799  29.667  25.793  1.00  0.00    -0.149 S 
ATOM     19  C   UNL A   1      33.827  29.019  27.038  1.00  0.00     0.012 A 
ATOM     20  C   UNL A   1      33.328  30.079  26.334  1.00  0.00     0.065 A 
ENDBRANCH  15  16
ENDBRANCH  14  15
ENDBRANCH  12  14
ENDBRANCH  10  12
ENDBRANCH   7  10
ENDBRANCH   6   7
ENDBRANCH   5   6
ENDBRANCH   1   5
BRANCH   3  21
ATOM     21  C   UNL A   1      35.799  23.013  24.589  1.00  0.00     0.116 C 
BRANCH  21  22
ATOM     22  C   UNL A   1      36.967  21.839  24.347  1.00  0.00     0.023 C 
BRANCH  22  23
ATOM     23  C   UNL A   1      37.785  20.620  25.003  1.00  0.00     0.023 C 
BRANCH  23  24
ATOM     24  C   UNL A   1      39.025  20.624  25.929  1.00  0.00     0.116 C 
BRANCH  24  25
ATOM     25  N   UNL A   1      39.926  19.501  25.733  1.00  0.00    -0.352 N 
ATOM     26  C   UNL A   1      41.239  19.383  26.124  1.00  0.00     0.251 C 
ATOM     27  H   UNL A   1      39.547  18.725  25.260  1.00  0.00     0.163 HD
ATOM     28  O   UNL A   1      41.809  18.290  26.102  1.00  0.00    -0.269 OA
BRANCH  26  29
ATOM     29  C   UNL A   1      42.006  20.593  26.464  1.00  0.00     0.039 A 
ATOM     30  C   UNL A   1      42.493  21.334  25.387  1.00  0.00     0.014 A 
ATOM     31  C   UNL A   1      42.191  21.036  27.778  1.00  0.00     0.014 A 
ATOM     32  C   UNL A   1      43.060  22.581  25.613  1.00  0.00     0.010 A 
ATOM     33  C   UNL A   1      42.705  22.313  28.000  1.00  0.00     0.010 A 
ATOM     34  C   UNL A   1      43.110  23.103  26.914  1.00  0.00    -0.014 A 
BRANCH  34  35
ATOM     35  C   UNL A   1      43.548  24.502  27.110  1.00  0.00     0.031 A 
ATOM     36  C   UNL A   1      42.559  25.546  27.527  1.00  0.00     0.074 A 
ATOM     37  C   UNL A   1      44.848  24.803  26.920  1.00  0.00     0.049 A 
ATOM     38  N   UNL A   1      42.761  26.808  27.799  1.00  0.00    -0.248 NA
ATOM     39  C   UNL A   1      41.155  25.120  27.634  1.00  0.00     0.031 C 
ATOM     40  C   UNL A   1      45.876  23.858  26.470  1.00  0.00     0.029 A 
ATOM     41  N   UNL A   1      45.536  25.976  27.097  1.00  0.00    -0.354 N 
ATOM     42  C   UNL A   1      41.512  27.327  28.108  1.00  0.00     0.074 A 
ATOM     43  C   UNL A   1      40.551  26.261  27.929  1.00  0.00     0.031 C 
ATOM     44  C   UNL A   1      47.067  24.477  26.450  1.00  0.00     0.029 A 
ATOM     45  C   UNL A   1      46.884  25.865  26.853  1.00  0.00     0.049 A 
ATOM     46  H   UNL A   1      45.104  26.816  27.372  1.00  0.00     0.167 HD
ATOM     47  C   UNL A   1      41.201  28.574  28.533  1.00  0.00     0.031 A 
ATOM     48  C   UNL A   1      47.861  26.784  26.959  1.00  0.00     0.031 A 
ATOM     49  C   UNL A   1      42.175  29.618  28.706  1.00  0.00     0.049 A 
ATOM     50  C   UNL A   1      47.491  28.158  27.444  1.00  0.00     0.074 A 
ATOM     51  C   UNL A   1      41.987  30.918  29.138  1.00  0.00     0.029 A 
ATOM     52  N   UNL A   1      43.533  29.467  28.458  1.00  0.00    -0.354 N 
ATOM     53  N   UNL A   1      46.311  28.623  27.780  1.00  0.00    -0.248 NA
ATOM     54  C   UNL A   1      48.584  29.128  27.587  1.00  0.00     0.031 C 
ATOM     55  C   UNL A   1      43.229  31.564  29.121  1.00  0.00     0.029 A 
ATOM     56  C   UNL A   1      44.196  30.651  28.725  1.00  0.00     0.049 A 
ATOM     57  H   UNL A   1      43.961  28.640  28.141  1.00  0.00     0.167 HD
ATOM     58  C   UNL A   1      46.519  29.932  28.190  1.00  0.00     0.074 A 
ATOM     59  C   UNL A   1      47.945  30.176  28.086  1.00  0.00     0.031 C 
ATOM     60  C   UNL A   1      45.618  30.853  28.609  1.00  0.00     0.031 A 
BRANCH  47  61
ATOM     61  C   UNL A   1      39.755  28.855  28.833  1.00  0.00    -0.014 A 
ATOM     62  C   UNL A   1      38.896  29.359  27.841  1.00  0.00     0.009 A 
ATOM     63  C   UNL A   1      39.244  28.630  30.120  1.00  0.00     0.009 A 
ATOM     64  C   UNL A   1      37.570  29.676  28.145  1.00  0.00     0.001 A 
ATOM     65  C   UNL A   1      37.909  28.919  30.413  1.00  0.00     0.001 A 
ATOM     66  C   UNL A   1      37.077  29.454  29.430  1.00  0.00     0.000 A 
ENDBRANCH  47  61
BRANCH  48  67
ATOM     67  C   UNL A   1      49.268  26.434  26.620  1.00  0.00    -0.014 A 
ATOM     68  C   UNL A   1      50.125  25.875  27.582  1.00  0.00     0.009 A 
ATOM     69  C   UNL A   1      49.766  26.657  25.326  1.00  0.00     0.009 A 
ATOM     70  C   UNL A   1      51.454  25.578  27.264  1.00  0.00     0.001 A 
ATOM     71  C   UNL A   1      51.085  26.331  25.002  1.00  0.00     0.001 A 
ATOM     72  C   UNL A   1      51.932  25.802  25.974  1.00  0.00     0.000 A 
ENDBRANCH  48  67
BRANCH  60  73
ATOM     73  C   UNL A   1      46.158  32.195  29.006  1.00  0.00    -0.014 A 
ATOM     74  C   UNL A   1      46.590  32.443  30.319  1.00  0.00     0.009 A 
ATOM     75  C   UNL A   1      46.281  33.206  28.042  1.00  0.00     0.009 A 
ATOM     76  C   UNL A   1      47.106  33.692  30.664  1.00  0.00     0.001 A 
ATOM     77  C   UNL A   1      46.826  34.444  28.383  1.00  0.00     0.001 A 
ATOM     78  C   UNL A   1      47.229  34.688  29.695  1.00  0.00     0.000 A 
ENDBRANCH  60  73
ENDBRANCH  34  35
ENDBRANCH  26  29
ENDBRANCH  24  25
ENDBRANCH  23  24
ENDBRANCH  22  23
ENDBRANCH  21  22
ENDBRANCH   3  21
TORSDOF 19
ENDMDL
