MODEL 1
REMARK VINA RESULT:     -12.0      0.000      0.000
REMARK SMILES COc1cc(Cl)c2c(c1)C=C(C(=O)NCCCCNC(=O)c1ccc(-c3c4nc(c(-c5ccccc5)c5ccc([nH]5)c(-c5ccccc5)c5nc(c(-c6ccccc6)c6ccc3[nH]6)C=C5)C=C4)cc1)[C@@H](C(F)(F)F)O2
REMARK SMILES IDX 17 1 16 2 15 3 14 4 12 5 13 6 11 8 3 9 4 10 9 11 5 12 8 13
REMARK SMILES IDX 6 14 7 15 10 16 75 17 70 18 2 19 1 20 71 21 72 22 73 23
REMARK SMILES IDX 74 24 18 25 19 26 20 27 21 29 22 30 23 31 69 32 24 33 68 34
REMARK SMILES IDX 25 35 26 36 27 37 62 38 28 39 67 40 61 41 63 42 29 43 66 44
REMARK SMILES IDX 60 45 59 46 30 48 52 49 37 50 51 51 38 52 41 53 50 54 64 55
REMARK SMILES IDX 39 56 40 57 49 59 65 60 42 61 31 62 32 63 36 64 33 65 35 66
REMARK SMILES IDX 34 67 53 68 54 69 58 70 55 71 57 72 56 73 43 74 44 75 48 76
REMARK SMILES IDX 45 77 47 78 46 79
REMARK H PARENT 14 7 19 28 63 47 41 58
REMARK Flexibility Score: inf
ROOT
ATOM      1  C   UNL A   1      38.243  20.583  24.947  1.00  0.00     0.023 C 
ENDROOT
BRANCH   1   2
ATOM      2  C   UNL A   1      36.915  19.825  25.018  1.00  0.00     0.023 C 
BRANCH   2   3
ATOM      3  C   UNL A   1      35.705  20.714  25.293  1.00  0.00     0.116 C 
BRANCH   3   4
ATOM      4  N   UNL A   1      34.470  19.953  25.312  1.00  0.00    -0.352 N 
ATOM      5  C   UNL A   1      33.152  20.206  25.130  1.00  0.00     0.251 C 
ATOM      6  O   UNL A   1      32.410  19.228  25.266  1.00  0.00    -0.270 OA
ATOM      7  H   UNL A   1      34.633  19.001  25.506  1.00  0.00     0.163 HD
BRANCH   5   8
ATOM      8  C   UNL A   1      32.567  21.535  24.787  1.00  0.00     0.067 C 
ATOM      9  C   UNL A   1      32.514  25.292  21.734  1.00  0.00     0.121 A 
ATOM     10  C   UNL A   1      31.482  25.883  22.461  1.00  0.00     0.070 A 
ATOM     11  C   UNL A   1      32.980  24.025  22.098  1.00  0.00     0.058 A 
ATOM     12  C   UNL A   1      30.938  25.215  23.561  1.00  0.00     0.087 A 
ATOM     13  C   UNL A   1      32.449  23.361  23.208  1.00  0.00     0.022 A 
ATOM     14  Cl  UNL A   1      29.660  25.979  24.438  1.00  0.00    -0.080 Cl
ATOM     15  C   UNL A   1      31.430  23.964  23.946  1.00  0.00     0.146 A 
ATOM     16  C   UNL A   1      32.930  22.039  23.593  1.00  0.00     0.025 C 
ATOM     17  O   UNL A   1      30.859  23.335  25.018  1.00  0.00    -0.474 OA
ATOM     18  C   UNL A   1      31.673  22.335  25.692  1.00  0.00     0.314 C 
BRANCH   9  19
ATOM     19  O   UNL A   1      33.128  25.839  20.641  1.00  0.00    -0.497 OA
ATOM     20  C   UNL A   1      32.528  25.570  19.379  1.00  0.00     0.278 C 
ENDBRANCH   9  19
BRANCH  18  21
ATOM     21  C   UNL A   1      32.439  22.996  26.853  1.00  0.00     0.429 C 
ATOM     22  F   UNL A   1      31.810  24.127  27.258  1.00  0.00    -0.167 F 
ATOM     23  F   UNL A   1      32.519  22.195  27.943  1.00  0.00    -0.167 F 
ATOM     24  F   UNL A   1      33.705  23.331  26.518  1.00  0.00    -0.167 F 
ENDBRANCH  18  21
ENDBRANCH   5   8
ENDBRANCH   3   4
ENDBRANCH   2   3
ENDBRANCH   1   2
BRANCH   1  25
ATOM     25  C   UNL A   1      39.192  20.350  26.122  1.00  0.00     0.116 C 
BRANCH  25  26
ATOM     26  N   UNL A   1      40.089  19.219  25.938  1.00  0.00    -0.352 N 
ATOM     27  C   UNL A   1      41.458  19.213  26.053  1.00  0.00     0.251 C 
ATOM     28  H   UNL A   1      39.666  18.360  25.706  1.00  0.00     0.163 HD
ATOM     29  O   UNL A   1      42.117  18.205  25.830  1.00  0.00    -0.269 OA
BRANCH  27  30
ATOM     30  C   UNL A   1      42.121  20.478  26.409  1.00  0.00     0.039 A 
ATOM     31  C   UNL A   1      42.507  21.340  25.382  1.00  0.00     0.014 A 
ATOM     32  C   UNL A   1      42.236  20.848  27.752  1.00  0.00     0.014 A 
ATOM     33  C   UNL A   1      42.948  22.622  25.704  1.00  0.00     0.010 A 
ATOM     34  C   UNL A   1      42.640  22.141  28.067  1.00  0.00     0.010 A 
ATOM     35  C   UNL A   1      42.980  23.039  27.045  1.00  0.00    -0.014 A 
BRANCH  35  36
ATOM     36  C   UNL A   1      43.350  24.430  27.389  1.00  0.00     0.031 A 
ATOM     37  C   UNL A   1      44.778  24.870  27.295  1.00  0.00     0.074 A 
ATOM     38  C   UNL A   1      42.399  25.280  27.820  1.00  0.00     0.049 A 
ATOM     39  N   UNL A   1      45.297  26.037  27.577  1.00  0.00    -0.248 NA
ATOM     40  C   UNL A   1      45.754  23.867  26.839  1.00  0.00     0.031 C 
ATOM     41  C   UNL A   1      40.979  24.956  27.980  1.00  0.00     0.029 A 
ATOM     42  N   UNL A   1      42.487  26.596  28.202  1.00  0.00    -0.354 N 
ATOM     43  C   UNL A   1      46.656  25.909  27.334  1.00  0.00     0.074 A 
ATOM     44  C   UNL A   1      46.891  24.544  26.917  1.00  0.00     0.031 C 
ATOM     45  C   UNL A   1      40.325  26.052  28.401  1.00  0.00     0.029 A 
ATOM     46  C   UNL A   1      41.281  27.145  28.561  1.00  0.00     0.049 A 
ATOM     47  H   UNL A   1      43.333  27.098  28.216  1.00  0.00     0.167 HD
ATOM     48  C   UNL A   1      47.619  26.853  27.430  1.00  0.00     0.031 A 
ATOM     49  C   UNL A   1      40.978  28.392  28.966  1.00  0.00     0.031 A 
ATOM     50  C   UNL A   1      47.388  28.211  27.830  1.00  0.00     0.049 A 
ATOM     51  C   UNL A   1      42.066  29.421  29.064  1.00  0.00     0.074 A 
ATOM     52  C   UNL A   1      48.303  29.244  27.937  1.00  0.00     0.029 A 
ATOM     53  N   UNL A   1      46.152  28.728  28.182  1.00  0.00    -0.354 N 
ATOM     54  N   UNL A   1      43.344  29.291  28.806  1.00  0.00    -0.248 NA
ATOM     55  C   UNL A   1      41.672  30.769  29.501  1.00  0.00     0.031 C 
ATOM     56  C   UNL A   1      47.621  30.385  28.370  1.00  0.00     0.029 A 
ATOM     57  C   UNL A   1      46.279  30.065  28.506  1.00  0.00     0.049 A 
ATOM     58  H   UNL A   1      45.309  28.218  28.199  1.00  0.00     0.167 HD
ATOM     59  C   UNL A   1      43.904  30.541  29.031  1.00  0.00     0.074 A 
ATOM     60  C   UNL A   1      42.828  31.418  29.443  1.00  0.00     0.031 C 
ATOM     61  C   UNL A   1      45.196  30.923  28.905  1.00  0.00     0.031 A 
BRANCH  48  62
ATOM     62  C   UNL A   1      49.018  26.448  27.074  1.00  0.00    -0.014 A 
ATOM     63  C   UNL A   1      49.899  25.992  28.066  1.00  0.00     0.009 A 
ATOM     64  C   UNL A   1      49.438  26.468  25.737  1.00  0.00     0.009 A 
ATOM     65  C   UNL A   1      51.187  25.578  27.726  1.00  0.00     0.001 A 
ATOM     66  C   UNL A   1      50.721  26.038  25.398  1.00  0.00     0.001 A 
ATOM     67  C   UNL A   1      51.595  25.597  26.392  1.00  0.00     0.000 A 
ENDBRANCH  48  62
BRANCH  49  68
ATOM     68  C   UNL A   1      39.570  28.741  29.274  1.00  0.00    -0.014 A 
ATOM     69  C   UNL A   1      38.719  29.202  28.259  1.00  0.00     0.009 A 
ATOM     70  C   UNL A   1      39.063  28.589  30.574  1.00  0.00     0.009 A 
ATOM     71  C   UNL A   1      37.388  29.516  28.542  1.00  0.00     0.001 A 
ATOM     72  C   UNL A   1      37.727  28.889  30.850  1.00  0.00     0.001 A 
ATOM     73  C   UNL A   1      36.892  29.354  29.835  1.00  0.00     0.000 A 
ENDBRANCH  49  68
BRANCH  61  74
ATOM     74  C   UNL A   1      45.531  32.355  29.190  1.00  0.00    -0.014 A 
ATOM     75  C   UNL A   1      45.428  33.327  28.186  1.00  0.00     0.009 A 
ATOM     76  C   UNL A   1      45.839  32.748  30.501  1.00  0.00     0.009 A 
ATOM     77  C   UNL A   1      45.629  34.674  28.492  1.00  0.00     0.001 A 
ATOM     78  C   UNL A   1      46.026  34.097  30.806  1.00  0.00     0.001 A 
ATOM     79  C   UNL A   1      45.920  35.058  29.802  1.00  0.00     0.000 A 
ENDBRANCH  61  74
ENDBRANCH  35  36
ENDBRANCH  27  30
ENDBRANCH  25  26
ENDBRANCH   1  25
TORSDOF 13
ENDMDL
MODEL 2
REMARK VINA RESULT:     -12.0      3.160      4.691
REMARK SMILES COc1cc(Cl)c2c(c1)C=C(C(=O)NCCCCNC(=O)c1ccc(-c3c4nc(c(-c5ccccc5)c5ccc([nH]5)c(-c5ccccc5)c5nc(c(-c6ccccc6)c6ccc3[nH]6)C=C5)C=C4)cc1)[C@@H](C(F)(F)F)O2
REMARK SMILES IDX 17 1 16 2 15 3 14 4 12 5 13 6 11 8 3 9 4 10 9 11 5 12 8 13
REMARK SMILES IDX 6 14 7 15 10 16 75 17 70 18 2 19 1 20 71 21 72 22 73 23
REMARK SMILES IDX 74 24 18 25 19 26 20 27 21 29 22 30 23 31 69 32 24 33 68 34
REMARK SMILES IDX 25 35 26 36 27 37 62 38 28 39 67 40 61 41 63 42 29 43 66 44
REMARK SMILES IDX 60 45 59 46 30 48 52 49 37 50 51 51 38 52 41 53 50 54 64 55
REMARK SMILES IDX 39 56 40 57 49 59 65 60 42 61 31 62 32 63 36 64 33 65 35 66
REMARK SMILES IDX 34 67 53 68 54 69 58 70 55 71 57 72 56 73 43 74 44 75 48 76
REMARK SMILES IDX 45 77 47 78 46 79
REMARK H PARENT 14 7 19 28 63 47 41 58
REMARK Flexibility Score: inf
ROOT
ATOM      1  C   UNL A   1      36.467  22.816  24.404  1.00  0.00     0.023 C 
ENDROOT
BRANCH   1   2
ATOM      2  C   UNL A   1      36.099  21.339  24.558  1.00  0.00     0.023 C 
BRANCH   2   3
ATOM      3  C   UNL A   1      35.379  21.009  25.863  1.00  0.00     0.116 C 
BRANCH   3   4
ATOM      4  N   UNL A   1      34.177  20.229  25.634  1.00  0.00    -0.352 N 
ATOM      5  C   UNL A   1      32.912  20.467  25.213  1.00  0.00     0.251 C 
ATOM      6  O   UNL A   1      32.176  19.475  25.188  1.00  0.00    -0.270 OA
ATOM      7  H   UNL A   1      34.319  19.276  25.836  1.00  0.00     0.163 HD
BRANCH   5   8
ATOM      8  C   UNL A   1      32.376  21.795  24.794  1.00  0.00     0.067 C 
ATOM      9  C   UNL A   1      32.467  25.376  21.536  1.00  0.00     0.121 A 
ATOM     10  C   UNL A   1      31.455  26.043  22.225  1.00  0.00     0.070 A 
ATOM     11  C   UNL A   1      32.886  24.115  21.972  1.00  0.00     0.058 A 
ATOM     12  C   UNL A   1      30.884  25.458  23.358  1.00  0.00     0.087 A 
ATOM     13  C   UNL A   1      32.328  23.533  23.116  1.00  0.00     0.022 A 
ATOM     14  Cl  UNL A   1      29.633  26.314  24.185  1.00  0.00    -0.080 Cl
ATOM     15  C   UNL A   1      31.330  24.213  23.814  1.00  0.00     0.146 A 
ATOM     16  C   UNL A   1      32.760  22.218  23.575  1.00  0.00     0.025 C 
ATOM     17  O   UNL A   1      30.734  23.665  24.917  1.00  0.00    -0.474 OA
ATOM     18  C   UNL A   1      31.509  22.677  25.649  1.00  0.00     0.314 C 
BRANCH   9  19
ATOM     19  O   UNL A   1      33.103  25.838  20.417  1.00  0.00    -0.497 OA
ATOM     20  C   UNL A   1      32.525  25.477  19.167  1.00  0.00     0.278 C 
ENDBRANCH   9  19
BRANCH  18  21
ATOM     21  C   UNL A   1      32.295  23.373  26.775  1.00  0.00     0.429 C 
ATOM     22  F   UNL A   1      32.433  22.548  27.842  1.00  0.00    -0.167 F 
ATOM     23  F   UNL A   1      33.550  23.717  26.395  1.00  0.00    -0.167 F 
ATOM     24  F   UNL A   1      31.693  24.503  27.208  1.00  0.00    -0.167 F 
ENDBRANCH  18  21
ENDBRANCH   5   8
ENDBRANCH   3   4
ENDBRANCH   2   3
ENDBRANCH   1   2
BRANCH   1  25
ATOM     25  C   UNL A   1      37.415  23.368  25.468  1.00  0.00     0.116 C 
BRANCH  25  26
ATOM     26  N   UNL A   1      38.668  22.636  25.576  1.00  0.00    -0.352 N 
ATOM     27  C   UNL A   1      39.825  23.050  26.191  1.00  0.00     0.251 C 
ATOM     28  H   UNL A   1      38.689  21.742  25.163  1.00  0.00     0.163 HD
ATOM     29  O   UNL A   1      40.840  22.363  26.180  1.00  0.00    -0.269 OA
BRANCH  27  30
ATOM     30  C   UNL A   1      39.825  24.377  26.827  1.00  0.00     0.039 A 
ATOM     31  C   UNL A   1      39.258  24.510  28.095  1.00  0.00     0.014 A 
ATOM     32  C   UNL A   1      40.497  25.440  26.215  1.00  0.00     0.014 A 
ATOM     33  C   UNL A   1      39.429  25.703  28.792  1.00  0.00     0.010 A 
ATOM     34  C   UNL A   1      40.697  26.617  26.929  1.00  0.00     0.010 A 
ATOM     35  C   UNL A   1      40.180  26.747  28.227  1.00  0.00    -0.014 A 
BRANCH  35  36
ATOM     36  C   UNL A   1      40.452  27.979  29.000  1.00  0.00     0.031 A 
ATOM     37  C   UNL A   1      41.750  28.134  29.730  1.00  0.00     0.074 A 
ATOM     38  C   UNL A   1      39.510  28.939  29.069  1.00  0.00     0.049 A 
ATOM     39  N   UNL A   1      42.158  29.127  30.477  1.00  0.00    -0.248 NA
ATOM     40  C   UNL A   1      42.711  27.024  29.620  1.00  0.00     0.031 C 
ATOM     41  C   UNL A   1      38.196  28.887  28.423  1.00  0.00     0.029 A 
ATOM     42  N   UNL A   1      39.517  30.149  29.715  1.00  0.00    -0.354 N 
ATOM     43  C   UNL A   1      43.419  28.763  30.925  1.00  0.00     0.074 A 
ATOM     44  C   UNL A   1      43.697  27.445  30.399  1.00  0.00     0.031 C 
ATOM     45  C   UNL A   1      37.534  30.027  28.685  1.00  0.00     0.029 A 
ATOM     46  C   UNL A   1      38.367  30.877  29.531  1.00  0.00     0.049 A 
ATOM     47  H   UNL A   1      40.274  30.466  30.259  1.00  0.00     0.167 HD
ATOM     48  C   UNL A   1      44.277  29.475  31.690  1.00  0.00     0.031 A 
ATOM     49  C   UNL A   1      38.025  32.096  29.988  1.00  0.00     0.031 A 
ATOM     50  C   UNL A   1      44.009  30.789  32.202  1.00  0.00     0.049 A 
ATOM     51  C   UNL A   1      38.996  32.865  30.836  1.00  0.00     0.074 A 
ATOM     52  C   UNL A   1      44.829  31.595  32.971  1.00  0.00     0.029 A 
ATOM     53  N   UNL A   1      42.834  31.491  31.990  1.00  0.00    -0.354 N 
ATOM     54  N   UNL A   1      40.195  32.518  31.230  1.00  0.00    -0.248 NA
ATOM     55  C   UNL A   1      38.571  34.197  31.294  1.00  0.00     0.031 C 
ATOM     56  C   UNL A   1      44.143  32.783  33.238  1.00  0.00     0.029 A 
ATOM     57  C   UNL A   1      42.907  32.723  32.613  1.00  0.00     0.049 A 
ATOM     58  H   UNL A   1      42.063  31.162  31.474  1.00  0.00     0.167 HD
ATOM     59  C   UNL A   1      40.677  33.591  31.968  1.00  0.00     0.074 A 
ATOM     60  C   UNL A   1      39.642  34.604  31.964  1.00  0.00     0.031 C 
ATOM     61  C   UNL A   1      41.871  33.721  32.590  1.00  0.00     0.031 A 
BRANCH  48  62
ATOM     62  C   UNL A   1      45.601  28.849  32.004  1.00  0.00    -0.014 A 
ATOM     63  C   UNL A   1      46.705  29.063  31.165  1.00  0.00     0.009 A 
ATOM     64  C   UNL A   1      45.762  28.091  33.172  1.00  0.00     0.009 A 
ATOM     65  C   UNL A   1      47.947  28.512  31.482  1.00  0.00     0.001 A 
ATOM     66  C   UNL A   1      47.009  27.554  33.494  1.00  0.00     0.001 A 
ATOM     67  C   UNL A   1      48.099  27.762  32.648  1.00  0.00     0.000 A 
ENDBRANCH  48  62
BRANCH  49  68
ATOM     68  C   UNL A   1      36.712  32.676  29.618  1.00  0.00    -0.014 A 
ATOM     69  C   UNL A   1      36.536  33.279  28.363  1.00  0.00     0.009 A 
ATOM     70  C   UNL A   1      35.624  32.605  30.501  1.00  0.00     0.009 A 
ATOM     71  C   UNL A   1      35.295  33.811  28.004  1.00  0.00     0.001 A 
ATOM     72  C   UNL A   1      34.381  33.125  30.132  1.00  0.00     0.001 A 
ATOM     73  C   UNL A   1      34.218  33.729  28.887  1.00  0.00     0.000 A 
ENDBRANCH  49  68
BRANCH  61  74
ATOM     74  C   UNL A   1      42.150  35.007  33.305  1.00  0.00    -0.014 A 
ATOM     75  C   UNL A   1      41.712  35.203  34.622  1.00  0.00     0.009 A 
ATOM     76  C   UNL A   1      42.955  35.981  32.694  1.00  0.00     0.009 A 
ATOM     77  C   UNL A   1      42.079  36.356  35.317  1.00  0.00     0.001 A 
ATOM     78  C   UNL A   1      43.329  37.126  33.397  1.00  0.00     0.001 A 
ATOM     79  C   UNL A   1      42.892  37.312  34.708  1.00  0.00     0.000 A 
ENDBRANCH  61  74
ENDBRANCH  35  36
ENDBRANCH  27  30
ENDBRANCH  25  26
ENDBRANCH   1  25
TORSDOF 13
ENDMDL
MODEL 3
REMARK VINA RESULT:     -12.0      1.139      5.946
REMARK SMILES COc1cc(Cl)c2c(c1)C=C(C(=O)NCCCCNC(=O)c1ccc(-c3c4nc(c(-c5ccccc5)c5ccc([nH]5)c(-c5ccccc5)c5nc(c(-c6ccccc6)c6ccc3[nH]6)C=C5)C=C4)cc1)[C@@H](C(F)(F)F)O2
REMARK SMILES IDX 17 1 16 2 15 3 14 4 12 5 13 6 11 8 3 9 4 10 9 11 5 12 8 13
REMARK SMILES IDX 6 14 7 15 10 16 75 17 70 18 2 19 1 20 71 21 72 22 73 23
REMARK SMILES IDX 74 24 18 25 19 26 20 27 21 29 22 30 23 31 69 32 24 33 68 34
REMARK SMILES IDX 25 35 26 36 27 37 62 38 28 39 67 40 61 41 63 42 29 43 66 44
REMARK SMILES IDX 60 45 59 46 30 48 52 49 37 50 51 51 38 52 41 53 50 54 64 55
REMARK SMILES IDX 39 56 40 57 49 59 65 60 42 61 31 62 32 63 36 64 33 65 35 66
REMARK SMILES IDX 34 67 53 68 54 69 58 70 55 71 57 72 56 73 43 74 44 75 48 76
REMARK SMILES IDX 45 77 47 78 46 79
REMARK H PARENT 14 7 19 28 63 47 41 58
REMARK Flexibility Score: inf
ROOT
ATOM      1  C   UNL A   1      37.732  21.143  24.747  1.00  0.00     0.023 C 
ENDROOT
BRANCH   1   2
ATOM      2  C   UNL A   1      36.536  20.222  24.996  1.00  0.00     0.023 C 
BRANCH   2   3
ATOM      3  C   UNL A   1      35.365  20.899  25.700  1.00  0.00     0.116 C 
BRANCH   3   4
ATOM      4  N   UNL A   1      34.134  20.147  25.545  1.00  0.00    -0.352 N 
ATOM      5  C   UNL A   1      32.850  20.414  25.210  1.00  0.00     0.251 C 
ATOM      6  O   UNL A   1      32.092  19.438  25.226  1.00  0.00    -0.270 OA
ATOM      7  H   UNL A   1      34.268  19.189  25.732  1.00  0.00     0.163 HD
BRANCH   5   8
ATOM      8  C   UNL A   1      32.316  21.756  24.835  1.00  0.00     0.067 C 
ATOM      9  C   UNL A   1      32.418  25.446  21.701  1.00  0.00     0.121 A 
ATOM     10  C   UNL A   1      31.405  26.090  22.410  1.00  0.00     0.070 A 
ATOM     11  C   UNL A   1      32.835  24.170  22.095  1.00  0.00     0.058 A 
ATOM     12  C   UNL A   1      30.831  25.467  23.521  1.00  0.00     0.087 A 
ATOM     13  C   UNL A   1      32.274  23.551  23.217  1.00  0.00     0.022 A 
ATOM     14  Cl  UNL A   1      29.579  26.297  24.374  1.00  0.00    -0.080 Cl
ATOM     15  C   UNL A   1      31.275  24.207  23.935  1.00  0.00     0.146 A 
ATOM     16  C   UNL A   1      32.703  22.220  23.632  1.00  0.00     0.025 C 
ATOM     17  O   UNL A   1      30.676  23.623  25.018  1.00  0.00    -0.474 OA
ATOM     18  C   UNL A   1      31.448  22.609  25.717  1.00  0.00     0.314 C 
BRANCH   9  19
ATOM     19  O   UNL A   1      33.057  25.945  20.600  1.00  0.00    -0.497 OA
ATOM     20  C   UNL A   1      32.528  25.563  19.335  1.00  0.00     0.278 C 
ENDBRANCH   9  19
BRANCH  18  21
ATOM     21  C   UNL A   1      32.233  23.266  26.869  1.00  0.00     0.429 C 
ATOM     22  F   UNL A   1      33.518  23.496  26.500  1.00  0.00    -0.167 F 
ATOM     23  F   UNL A   1      31.719  24.468  27.227  1.00  0.00    -0.167 F 
ATOM     24  F   UNL A   1      32.259  22.502  27.983  1.00  0.00    -0.167 F 
ENDBRANCH  18  21
ENDBRANCH   5   8
ENDBRANCH   3   4
ENDBRANCH   2   3
ENDBRANCH   1   2
BRANCH   1  25
ATOM     25  C   UNL A   1      38.826  21.098  25.813  1.00  0.00     0.116 C 
BRANCH  25  26
ATOM     26  N   UNL A   1      39.680  19.922  25.730  1.00  0.00    -0.352 N 
ATOM     27  C   UNL A   1      41.006  19.828  26.078  1.00  0.00     0.251 C 
ATOM     28  H   UNL A   1      39.260  19.100  25.386  1.00  0.00     0.163 HD
ATOM     29  O   UNL A   1      41.640  18.791  25.922  1.00  0.00    -0.269 OA
BRANCH  27  30
ATOM     30  C   UNL A   1      41.663  21.036  26.604  1.00  0.00     0.039 A 
ATOM     31  C   UNL A   1      42.192  21.956  25.699  1.00  0.00     0.014 A 
ATOM     32  C   UNL A   1      41.634  21.299  27.977  1.00  0.00     0.014 A 
ATOM     33  C   UNL A   1      42.633  23.191  26.168  1.00  0.00     0.010 A 
ATOM     34  C   UNL A   1      42.040  22.548  28.437  1.00  0.00     0.010 A 
ATOM     35  C   UNL A   1      42.524  23.506  27.533  1.00  0.00    -0.014 A 
BRANCH  35  36
ATOM     36  C   UNL A   1      42.895  24.851  28.025  1.00  0.00     0.031 A 
ATOM     37  C   UNL A   1      41.836  25.887  28.240  1.00  0.00     0.074 A 
ATOM     38  C   UNL A   1      44.192  25.142  28.241  1.00  0.00     0.049 A 
ATOM     39  N   UNL A   1      41.969  27.125  28.642  1.00  0.00    -0.248 NA
ATOM     40  C   UNL A   1      40.448  25.489  27.954  1.00  0.00     0.031 C 
ATOM     41  C   UNL A   1      45.314  24.222  28.038  1.00  0.00     0.029 A 
ATOM     42  N   UNL A   1      44.783  26.299  28.682  1.00  0.00    -0.354 N 
ATOM     43  C   UNL A   1      40.687  27.652  28.657  1.00  0.00     0.074 A 
ATOM     44  C   UNL A   1      39.792  26.617  28.190  1.00  0.00     0.031 C 
ATOM     45  C   UNL A   1      46.455  24.843  28.379  1.00  0.00     0.029 A 
ATOM     46  C   UNL A   1      46.148  26.206  28.803  1.00  0.00     0.049 A 
ATOM     47  H   UNL A   1      44.278  27.117  28.892  1.00  0.00     0.167 HD
ATOM     48  C   UNL A   1      40.290  28.884  29.046  1.00  0.00     0.031 A 
ATOM     49  C   UNL A   1      47.049  27.116  29.217  1.00  0.00     0.031 A 
ATOM     50  C   UNL A   1      41.174  29.910  29.522  1.00  0.00     0.049 A 
ATOM     51  C   UNL A   1      46.582  28.477  29.643  1.00  0.00     0.074 A 
ATOM     52  C   UNL A   1      40.857  31.185  29.957  1.00  0.00     0.029 A 
ATOM     53  N   UNL A   1      42.548  29.775  29.633  1.00  0.00    -0.354 N 
ATOM     54  N   UNL A   1      45.362  28.953  29.675  1.00  0.00    -0.248 NA
ATOM     55  C   UNL A   1      47.611  29.424  30.097  1.00  0.00     0.031 C 
ATOM     56  C   UNL A   1      42.045  31.828  30.318  1.00  0.00     0.029 A 
ATOM     57  C   UNL A   1      43.094  30.942  30.130  1.00  0.00     0.049 A 
ATOM     58  H   UNL A   1      43.059  28.967  29.392  1.00  0.00     0.167 HD
ATOM     59  C   UNL A   1      45.473  30.246  30.168  1.00  0.00     0.074 A 
ATOM     60  C   UNL A   1      46.878  30.480  30.425  1.00  0.00     0.031 C 
ATOM     61  C   UNL A   1      44.494  31.153  30.388  1.00  0.00     0.031 A 
BRANCH  48  62
ATOM     62  C   UNL A   1      38.823  29.185  28.989  1.00  0.00    -0.014 A 
ATOM     63  C   UNL A   1      38.018  29.011  30.125  1.00  0.00     0.009 A 
ATOM     64  C   UNL A   1      38.254  29.697  27.815  1.00  0.00     0.009 A 
ATOM     65  C   UNL A   1      36.661  29.330  30.080  1.00  0.00     0.001 A 
ATOM     66  C   UNL A   1      36.900  30.030  27.778  1.00  0.00     0.001 A 
ATOM     67  C   UNL A   1      36.104  29.843  28.909  1.00  0.00     0.000 A 
ENDBRANCH  48  62
BRANCH  49  68
ATOM     68  C   UNL A   1      48.484  26.750  29.280  1.00  0.00    -0.014 A 
ATOM     69  C   UNL A   1      49.332  27.026  28.197  1.00  0.00     0.009 A 
ATOM     70  C   UNL A   1      49.019  26.149  30.430  1.00  0.00     0.009 A 
ATOM     71  C   UNL A   1      50.688  26.697  28.260  1.00  0.00     0.001 A 
ATOM     72  C   UNL A   1      50.379  25.836  30.496  1.00  0.00     0.001 A 
ATOM     73  C   UNL A   1      51.211  26.107  29.411  1.00  0.00     0.000 A 
ENDBRANCH  49  68
BRANCH  61  74
ATOM     74  C   UNL A   1      44.889  32.483  30.954  1.00  0.00    -0.014 A 
ATOM     75  C   UNL A   1      45.159  33.568  30.110  1.00  0.00     0.009 A 
ATOM     76  C   UNL A   1      44.875  32.677  32.344  1.00  0.00     0.009 A 
ATOM     77  C   UNL A   1      45.410  34.831  30.651  1.00  0.00     0.001 A 
ATOM     78  C   UNL A   1      45.114  33.943  32.880  1.00  0.00     0.001 A 
ATOM     79  C   UNL A   1      45.380  35.018  32.033  1.00  0.00     0.000 A 
ENDBRANCH  61  74
ENDBRANCH  35  36
ENDBRANCH  27  30
ENDBRANCH  25  26
ENDBRANCH   1  25
TORSDOF 13
ENDMDL
