MODEL 1
REMARK VINA RESULT:     -11.4      0.000      0.000
REMARK SMILES CC(=O)O[C@@H]1[C@@H](O)C(C)=C(CC[C@@H](C)CC(=O)NCCCCNC(=O)c2ccc(-c3c4nc(c(-c5ccccc5)c5ccc([nH]5)c(-c5ccccc5)c5nc(c(-c6ccccc6)c6ccc3[nH]6)C=C5)C=C4)cc2)[C@@]2(C)CCCC(C)(C)[C@H]12
REMARK SMILES IDX 16 1 17 2 18 3 15 5 13 6 14 7 12 8 11 9 10 10 5 11 6 12
REMARK SMILES IDX 82 13 8 14 74 15 79 16 9 17 76 18 75 19 78 20 80 21 81 22
REMARK SMILES IDX 77 23 4 24 2 25 1 26 3 27 7 28 19 30 20 31 21 32 22 33 23 34
REMARK SMILES IDX 24 35 25 37 26 38 27 39 73 40 28 41 72 42 29 43 30 44 31 45
REMARK SMILES IDX 66 46 32 47 71 48 65 49 67 50 33 51 70 52 64 53 63 54 34 56
REMARK SMILES IDX 56 57 41 58 55 59 42 60 45 61 54 62 68 63 43 64 44 65 53 67
REMARK SMILES IDX 69 68 46 69 35 70 36 71 40 72 37 73 39 74 38 75 57 76 58 77
REMARK SMILES IDX 62 78 59 79 61 80 60 81 47 82 48 83 52 84 49 85 51 86 50 87
REMARK H PARENT 18 4 7 29 23 36 67 55 45 66
REMARK Flexibility Score: inf
ROOT
ATOM      1  C   UNL A   1      33.909  17.685  24.715  1.00  0.00     0.220 C 
ATOM      2  O   UNL A   1      33.715  16.482  24.528  1.00  0.00    -0.275 OA
ATOM      3  N   UNL A   1      35.177  18.158  24.542  1.00  0.00    -0.356 N 
ATOM      4  H   UNL A   1      35.787  17.548  24.067  1.00  0.00     0.163 HD
ENDROOT
BRANCH   1   5
ATOM      5  C   UNL A   1      32.758  18.611  25.085  1.00  0.00     0.103 C 
BRANCH   5   6
ATOM      6  C   UNL A   1      32.154  19.380  23.887  1.00  0.00    -0.005 C 
ATOM      7  C   UNL A   1      32.300  18.556  22.603  1.00  0.00     0.008 C 
BRANCH   6   8
ATOM      8  C   UNL A   1      32.851  20.736  23.715  1.00  0.00     0.008 C 
BRANCH   8   9
ATOM      9  C   UNL A   1      32.034  21.991  24.008  1.00  0.00     0.032 C 
BRANCH   9  10
ATOM     10  C   UNL A   1      32.841  23.126  24.660  1.00  0.00    -0.062 C 
ATOM     11  C   UNL A   1      31.349  25.446  25.689  1.00  0.00     0.213 C 
ATOM     12  C   UNL A   1      31.388  24.071  26.412  1.00  0.00     0.181 C 
ATOM     13  C   UNL A   1      31.609  25.271  24.151  1.00  0.00     0.049 C 
ATOM     14  C   UNL A   1      32.599  23.255  25.993  1.00  0.00    -0.042 C 
ATOM     15  C   UNL A   1      32.939  24.480  23.846  1.00  0.00    -0.004 C 
ATOM     16  C   UNL A   1      31.357  26.537  23.254  1.00  0.00    -0.028 C 
ATOM     17  C   UNL A   1      33.733  23.322  26.988  1.00  0.00     0.042 C 
ATOM     18  C   UNL A   1      33.109  24.287  22.310  1.00  0.00     0.011 C 
ATOM     19  C   UNL A   1      34.257  25.183  24.287  1.00  0.00     0.016 C 
ATOM     20  C   UNL A   1      31.457  26.112  21.768  1.00  0.00     0.007 C 
ATOM     21  C   UNL A   1      29.896  27.024  23.437  1.00  0.00     0.011 C 
ATOM     22  C   UNL A   1      32.324  27.714  23.502  1.00  0.00     0.011 C 
ATOM     23  C   UNL A   1      32.790  25.480  21.417  1.00  0.00     0.001 C 
BRANCH  11  24
ATOM     24  O   UNL A   1      32.348  26.283  26.310  1.00  0.00    -0.459 OA
BRANCH  24  25
ATOM     25  C   UNL A   1      32.021  27.381  27.026  1.00  0.00     0.303 C 
ATOM     26  C   UNL A   1      33.069  28.444  27.131  1.00  0.00     0.139 C 
ATOM     27  O   UNL A   1      30.956  27.453  27.630  1.00  0.00    -0.253 OA
ENDBRANCH  24  25
ENDBRANCH  11  24
BRANCH  12  28
ATOM     28  O   UNL A   1      30.204  23.328  26.102  1.00  0.00    -0.385 OA
ATOM     29  H   UNL A   1      29.619  23.316  26.877  1.00  0.00     0.211 HD
ENDBRANCH  12  28
ENDBRANCH   9  10
ENDBRANCH   8   9
ENDBRANCH   6   8
ENDBRANCH   5   6
ENDBRANCH   1   5
BRANCH   3  30
ATOM     30  C   UNL A   1      35.770  19.422  24.948  1.00  0.00     0.116 C 
BRANCH  30  31
ATOM     31  C   UNL A   1      37.290  19.305  24.905  1.00  0.00     0.023 C 
BRANCH  31  32
ATOM     32  C   UNL A   1      38.094  20.588  24.927  1.00  0.00     0.023 C 
BRANCH  32  33
ATOM     33  C   UNL A   1      39.174  20.616  25.983  1.00  0.00     0.116 C 
BRANCH  33  34
ATOM     34  N   UNL A   1      40.190  19.581  25.834  1.00  0.00    -0.352 N 
ATOM     35  C   UNL A   1      41.550  19.656  26.085  1.00  0.00     0.251 C 
ATOM     36  H   UNL A   1      39.866  18.710  25.510  1.00  0.00     0.163 HD
ATOM     37  O   UNL A   1      42.279  18.716  25.852  1.00  0.00    -0.269 OA
BRANCH  35  38
ATOM     38  C   UNL A   1      42.107  20.936  26.589  1.00  0.00     0.039 A 
ATOM     39  C   UNL A   1      42.494  21.918  25.675  1.00  0.00     0.014 A 
ATOM     40  C   UNL A   1      42.140  21.201  27.956  1.00  0.00     0.014 A 
ATOM     41  C   UNL A   1      42.810  23.198  26.137  1.00  0.00     0.010 A 
ATOM     42  C   UNL A   1      42.298  22.505  28.396  1.00  0.00     0.010 A 
ATOM     43  C   UNL A   1      42.655  23.518  27.496  1.00  0.00    -0.014 A 
BRANCH  43  44
ATOM     44  C   UNL A   1      42.890  24.888  28.019  1.00  0.00     0.031 A 
ATOM     45  C   UNL A   1      44.280  25.294  28.437  1.00  0.00     0.074 A 
ATOM     46  C   UNL A   1      41.854  25.731  28.202  1.00  0.00     0.049 A 
ATOM     47  N   UNL A   1      44.682  26.401  29.006  1.00  0.00    -0.248 NA
ATOM     48  C   UNL A   1      45.354  24.306  28.229  1.00  0.00     0.031 C 
ATOM     49  C   UNL A   1      40.451  25.440  27.900  1.00  0.00     0.029 A 
ATOM     50  N   UNL A   1      41.826  27.013  28.694  1.00  0.00    -0.354 N 
ATOM     51  C   UNL A   1      46.038  26.223  29.253  1.00  0.00     0.074 A 
ATOM     52  C   UNL A   1      46.375  24.881  28.842  1.00  0.00     0.031 C 
ATOM     53  C   UNL A   1      39.707  26.525  28.169  1.00  0.00     0.029 A 
ATOM     54  C   UNL A   1      40.570  27.571  28.707  1.00  0.00     0.049 A 
ATOM     55  H   UNL A   1      42.629  27.487  29.007  1.00  0.00     0.167 HD
ATOM     56  C   UNL A   1      46.936  27.108  29.745  1.00  0.00     0.031 A 
ATOM     57  C   UNL A   1      40.161  28.790  29.108  1.00  0.00     0.031 A 
ATOM     58  C   UNL A   1      46.608  28.457  30.117  1.00  0.00     0.049 A 
ATOM     59  C   UNL A   1      41.179  29.763  29.636  1.00  0.00     0.074 A 
ATOM     60  C   UNL A   1      47.454  29.459  30.554  1.00  0.00     0.029 A 
ATOM     61  N   UNL A   1      45.330  28.991  30.087  1.00  0.00    -0.354 N 
ATOM     62  N   UNL A   1      42.471  29.606  29.789  1.00  0.00    -0.248 NA
ATOM     63  C   UNL A   1      40.680  31.087  30.036  1.00  0.00     0.031 C 
ATOM     64  C   UNL A   1      46.678  30.588  30.838  1.00  0.00     0.029 A 
ATOM     65  C   UNL A   1      45.359  30.304  30.520  1.00  0.00     0.049 A 
ATOM     66  H   UNL A   1      44.521  28.508  29.801  1.00  0.00     0.167 HD
ATOM     67  C   UNL A   1      42.945  30.819  30.273  1.00  0.00     0.074 A 
ATOM     68  C   UNL A   1      41.804  31.705  30.372  1.00  0.00     0.031 C 
ATOM     69  C   UNL A   1      44.211  31.169  30.608  1.00  0.00     0.031 A 
BRANCH  56  70
ATOM     70  C   UNL A   1      48.357  26.639  29.899  1.00  0.00    -0.014 A 
ATOM     71  C   UNL A   1      49.314  26.866  28.895  1.00  0.00     0.009 A 
ATOM     72  C   UNL A   1      48.749  25.975  31.070  1.00  0.00     0.009 A 
ATOM     73  C   UNL A   1      50.619  26.397  29.042  1.00  0.00     0.001 A 
ATOM     74  C   UNL A   1      50.066  25.537  31.229  1.00  0.00     0.001 A 
ATOM     75  C   UNL A   1      50.996  25.738  30.211  1.00  0.00     0.000 A 
ENDBRANCH  56  70
BRANCH  57  76
ATOM     76  C   UNL A   1      38.727  29.173  29.000  1.00  0.00    -0.014 A 
ATOM     77  C   UNL A   1      38.221  29.704  27.803  1.00  0.00     0.009 A 
ATOM     78  C   UNL A   1      37.859  29.016  30.091  1.00  0.00     0.009 A 
ATOM     79  C   UNL A   1      36.885  30.099  27.711  1.00  0.00     0.001 A 
ATOM     80  C   UNL A   1      36.515  29.384  29.986  1.00  0.00     0.001 A 
ATOM     81  C   UNL A   1      36.032  29.934  28.800  1.00  0.00     0.000 A 
ENDBRANCH  57  76
BRANCH  69  82
ATOM     82  C   UNL A   1      44.436  32.579  31.073  1.00  0.00    -0.014 A 
ATOM     83  C   UNL A   1      44.390  32.916  32.434  1.00  0.00     0.009 A 
ATOM     84  C   UNL A   1      44.746  33.577  30.134  1.00  0.00     0.009 A 
ATOM     85  C   UNL A   1      44.616  34.231  32.842  1.00  0.00     0.001 A 
ATOM     86  C   UNL A   1      45.003  34.883  30.548  1.00  0.00     0.001 A 
ATOM     87  C   UNL A   1      44.928  35.211  31.901  1.00  0.00     0.000 A 
ENDBRANCH  69  82
ENDBRANCH  43  44
ENDBRANCH  35  38
ENDBRANCH  33  34
ENDBRANCH  32  33
ENDBRANCH  31  32
ENDBRANCH  30  31
ENDBRANCH   3  30
TORSDOF 18
ENDMDL
MODEL 2
REMARK VINA RESULT:     -11.3      2.613      3.611
REMARK SMILES CC(=O)O[C@@H]1[C@@H](O)C(C)=C(CC[C@@H](C)CC(=O)NCCCCNC(=O)c2ccc(-c3c4nc(c(-c5ccccc5)c5ccc([nH]5)c(-c5ccccc5)c5nc(c(-c6ccccc6)c6ccc3[nH]6)C=C5)C=C4)cc2)[C@@]2(C)CCCC(C)(C)[C@H]12
REMARK SMILES IDX 16 1 17 2 18 3 15 5 13 6 14 7 12 8 11 9 10 10 5 11 6 12
REMARK SMILES IDX 82 13 8 14 74 15 79 16 9 17 76 18 75 19 78 20 80 21 81 22
REMARK SMILES IDX 77 23 4 24 2 25 1 26 3 27 7 28 19 30 20 31 21 32 22 33 23 34
REMARK SMILES IDX 24 35 25 37 26 38 27 39 73 40 28 41 72 42 29 43 30 44 31 45
REMARK SMILES IDX 66 46 32 47 71 48 65 49 67 50 33 51 70 52 64 53 63 54 34 56
REMARK SMILES IDX 56 57 41 58 55 59 42 60 45 61 54 62 68 63 43 64 44 65 53 67
REMARK SMILES IDX 69 68 46 69 35 70 36 71 40 72 37 73 39 74 38 75 57 76 58 77
REMARK SMILES IDX 62 78 59 79 61 80 60 81 47 82 48 83 52 84 49 85 51 86 50 87
REMARK H PARENT 18 4 7 29 23 36 67 55 45 66
REMARK Flexibility Score: inf
ROOT
ATOM      1  C   UNL A   1      37.416  21.510  25.202  1.00  0.00     0.220 C 
ATOM      2  O   UNL A   1      36.672  20.545  25.009  1.00  0.00    -0.275 OA
ATOM      3  N   UNL A   1      38.651  21.264  25.728  1.00  0.00    -0.356 N 
ATOM      4  H   UNL A   1      38.933  20.321  25.702  1.00  0.00     0.163 HD
ENDROOT
BRANCH   1   5
ATOM      5  C   UNL A   1      36.977  22.918  24.825  1.00  0.00     0.103 C 
BRANCH   5   6
ATOM      6  C   UNL A   1      35.473  23.196  25.054  1.00  0.00    -0.005 C 
ATOM      7  C   UNL A   1      34.726  23.188  23.716  1.00  0.00     0.008 C 
BRANCH   6   8
ATOM      8  C   UNL A   1      35.279  24.550  25.749  1.00  0.00     0.008 C 
BRANCH   8   9
ATOM      9  C   UNL A   1      33.921  25.229  25.602  1.00  0.00     0.032 C 
BRANCH   9  10
ATOM     10  C   UNL A   1      34.005  26.734  25.295  1.00  0.00    -0.062 C 
ATOM     11  C   UNL A   1      31.513  28.297  25.435  1.00  0.00     0.213 C 
ATOM     12  C   UNL A   1      32.282  27.807  26.693  1.00  0.00     0.181 C 
ATOM     13  C   UNL A   1      31.818  27.371  24.204  1.00  0.00     0.049 C 
ATOM     14  C   UNL A   1      33.739  27.515  26.378  1.00  0.00    -0.042 C 
ATOM     15  C   UNL A   1      33.363  27.213  23.930  1.00  0.00    -0.004 C 
ATOM     16  C   UNL A   1      30.926  27.592  22.929  1.00  0.00    -0.028 C 
ATOM     17  C   UNL A   1      34.670  28.635  26.780  1.00  0.00     0.042 C 
ATOM     18  C   UNL A   1      33.601  26.237  22.740  1.00  0.00     0.011 C 
ATOM     19  C   UNL A   1      34.108  28.515  23.507  1.00  0.00     0.016 C 
ATOM     20  C   UNL A   1      31.229  26.458  21.918  1.00  0.00     0.007 C 
ATOM     21  C   UNL A   1      29.431  27.413  23.301  1.00  0.00     0.011 C 
ATOM     22  C   UNL A   1      31.121  28.952  22.226  1.00  0.00     0.011 C 
ATOM     23  C   UNL A   1      32.691  26.384  21.525  1.00  0.00     0.001 C 
BRANCH  11  24
ATOM     24  O   UNL A   1      31.918  29.662  25.191  1.00  0.00    -0.459 OA
BRANCH  24  25
ATOM     25  C   UNL A   1      31.078  30.703  25.376  1.00  0.00     0.303 C 
ATOM     26  C   UNL A   1      31.411  31.635  26.500  1.00  0.00     0.139 C 
ATOM     27  O   UNL A   1      30.052  30.819  24.716  1.00  0.00    -0.253 OA
ENDBRANCH  24  25
ENDBRANCH  11  24
BRANCH  12  28
ATOM     28  O   UNL A   1      31.673  26.615  27.198  1.00  0.00    -0.385 OA
ATOM     29  H   UNL A   1      32.335  26.094  27.681  1.00  0.00     0.211 HD
ENDBRANCH  12  28
ENDBRANCH   9  10
ENDBRANCH   8   9
ENDBRANCH   6   8
ENDBRANCH   5   6
ENDBRANCH   1   5
BRANCH   3  30
ATOM     30  C   UNL A   1      39.616  22.176  26.319  1.00  0.00     0.116 C 
BRANCH  30  31
ATOM     31  C   UNL A   1      41.015  21.579  26.203  1.00  0.00     0.023 C 
BRANCH  31  32
ATOM     32  C   UNL A   1      41.128  20.074  26.075  1.00  0.00     0.023 C 
BRANCH  32  33
ATOM     33  C   UNL A   1      42.467  19.522  26.500  1.00  0.00     0.116 C 
BRANCH  33  34
ATOM     34  N   UNL A   1      43.235  18.906  25.425  1.00  0.00    -0.352 N 
ATOM     35  C   UNL A   1      44.231  19.460  24.639  1.00  0.00     0.251 C 
ATOM     36  H   UNL A   1      43.014  17.966  25.229  1.00  0.00     0.163 HD
ATOM     37  O   UNL A   1      44.736  18.827  23.736  1.00  0.00    -0.269 OA
BRANCH  35  38
ATOM     38  C   UNL A   1      44.626  20.869  24.886  1.00  0.00     0.039 A 
ATOM     39  C   UNL A   1      44.175  21.865  24.018  1.00  0.00     0.014 A 
ATOM     40  C   UNL A   1      45.342  21.210  26.032  1.00  0.00     0.014 A 
ATOM     41  C   UNL A   1      44.355  23.208  24.363  1.00  0.00     0.010 A 
ATOM     42  C   UNL A   1      45.378  22.531  26.446  1.00  0.00     0.010 A 
ATOM     43  C   UNL A   1      44.904  23.550  25.609  1.00  0.00    -0.014 A 
BRANCH  43  44
ATOM     44  C   UNL A   1      45.031  24.960  26.058  1.00  0.00     0.031 A 
ATOM     45  C   UNL A   1      46.373  25.642  25.991  1.00  0.00     0.074 A 
ATOM     46  C   UNL A   1      43.974  25.596  26.604  1.00  0.00     0.049 A 
ATOM     47  N   UNL A   1      46.721  26.828  26.420  1.00  0.00    -0.248 NA
ATOM     48  C   UNL A   1      47.484  24.871  25.404  1.00  0.00     0.031 C 
ATOM     49  C   UNL A   1      42.637  25.028  26.788  1.00  0.00     0.029 A 
ATOM     50  N   UNL A   1      43.865  26.867  27.111  1.00  0.00    -0.354 N 
ATOM     51  C   UNL A   1      48.087  26.924  26.187  1.00  0.00     0.074 A 
ATOM     52  C   UNL A   1      48.519  25.656  25.651  1.00  0.00     0.031 C 
ATOM     53  C   UNL A   1      41.832  25.961  27.323  1.00  0.00     0.029 A 
ATOM     54  C   UNL A   1      42.605  27.174  27.564  1.00  0.00     0.049 A 
ATOM     55  H   UNL A   1      44.619  27.499  27.146  1.00  0.00     0.167 HD
ATOM     56  C   UNL A   1      48.908  27.984  26.369  1.00  0.00     0.031 A 
ATOM     57  C   UNL A   1      42.126  28.308  28.113  1.00  0.00     0.031 A 
ATOM     58  C   UNL A   1      48.470  29.259  26.866  1.00  0.00     0.049 A 
ATOM     59  C   UNL A   1      43.054  29.478  28.291  1.00  0.00     0.074 A 
ATOM     60  C   UNL A   1      49.202  30.422  27.017  1.00  0.00     0.029 A 
ATOM     61  N   UNL A   1      47.179  29.536  27.286  1.00  0.00    -0.354 N 
ATOM     62  N   UNL A   1      44.326  29.579  27.992  1.00  0.00    -0.248 NA
ATOM     63  C   UNL A   1      42.472  30.698  28.871  1.00  0.00     0.031 C 
ATOM     64  C   UNL A   1      48.364  31.391  27.577  1.00  0.00     0.029 A 
ATOM     65  C   UNL A   1      47.097  30.847  27.718  1.00  0.00     0.049 A 
ATOM     66  H   UNL A   1      46.431  28.895  27.279  1.00  0.00     0.167 HD
ATOM     67  C   UNL A   1      44.690  30.879  28.319  1.00  0.00     0.074 A 
ATOM     68  C   UNL A   1      43.501  31.533  28.823  1.00  0.00     0.031 C 
ATOM     69  C   UNL A   1      45.902  31.479  28.213  1.00  0.00     0.031 A 
BRANCH  56  70
ATOM     70  C   UNL A   1      50.360  27.803  26.020  1.00  0.00    -0.014 A 
ATOM     71  C   UNL A   1      51.258  27.200  26.917  1.00  0.00     0.009 A 
ATOM     72  C   UNL A   1      50.835  28.226  24.770  1.00  0.00     0.009 A 
ATOM     73  C   UNL A   1      52.607  27.067  26.589  1.00  0.00     0.001 A 
ATOM     74  C   UNL A   1      52.179  28.060  24.429  1.00  0.00     0.001 A 
ATOM     75  C   UNL A   1      53.066  27.492  25.343  1.00  0.00     0.000 A 
ENDBRANCH  56  70
BRANCH  57  76
ATOM     76  C   UNL A   1      40.696  28.404  28.508  1.00  0.00    -0.014 A 
ATOM     77  C   UNL A   1      39.753  28.966  27.633  1.00  0.00     0.009 A 
ATOM     78  C   UNL A   1      40.264  27.942  29.760  1.00  0.00     0.009 A 
ATOM     79  C   UNL A   1      38.415  29.091  28.016  1.00  0.00     0.001 A 
ATOM     80  C   UNL A   1      38.920  28.040  30.130  1.00  0.00     0.001 A 
ATOM     81  C   UNL A   1      38.000  28.624  29.261  1.00  0.00     0.000 A 
ENDBRANCH  57  76
BRANCH  69  82
ATOM     82  C   UNL A   1      45.991  32.924  28.612  1.00  0.00    -0.014 A 
ATOM     83  C   UNL A   1      45.730  33.953  27.695  1.00  0.00     0.009 A 
ATOM     84  C   UNL A   1      46.294  33.258  29.942  1.00  0.00     0.009 A 
ATOM     85  C   UNL A   1      45.805  35.288  28.094  1.00  0.00     0.001 A 
ATOM     86  C   UNL A   1      46.336  34.592  30.345  1.00  0.00     0.001 A 
ATOM     87  C   UNL A   1      46.102  35.606  29.418  1.00  0.00     0.000 A 
ENDBRANCH  69  82
ENDBRANCH  43  44
ENDBRANCH  35  38
ENDBRANCH  33  34
ENDBRANCH  32  33
ENDBRANCH  31  32
ENDBRANCH  30  31
ENDBRANCH   3  30
TORSDOF 18
ENDMDL
MODEL 3
REMARK VINA RESULT:     -11.1      1.618      6.183
REMARK SMILES CC(=O)O[C@@H]1[C@@H](O)C(C)=C(CC[C@@H](C)CC(=O)NCCCCNC(=O)c2ccc(-c3c4nc(c(-c5ccccc5)c5ccc([nH]5)c(-c5ccccc5)c5nc(c(-c6ccccc6)c6ccc3[nH]6)C=C5)C=C4)cc2)[C@@]2(C)CCCC(C)(C)[C@H]12
REMARK SMILES IDX 16 1 17 2 18 3 15 5 13 6 14 7 12 8 11 9 10 10 5 11 6 12
REMARK SMILES IDX 82 13 8 14 74 15 79 16 9 17 76 18 75 19 78 20 80 21 81 22
REMARK SMILES IDX 77 23 4 24 2 25 1 26 3 27 7 28 19 30 20 31 21 32 22 33 23 34
REMARK SMILES IDX 24 35 25 37 26 38 27 39 73 40 28 41 72 42 29 43 30 44 31 45
REMARK SMILES IDX 66 46 32 47 71 48 65 49 67 50 33 51 70 52 64 53 63 54 34 56
REMARK SMILES IDX 56 57 41 58 55 59 42 60 45 61 54 62 68 63 43 64 44 65 53 67
REMARK SMILES IDX 69 68 46 69 35 70 36 71 40 72 37 73 39 74 38 75 57 76 58 77
REMARK SMILES IDX 62 78 59 79 61 80 60 81 47 82 48 83 52 84 49 85 51 86 50 87
REMARK H PARENT 18 4 7 29 23 36 67 55 45 66
REMARK Flexibility Score: inf
ROOT
ATOM      1  C   UNL A   1      34.626  21.636  26.341  1.00  0.00     0.220 C 
ATOM      2  O   UNL A   1      34.555  22.600  27.107  1.00  0.00    -0.275 OA
ATOM      3  N   UNL A   1      35.856  21.084  26.129  1.00  0.00    -0.356 N 
ATOM      4  H   UNL A   1      36.550  21.356  26.772  1.00  0.00     0.163 HD
ENDROOT
BRANCH   1   5
ATOM      5  C   UNL A   1      33.374  21.062  25.692  1.00  0.00     0.103 C 
BRANCH   5   6
ATOM      6  C   UNL A   1      32.928  21.803  24.410  1.00  0.00    -0.005 C 
ATOM      7  C   UNL A   1      32.326  20.811  23.409  1.00  0.00     0.008 C 
BRANCH   6   8
ATOM      8  C   UNL A   1      34.118  22.530  23.771  1.00  0.00     0.008 C 
BRANCH   8   9
ATOM      9  C   UNL A   1      34.005  24.040  23.585  1.00  0.00     0.032 C 
BRANCH   9  10
ATOM     10  C   UNL A   1      32.615  24.609  23.918  1.00  0.00    -0.062 C 
ATOM     11  C   UNL A   1      31.792  27.086  22.555  1.00  0.00     0.213 C 
ATOM     12  C   UNL A   1      31.819  25.699  21.855  1.00  0.00     0.181 C 
ATOM     13  C   UNL A   1      32.806  27.122  23.753  1.00  0.00     0.049 C 
ATOM     14  C   UNL A   1      31.755  24.564  22.863  1.00  0.00    -0.042 C 
ATOM     15  C   UNL A   1      32.583  25.940  24.773  1.00  0.00    -0.004 C 
ATOM     16  C   UNL A   1      33.070  28.529  24.400  1.00  0.00    -0.028 C 
ATOM     17  C   UNL A   1      30.370  23.979  23.011  1.00  0.00     0.042 C 
ATOM     18  C   UNL A   1      33.655  25.995  25.902  1.00  0.00     0.011 C 
ATOM     19  C   UNL A   1      31.226  25.958  25.538  1.00  0.00     0.016 C 
ATOM     20  C   UNL A   1      34.242  28.394  25.404  1.00  0.00     0.007 C 
ATOM     21  C   UNL A   1      33.580  29.514  23.315  1.00  0.00     0.011 C 
ATOM     22  C   UNL A   1      31.858  29.149  25.127  1.00  0.00     0.011 C 
ATOM     23  C   UNL A   1      33.984  27.363  26.486  1.00  0.00     0.001 C 
BRANCH  11  24
ATOM     24  O   UNL A   1      30.436  27.317  22.994  1.00  0.00    -0.459 OA
BRANCH  24  25
ATOM     25  C   UNL A   1      29.708  28.367  22.554  1.00  0.00     0.303 C 
ATOM     26  C   UNL A   1      28.294  28.446  23.039  1.00  0.00     0.139 C 
ATOM     27  O   UNL A   1      30.160  29.155  21.731  1.00  0.00    -0.253 OA
ENDBRANCH  24  25
ENDBRANCH  11  24
BRANCH  12  28
ATOM     28  O   UNL A   1      33.021  25.566  21.090  1.00  0.00    -0.385 OA
ATOM     29  H   UNL A   1      32.884  24.913  20.385  1.00  0.00     0.211 HD
ENDBRANCH  12  28
ENDBRANCH   9  10
ENDBRANCH   8   9
ENDBRANCH   6   8
ENDBRANCH   5   6
ENDBRANCH   1   5
BRANCH   3  30
ATOM     30  C   UNL A   1      36.303  20.158  25.101  1.00  0.00     0.116 C 
BRANCH  30  31
ATOM     31  C   UNL A   1      37.744  20.482  24.719  1.00  0.00     0.023 C 
BRANCH  31  32
ATOM     32  C   UNL A   1      38.443  21.585  25.486  1.00  0.00     0.023 C 
BRANCH  32  33
ATOM     33  C   UNL A   1      39.418  21.085  26.525  1.00  0.00     0.116 C 
BRANCH  33  34
ATOM     34  N   UNL A   1      40.421  20.157  26.015  1.00  0.00    -0.352 N 
ATOM     35  C   UNL A   1      41.795  20.315  25.942  1.00  0.00     0.251 C 
ATOM     36  H   UNL A   1      40.074  19.301  25.675  1.00  0.00     0.163 HD
ATOM     37  O   UNL A   1      42.493  19.466  25.430  1.00  0.00    -0.269 OA
BRANCH  35  38
ATOM     38  C   UNL A   1      42.390  21.577  26.449  1.00  0.00     0.039 A 
ATOM     39  C   UNL A   1      42.638  22.621  25.556  1.00  0.00     0.014 A 
ATOM     40  C   UNL A   1      42.594  21.761  27.815  1.00  0.00     0.014 A 
ATOM     41  C   UNL A   1      42.988  23.879  26.052  1.00  0.00     0.010 A 
ATOM     42  C   UNL A   1      42.785  23.040  28.310  1.00  0.00     0.010 A 
ATOM     43  C   UNL A   1      43.005  24.113  27.437  1.00  0.00    -0.014 A 
BRANCH  43  44
ATOM     44  C   UNL A   1      43.281  25.455  28.010  1.00  0.00     0.031 A 
ATOM     45  C   UNL A   1      42.136  26.394  28.286  1.00  0.00     0.074 A 
ATOM     46  C   UNL A   1      44.552  25.863  28.199  1.00  0.00     0.049 A 
ATOM     47  N   UNL A   1      42.164  27.638  28.691  1.00  0.00    -0.248 NA
ATOM     48  C   UNL A   1      40.777  25.882  28.029  1.00  0.00     0.031 C 
ATOM     49  C   UNL A   1      45.754  25.077  27.912  1.00  0.00     0.029 A 
ATOM     50  N   UNL A   1      45.043  27.052  28.678  1.00  0.00    -0.354 N 
ATOM     51  C   UNL A   1      40.840  28.059  28.700  1.00  0.00     0.074 A 
ATOM     52  C   UNL A   1      40.042  26.969  28.192  1.00  0.00     0.031 C 
ATOM     53  C   UNL A   1      46.839  25.787  28.262  1.00  0.00     0.029 A 
ATOM     54  C   UNL A   1      46.415  27.093  28.753  1.00  0.00     0.049 A 
ATOM     55  H   UNL A   1      44.467  27.805  28.943  1.00  0.00     0.167 HD
ATOM     56  C   UNL A   1      40.325  29.236  29.127  1.00  0.00     0.031 A 
ATOM     57  C   UNL A   1      47.238  28.074  29.172  1.00  0.00     0.031 A 
ATOM     58  C   UNL A   1      41.116  30.304  29.670  1.00  0.00     0.049 A 
ATOM     59  C   UNL A   1      46.642  29.367  29.656  1.00  0.00     0.074 A 
ATOM     60  C   UNL A   1      40.689  31.508  30.201  1.00  0.00     0.029 A 
ATOM     61  N   UNL A   1      42.499  30.293  29.755  1.00  0.00    -0.354 N 
ATOM     62  N   UNL A   1      45.382  29.720  29.733  1.00  0.00    -0.248 NA
ATOM     63  C   UNL A   1      47.585  30.393  30.125  1.00  0.00     0.031 C 
ATOM     64  C   UNL A   1      41.820  32.247  30.562  1.00  0.00     0.029 A 
ATOM     65  C   UNL A   1      42.946  31.479  30.310  1.00  0.00     0.049 A 
ATOM     66  H   UNL A   1      43.078  29.552  29.463  1.00  0.00     0.167 HD
ATOM     67  C   UNL A   1      45.378  30.995  30.285  1.00  0.00     0.074 A 
ATOM     68  C   UNL A   1      46.760  31.345  30.539  1.00  0.00     0.031 C 
ATOM     69  C   UNL A   1      44.326  31.805  30.557  1.00  0.00     0.031 A 
BRANCH  56  70
ATOM     70  C   UNL A   1      38.835  29.415  29.026  1.00  0.00    -0.014 A 
ATOM     71  C   UNL A   1      38.000  29.225  30.140  1.00  0.00     0.009 A 
ATOM     72  C   UNL A   1      38.259  29.796  27.806  1.00  0.00     0.009 A 
ATOM     73  C   UNL A   1      36.617  29.366  30.022  1.00  0.00     0.001 A 
ATOM     74  C   UNL A   1      36.877  29.971  27.698  1.00  0.00     0.001 A 
ATOM     75  C   UNL A   1      36.057  29.745  28.803  1.00  0.00     0.000 A 
ENDBRANCH  56  70
BRANCH  57  76
ATOM     76  C   UNL A   1      48.710  27.865  29.180  1.00  0.00    -0.014 A 
ATOM     77  C   UNL A   1      49.346  27.319  30.306  1.00  0.00     0.009 A 
ATOM     78  C   UNL A   1      49.491  28.214  28.067  1.00  0.00     0.009 A 
ATOM     79  C   UNL A   1      50.732  27.157  30.331  1.00  0.00     0.001 A 
ATOM     80  C   UNL A   1      50.875  28.022  28.081  1.00  0.00     0.001 A 
ATOM     81  C   UNL A   1      51.495  27.503  29.217  1.00  0.00     0.000 A 
ENDBRANCH  57  76
BRANCH  69  82
ATOM     82  C   UNL A   1      44.625  33.130  31.196  1.00  0.00    -0.014 A 
ATOM     83  C   UNL A   1      44.712  33.266  32.590  1.00  0.00     0.009 A 
ATOM     84  C   UNL A   1      44.872  34.250  30.386  1.00  0.00     0.009 A 
ATOM     85  C   UNL A   1      45.007  34.505  33.160  1.00  0.00     0.001 A 
ATOM     86  C   UNL A   1      45.197  35.480  30.958  1.00  0.00     0.001 A 
ATOM     87  C   UNL A   1      45.254  35.609  32.344  1.00  0.00     0.000 A 
ENDBRANCH  69  82
ENDBRANCH  43  44
ENDBRANCH  35  38
ENDBRANCH  33  34
ENDBRANCH  32  33
ENDBRANCH  31  32
ENDBRANCH  30  31
ENDBRANCH   3  30
TORSDOF 18
ENDMDL
