MODEL 1
REMARK VINA RESULT:      -8.4      0.000      0.000
REMARK SMILES C[C@@H](C(=O)NCCCCNC(=O)c1ccc(-c2c3nc(c(-c4ccccc4)c4ccc([nH]4)c(-c4ccccc4)c4nc(c(-c5ccccc5)c5ccc2[nH]5)C=C4)C=C3)cc1)c1ccc(C(=O)c2cccs2)cc1
REMARK SMILES IDX 7 1 6 2 5 3 3 4 4 5 2 7 1 8 61 9 62 10 73 11 63 12 72 13
REMARK SMILES IDX 64 14 65 15 66 16 67 17 68 18 71 19 69 20 70 21 8 22 9 23
REMARK SMILES IDX 10 24 11 25 12 27 13 28 14 29 60 30 15 31 59 32 16 33 17 34
REMARK SMILES IDX 18 35 53 36 19 37 58 38 52 39 54 40 20 41 57 42 51 43 50 44
REMARK SMILES IDX 21 46 43 47 28 48 42 49 29 50 32 51 41 52 55 53 30 54 31 55
REMARK SMILES IDX 40 57 56 58 33 59 22 60 23 61 27 62 24 63 26 64 25 65 44 66
REMARK SMILES IDX 45 67 49 68 46 69 48 70 47 71 34 72 35 73 39 74 36 75 38 76
REMARK SMILES IDX 37 77
REMARK H PARENT 5 6 10 26 54 45 32 56
REMARK Flexibility Score: inf
ROOT
ATOM      1  C   UNL A   1      34.521  33.848  31.937  1.00  0.00     0.023 C 
ENDROOT
BRANCH   1   2
ATOM      2  C   UNL A   1      35.664  34.607  32.614  1.00  0.00     0.116 C 
BRANCH   2   3
ATOM      3  N   UNL A   1      36.829  34.666  31.759  1.00  0.00    -0.356 N 
ATOM      4  C   UNL A   1      38.147  34.454  32.044  1.00  0.00     0.227 C 
ATOM      5  O   UNL A   1      38.934  34.651  31.116  1.00  0.00    -0.274 OA
ATOM      6  H   UNL A   1      36.642  34.897  30.821  1.00  0.00     0.163 HD
BRANCH   4   7
ATOM      7  C   UNL A   1      38.567  33.955  33.439  1.00  0.00     0.105 C 
ATOM      8  C   UNL A   1      39.711  34.768  34.050  1.00  0.00     0.023 C 
BRANCH   7   9
ATOM      9  C   UNL A   1      38.967  32.482  33.478  1.00  0.00    -0.036 A 
ATOM     10  C   UNL A   1      38.105  31.472  33.026  1.00  0.00     0.005 A 
ATOM     11  C   UNL A   1      40.259  32.121  33.887  1.00  0.00     0.005 A 
ATOM     12  C   UNL A   1      38.508  30.136  33.019  1.00  0.00     0.012 A 
ATOM     13  C   UNL A   1      40.674  30.785  33.852  1.00  0.00     0.012 A 
ATOM     14  C   UNL A   1      39.797  29.777  33.430  1.00  0.00     0.023 A 
BRANCH  14  15
ATOM     15  C   UNL A   1      40.187  28.331  33.339  1.00  0.00     0.202 C 
ATOM     16  O   UNL A   1      39.365  27.532  32.894  1.00  0.00    -0.288 OA
BRANCH  15  17
ATOM     17  C   UNL A   1      41.523  27.930  33.735  1.00  0.00     0.075 A 
ATOM     18  C   UNL A   1      42.676  27.827  32.979  1.00  0.00     0.024 A 
ATOM     19  S   UNL A   1      41.802  27.531  35.376  1.00  0.00    -0.140 S 
ATOM     20  C   UNL A   1      43.781  27.361  33.749  1.00  0.00     0.012 A 
ATOM     21  C   UNL A   1      43.441  27.154  35.068  1.00  0.00     0.065 A 
ENDBRANCH  15  17
ENDBRANCH  14  15
ENDBRANCH   7   9
ENDBRANCH   4   7
ENDBRANCH   2   3
ENDBRANCH   1   2
BRANCH   1  22
ATOM     22  C   UNL A   1      34.959  32.661  31.075  1.00  0.00     0.023 C 
BRANCH  22  23
ATOM     23  C   UNL A   1      34.899  32.898  29.573  1.00  0.00     0.116 C 
BRANCH  23  24
ATOM     24  N   UNL A   1      34.113  31.894  28.877  1.00  0.00    -0.352 N 
ATOM     25  C   UNL A   1      34.523  30.717  28.309  1.00  0.00     0.251 C 
ATOM     26  H   UNL A   1      33.150  32.085  28.806  1.00  0.00     0.163 HD
ATOM     27  O   UNL A   1      33.732  30.056  27.633  1.00  0.00    -0.269 OA
BRANCH  25  28
ATOM     28  C   UNL A   1      35.913  30.247  28.484  1.00  0.00     0.039 A 
ATOM     29  C   UNL A   1      36.261  29.612  29.679  1.00  0.00     0.014 A 
ATOM     30  C   UNL A   1      36.877  30.450  27.492  1.00  0.00     0.014 A 
ATOM     31  C   UNL A   1      37.568  29.161  29.868  1.00  0.00     0.010 A 
ATOM     32  C   UNL A   1      38.155  29.922  27.646  1.00  0.00     0.010 A 
ATOM     33  C   UNL A   1      38.523  29.300  28.848  1.00  0.00    -0.014 A 
BRANCH  33  34
ATOM     34  C   UNL A   1      39.923  28.853  29.050  1.00  0.00     0.031 A 
ATOM     35  C   UNL A   1      40.918  29.773  29.707  1.00  0.00     0.074 A 
ATOM     36  C   UNL A   1      40.309  27.635  28.625  1.00  0.00     0.049 A 
ATOM     37  N   UNL A   1      42.181  29.563  29.985  1.00  0.00    -0.248 NA
ATOM     38  C   UNL A   1      40.441  31.116  30.079  1.00  0.00     0.031 C 
ATOM     39  C   UNL A   1      39.454  26.666  27.938  1.00  0.00     0.029 A 
ATOM     40  N   UNL A   1      41.523  27.002  28.716  1.00  0.00    -0.354 N 
ATOM     41  C   UNL A   1      42.647  30.748  30.541  1.00  0.00     0.074 A 
ATOM     42  C   UNL A   1      41.553  31.691  30.508  1.00  0.00     0.031 C 
ATOM     43  C   UNL A   1      40.157  25.545  27.709  1.00  0.00     0.029 A 
ATOM     44  C   UNL A   1      41.520  25.730  28.200  1.00  0.00     0.049 A 
ATOM     45  H   UNL A   1      42.321  27.421  29.113  1.00  0.00     0.167 HD
ATOM     46  C   UNL A   1      43.869  31.022  31.058  1.00  0.00     0.031 A 
ATOM     47  C   UNL A   1      42.502  24.811  28.140  1.00  0.00     0.031 A 
ATOM     48  C   UNL A   1      44.954  30.079  31.107  1.00  0.00     0.049 A 
ATOM     49  C   UNL A   1      43.849  25.138  28.722  1.00  0.00     0.074 A 
ATOM     50  C   UNL A   1      46.210  30.238  31.661  1.00  0.00     0.029 A 
ATOM     51  N   UNL A   1      44.906  28.798  30.578  1.00  0.00    -0.354 N 
ATOM     52  N   UNL A   1      44.252  26.237  29.315  1.00  0.00    -0.248 NA
ATOM     53  C   UNL A   1      44.872  24.086  28.646  1.00  0.00     0.031 C 
ATOM     54  C   UNL A   1      46.944  29.071  31.421  1.00  0.00     0.029 A 
ATOM     55  C   UNL A   1      46.121  28.162  30.776  1.00  0.00     0.049 A 
ATOM     56  H   UNL A   1      44.126  28.400  30.128  1.00  0.00     0.167 HD
ATOM     57  C   UNL A   1      45.558  25.991  29.719  1.00  0.00     0.074 A 
ATOM     58  C   UNL A   1      45.875  24.638  29.313  1.00  0.00     0.031 C 
ATOM     59  C   UNL A   1      46.417  26.812  30.372  1.00  0.00     0.031 A 
BRANCH  46  60
ATOM     60  C   UNL A   1      44.095  32.407  31.603  1.00  0.00    -0.014 A 
ATOM     61  C   UNL A   1      43.812  32.723  32.941  1.00  0.00     0.009 A 
ATOM     62  C   UNL A   1      44.620  33.407  30.768  1.00  0.00     0.009 A 
ATOM     63  C   UNL A   1      44.007  34.020  33.421  1.00  0.00     0.001 A 
ATOM     64  C   UNL A   1      44.847  34.693  31.259  1.00  0.00     0.001 A 
ATOM     65  C   UNL A   1      44.529  35.002  32.580  1.00  0.00     0.000 A 
ENDBRANCH  46  60
BRANCH  47  66
ATOM     66  C   UNL A   1      42.241  23.474  27.543  1.00  0.00    -0.014 A 
ATOM     67  C   UNL A   1      41.660  22.453  28.311  1.00  0.00     0.009 A 
ATOM     68  C   UNL A   1      42.584  23.206  26.209  1.00  0.00     0.009 A 
ATOM     69  C   UNL A   1      41.462  21.183  27.768  1.00  0.00     0.001 A 
ATOM     70  C   UNL A   1      42.355  21.943  25.658  1.00  0.00     0.001 A 
ATOM     71  C   UNL A   1      41.806  20.929  26.441  1.00  0.00     0.000 A 
ENDBRANCH  47  66
BRANCH  59  72
ATOM     72  C   UNL A   1      47.761  26.246  30.742  1.00  0.00    -0.014 A 
ATOM     73  C   UNL A   1      48.814  26.177  29.818  1.00  0.00     0.009 A 
ATOM     74  C   UNL A   1      47.978  25.793  32.055  1.00  0.00     0.009 A 
ATOM     75  C   UNL A   1      50.041  25.625  30.187  1.00  0.00     0.001 A 
ATOM     76  C   UNL A   1      49.216  25.274  32.430  1.00  0.00     0.001 A 
ATOM     77  C   UNL A   1      50.243  25.177  31.493  1.00  0.00     0.000 A 
ENDBRANCH  59  72
ENDBRANCH  33  34
ENDBRANCH  25  28
ENDBRANCH  23  24
ENDBRANCH  22  23
ENDBRANCH   1  22
TORSDOF 14
ENDMDL
MODEL 2
REMARK VINA RESULT:      -8.4      3.230      9.764
REMARK SMILES C[C@@H](C(=O)NCCCCNC(=O)c1ccc(-c2c3nc(c(-c4ccccc4)c4ccc([nH]4)c(-c4ccccc4)c4nc(c(-c5ccccc5)c5ccc2[nH]5)C=C4)C=C3)cc1)c1ccc(C(=O)c2cccs2)cc1
REMARK SMILES IDX 7 1 6 2 5 3 3 4 4 5 2 7 1 8 61 9 62 10 73 11 63 12 72 13
REMARK SMILES IDX 64 14 65 15 66 16 67 17 68 18 71 19 69 20 70 21 8 22 9 23
REMARK SMILES IDX 10 24 11 25 12 27 13 28 14 29 60 30 15 31 59 32 16 33 17 34
REMARK SMILES IDX 18 35 53 36 19 37 58 38 52 39 54 40 20 41 57 42 51 43 50 44
REMARK SMILES IDX 21 46 43 47 28 48 42 49 29 50 32 51 41 52 55 53 30 54 31 55
REMARK SMILES IDX 40 57 56 58 33 59 22 60 23 61 27 62 24 63 26 64 25 65 44 66
REMARK SMILES IDX 45 67 49 68 46 69 48 70 47 71 34 72 35 73 39 74 36 75 38 76
REMARK SMILES IDX 37 77
REMARK H PARENT 5 6 10 26 54 45 32 56
REMARK Flexibility Score: inf
ROOT
ATOM      1  C   UNL A   1      45.645  20.299  24.285  1.00  0.00     0.023 C 
ENDROOT
BRANCH   1   2
ATOM      2  C   UNL A   1      45.181  21.716  24.625  1.00  0.00     0.116 C 
BRANCH   2   3
ATOM      3  N   UNL A   1      45.945  22.267  25.723  1.00  0.00    -0.356 N 
ATOM      4  C   UNL A   1      46.551  23.482  25.857  1.00  0.00     0.227 C 
ATOM      5  O   UNL A   1      47.203  23.644  26.890  1.00  0.00    -0.274 OA
ATOM      6  H   UNL A   1      46.044  21.669  26.498  1.00  0.00     0.163 HD
BRANCH   4   7
ATOM      7  C   UNL A   1      46.363  24.564  24.777  1.00  0.00     0.105 C 
ATOM      8  C   UNL A   1      47.646  24.869  23.999  1.00  0.00     0.023 C 
BRANCH   7   9
ATOM      9  C   UNL A   1      45.814  25.886  25.310  1.00  0.00    -0.036 A 
ATOM     10  C   UNL A   1      44.445  26.187  25.262  1.00  0.00     0.005 A 
ATOM     11  C   UNL A   1      46.674  26.791  25.949  1.00  0.00     0.005 A 
ATOM     12  C   UNL A   1      43.954  27.376  25.804  1.00  0.00     0.012 A 
ATOM     13  C   UNL A   1      46.178  27.969  26.518  1.00  0.00     0.012 A 
ATOM     14  C   UNL A   1      44.814  28.280  26.439  1.00  0.00     0.023 A 
BRANCH  14  15
ATOM     15  C   UNL A   1      44.212  29.509  27.053  1.00  0.00     0.202 C 
ATOM     16  O   UNL A   1      43.055  29.449  27.465  1.00  0.00    -0.288 OA
BRANCH  15  17
ATOM     17  C   UNL A   1      45.020  30.707  27.181  1.00  0.00     0.075 A 
ATOM     18  C   UNL A   1      46.331  30.850  27.594  1.00  0.00     0.024 A 
ATOM     19  S   UNL A   1      44.322  32.210  26.751  1.00  0.00    -0.140 S 
ATOM     20  C   UNL A   1      46.742  32.215  27.609  1.00  0.00     0.012 A 
ATOM     21  C   UNL A   1      45.743  33.059  27.180  1.00  0.00     0.065 A 
ENDBRANCH  15  17
ENDBRANCH  14  15
ENDBRANCH   7   9
ENDBRANCH   4   7
ENDBRANCH   2   3
ENDBRANCH   1   2
BRANCH   1  22
ATOM     22  C   UNL A   1      44.578  19.214  24.457  1.00  0.00     0.023 C 
BRANCH  22  23
ATOM     23  C   UNL A   1      43.772  19.301  25.744  1.00  0.00     0.116 C 
BRANCH  23  24
ATOM     24  N   UNL A   1      42.351  19.078  25.532  1.00  0.00    -0.352 N 
ATOM     25  C   UNL A   1      41.288  19.844  25.931  1.00  0.00     0.251 C 
ATOM     26  H   UNL A   1      42.122  18.264  25.030  1.00  0.00     0.163 HD
ATOM     27  O   UNL A   1      40.140  19.421  25.783  1.00  0.00    -0.269 OA
BRANCH  25  28
ATOM     28  C   UNL A   1      41.511  21.165  26.556  1.00  0.00     0.039 A 
ATOM     29  C   UNL A   1      41.872  22.241  25.742  1.00  0.00     0.014 A 
ATOM     30  C   UNL A   1      41.391  21.341  27.938  1.00  0.00     0.014 A 
ATOM     31  C   UNL A   1      42.089  23.496  26.309  1.00  0.00     0.010 A 
ATOM     32  C   UNL A   1      41.521  22.612  28.490  1.00  0.00     0.010 A 
ATOM     33  C   UNL A   1      41.903  23.697  27.687  1.00  0.00    -0.014 A 
BRANCH  33  34
ATOM     34  C   UNL A   1      42.162  25.019  28.306  1.00  0.00     0.031 A 
ATOM     35  C   UNL A   1      43.543  25.359  28.803  1.00  0.00     0.074 A 
ATOM     36  C   UNL A   1      41.158  25.905  28.445  1.00  0.00     0.049 A 
ATOM     37  N   UNL A   1      43.973  26.464  29.359  1.00  0.00    -0.248 NA
ATOM     38  C   UNL A   1      44.571  24.313  28.683  1.00  0.00     0.031 C 
ATOM     39  C   UNL A   1      39.767  25.683  28.044  1.00  0.00     0.029 A 
ATOM     40  N   UNL A   1      41.156  27.177  28.959  1.00  0.00    -0.354 N 
ATOM     41  C   UNL A   1      45.307  26.235  29.671  1.00  0.00     0.074 A 
ATOM     42  C   UNL A   1      45.602  24.871  29.297  1.00  0.00     0.031 C 
ATOM     43  C   UNL A   1      39.057  26.797  28.285  1.00  0.00     0.029 A 
ATOM     44  C   UNL A   1      39.932  27.797  28.891  1.00  0.00     0.049 A 
ATOM     45  H   UNL A   1      41.956  27.606  29.341  1.00  0.00     0.167 HD
ATOM     46  C   UNL A   1      46.217  27.091  30.197  1.00  0.00     0.031 A 
ATOM     47  C   UNL A   1      39.560  29.036  29.264  1.00  0.00     0.031 A 
ATOM     48  C   UNL A   1      45.929  28.454  30.553  1.00  0.00     0.049 A 
ATOM     49  C   UNL A   1      40.588  29.967  29.844  1.00  0.00     0.074 A 
ATOM     50  C   UNL A   1      46.793  29.419  31.038  1.00  0.00     0.029 A 
ATOM     51  N   UNL A   1      44.677  29.043  30.463  1.00  0.00    -0.354 N 
ATOM     52  N   UNL A   1      41.866  29.761  30.060  1.00  0.00    -0.248 NA
ATOM     53  C   UNL A   1      40.125  31.312  30.210  1.00  0.00     0.031 C 
ATOM     54  C   UNL A   1      46.053  30.579  31.292  1.00  0.00     0.029 A 
ATOM     55  C   UNL A   1      44.742  30.355  30.902  1.00  0.00     0.049 A 
ATOM     56  H   UNL A   1      43.863  28.595  30.135  1.00  0.00     0.167 HD
ATOM     57  C   UNL A   1      42.365  30.963  30.547  1.00  0.00     0.074 A 
ATOM     58  C   UNL A   1      41.256  31.893  30.583  1.00  0.00     0.031 C 
ATOM     59  C   UNL A   1      43.630  31.269  30.925  1.00  0.00     0.031 A 
BRANCH  46  60
ATOM     60  C   UNL A   1      47.608  26.565  30.426  1.00  0.00    -0.014 A 
ATOM     61  C   UNL A   1      48.009  26.077  31.681  1.00  0.00     0.009 A 
ATOM     62  C   UNL A   1      48.526  26.537  29.365  1.00  0.00     0.009 A 
ATOM     63  C   UNL A   1      49.312  25.614  31.878  1.00  0.00     0.001 A 
ATOM     64  C   UNL A   1      49.817  26.042  29.556  1.00  0.00     0.001 A 
ATOM     65  C   UNL A   1      50.212  25.593  30.814  1.00  0.00     0.000 A 
ENDBRANCH  46  60
BRANCH  47  66
ATOM     66  C   UNL A   1      38.157  29.488  29.064  1.00  0.00    -0.014 A 
ATOM     67  C   UNL A   1      37.739  29.976  27.816  1.00  0.00     0.009 A 
ATOM     68  C   UNL A   1      37.235  29.451  30.120  1.00  0.00     0.009 A 
ATOM     69  C   UNL A   1      36.438  30.449  27.640  1.00  0.00     0.001 A 
ATOM     70  C   UNL A   1      35.925  29.895  29.933  1.00  0.00     0.001 A 
ATOM     71  C   UNL A   1      35.530  30.405  28.697  1.00  0.00     0.000 A 
ENDBRANCH  47  66
BRANCH  59  72
ATOM     72  C   UNL A   1      43.894  32.688  31.353  1.00  0.00    -0.014 A 
ATOM     73  C   UNL A   1      43.825  33.079  32.698  1.00  0.00     0.009 A 
ATOM     74  C   UNL A   1      44.242  33.645  30.384  1.00  0.00     0.009 A 
ATOM     75  C   UNL A   1      44.054  34.408  33.059  1.00  0.00     0.001 A 
ATOM     76  C   UNL A   1      44.504  34.963  30.752  1.00  0.00     0.001 A 
ATOM     77  C   UNL A   1      44.396  35.348  32.088  1.00  0.00     0.000 A 
ENDBRANCH  59  72
ENDBRANCH  33  34
ENDBRANCH  25  28
ENDBRANCH  23  24
ENDBRANCH  22  23
ENDBRANCH   1  22
TORSDOF 14
ENDMDL
MODEL 3
REMARK VINA RESULT:      -8.4      2.118      3.723
REMARK SMILES C[C@@H](C(=O)NCCCCNC(=O)c1ccc(-c2c3nc(c(-c4ccccc4)c4ccc([nH]4)c(-c4ccccc4)c4nc(c(-c5ccccc5)c5ccc2[nH]5)C=C4)C=C3)cc1)c1ccc(C(=O)c2cccs2)cc1
REMARK SMILES IDX 7 1 6 2 5 3 3 4 4 5 2 7 1 8 61 9 62 10 73 11 63 12 72 13
REMARK SMILES IDX 64 14 65 15 66 16 67 17 68 18 71 19 69 20 70 21 8 22 9 23
REMARK SMILES IDX 10 24 11 25 12 27 13 28 14 29 60 30 15 31 59 32 16 33 17 34
REMARK SMILES IDX 18 35 53 36 19 37 58 38 52 39 54 40 20 41 57 42 51 43 50 44
REMARK SMILES IDX 21 46 43 47 28 48 42 49 29 50 32 51 41 52 55 53 30 54 31 55
REMARK SMILES IDX 40 57 56 58 33 59 22 60 23 61 27 62 24 63 26 64 25 65 44 66
REMARK SMILES IDX 45 67 49 68 46 69 48 70 47 71 34 72 35 73 39 74 36 75 38 76
REMARK SMILES IDX 37 77
REMARK H PARENT 5 6 10 26 54 45 32 56
REMARK Flexibility Score: inf
ROOT
ATOM      1  C   UNL A   1      34.429  35.597  28.729  1.00  0.00     0.023 C 
ENDROOT
BRANCH   1   2
ATOM      2  C   UNL A   1      33.184  36.468  28.911  1.00  0.00     0.116 C 
BRANCH   2   3
ATOM      3  N   UNL A   1      33.352  37.396  30.008  1.00  0.00    -0.356 N 
ATOM      4  C   UNL A   1      33.098  37.247  31.340  1.00  0.00     0.227 C 
ATOM      5  O   UNL A   1      33.271  38.251  32.034  1.00  0.00    -0.274 OA
ATOM      6  H   UNL A   1      33.706  38.278  29.751  1.00  0.00     0.163 HD
BRANCH   4   7
ATOM      7  C   UNL A   1      32.670  35.877  31.899  1.00  0.00     0.105 C 
ATOM      8  C   UNL A   1      31.562  35.975  32.950  1.00  0.00     0.023 C 
BRANCH   7   9
ATOM      9  C   UNL A   1      33.815  35.065  32.499  1.00  0.00    -0.036 A 
ATOM     10  C   UNL A   1      35.100  35.605  32.652  1.00  0.00     0.005 A 
ATOM     11  C   UNL A   1      33.569  33.779  33.000  1.00  0.00     0.005 A 
ATOM     12  C   UNL A   1      36.121  34.867  33.254  1.00  0.00     0.012 A 
ATOM     13  C   UNL A   1      34.584  33.049  33.629  1.00  0.00     0.012 A 
ATOM     14  C   UNL A   1      35.875  33.581  33.750  1.00  0.00     0.023 A 
BRANCH  14  15
ATOM     15  C   UNL A   1      36.999  32.866  34.440  1.00  0.00     0.202 C 
ATOM     16  O   UNL A   1      37.227  31.699  34.126  1.00  0.00    -0.288 OA
BRANCH  15  17
ATOM     17  C   UNL A   1      37.802  33.578  35.414  1.00  0.00     0.075 A 
ATOM     18  C   UNL A   1      38.819  34.496  35.222  1.00  0.00     0.024 A 
ATOM     19  S   UNL A   1      37.490  33.317  37.077  1.00  0.00    -0.140 S 
ATOM     20  C   UNL A   1      39.379  34.941  36.455  1.00  0.00     0.012 A 
ATOM     21  C   UNL A   1      38.753  34.371  37.541  1.00  0.00     0.065 A 
ENDBRANCH  15  17
ENDBRANCH  14  15
ENDBRANCH   7   9
ENDBRANCH   4   7
ENDBRANCH   2   3
ENDBRANCH   1   2
BRANCH   1  22
ATOM     22  C   UNL A   1      34.248  34.128  29.119  1.00  0.00     0.023 C 
BRANCH  22  23
ATOM     23  C   UNL A   1      34.908  33.126  28.182  1.00  0.00     0.116 C 
BRANCH  23  24
ATOM     24  N   UNL A   1      34.034  32.015  27.845  1.00  0.00    -0.352 N 
ATOM     25  C   UNL A   1      34.328  30.680  27.760  1.00  0.00     0.251 C 
ATOM     26  H   UNL A   1      33.100  32.255  27.651  1.00  0.00     0.163 HD
ATOM     27  O   UNL A   1      33.488  29.895  27.318  1.00  0.00    -0.269 OA
BRANCH  25  28
ATOM     28  C   UNL A   1      35.655  30.179  28.175  1.00  0.00     0.039 A 
ATOM     29  C   UNL A   1      35.833  29.766  29.497  1.00  0.00     0.014 A 
ATOM     30  C   UNL A   1      36.728  30.139  27.279  1.00  0.00     0.014 A 
ATOM     31  C   UNL A   1      37.077  29.291  29.914  1.00  0.00     0.010 A 
ATOM     32  C   UNL A   1      37.942  29.584  27.672  1.00  0.00     0.010 A 
ATOM     33  C   UNL A   1      38.139  29.183  29.001  1.00  0.00    -0.014 A 
BRANCH  33  34
ATOM     34  C   UNL A   1      39.475  28.710  29.439  1.00  0.00     0.031 A 
ATOM     35  C   UNL A   1      40.273  29.520  30.427  1.00  0.00     0.074 A 
ATOM     36  C   UNL A   1      39.983  27.569  28.937  1.00  0.00     0.049 A 
ATOM     37  N   UNL A   1      41.450  29.270  30.943  1.00  0.00    -0.248 NA
ATOM     38  C   UNL A   1      39.683  30.792  30.876  1.00  0.00     0.031 C 
ATOM     39  C   UNL A   1      39.330  26.714  27.943  1.00  0.00     0.029 A 
ATOM     40  N   UNL A   1      41.167  26.928  29.199  1.00  0.00    -0.354 N 
ATOM     41  C   UNL A   1      41.745  30.357  31.754  1.00  0.00     0.074 A 
ATOM     42  C   UNL A   1      40.655  31.296  31.619  1.00  0.00     0.031 C 
ATOM     43  C   UNL A   1      40.102  25.638  27.714  1.00  0.00     0.029 A 
ATOM     44  C   UNL A   1      41.318  25.747  28.515  1.00  0.00     0.049 A 
ATOM     45  H   UNL A   1      41.846  27.282  29.819  1.00  0.00     0.167 HD
ATOM     46  C   UNL A   1      42.816  30.550  32.563  1.00  0.00     0.031 A 
ATOM     47  C   UNL A   1      42.319  24.846  28.539  1.00  0.00     0.031 A 
ATOM     48  C   UNL A   1      43.893  29.609  32.711  1.00  0.00     0.049 A 
ATOM     49  C   UNL A   1      43.495  25.082  29.446  1.00  0.00     0.074 A 
ATOM     50  C   UNL A   1      44.993  29.682  33.546  1.00  0.00     0.029 A 
ATOM     51  N   UNL A   1      44.004  28.422  32.003  1.00  0.00    -0.354 N 
ATOM     52  N   UNL A   1      43.723  26.079  30.267  1.00  0.00    -0.248 NA
ATOM     53  C   UNL A   1      44.543  24.052  29.444  1.00  0.00     0.031 C 
ATOM     54  C   UNL A   1      45.798  28.564  33.306  1.00  0.00     0.029 A 
ATOM     55  C   UNL A   1      45.165  27.763  32.369  1.00  0.00     0.049 A 
ATOM     56  H   UNL A   1      43.353  28.097  31.339  1.00  0.00     0.167 HD
ATOM     57  C   UNL A   1      44.917  25.775  30.909  1.00  0.00     0.074 A 
ATOM     58  C   UNL A   1      45.358  24.497  30.390  1.00  0.00     0.031 C 
ATOM     59  C   UNL A   1      45.586  26.488  31.848  1.00  0.00     0.031 A 
BRANCH  46  60
ATOM     60  C   UNL A   1      42.873  31.838  33.340  1.00  0.00    -0.014 A 
ATOM     61  C   UNL A   1      43.487  32.985  32.813  1.00  0.00     0.009 A 
ATOM     62  C   UNL A   1      42.282  31.911  34.612  1.00  0.00     0.009 A 
ATOM     63  C   UNL A   1      43.549  34.164  33.559  1.00  0.00     0.001 A 
ATOM     64  C   UNL A   1      42.314  33.100  35.342  1.00  0.00     0.001 A 
ATOM     65  C   UNL A   1      42.958  34.221  34.821  1.00  0.00     0.000 A 
ENDBRANCH  46  60
BRANCH  47  66
ATOM     66  C   UNL A   1      42.237  23.614  27.711  1.00  0.00    -0.014 A 
ATOM     67  C   UNL A   1      41.675  22.440  28.236  1.00  0.00     0.009 A 
ATOM     68  C   UNL A   1      42.734  23.599  26.399  1.00  0.00     0.009 A 
ATOM     69  C   UNL A   1      41.645  21.268  27.477  1.00  0.00     0.001 A 
ATOM     70  C   UNL A   1      42.673  22.435  25.631  1.00  0.00     0.001 A 
ATOM     71  C   UNL A   1      42.140  21.267  26.175  1.00  0.00     0.000 A 
ENDBRANCH  47  66
BRANCH  59  72
ATOM     72  C   UNL A   1      46.834  25.871  32.419  1.00  0.00    -0.014 A 
ATOM     73  C   UNL A   1      46.801  25.068  33.568  1.00  0.00     0.009 A 
ATOM     74  C   UNL A   1      48.064  26.085  31.773  1.00  0.00     0.009 A 
ATOM     75  C   UNL A   1      47.981  24.528  34.085  1.00  0.00     0.001 A 
ATOM     76  C   UNL A   1      49.235  25.517  32.272  1.00  0.00     0.001 A 
ATOM     77  C   UNL A   1      49.195  24.750  33.435  1.00  0.00     0.000 A 
ENDBRANCH  59  72
ENDBRANCH  33  34
ENDBRANCH  25  28
ENDBRANCH  23  24
ENDBRANCH  22  23
ENDBRANCH   1  22
TORSDOF 14
ENDMDL
