MODEL 1
REMARK VINA RESULT:     -10.0      0.000      0.000
REMARK SMILES CCC[N@H+](CC)[C@H]1CC[C@]([NH2+]C)(C(=O)NCCCCNC(=O)c2ccc(-c3c4nc(c(-c5ccccc5)c5ccc([nH]5)c(-c5ccccc5)c5nc(c(-c6ccccc6)c6ccc3[nH]6)C=C5)C=C4)cc2)C1
REMARK SMILES IDX 17 1 16 2 15 3 13 4 14 5 10 7 7 8 8 9 71 10 9 11 4 12 3 14
REMARK SMILES IDX 2 15 1 16 5 17 6 18 11 19 12 20 18 23 19 24 20 25 21 26
REMARK SMILES IDX 22 28 23 29 24 30 70 31 25 32 69 33 26 34 27 35 28 36 63 37
REMARK SMILES IDX 29 38 68 39 62 40 64 41 30 42 67 43 61 44 60 45 31 47 53 48
REMARK SMILES IDX 38 49 52 50 39 51 42 52 51 53 65 54 40 55 41 56 50 58 66 59
REMARK SMILES IDX 43 60 32 61 33 62 37 63 34 64 36 65 35 66 54 67 55 68 59 69
REMARK SMILES IDX 56 70 58 71 57 72 44 73 45 74 49 75 46 76 48 77 47 78
REMARK H PARENT 15 6 4 13 11 21 11 22 20 27 64 46 42 57
REMARK Flexibility Score: inf
ROOT
ATOM      1  C   UNL A   1      31.595  30.439  26.639  1.00  0.00     0.023 C 
ENDROOT
BRANCH   1   2
ATOM      2  C   UNL A   1      32.277  29.814  25.418  1.00  0.00     0.116 C 
BRANCH   2   3
ATOM      3  N   UNL A   1      31.329  29.707  24.329  1.00  0.00    -0.351 N 
ATOM      4  C   UNL A   1      31.272  28.854  23.266  1.00  0.00     0.281 C 
ATOM      5  O   UNL A   1      30.652  29.290  22.287  1.00  0.00    -0.268 OA
ATOM      6  H   UNL A   1      30.598  30.367  24.361  1.00  0.00     0.163 HD
BRANCH   4   7
ATOM      7  C   UNL A   1      31.790  27.376  23.309  1.00  0.00     0.181 C 
ATOM      8  C   UNL A   1      33.571  25.749  22.700  1.00  0.00     0.191 C 
ATOM      9  C   UNL A   1      32.586  25.856  21.516  1.00  0.00     0.072 C 
ATOM     10  C   UNL A   1      33.305  27.123  23.336  1.00  0.00     0.144 C 
ATOM     11  C   UNL A   1      31.386  26.682  21.983  1.00  0.00     0.085 C 
BRANCH   8  12
ATOM     12  N   UNL A   1      33.419  24.537  23.572  1.00  0.00    -0.333 N 
ATOM     13  H   UNL A   1      32.505  24.569  24.025  1.00  0.00     0.348 HD
BRANCH  12  14
ATOM     14  C   UNL A   1      34.477  24.481  24.628  1.00  0.00     0.262 C 
BRANCH  14  15
ATOM     15  C   UNL A   1      34.081  23.919  26.003  1.00  0.00     0.058 C 
ATOM     16  C   UNL A   1      32.607  24.056  26.349  1.00  0.00     0.010 C 
ENDBRANCH  14  15
ENDBRANCH  12  14
BRANCH  12  17
ATOM     17  C   UNL A   1      33.596  23.334  22.697  1.00  0.00     0.258 C 
ATOM     18  C   UNL A   1      32.625  22.188  22.967  1.00  0.00     0.071 C 
ENDBRANCH  12  17
ENDBRANCH   8  12
BRANCH   7  19
ATOM     19  N   UNL A   1      31.076  26.627  24.375  1.00  0.00    -0.336 N 
ATOM     20  C   UNL A   1      29.677  26.341  24.124  1.00  0.00     0.331 C 
ATOM     21  H   UNL A   1      31.133  27.175  25.233  1.00  0.00     0.346 HD
ATOM     22  H   UNL A   1      31.537  25.719  24.430  1.00  0.00     0.346 HD
ENDBRANCH   7  19
ENDBRANCH   4   7
ENDBRANCH   2   3
ENDBRANCH   1   2
BRANCH   1  23
ATOM     23  C   UNL A   1      31.515  31.967  26.574  1.00  0.00     0.023 C 
BRANCH  23  24
ATOM     24  C   UNL A   1      32.652  32.686  27.290  1.00  0.00     0.116 C 
BRANCH  24  25
ATOM     25  N   UNL A   1      32.338  34.067  27.625  1.00  0.00    -0.352 N 
ATOM     26  C   UNL A   1      32.977  34.883  28.528  1.00  0.00     0.251 C 
ATOM     27  H   UNL A   1      31.574  34.465  27.147  1.00  0.00     0.163 HD
ATOM     28  O   UNL A   1      32.546  35.994  28.791  1.00  0.00    -0.269 OA
BRANCH  26  29
ATOM     29  C   UNL A   1      34.175  34.361  29.211  1.00  0.00     0.039 A 
ATOM     30  C   UNL A   1      34.013  33.645  30.398  1.00  0.00     0.014 A 
ATOM     31  C   UNL A   1      35.439  34.518  28.636  1.00  0.00     0.014 A 
ATOM     32  C   UNL A   1      35.120  33.027  30.980  1.00  0.00     0.010 A 
ATOM     33  C   UNL A   1      36.526  33.847  29.180  1.00  0.00     0.010 A 
ATOM     34  C   UNL A   1      36.376  33.093  30.355  1.00  0.00    -0.014 A 
BRANCH  34  35
ATOM     35  C   UNL A   1      37.549  32.383  30.917  1.00  0.00     0.031 A 
ATOM     36  C   UNL A   1      38.205  32.894  32.168  1.00  0.00     0.074 A 
ATOM     37  C   UNL A   1      38.059  31.319  30.267  1.00  0.00     0.049 A 
ATOM     38  N   UNL A   1      39.277  32.453  32.776  1.00  0.00    -0.248 NA
ATOM     39  C   UNL A   1      37.592  34.070  32.807  1.00  0.00     0.031 C 
ATOM     40  C   UNL A   1      37.537  30.753  29.020  1.00  0.00     0.029 A 
ATOM     41  N   UNL A   1      39.138  30.526  30.563  1.00  0.00    -0.354 N 
ATOM     42  C   UNL A   1      39.471  33.302  33.857  1.00  0.00     0.074 A 
ATOM     43  C   UNL A   1      38.440  34.316  33.794  1.00  0.00     0.031 C 
ATOM     44  C   UNL A   1      38.283  29.691  28.673  1.00  0.00     0.029 A 
ATOM     45  C   UNL A   1      39.354  29.523  29.649  1.00  0.00     0.049 A 
ATOM     46  H   UNL A   1      39.705  30.663  31.357  1.00  0.00     0.167 HD
ATOM     47  C   UNL A   1      40.409  33.233  34.830  1.00  0.00     0.031 A 
ATOM     48  C   UNL A   1      40.313  28.580  29.601  1.00  0.00     0.031 A 
ATOM     49  C   UNL A   1      41.425  32.218  34.901  1.00  0.00     0.049 A 
ATOM     50  C   UNL A   1      41.347  28.531  30.691  1.00  0.00     0.074 A 
ATOM     51  C   UNL A   1      42.396  32.038  35.871  1.00  0.00     0.029 A 
ATOM     52  N   UNL A   1      41.597  31.210  33.967  1.00  0.00    -0.354 N 
ATOM     53  N   UNL A   1      41.480  29.305  31.740  1.00  0.00    -0.248 NA
ATOM     54  C   UNL A   1      42.357  27.467  30.596  1.00  0.00     0.031 C 
ATOM     55  C   UNL A   1      43.181  30.941  35.503  1.00  0.00     0.029 A 
ATOM     56  C   UNL A   1      42.666  30.411  34.330  1.00  0.00     0.049 A 
ATOM     57  H   UNL A   1      41.041  31.082  33.165  1.00  0.00     0.167 HD
ATOM     58  C   UNL A   1      42.567  28.805  32.445  1.00  0.00     0.074 A 
ATOM     59  C   UNL A   1      43.047  27.651  31.713  1.00  0.00     0.031 C 
ATOM     60  C   UNL A   1      43.121  29.261  33.593  1.00  0.00     0.031 A 
BRANCH  47  61
ATOM     61  C   UNL A   1      40.373  34.283  35.903  1.00  0.00    -0.014 A 
ATOM     62  C   UNL A   1      41.095  35.480  35.767  1.00  0.00     0.009 A 
ATOM     63  C   UNL A   1      39.576  34.097  37.043  1.00  0.00     0.009 A 
ATOM     64  C   UNL A   1      41.043  36.455  36.763  1.00  0.00     0.001 A 
ATOM     65  C   UNL A   1      39.504  35.086  38.024  1.00  0.00     0.001 A 
ATOM     66  C   UNL A   1      40.243  36.261  37.888  1.00  0.00     0.000 A 
ENDBRANCH  47  61
BRANCH  48  67
ATOM     67  C   UNL A   1      40.340  27.591  28.491  1.00  0.00    -0.014 A 
ATOM     68  C   UNL A   1      39.649  26.375  28.603  1.00  0.00     0.009 A 
ATOM     69  C   UNL A   1      41.080  27.846  27.327  1.00  0.00     0.009 A 
ATOM     70  C   UNL A   1      39.730  25.418  27.588  1.00  0.00     0.001 A 
ATOM     71  C   UNL A   1      41.135  26.900  26.300  1.00  0.00     0.001 A 
ATOM     72  C   UNL A   1      40.470  25.682  26.437  1.00  0.00     0.000 A 
ENDBRANCH  48  67
BRANCH  60  73
ATOM     73  C   UNL A   1      44.279  28.485  34.152  1.00  0.00    -0.014 A 
ATOM     74  C   UNL A   1      45.605  28.841  33.858  1.00  0.00     0.009 A 
ATOM     75  C   UNL A   1      44.038  27.408  35.018  1.00  0.00     0.009 A 
ATOM     76  C   UNL A   1      46.665  28.111  34.396  1.00  0.00     0.001 A 
ATOM     77  C   UNL A   1      45.100  26.697  35.577  1.00  0.00     0.001 A 
ATOM     78  C   UNL A   1      46.413  27.044  35.259  1.00  0.00     0.000 A 
ENDBRANCH  60  73
ENDBRANCH  34  35
ENDBRANCH  26  29
ENDBRANCH  24  25
ENDBRANCH  23  24
ENDBRANCH   1  23
TORSDOF 16
ENDMDL
MODEL 2
REMARK VINA RESULT:      -9.9      5.108     10.042
REMARK SMILES CCC[N@H+](CC)[C@H]1CC[C@]([NH2+]C)(C(=O)NCCCCNC(=O)c2ccc(-c3c4nc(c(-c5ccccc5)c5ccc([nH]5)c(-c5ccccc5)c5nc(c(-c6ccccc6)c6ccc3[nH]6)C=C5)C=C4)cc2)C1
REMARK SMILES IDX 17 1 16 2 15 3 13 4 14 5 10 7 7 8 8 9 71 10 9 11 4 12 3 14
REMARK SMILES IDX 2 15 1 16 5 17 6 18 11 19 12 20 18 23 19 24 20 25 21 26
REMARK SMILES IDX 22 28 23 29 24 30 70 31 25 32 69 33 26 34 27 35 28 36 63 37
REMARK SMILES IDX 29 38 68 39 62 40 64 41 30 42 67 43 61 44 60 45 31 47 53 48
REMARK SMILES IDX 38 49 52 50 39 51 42 52 51 53 65 54 40 55 41 56 50 58 66 59
REMARK SMILES IDX 43 60 32 61 33 62 37 63 34 64 36 65 35 66 54 67 55 68 59 69
REMARK SMILES IDX 56 70 58 71 57 72 44 73 45 74 49 75 46 76 48 77 47 78
REMARK H PARENT 15 6 4 13 11 21 11 22 20 27 64 46 42 57
REMARK Flexibility Score: inf
ROOT
ATOM      1  C   UNL A   1      37.124  21.116  24.677  1.00  0.00     0.023 C 
ENDROOT
BRANCH   1   2
ATOM      2  C   UNL A   1      36.040  21.360  25.732  1.00  0.00     0.116 C 
BRANCH   2   3
ATOM      3  N   UNL A   1      34.900  20.507  25.468  1.00  0.00    -0.351 N 
ATOM      4  C   UNL A   1      33.563  20.713  25.642  1.00  0.00     0.281 C 
ATOM      5  O   UNL A   1      32.894  19.680  25.778  1.00  0.00    -0.268 OA
ATOM      6  H   UNL A   1      35.131  19.622  25.101  1.00  0.00     0.163 HD
BRANCH   4   7
ATOM      7  C   UNL A   1      32.875  22.116  25.514  1.00  0.00     0.181 C 
ATOM      8  C   UNL A   1      31.811  24.051  26.657  1.00  0.00     0.191 C 
ATOM      9  C   UNL A   1      30.725  22.983  26.399  1.00  0.00     0.072 C 
ATOM     10  C   UNL A   1      33.037  23.126  26.660  1.00  0.00     0.144 C 
ATOM     11  C   UNL A   1      31.340  21.904  25.506  1.00  0.00     0.085 C 
BRANCH   8  12
ATOM     12  N   UNL A   1      31.820  25.218  25.714  1.00  0.00    -0.333 N 
ATOM     13  H   UNL A   1      31.965  24.873  24.764  1.00  0.00     0.348 HD
BRANCH  12  14
ATOM     14  C   UNL A   1      32.911  26.187  26.045  1.00  0.00     0.262 C 
BRANCH  14  15
ATOM     15  C   UNL A   1      33.751  26.738  24.881  1.00  0.00     0.058 C 
ATOM     16  C   UNL A   1      33.605  28.232  24.641  1.00  0.00     0.010 C 
ENDBRANCH  14  15
ENDBRANCH  12  14
BRANCH  12  17
ATOM     17  C   UNL A   1      30.517  25.937  25.881  1.00  0.00     0.258 C 
ATOM     18  C   UNL A   1      29.878  26.432  24.586  1.00  0.00     0.071 C 
ENDBRANCH  12  17
ENDBRANCH   8  12
BRANCH   7  19
ATOM     19  N   UNL A   1      33.195  22.710  24.190  1.00  0.00    -0.336 N 
ATOM     20  C   UNL A   1      32.439  22.197  23.064  1.00  0.00     0.331 C 
ATOM     21  H   UNL A   1      34.184  22.543  24.004  1.00  0.00     0.346 HD
ATOM     22  H   UNL A   1      32.945  23.696  24.264  1.00  0.00     0.346 HD
ENDBRANCH   7  19
ENDBRANCH   4   7
ENDBRANCH   2   3
ENDBRANCH   1   2
BRANCH   1  23
ATOM     23  C   UNL A   1      38.024  19.919  24.997  1.00  0.00     0.023 C 
BRANCH  23  24
ATOM     24  C   UNL A   1      39.257  20.264  25.824  1.00  0.00     0.116 C 
BRANCH  24  25
ATOM     25  N   UNL A   1      40.242  19.194  25.861  1.00  0.00    -0.352 N 
ATOM     26  C   UNL A   1      41.586  19.291  26.136  1.00  0.00     0.251 C 
ATOM     27  H   UNL A   1      39.905  18.289  25.666  1.00  0.00     0.163 HD
ATOM     28  O   UNL A   1      42.323  18.324  26.033  1.00  0.00    -0.269 OA
BRANCH  26  29
ATOM     29  C   UNL A   1      42.125  20.612  26.513  1.00  0.00     0.039 A 
ATOM     30  C   UNL A   1      42.546  21.477  25.504  1.00  0.00     0.014 A 
ATOM     31  C   UNL A   1      42.139  21.010  27.852  1.00  0.00     0.014 A 
ATOM     32  C   UNL A   1      42.926  22.779  25.834  1.00  0.00     0.010 A 
ATOM     33  C   UNL A   1      42.454  22.325  28.171  1.00  0.00     0.010 A 
ATOM     34  C   UNL A   1      42.847  23.221  27.165  1.00  0.00    -0.014 A 
BRANCH  34  35
ATOM     35  C   UNL A   1      43.175  24.620  27.526  1.00  0.00     0.031 A 
ATOM     36  C   UNL A   1      44.610  25.064  27.575  1.00  0.00     0.074 A 
ATOM     37  C   UNL A   1      42.188  25.470  27.871  1.00  0.00     0.049 A 
ATOM     38  N   UNL A   1      45.103  26.223  27.933  1.00  0.00    -0.248 NA
ATOM     39  C   UNL A   1      45.627  24.068  27.197  1.00  0.00     0.031 C 
ATOM     40  C   UNL A   1      40.760  25.145  27.905  1.00  0.00     0.029 A 
ATOM     41  N   UNL A   1      42.239  26.782  28.268  1.00  0.00    -0.354 N 
ATOM     42  C   UNL A   1      46.482  26.090  27.834  1.00  0.00     0.074 A 
ATOM     43  C   UNL A   1      46.752  24.726  27.434  1.00  0.00     0.031 C 
ATOM     44  C   UNL A   1      40.070  26.236  28.277  1.00  0.00     0.029 A 
ATOM     45  C   UNL A   1      41.007  27.323  28.543  1.00  0.00     0.049 A 
ATOM     46  H   UNL A   1      43.080  27.288  28.347  1.00  0.00     0.167 HD
ATOM     47  C   UNL A   1      47.438  27.026  28.034  1.00  0.00     0.031 A 
ATOM     48  C   UNL A   1      40.672  28.555  28.968  1.00  0.00     0.031 A 
ATOM     49  C   UNL A   1      47.170  28.385  28.417  1.00  0.00     0.049 A 
ATOM     50  C   UNL A   1      41.755  29.573  29.191  1.00  0.00     0.074 A 
ATOM     51  C   UNL A   1      48.069  29.421  28.604  1.00  0.00     0.029 A 
ATOM     52  N   UNL A   1      45.908  28.898  28.667  1.00  0.00    -0.354 N 
ATOM     53  N   UNL A   1      43.050  29.449  29.033  1.00  0.00    -0.248 NA
ATOM     54  C   UNL A   1      41.327  30.907  29.636  1.00  0.00     0.031 C 
ATOM     55  C   UNL A   1      47.352  30.553  29.005  1.00  0.00     0.029 A 
ATOM     56  C   UNL A   1      46.004  30.232  29.019  1.00  0.00     0.049 A 
ATOM     57  H   UNL A   1      45.068  28.389  28.603  1.00  0.00     0.167 HD
ATOM     58  C   UNL A   1      43.589  30.694  29.331  1.00  0.00     0.074 A 
ATOM     59  C   UNL A   1      42.479  31.563  29.662  1.00  0.00     0.031 C 
ATOM     60  C   UNL A   1      44.887  31.083  29.334  1.00  0.00     0.031 A 
BRANCH  47  61
ATOM     61  C   UNL A   1      48.867  26.609  27.833  1.00  0.00    -0.014 A 
ATOM     62  C   UNL A   1      49.632  26.115  28.903  1.00  0.00     0.009 A 
ATOM     63  C   UNL A   1      49.445  26.670  26.556  1.00  0.00     0.009 A 
ATOM     64  C   UNL A   1      50.954  25.717  28.702  1.00  0.00     0.001 A 
ATOM     65  C   UNL A   1      50.759  26.246  26.354  1.00  0.00     0.001 A 
ATOM     66  C   UNL A   1      51.515  25.777  27.427  1.00  0.00     0.000 A 
ENDBRANCH  47  61
BRANCH  48  67
ATOM     67  C   UNL A   1      39.247  28.908  29.203  1.00  0.00    -0.014 A 
ATOM     68  C   UNL A   1      38.667  28.729  30.469  1.00  0.00     0.009 A 
ATOM     69  C   UNL A   1      38.450  29.396  28.157  1.00  0.00     0.009 A 
ATOM     70  C   UNL A   1      37.312  28.997  30.672  1.00  0.00     0.001 A 
ATOM     71  C   UNL A   1      37.102  29.692  28.370  1.00  0.00     0.001 A 
ATOM     72  C   UNL A   1      36.531  29.480  29.624  1.00  0.00     0.000 A 
ENDBRANCH  48  67
BRANCH  60  73
ATOM     73  C   UNL A   1      45.171  32.520  29.662  1.00  0.00    -0.014 A 
ATOM     74  C   UNL A   1      45.434  32.929  30.979  1.00  0.00     0.009 A 
ATOM     75  C   UNL A   1      45.217  33.471  28.630  1.00  0.00     0.009 A 
ATOM     76  C   UNL A   1      45.705  34.269  31.259  1.00  0.00     0.001 A 
ATOM     77  C   UNL A   1      45.516  34.804  28.909  1.00  0.00     0.001 A 
ATOM     78  C   UNL A   1      45.752  35.204  30.224  1.00  0.00     0.000 A 
ENDBRANCH  60  73
ENDBRANCH  34  35
ENDBRANCH  26  29
ENDBRANCH  24  25
ENDBRANCH  23  24
ENDBRANCH   1  23
TORSDOF 16
ENDMDL
MODEL 3
REMARK VINA RESULT:      -9.7      4.880      9.371
REMARK SMILES CCC[N@H+](CC)[C@H]1CC[C@]([NH2+]C)(C(=O)NCCCCNC(=O)c2ccc(-c3c4nc(c(-c5ccccc5)c5ccc([nH]5)c(-c5ccccc5)c5nc(c(-c6ccccc6)c6ccc3[nH]6)C=C5)C=C4)cc2)C1
REMARK SMILES IDX 17 1 16 2 15 3 13 4 14 5 10 7 7 8 8 9 71 10 9 11 4 12 3 14
REMARK SMILES IDX 2 15 1 16 5 17 6 18 11 19 12 20 18 23 19 24 20 25 21 26
REMARK SMILES IDX 22 28 23 29 24 30 70 31 25 32 69 33 26 34 27 35 28 36 63 37
REMARK SMILES IDX 29 38 68 39 62 40 64 41 30 42 67 43 61 44 60 45 31 47 53 48
REMARK SMILES IDX 38 49 52 50 39 51 42 52 51 53 65 54 40 55 41 56 50 58 66 59
REMARK SMILES IDX 43 60 32 61 33 62 37 63 34 64 36 65 35 66 54 67 55 68 59 69
REMARK SMILES IDX 56 70 58 71 57 72 44 73 45 74 49 75 46 76 48 77 47 78
REMARK H PARENT 15 6 4 13 11 21 11 22 20 27 64 46 42 57
REMARK Flexibility Score: inf
ROOT
ATOM      1  C   UNL A   1      36.772  20.017  24.984  1.00  0.00     0.023 C 
ENDROOT
BRANCH   1   2
ATOM      2  C   UNL A   1      36.991  21.463  25.442  1.00  0.00     0.116 C 
BRANCH   2   3
ATOM      3  N   UNL A   1      37.180  22.318  24.290  1.00  0.00    -0.351 N 
ATOM      4  C   UNL A   1      36.286  23.008  23.525  1.00  0.00     0.281 C 
ATOM      5  O   UNL A   1      36.670  23.249  22.372  1.00  0.00    -0.268 OA
ATOM      6  H   UNL A   1      38.119  22.418  24.008  1.00  0.00     0.163 HD
BRANCH   4   7
ATOM      7  C   UNL A   1      34.947  23.606  24.078  1.00  0.00     0.181 C 
ATOM      8  C   UNL A   1      33.546  24.156  26.058  1.00  0.00     0.191 C 
ATOM      9  C   UNL A   1      33.261  22.693  25.653  1.00  0.00     0.072 C 
ATOM     10  C   UNL A   1      34.954  24.283  25.458  1.00  0.00     0.144 C 
ATOM     11  C   UNL A   1      33.955  22.439  24.314  1.00  0.00     0.085 C 
BRANCH   8  12
ATOM     12  N   UNL A   1      32.517  25.164  25.641  1.00  0.00    -0.333 N 
ATOM     13  H   UNL A   1      32.621  25.348  24.642  1.00  0.00     0.348 HD
BRANCH  12  14
ATOM     14  C   UNL A   1      32.672  26.452  26.385  1.00  0.00     0.262 C 
BRANCH  14  15
ATOM     15  C   UNL A   1      33.398  27.604  25.672  1.00  0.00     0.058 C 
ATOM     16  C   UNL A   1      34.051  28.618  26.598  1.00  0.00     0.010 C 
ENDBRANCH  14  15
ENDBRANCH  12  14
BRANCH  12  17
ATOM     17  C   UNL A   1      31.173  24.602  25.994  1.00  0.00     0.258 C 
ATOM     18  C   UNL A   1      30.016  25.595  25.924  1.00  0.00     0.071 C 
ENDBRANCH  12  17
ENDBRANCH   8  12
BRANCH   7  19
ATOM     19  N   UNL A   1      34.312  24.455  23.038  1.00  0.00    -0.336 N 
ATOM     20  C   UNL A   1      33.238  23.839  22.283  1.00  0.00     0.331 C 
ATOM     21  H   UNL A   1      35.037  24.734  22.377  1.00  0.00     0.346 HD
ATOM     22  H   UNL A   1      33.885  25.233  23.541  1.00  0.00     0.346 HD
ENDBRANCH   7  19
ENDBRANCH   4   7
ENDBRANCH   2   3
ENDBRANCH   1   2
BRANCH   1  23
ATOM     23  C   UNL A   1      38.044  19.167  25.029  1.00  0.00     0.023 C 
BRANCH  23  24
ATOM     24  C   UNL A   1      39.184  19.783  25.831  1.00  0.00     0.116 C 
BRANCH  24  25
ATOM     25  N   UNL A   1      40.392  18.972  25.829  1.00  0.00    -0.352 N 
ATOM     26  C   UNL A   1      41.676  19.369  26.119  1.00  0.00     0.251 C 
ATOM     27  H   UNL A   1      40.276  18.024  25.590  1.00  0.00     0.163 HD
ATOM     28  O   UNL A   1      42.620  18.608  25.979  1.00  0.00    -0.269 OA
BRANCH  26  29
ATOM     29  C   UNL A   1      41.891  20.760  26.560  1.00  0.00     0.039 A 
ATOM     30  C   UNL A   1      41.937  21.030  27.928  1.00  0.00     0.014 A 
ATOM     31  C   UNL A   1      42.119  21.770  25.623  1.00  0.00     0.014 A 
ATOM     32  C   UNL A   1      42.278  22.312  28.360  1.00  0.00     0.010 A 
ATOM     33  C   UNL A   1      42.523  23.027  26.055  1.00  0.00     0.010 A 
ATOM     34  C   UNL A   1      42.609  23.308  27.427  1.00  0.00    -0.014 A 
BRANCH  34  35
ATOM     35  C   UNL A   1      43.045  24.654  27.867  1.00  0.00     0.031 A 
ATOM     36  C   UNL A   1      42.020  25.708  28.180  1.00  0.00     0.074 A 
ATOM     37  C   UNL A   1      44.359  24.946  27.922  1.00  0.00     0.049 A 
ATOM     38  N   UNL A   1      42.201  26.960  28.515  1.00  0.00    -0.248 NA
ATOM     39  C   UNL A   1      40.606  25.310  28.081  1.00  0.00     0.031 C 
ATOM     40  C   UNL A   1      45.449  24.021  27.600  1.00  0.00     0.029 A 
ATOM     41  N   UNL A   1      45.001  26.108  28.262  1.00  0.00    -0.354 N 
ATOM     42  C   UNL A   1      40.929  27.499  28.653  1.00  0.00     0.074 A 
ATOM     43  C   UNL A   1      39.985  26.456  28.316  1.00  0.00     0.031 C 
ATOM     44  C   UNL A   1      46.624  24.646  27.782  1.00  0.00     0.029 A 
ATOM     45  C   UNL A   1      46.371  26.022  28.196  1.00  0.00     0.049 A 
ATOM     46  H   UNL A   1      44.525  26.928  28.529  1.00  0.00     0.167 HD
ATOM     47  C   UNL A   1      40.576  28.744  29.048  1.00  0.00     0.031 A 
ATOM     48  C   UNL A   1      47.315  26.951  28.437  1.00  0.00     0.031 A 
ATOM     49  C   UNL A   1      41.513  29.777  29.396  1.00  0.00     0.049 A 
ATOM     50  C   UNL A   1      46.894  28.329  28.866  1.00  0.00     0.074 A 
ATOM     51  C   UNL A   1      41.253  31.059  29.848  1.00  0.00     0.029 A 
ATOM     52  N   UNL A   1      42.890  29.643  29.335  1.00  0.00    -0.354 N 
ATOM     53  N   UNL A   1      45.686  28.804  29.051  1.00  0.00    -0.248 NA
ATOM     54  C   UNL A   1      47.969  29.295  29.134  1.00  0.00     0.031 C 
ATOM     55  C   UNL A   1      42.476  31.715  30.025  1.00  0.00     0.029 A 
ATOM     56  C   UNL A   1      43.495  30.823  29.728  1.00  0.00     0.049 A 
ATOM     57  H   UNL A   1      43.368  28.829  29.053  1.00  0.00     0.167 HD
ATOM     58  C   UNL A   1      45.857  30.112  29.485  1.00  0.00     0.074 A 
ATOM     59  C   UNL A   1      47.284  30.350  29.551  1.00  0.00     0.031 C 
ATOM     60  C   UNL A   1      44.917  31.036  29.798  1.00  0.00     0.031 A 
BRANCH  47  61
ATOM     61  C   UNL A   1      39.109  29.054  29.132  1.00  0.00    -0.014 A 
ATOM     62  C   UNL A   1      38.393  28.845  30.322  1.00  0.00     0.009 A 
ATOM     63  C   UNL A   1      38.441  29.599  28.025  1.00  0.00     0.009 A 
ATOM     64  C   UNL A   1      37.033  29.150  30.393  1.00  0.00     0.001 A 
ATOM     65  C   UNL A   1      37.087  29.928  28.107  1.00  0.00     0.001 A 
ATOM     66  C   UNL A   1      36.383  29.697  29.288  1.00  0.00     0.000 A 
ENDBRANCH  47  61
BRANCH  48  67
ATOM     67  C   UNL A   1      48.755  26.614  28.291  1.00  0.00    -0.014 A 
ATOM     68  C   UNL A   1      49.394  26.735  27.047  1.00  0.00     0.009 A 
ATOM     69  C   UNL A   1      49.492  26.142  29.388  1.00  0.00     0.009 A 
ATOM     70  C   UNL A   1      50.729  26.354  26.896  1.00  0.00     0.001 A 
ATOM     71  C   UNL A   1      50.836  25.790  29.241  1.00  0.00     0.001 A 
ATOM     72  C   UNL A   1      51.449  25.884  27.993  1.00  0.00     0.000 A 
ENDBRANCH  48  67
BRANCH  60  73
ATOM     73  C   UNL A   1      45.402  32.372  30.281  1.00  0.00    -0.014 A 
ATOM     74  C   UNL A   1      45.662  32.605  31.640  1.00  0.00     0.009 A 
ATOM     75  C   UNL A   1      45.641  33.400  29.355  1.00  0.00     0.009 A 
ATOM     76  C   UNL A   1      46.122  33.853  32.066  1.00  0.00     0.001 A 
ATOM     77  C   UNL A   1      46.126  34.637  29.779  1.00  0.00     0.001 A 
ATOM     78  C   UNL A   1      46.359  34.864  31.135  1.00  0.00     0.000 A 
ENDBRANCH  60  73
ENDBRANCH  34  35
ENDBRANCH  26  29
ENDBRANCH  24  25
ENDBRANCH  23  24
ENDBRANCH   1  23
TORSDOF 16
ENDMDL
