MODEL 1
REMARK VINA RESULT:     -10.6      0.000      0.000
REMARK SMILES CSCC[C@@H](CO)n1ccnc1-c1ccccc1C(=O)NCCCCNC(=O)c1ccc(-c2c3nc(c(-c4ccccc4)c4ccc([nH]4)c(-c4ccccc4)c4nc(c(-c5ccccc5)c5ccc2[nH]5)C=C4)C=C3)cc1
REMARK SMILES IDX 22 1 21 2 19 3 20 4 18 6 13 7 14 8 15 9 17 10 16 11 12 12
REMARK SMILES IDX 8 13 9 14 10 15 11 16 5 17 4 18 3 19 2 20 1 21 6 22 7 23
REMARK SMILES IDX 23 25 24 26 25 27 26 28 27 29 28 31 29 32 30 33 76 34 31 35
REMARK SMILES IDX 75 36 32 37 33 38 34 39 69 40 35 41 74 42 68 43 70 44 36 45
REMARK SMILES IDX 73 46 67 47 66 48 37 50 59 51 44 52 58 53 45 54 48 55 57 56
REMARK SMILES IDX 71 57 46 58 47 59 56 61 72 62 49 63 38 64 39 65 43 66 40 67
REMARK SMILES IDX 42 68 41 69 60 70 61 71 65 72 62 73 64 74 63 75 50 76 51 77
REMARK SMILES IDX 55 78 52 79 54 80 53 81
REMARK H PARENT 21 5 7 24 26 30 70 49 48 60
REMARK Flexibility Score: inf
ROOT
ATOM      1  C   UNL A   1      36.883  22.080  25.292  1.00  0.00     0.116 C 
ENDROOT
BRANCH   1   2
ATOM      2  N   UNL A   1      35.969  21.999  26.403  1.00  0.00    -0.352 N 
ATOM      3  C   UNL A   1      34.683  21.509  26.467  1.00  0.00     0.252 C 
ATOM      4  O   UNL A   1      34.201  21.439  27.606  1.00  0.00    -0.269 OA
ATOM      5  H   UNL A   1      36.320  22.349  27.253  1.00  0.00     0.163 HD
BRANCH   3   6
ATOM      6  C   UNL A   1      33.803  21.062  25.315  1.00  0.00     0.050 A 
ATOM      7  C   UNL A   1      33.274  21.795  24.232  1.00  0.00     0.030 A 
ATOM      8  C   UNL A   1      32.454  21.136  23.278  1.00  0.00     0.013 A 
ATOM      9  C   UNL A   1      32.238  19.763  23.309  1.00  0.00     0.001 A 
ATOM     10  C   UNL A   1      33.603  19.654  25.286  1.00  0.00     0.014 A 
ATOM     11  C   UNL A   1      32.845  19.013  24.299  1.00  0.00     0.001 A 
BRANCH   7  12
ATOM     12  C   UNL A   1      33.417  23.223  23.967  1.00  0.00     0.141 A 
ATOM     13  N   UNL A   1      32.933  24.305  24.704  1.00  0.00    -0.326 N 
ATOM     14  C   UNL A   1      33.448  25.434  24.093  1.00  0.00     0.108 A 
ATOM     15  C   UNL A   1      34.200  25.006  23.034  1.00  0.00     0.131 A 
ATOM     16  N   UNL A   1      34.192  23.651  22.980  1.00  0.00    -0.237 NA
BRANCH  13  17
ATOM     17  C   UNL A   1      32.196  24.302  25.986  1.00  0.00     0.115 C 
BRANCH  17  18
ATOM     18  C   UNL A   1      31.398  25.612  26.235  1.00  0.00     0.039 C 
BRANCH  18  19
ATOM     19  C   UNL A   1      29.967  25.685  25.694  1.00  0.00     0.071 C 
BRANCH  19  20
ATOM     20  S   UNL A   1      29.808  26.622  24.145  1.00  0.00    -0.165 SA
ATOM     21  C   UNL A   1      30.914  28.015  24.465  1.00  0.00     0.085 C 
ENDBRANCH  19  20
ENDBRANCH  18  19
ENDBRANCH  17  18
BRANCH  17  22
ATOM     22  C   UNL A   1      31.209  23.135  26.184  1.00  0.00     0.181 C 
BRANCH  22  23
ATOM     23  O   UNL A   1      31.362  22.575  27.486  1.00  0.00    -0.394 OA
ATOM     24  H   UNL A   1      32.079  23.030  27.952  1.00  0.00     0.210 HD
ENDBRANCH  22  23
ENDBRANCH  17  22
ENDBRANCH  13  17
ENDBRANCH   7  12
ENDBRANCH   3   6
ENDBRANCH   1   2
BRANCH   1  25
ATOM     25  C   UNL A   1      37.045  20.839  24.414  1.00  0.00     0.023 C 
BRANCH  25  26
ATOM     26  C   UNL A   1      37.873  19.679  24.994  1.00  0.00     0.023 C 
BRANCH  26  27
ATOM     27  C   UNL A   1      39.112  20.052  25.818  1.00  0.00     0.116 C 
BRANCH  27  28
ATOM     28  N   UNL A   1      40.239  19.128  25.702  1.00  0.00    -0.352 N 
ATOM     29  C   UNL A   1      41.584  19.384  25.911  1.00  0.00     0.251 C 
ATOM     30  H   UNL A   1      40.013  18.206  25.441  1.00  0.00     0.163 HD
ATOM     31  O   UNL A   1      42.439  18.555  25.603  1.00  0.00    -0.269 OA
BRANCH  29  32
ATOM     32  C   UNL A   1      42.005  20.664  26.525  1.00  0.00     0.039 A 
ATOM     33  C   UNL A   1      42.384  21.766  25.755  1.00  0.00     0.014 A 
ATOM     34  C   UNL A   1      42.022  20.759  27.910  1.00  0.00     0.014 A 
ATOM     35  C   UNL A   1      42.667  22.984  26.385  1.00  0.00     0.010 A 
ATOM     36  C   UNL A   1      42.238  21.972  28.531  1.00  0.00     0.010 A 
ATOM     37  C   UNL A   1      42.565  23.094  27.780  1.00  0.00    -0.014 A 
BRANCH  37  38
ATOM     38  C   UNL A   1      42.591  24.401  28.445  1.00  0.00     0.031 A 
ATOM     39  C   UNL A   1      41.402  25.268  28.182  1.00  0.00     0.074 A 
ATOM     40  C   UNL A   1      43.422  24.735  29.458  1.00  0.00     0.049 A 
ATOM     41  N   UNL A   1      41.379  26.457  27.677  1.00  0.00    -0.248 NA
ATOM     42  C   UNL A   1      40.068  24.715  28.469  1.00  0.00     0.031 C 
ATOM     43  C   UNL A   1      44.415  23.892  30.133  1.00  0.00     0.029 A 
ATOM     44  N   UNL A   1      43.451  25.884  30.195  1.00  0.00    -0.354 N 
ATOM     45  C   UNL A   1      40.048  26.873  27.712  1.00  0.00     0.074 A 
ATOM     46  C   UNL A   1      39.273  25.720  28.098  1.00  0.00     0.031 C 
ATOM     47  C   UNL A   1      44.772  24.467  31.304  1.00  0.00     0.029 A 
ATOM     48  C   UNL A   1      44.161  25.782  31.385  1.00  0.00     0.049 A 
ATOM     49  H   UNL A   1      43.005  26.714  29.907  1.00  0.00     0.167 HD
ATOM     50  C   UNL A   1      39.697  28.186  27.607  1.00  0.00     0.031 A 
ATOM     51  C   UNL A   1      44.219  26.696  32.384  1.00  0.00     0.031 A 
ATOM     52  C   UNL A   1      40.778  28.994  27.108  1.00  0.00     0.049 A 
ATOM     53  C   UNL A   1      43.788  27.999  31.832  1.00  0.00     0.074 A 
ATOM     54  C   UNL A   1      41.541  29.006  25.958  1.00  0.00     0.029 A 
ATOM     55  N   UNL A   1      41.462  29.765  28.017  1.00  0.00    -0.354 N 
ATOM     56  N   UNL A   1      44.475  28.676  30.959  1.00  0.00    -0.248 NA
ATOM     57  C   UNL A   1      42.391  28.378  31.955  1.00  0.00     0.031 C 
ATOM     58  C   UNL A   1      42.855  29.347  26.397  1.00  0.00     0.029 A 
ATOM     59  C   UNL A   1      42.796  29.574  27.774  1.00  0.00     0.049 A 
ATOM     60  H   UNL A   1      41.070  30.343  28.709  1.00  0.00     0.167 HD
ATOM     61  C   UNL A   1      43.524  29.242  30.125  1.00  0.00     0.074 A 
ATOM     62  C   UNL A   1      42.266  29.128  30.857  1.00  0.00     0.031 C 
ATOM     63  C   UNL A   1      43.800  29.488  28.809  1.00  0.00     0.031 A 
BRANCH  50  64
ATOM     64  C   UNL A   1      38.511  28.805  28.308  1.00  0.00    -0.014 A 
ATOM     65  C   UNL A   1      37.769  29.796  27.634  1.00  0.00     0.009 A 
ATOM     66  C   UNL A   1      38.273  28.670  29.688  1.00  0.00     0.009 A 
ATOM     67  C   UNL A   1      36.909  30.660  28.322  1.00  0.00     0.001 A 
ATOM     68  C   UNL A   1      37.380  29.504  30.370  1.00  0.00     0.001 A 
ATOM     69  C   UNL A   1      36.722  30.520  29.692  1.00  0.00     0.000 A 
ENDBRANCH  50  64
BRANCH  51  70
ATOM     70  C   UNL A   1      44.423  26.494  33.834  1.00  0.00    -0.014 A 
ATOM     71  C   UNL A   1      43.518  25.732  34.590  1.00  0.00     0.009 A 
ATOM     72  C   UNL A   1      45.653  26.829  34.428  1.00  0.00     0.009 A 
ATOM     73  C   UNL A   1      43.851  25.285  35.876  1.00  0.00     0.001 A 
ATOM     74  C   UNL A   1      45.984  26.386  35.713  1.00  0.00     0.001 A 
ATOM     75  C   UNL A   1      45.089  25.599  36.430  1.00  0.00     0.000 A 
ENDBRANCH  51  70
BRANCH  63  76
ATOM     76  C   UNL A   1      45.232  29.370  28.350  1.00  0.00    -0.014 A 
ATOM     77  C   UNL A   1      46.120  30.460  28.328  1.00  0.00     0.009 A 
ATOM     78  C   UNL A   1      45.743  28.092  28.082  1.00  0.00     0.009 A 
ATOM     79  C   UNL A   1      47.469  30.281  28.008  1.00  0.00     0.001 A 
ATOM     80  C   UNL A   1      47.096  27.909  27.785  1.00  0.00     0.001 A 
ATOM     81  C   UNL A   1      47.957  29.003  27.742  1.00  0.00     0.000 A 
ENDBRANCH  63  76
ENDBRANCH  37  38
ENDBRANCH  29  32
ENDBRANCH  27  28
ENDBRANCH  26  27
ENDBRANCH  25  26
ENDBRANCH   1  25
TORSDOF 18
ENDMDL
MODEL 2
REMARK VINA RESULT:     -10.3      2.761      6.293
REMARK SMILES CSCC[C@@H](CO)n1ccnc1-c1ccccc1C(=O)NCCCCNC(=O)c1ccc(-c2c3nc(c(-c4ccccc4)c4ccc([nH]4)c(-c4ccccc4)c4nc(c(-c5ccccc5)c5ccc2[nH]5)C=C4)C=C3)cc1
REMARK SMILES IDX 22 1 21 2 19 3 20 4 18 6 13 7 14 8 15 9 17 10 16 11 12 12
REMARK SMILES IDX 8 13 9 14 10 15 11 16 5 17 4 18 3 19 2 20 1 21 6 22 7 23
REMARK SMILES IDX 23 25 24 26 25 27 26 28 27 29 28 31 29 32 30 33 76 34 31 35
REMARK SMILES IDX 75 36 32 37 33 38 34 39 69 40 35 41 74 42 68 43 70 44 36 45
REMARK SMILES IDX 73 46 67 47 66 48 37 50 59 51 44 52 58 53 45 54 48 55 57 56
REMARK SMILES IDX 71 57 46 58 47 59 56 61 72 62 49 63 38 64 39 65 43 66 40 67
REMARK SMILES IDX 42 68 41 69 60 70 61 71 65 72 62 73 64 74 63 75 50 76 51 77
REMARK SMILES IDX 55 78 52 79 54 80 53 81
REMARK H PARENT 21 5 7 24 26 30 70 49 48 60
REMARK Flexibility Score: inf
ROOT
ATOM      1  C   UNL A   1      36.487  23.782  25.766  1.00  0.00     0.116 C 
ENDROOT
BRANCH   1   2
ATOM      2  N   UNL A   1      36.110  23.565  24.392  1.00  0.00    -0.352 N 
ATOM      3  C   UNL A   1      34.867  23.396  23.823  1.00  0.00     0.252 C 
ATOM      4  O   UNL A   1      34.851  23.376  22.585  1.00  0.00    -0.269 OA
ATOM      5  H   UNL A   1      36.862  23.534  23.758  1.00  0.00     0.163 HD
BRANCH   3   6
ATOM      6  C   UNL A   1      33.538  23.223  24.535  1.00  0.00     0.050 A 
ATOM      7  C   UNL A   1      32.634  24.188  25.027  1.00  0.00     0.030 A 
ATOM      8  C   UNL A   1      31.446  23.761  25.677  1.00  0.00     0.013 A 
ATOM      9  C   UNL A   1      31.082  22.421  25.753  1.00  0.00     0.001 A 
ATOM     10  C   UNL A   1      33.110  21.868  24.585  1.00  0.00     0.014 A 
ATOM     11  C   UNL A   1      31.902  21.472  25.172  1.00  0.00     0.001 A 
BRANCH   7  12
ATOM     12  C   UNL A   1      32.780  25.640  25.007  1.00  0.00     0.141 A 
ATOM     13  N   UNL A   1      32.319  26.555  24.060  1.00  0.00    -0.326 N 
ATOM     14  C   UNL A   1      32.614  27.805  24.574  1.00  0.00     0.108 A 
ATOM     15  C   UNL A   1      33.232  27.605  25.777  1.00  0.00     0.131 A 
ATOM     16  N   UNL A   1      33.308  26.277  26.042  1.00  0.00    -0.237 NA
BRANCH  13  17
ATOM     17  C   UNL A   1      31.502  26.312  22.851  1.00  0.00     0.115 C 
BRANCH  17  18
ATOM     18  C   UNL A   1      30.693  27.559  22.399  1.00  0.00     0.039 C 
BRANCH  18  19
ATOM     19  C   UNL A   1      29.377  27.852  23.126  1.00  0.00     0.071 C 
BRANCH  19  20
ATOM     20  S   UNL A   1      28.518  29.339  22.530  1.00  0.00    -0.165 SA
ATOM     21  C   UNL A   1      29.293  30.619  23.542  1.00  0.00     0.085 C 
ENDBRANCH  19  20
ENDBRANCH  18  19
ENDBRANCH  17  18
BRANCH  17  22
ATOM     22  C   UNL A   1      32.275  25.811  21.616  1.00  0.00     0.181 C 
BRANCH  22  23
ATOM     23  O   UNL A   1      31.510  26.026  20.433  1.00  0.00    -0.394 OA
ATOM     24  H   UNL A   1      30.566  26.029  20.655  1.00  0.00     0.210 HD
ENDBRANCH  22  23
ENDBRANCH  17  22
ENDBRANCH  13  17
ENDBRANCH   7  12
ENDBRANCH   3   6
ENDBRANCH   1   2
BRANCH   1  25
ATOM     25  C   UNL A   1      37.979  23.798  26.099  1.00  0.00     0.023 C 
BRANCH  25  26
ATOM     26  C   UNL A   1      38.710  22.444  26.086  1.00  0.00     0.023 C 
BRANCH  26  27
ATOM     27  C   UNL A   1      40.023  22.354  26.871  1.00  0.00     0.116 C 
BRANCH  27  28
ATOM     28  N   UNL A   1      41.218  22.112  26.064  1.00  0.00    -0.352 N 
ATOM     29  C   UNL A   1      42.176  23.024  25.653  1.00  0.00     0.251 C 
ATOM     30  H   UNL A   1      41.359  21.182  25.774  1.00  0.00     0.163 HD
ATOM     31  O   UNL A   1      43.031  22.711  24.827  1.00  0.00    -0.269 OA
BRANCH  29  32
ATOM     32  C   UNL A   1      42.184  24.392  26.219  1.00  0.00     0.039 A 
ATOM     33  C   UNL A   1      41.490  25.447  25.622  1.00  0.00     0.014 A 
ATOM     34  C   UNL A   1      42.909  24.622  27.382  1.00  0.00     0.014 A 
ATOM     35  C   UNL A   1      41.443  26.692  26.260  1.00  0.00     0.010 A 
ATOM     36  C   UNL A   1      42.814  25.827  28.046  1.00  0.00     0.010 A 
ATOM     37  C   UNL A   1      42.085  26.874  27.495  1.00  0.00    -0.014 A 
BRANCH  37  38
ATOM     38  C   UNL A   1      41.839  28.065  28.313  1.00  0.00     0.031 A 
ATOM     39  C   UNL A   1      42.821  29.176  28.125  1.00  0.00     0.074 A 
ATOM     40  C   UNL A   1      40.683  28.329  28.963  1.00  0.00     0.049 A 
ATOM     41  N   UNL A   1      43.567  29.740  29.017  1.00  0.00    -0.248 NA
ATOM     42  C   UNL A   1      43.038  29.683  26.760  1.00  0.00     0.031 C 
ATOM     43  C   UNL A   1      39.442  27.547  28.963  1.00  0.00     0.029 A 
ATOM     44  N   UNL A   1      40.333  29.449  29.661  1.00  0.00    -0.354 N 
ATOM     45  C   UNL A   1      44.244  30.772  28.369  1.00  0.00     0.074 A 
ATOM     46  C   UNL A   1      43.970  30.615  26.962  1.00  0.00     0.031 C 
ATOM     47  C   UNL A   1      38.426  28.313  29.422  1.00  0.00     0.029 A 
ATOM     48  C   UNL A   1      38.969  29.574  29.895  1.00  0.00     0.049 A 
ATOM     49  H   UNL A   1      40.992  30.112  29.973  1.00  0.00     0.167 HD
ATOM     50  C   UNL A   1      44.827  31.797  29.052  1.00  0.00     0.031 A 
ATOM     51  C   UNL A   1      38.322  30.649  30.408  1.00  0.00     0.031 A 
ATOM     52  C   UNL A   1      44.972  31.498  30.451  1.00  0.00     0.049 A 
ATOM     53  C   UNL A   1      39.321  31.491  31.101  1.00  0.00     0.074 A 
ATOM     54  C   UNL A   1      45.614  30.518  31.182  1.00  0.00     0.029 A 
ATOM     55  N   UNL A   1      44.082  32.085  31.319  1.00  0.00    -0.354 N 
ATOM     56  N   UNL A   1      39.929  31.137  32.195  1.00  0.00    -0.248 NA
ATOM     57  C   UNL A   1      39.943  32.579  30.366  1.00  0.00     0.031 C 
ATOM     58  C   UNL A   1      44.733  30.237  32.268  1.00  0.00     0.029 A 
ATOM     59  C   UNL A   1      43.640  31.100  32.160  1.00  0.00     0.049 A 
ATOM     60  H   UNL A   1      43.815  33.032  31.333  1.00  0.00     0.167 HD
ATOM     61  C   UNL A   1      41.216  31.632  32.057  1.00  0.00     0.074 A 
ATOM     62  C   UNL A   1      41.129  32.612  30.978  1.00  0.00     0.031 C 
ATOM     63  C   UNL A   1      42.279  30.997  32.635  1.00  0.00     0.031 A 
BRANCH  50  64
ATOM     64  C   UNL A   1      44.921  33.215  28.537  1.00  0.00    -0.014 A 
ATOM     65  C   UNL A   1      43.734  33.956  28.378  1.00  0.00     0.009 A 
ATOM     66  C   UNL A   1      46.078  33.742  27.936  1.00  0.00     0.009 A 
ATOM     67  C   UNL A   1      43.692  35.109  27.584  1.00  0.00     0.001 A 
ATOM     68  C   UNL A   1      46.049  34.918  27.179  1.00  0.00     0.001 A 
ATOM     69  C   UNL A   1      44.848  35.584  26.976  1.00  0.00     0.000 A 
ENDBRANCH  50  64
BRANCH  51  70
ATOM     70  C   UNL A   1      36.938  31.114  30.175  1.00  0.00    -0.014 A 
ATOM     71  C   UNL A   1      36.130  31.538  31.243  1.00  0.00     0.009 A 
ATOM     72  C   UNL A   1      36.497  31.394  28.869  1.00  0.00     0.009 A 
ATOM     73  C   UNL A   1      34.948  32.254  31.011  1.00  0.00     0.001 A 
ATOM     74  C   UNL A   1      35.315  32.105  28.637  1.00  0.00     0.001 A 
ATOM     75  C   UNL A   1      34.549  32.550  29.710  1.00  0.00     0.000 A 
ENDBRANCH  51  70
BRANCH  63  76
ATOM     76  C   UNL A   1      41.995  29.901  33.631  1.00  0.00    -0.014 A 
ATOM     77  C   UNL A   1      41.857  28.550  33.263  1.00  0.00     0.009 A 
ATOM     78  C   UNL A   1      42.022  30.217  34.997  1.00  0.00     0.009 A 
ATOM     79  C   UNL A   1      41.712  27.553  34.233  1.00  0.00     0.001 A 
ATOM     80  C   UNL A   1      41.901  29.218  35.967  1.00  0.00     0.001 A 
ATOM     81  C   UNL A   1      41.740  27.888  35.585  1.00  0.00     0.000 A 
ENDBRANCH  63  76
ENDBRANCH  37  38
ENDBRANCH  29  32
ENDBRANCH  27  28
ENDBRANCH  26  27
ENDBRANCH  25  26
ENDBRANCH   1  25
TORSDOF 18
ENDMDL
MODEL 3
REMARK VINA RESULT:     -10.1      2.909      7.903
REMARK SMILES CSCC[C@@H](CO)n1ccnc1-c1ccccc1C(=O)NCCCCNC(=O)c1ccc(-c2c3nc(c(-c4ccccc4)c4ccc([nH]4)c(-c4ccccc4)c4nc(c(-c5ccccc5)c5ccc2[nH]5)C=C4)C=C3)cc1
REMARK SMILES IDX 22 1 21 2 19 3 20 4 18 6 13 7 14 8 15 9 17 10 16 11 12 12
REMARK SMILES IDX 8 13 9 14 10 15 11 16 5 17 4 18 3 19 2 20 1 21 6 22 7 23
REMARK SMILES IDX 23 25 24 26 25 27 26 28 27 29 28 31 29 32 30 33 76 34 31 35
REMARK SMILES IDX 75 36 32 37 33 38 34 39 69 40 35 41 74 42 68 43 70 44 36 45
REMARK SMILES IDX 73 46 67 47 66 48 37 50 59 51 44 52 58 53 45 54 48 55 57 56
REMARK SMILES IDX 71 57 46 58 47 59 56 61 72 62 49 63 38 64 39 65 43 66 40 67
REMARK SMILES IDX 42 68 41 69 60 70 61 71 65 72 62 73 64 74 63 75 50 76 51 77
REMARK SMILES IDX 55 78 52 79 54 80 53 81
REMARK H PARENT 21 5 7 24 26 30 70 49 48 60
REMARK Flexibility Score: inf
ROOT
ATOM      1  C   UNL A   1      34.418  28.484  26.956  1.00  0.00     0.116 C 
ENDROOT
BRANCH   1   2
ATOM      2  N   UNL A   1      33.164  28.395  27.662  1.00  0.00    -0.352 N 
ATOM      3  C   UNL A   1      31.904  28.077  27.206  1.00  0.00     0.252 C 
ATOM      4  O   UNL A   1      31.044  27.939  28.087  1.00  0.00    -0.269 OA
ATOM      5  H   UNL A   1      33.218  28.594  28.624  1.00  0.00     0.163 HD
BRANCH   3   6
ATOM      6  C   UNL A   1      31.458  27.889  25.768  1.00  0.00     0.050 A 
ATOM      7  C   UNL A   1      31.173  26.710  25.048  1.00  0.00     0.030 A 
ATOM      8  C   UNL A   1      30.781  26.804  23.686  1.00  0.00     0.013 A 
ATOM      9  C   UNL A   1      30.561  28.025  23.060  1.00  0.00     0.001 A 
ATOM     10  C   UNL A   1      31.174  29.118  25.112  1.00  0.00     0.014 A 
ATOM     11  C   UNL A   1      30.725  29.189  23.788  1.00  0.00     0.001 A 
BRANCH   7  12
ATOM     12  C   UNL A   1      31.278  25.331  25.515  1.00  0.00     0.141 A 
ATOM     13  N   UNL A   1      32.301  24.407  25.298  1.00  0.00    -0.326 N 
ATOM     14  C   UNL A   1      31.970  23.299  26.057  1.00  0.00     0.108 A 
ATOM     15  C   UNL A   1      30.788  23.583  26.682  1.00  0.00     0.131 A 
ATOM     16  N   UNL A   1      30.385  24.837  26.360  1.00  0.00    -0.237 NA
BRANCH  13  17
ATOM     17  C   UNL A   1      33.587  24.591  24.590  1.00  0.00     0.115 C 
BRANCH  17  18
ATOM     18  C   UNL A   1      34.821  24.211  25.455  1.00  0.00     0.039 C 
BRANCH  18  19
ATOM     19  C   UNL A   1      36.136  23.921  24.725  1.00  0.00     0.071 C 
BRANCH  19  20
ATOM     20  S   UNL A   1      37.488  23.396  25.820  1.00  0.00    -0.165 SA
ATOM     21  C   UNL A   1      37.767  21.706  25.246  1.00  0.00     0.085 C 
ENDBRANCH  19  20
ENDBRANCH  18  19
ENDBRANCH  17  18
BRANCH  17  22
ATOM     22  C   UNL A   1      33.726  23.832  23.257  1.00  0.00     0.181 C 
BRANCH  22  23
ATOM     23  O   UNL A   1      33.793  24.750  22.170  1.00  0.00    -0.394 OA
ATOM     24  H   UNL A   1      33.112  25.430  22.278  1.00  0.00     0.210 HD
ENDBRANCH  22  23
ENDBRANCH  17  22
ENDBRANCH  13  17
ENDBRANCH   7  12
ENDBRANCH   3   6
ENDBRANCH   1   2
BRANCH   1  25
ATOM     25  C   UNL A   1      35.088  29.855  26.868  1.00  0.00     0.023 C 
BRANCH  25  26
ATOM     26  C   UNL A   1      34.329  31.042  27.486  1.00  0.00     0.023 C 
BRANCH  26  27
ATOM     27  C   UNL A   1      35.168  32.120  28.182  1.00  0.00     0.116 C 
BRANCH  27  28
ATOM     28  N   UNL A   1      34.669  32.555  29.485  1.00  0.00    -0.352 N 
ATOM     29  C   UNL A   1      35.080  32.145  30.743  1.00  0.00     0.251 C 
ATOM     30  H   UNL A   1      33.948  33.225  29.466  1.00  0.00     0.163 HD
ATOM     31  O   UNL A   1      34.447  32.464  31.748  1.00  0.00    -0.269 OA
BRANCH  29  32
ATOM     32  C   UNL A   1      36.302  31.323  30.888  1.00  0.00     0.039 A 
ATOM     33  C   UNL A   1      36.270  29.928  30.822  1.00  0.00     0.014 A 
ATOM     34  C   UNL A   1      37.514  31.969  31.098  1.00  0.00     0.014 A 
ATOM     35  C   UNL A   1      37.470  29.207  30.856  1.00  0.00     0.010 A 
ATOM     36  C   UNL A   1      38.702  31.269  31.069  1.00  0.00     0.010 A 
ATOM     37  C   UNL A   1      38.695  29.885  30.952  1.00  0.00    -0.014 A 
BRANCH  37  38
ATOM     38  C   UNL A   1      39.968  29.193  30.723  1.00  0.00     0.031 A 
ATOM     39  C   UNL A   1      40.755  28.893  31.958  1.00  0.00     0.074 A 
ATOM     40  C   UNL A   1      40.316  28.578  29.571  1.00  0.00     0.049 A 
ATOM     41  N   UNL A   1      41.961  29.258  32.244  1.00  0.00    -0.248 NA
ATOM     42  C   UNL A   1      40.091  28.136  33.033  1.00  0.00     0.031 C 
ATOM     43  C   UNL A   1      39.520  28.422  28.349  1.00  0.00     0.029 A 
ATOM     44  N   UNL A   1      41.428  27.833  29.304  1.00  0.00    -0.354 N 
ATOM     45  C   UNL A   1      42.274  28.662  33.465  1.00  0.00     0.074 A 
ATOM     46  C   UNL A   1      41.049  28.082  33.958  1.00  0.00     0.031 C 
ATOM     47  C   UNL A   1      40.065  27.454  27.578  1.00  0.00     0.029 A 
ATOM     48  C   UNL A   1      41.325  27.039  28.168  1.00  0.00     0.049 A 
ATOM     49  H   UNL A   1      42.235  27.856  29.868  1.00  0.00     0.167 HD
ATOM     50  C   UNL A   1      43.560  28.520  33.893  1.00  0.00     0.031 A 
ATOM     51  C   UNL A   1      42.194  26.084  27.755  1.00  0.00     0.031 A 
ATOM     52  C   UNL A   1      44.469  29.351  33.149  1.00  0.00     0.049 A 
ATOM     53  C   UNL A   1      43.484  26.320  28.438  1.00  0.00     0.074 A 
ATOM     54  C   UNL A   1      44.592  30.707  32.920  1.00  0.00     0.029 A 
ATOM     55  N   UNL A   1      45.246  28.740  32.195  1.00  0.00    -0.354 N 
ATOM     56  N   UNL A   1      44.251  27.343  28.198  1.00  0.00    -0.248 NA
ATOM     57  C   UNL A   1      43.752  25.619  29.682  1.00  0.00     0.031 C 
ATOM     58  C   UNL A   1      45.010  30.808  31.560  1.00  0.00     0.029 A 
ATOM     59  C   UNL A   1      45.168  29.511  31.066  1.00  0.00     0.049 A 
ATOM     60  H   UNL A   1      45.761  27.908  32.301  1.00  0.00     0.167 HD
ATOM     61  C   UNL A   1      44.782  27.682  29.432  1.00  0.00     0.074 A 
ATOM     62  C   UNL A   1      44.540  26.516  30.278  1.00  0.00     0.031 C 
ATOM     63  C   UNL A   1      45.109  28.975  29.726  1.00  0.00     0.031 A 
BRANCH  50  64
ATOM     64  C   UNL A   1      44.056  27.359  34.723  1.00  0.00    -0.014 A 
ATOM     65  C   UNL A   1      44.034  26.068  34.159  1.00  0.00     0.009 A 
ATOM     66  C   UNL A   1      44.263  27.436  36.112  1.00  0.00     0.009 A 
ATOM     67  C   UNL A   1      44.123  24.920  34.955  1.00  0.00     0.001 A 
ATOM     68  C   UNL A   1      44.396  26.291  36.905  1.00  0.00     0.001 A 
ATOM     69  C   UNL A   1      44.295  25.032  36.330  1.00  0.00     0.000 A 
ENDBRANCH  50  64
BRANCH  51  70
ATOM     70  C   UNL A   1      41.940  24.857  26.971  1.00  0.00    -0.014 A 
ATOM     71  C   UNL A   1      42.752  24.520  25.876  1.00  0.00     0.009 A 
ATOM     72  C   UNL A   1      41.060  23.874  27.461  1.00  0.00     0.009 A 
ATOM     73  C   UNL A   1      42.716  23.233  25.321  1.00  0.00     0.001 A 
ATOM     74  C   UNL A   1      41.022  22.591  26.905  1.00  0.00     0.001 A 
ATOM     75  C   UNL A   1      41.862  22.266  25.845  1.00  0.00     0.000 A 
ENDBRANCH  51  70
BRANCH  63  76
ATOM     76  C   UNL A   1      45.120  29.978  28.599  1.00  0.00    -0.014 A 
ATOM     77  C   UNL A   1      46.276  30.281  27.857  1.00  0.00     0.009 A 
ATOM     78  C   UNL A   1      43.898  30.515  28.172  1.00  0.00     0.009 A 
ATOM     79  C   UNL A   1      46.213  31.128  26.746  1.00  0.00     0.001 A 
ATOM     80  C   UNL A   1      43.831  31.342  27.048  1.00  0.00     0.001 A 
ATOM     81  C   UNL A   1      44.989  31.653  26.339  1.00  0.00     0.000 A 
ENDBRANCH  63  76
ENDBRANCH  37  38
ENDBRANCH  29  32
ENDBRANCH  27  28
ENDBRANCH  26  27
ENDBRANCH  25  26
ENDBRANCH   1  25
TORSDOF 18
ENDMDL
