MODEL 1
REMARK VINA RESULT:     -12.5      0.000      0.000
REMARK SMILES C[C@@H]1CC[C@H](C)[N@H+]1Cc1cc2c(cc1Cl)C=C(C(=O)NCCCCNC(=O)c1ccc(-c3c4nc(c(-c5ccccc5)c5ccc([nH]5)c(-c5ccccc5)c5nc(c(-c6ccccc6)c6ccc3[nH]6)C=C5)C=C4)cc1)[C@@H](C(F)(F)F)O2
REMARK SMILES IDX 22 1 21 2 20 3 18 4 19 5 17 7 9 8 10 9 14 10 11 11 13 12
REMARK SMILES IDX 15 13 12 14 81 15 16 16 76 17 8 18 7 19 6 20 5 21 4 22 3 23
REMARK SMILES IDX 2 24 1 26 77 27 78 28 79 29 80 30 23 31 24 32 25 33 26 34
REMARK SMILES IDX 27 36 28 37 29 38 75 39 30 40 74 41 31 42 32 43 33 44 68 45
REMARK SMILES IDX 34 46 73 47 67 48 69 49 35 50 72 51 66 52 65 53 36 55 58 56
REMARK SMILES IDX 43 57 57 58 44 59 47 60 56 61 70 62 45 63 46 64 55 66 71 67
REMARK SMILES IDX 48 68 37 69 38 70 42 71 39 72 41 73 40 74 59 75 60 76 64 77
REMARK SMILES IDX 61 78 63 79 62 80 49 81 50 82 54 83 51 84 53 85 52 86
REMARK H PARENT 20 6 7 25 25 35 69 54 47 65
REMARK Flexibility Score: inf
ROOT
ATOM      1  C   UNL A   1      39.449  23.581  26.602  1.00  0.00     0.023 C 
ENDROOT
BRANCH   1   2
ATOM      2  C   UNL A   1      38.032  23.950  26.172  1.00  0.00     0.116 C 
BRANCH   2   3
ATOM      3  N   UNL A   1      37.165  22.788  26.119  1.00  0.00    -0.352 N 
ATOM      4  C   UNL A   1      35.930  22.505  25.643  1.00  0.00     0.251 C 
ATOM      5  O   UNL A   1      35.560  21.338  25.805  1.00  0.00    -0.270 OA
ATOM      6  H   UNL A   1      37.583  22.001  26.537  1.00  0.00     0.163 HD
BRANCH   4   7
ATOM      7  C   UNL A   1      35.024  23.478  24.970  1.00  0.00     0.067 C 
ATOM      8  C   UNL A   1      32.403  27.620  23.733  1.00  0.00     0.029 A 
ATOM      9  C   UNL A   1      32.992  26.565  23.010  1.00  0.00     0.058 A 
ATOM     10  C   UNL A   1      32.465  27.565  25.137  1.00  0.00     0.050 A 
ATOM     11  C   UNL A   1      33.691  25.555  23.664  1.00  0.00     0.128 A 
ATOM     12  C   UNL A   1      33.224  26.580  25.785  1.00  0.00     0.033 A 
ATOM     13  Cl  UNL A   1      31.569  28.636  26.156  1.00  0.00    -0.084 Cl
ATOM     14  C   UNL A   1      33.860  25.585  25.047  1.00  0.00     0.019 A 
ATOM     15  O   UNL A   1      34.224  24.561  22.890  1.00  0.00    -0.475 OA
ATOM     16  C   UNL A   1      34.720  24.587  25.672  1.00  0.00     0.025 C 
ATOM     17  C   UNL A   1      34.437  23.305  23.596  1.00  0.00     0.314 C 
BRANCH   8  18
ATOM     18  C   UNL A   1      31.768  28.755  22.949  1.00  0.00     0.301 C 
BRANCH  18  19
ATOM     19  N   UNL A   1      30.348  29.032  23.218  1.00  0.00    -0.327 N 
ATOM     20  C   UNL A   1      29.086  27.001  23.861  1.00  0.00     0.075 C 
ATOM     21  C   UNL A   1      29.370  28.028  22.774  1.00  0.00     0.181 C 
ATOM     22  C   UNL A   1      28.120  28.825  22.405  1.00  0.00     0.071 C 
ATOM     23  C   UNL A   1      28.697  30.133  21.908  1.00  0.00     0.071 C 
ATOM     24  C   UNL A   1      29.881  30.370  22.836  1.00  0.00     0.181 C 
ATOM     25  H   UNL A   1      30.374  28.979  24.237  1.00  0.00     0.348 HD
ATOM     26  C   UNL A   1      29.478  31.127  24.102  1.00  0.00     0.075 C 
ENDBRANCH  18  19
ENDBRANCH   8  18
BRANCH  17  27
ATOM     27  C   UNL A   1      33.133  22.476  23.626  1.00  0.00     0.429 C 
ATOM     28  F   UNL A   1      32.452  22.622  22.462  1.00  0.00    -0.167 F 
ATOM     29  F   UNL A   1      33.372  21.149  23.768  1.00  0.00    -0.167 F 
ATOM     30  F   UNL A   1      32.300  22.830  24.630  1.00  0.00    -0.167 F 
ENDBRANCH  17  27
ENDBRANCH   4   7
ENDBRANCH   2   3
ENDBRANCH   1   2
BRANCH   1  31
ATOM     31  C   UNL A   1      39.903  22.193  26.147  1.00  0.00     0.023 C 
BRANCH  31  32
ATOM     32  C   UNL A   1      41.362  21.856  26.443  1.00  0.00     0.116 C 
BRANCH  32  33
ATOM     33  N   UNL A   1      42.287  22.187  25.367  1.00  0.00    -0.352 N 
ATOM     34  C   UNL A   1      43.095  23.299  25.270  1.00  0.00     0.251 C 
ATOM     35  H   UNL A   1      42.340  21.542  24.625  1.00  0.00     0.163 HD
ATOM     36  O   UNL A   1      43.789  23.497  24.283  1.00  0.00    -0.269 OA
BRANCH  34  37
ATOM     37  C   UNL A   1      43.049  24.282  26.369  1.00  0.00     0.039 A 
ATOM     38  C   UNL A   1      42.884  23.843  27.684  1.00  0.00     0.014 A 
ATOM     39  C   UNL A   1      43.027  25.643  26.058  1.00  0.00     0.014 A 
ATOM     40  C   UNL A   1      42.514  24.758  28.661  1.00  0.00     0.010 A 
ATOM     41  C   UNL A   1      42.731  26.567  27.061  1.00  0.00     0.010 A 
ATOM     42  C   UNL A   1      42.411  26.125  28.354  1.00  0.00    -0.014 A 
BRANCH  42  43
ATOM     43  C   UNL A   1      41.929  27.068  29.394  1.00  0.00     0.031 A 
ATOM     44  C   UNL A   1      40.635  27.816  29.210  1.00  0.00     0.074 A 
ATOM     45  C   UNL A   1      42.622  27.188  30.542  1.00  0.00     0.049 A 
ATOM     46  N   UNL A   1      40.049  28.655  30.029  1.00  0.00    -0.248 NA
ATOM     47  C   UNL A   1      39.900  27.598  27.953  1.00  0.00     0.031 C 
ATOM     48  C   UNL A   1      43.868  26.483  30.851  1.00  0.00     0.029 A 
ATOM     49  N   UNL A   1      42.359  27.912  31.675  1.00  0.00    -0.354 N 
ATOM     50  C   UNL A   1      38.898  29.081  29.377  1.00  0.00     0.074 A 
ATOM     51  C   UNL A   1      38.870  28.423  28.090  1.00  0.00     0.031 C 
ATOM     52  C   UNL A   1      44.223  26.756  32.114  1.00  0.00     0.029 A 
ATOM     53  C   UNL A   1      43.271  27.705  32.681  1.00  0.00     0.049 A 
ATOM     54  H   UNL A   1      41.590  28.522  31.761  1.00  0.00     0.167 HD
ATOM     55  C   UNL A   1      37.948  29.939  29.817  1.00  0.00     0.031 A 
ATOM     56  C   UNL A   1      43.342  28.225  33.919  1.00  0.00     0.031 A 
ATOM     57  C   UNL A   1      37.963  30.572  31.109  1.00  0.00     0.049 A 
ATOM     58  C   UNL A   1      42.298  29.208  34.363  1.00  0.00     0.074 A 
ATOM     59  C   UNL A   1      37.031  31.446  31.645  1.00  0.00     0.029 A 
ATOM     60  N   UNL A   1      38.948  30.397  32.066  1.00  0.00    -0.354 N 
ATOM     61  N   UNL A   1      41.226  29.613  33.726  1.00  0.00    -0.248 NA
ATOM     62  C   UNL A   1      42.481  29.817  35.688  1.00  0.00     0.031 C 
ATOM     63  C   UNL A   1      37.477  31.834  32.911  1.00  0.00     0.029 A 
ATOM     64  C   UNL A   1      38.658  31.161  33.182  1.00  0.00     0.049 A 
ATOM     65  H   UNL A   1      39.735  29.814  31.966  1.00  0.00     0.167 HD
ATOM     66  C   UNL A   1      40.601  30.513  34.576  1.00  0.00     0.074 A 
ATOM     67  C   UNL A   1      41.402  30.584  35.781  1.00  0.00     0.031 C 
ATOM     68  C   UNL A   1      39.466  31.222  34.372  1.00  0.00     0.031 A 
BRANCH  55  69
ATOM     69  C   UNL A   1      36.806  30.268  28.899  1.00  0.00    -0.014 A 
ATOM     70  C   UNL A   1      36.615  31.594  28.478  1.00  0.00     0.009 A 
ATOM     71  C   UNL A   1      35.860  29.296  28.539  1.00  0.00     0.009 A 
ATOM     72  C   UNL A   1      35.491  31.945  27.728  1.00  0.00     0.001 A 
ATOM     73  C   UNL A   1      34.746  29.647  27.772  1.00  0.00     0.001 A 
ATOM     74  C   UNL A   1      34.559  30.971  27.375  1.00  0.00     0.000 A 
ENDBRANCH  55  69
BRANCH  56  75
ATOM     75  C   UNL A   1      44.447  27.817  34.823  1.00  0.00    -0.014 A 
ATOM     76  C   UNL A   1      45.666  28.513  34.821  1.00  0.00     0.009 A 
ATOM     77  C   UNL A   1      44.301  26.703  35.663  1.00  0.00     0.009 A 
ATOM     78  C   UNL A   1      46.726  28.087  35.624  1.00  0.00     0.001 A 
ATOM     79  C   UNL A   1      45.354  26.297  36.486  1.00  0.00     0.001 A 
ATOM     80  C   UNL A   1      46.567  26.983  36.459  1.00  0.00     0.000 A 
ENDBRANCH  56  75
BRANCH  68  81
ATOM     81  C   UNL A   1      39.005  32.131  35.473  1.00  0.00    -0.014 A 
ATOM     82  C   UNL A   1      39.384  33.483  35.466  1.00  0.00     0.009 A 
ATOM     83  C   UNL A   1      38.276  31.629  36.562  1.00  0.00     0.009 A 
ATOM     84  C   UNL A   1      39.050  34.315  36.535  1.00  0.00     0.001 A 
ATOM     85  C   UNL A   1      37.923  32.471  37.618  1.00  0.00     0.001 A 
ATOM     86  C   UNL A   1      38.317  33.810  37.608  1.00  0.00     0.000 A 
ENDBRANCH  68  81
ENDBRANCH  42  43
ENDBRANCH  34  37
ENDBRANCH  32  33
ENDBRANCH  31  32
ENDBRANCH   1  31
TORSDOF 14
ENDMDL
MODEL 2
REMARK VINA RESULT:     -12.1      3.068      8.854
REMARK SMILES C[C@@H]1CC[C@H](C)[N@H+]1Cc1cc2c(cc1Cl)C=C(C(=O)NCCCCNC(=O)c1ccc(-c3c4nc(c(-c5ccccc5)c5ccc([nH]5)c(-c5ccccc5)c5nc(c(-c6ccccc6)c6ccc3[nH]6)C=C5)C=C4)cc1)[C@@H](C(F)(F)F)O2
REMARK SMILES IDX 22 1 21 2 20 3 18 4 19 5 17 7 9 8 10 9 14 10 11 11 13 12
REMARK SMILES IDX 15 13 12 14 81 15 16 16 76 17 8 18 7 19 6 20 5 21 4 22 3 23
REMARK SMILES IDX 2 24 1 26 77 27 78 28 79 29 80 30 23 31 24 32 25 33 26 34
REMARK SMILES IDX 27 36 28 37 29 38 75 39 30 40 74 41 31 42 32 43 33 44 68 45
REMARK SMILES IDX 34 46 73 47 67 48 69 49 35 50 72 51 66 52 65 53 36 55 58 56
REMARK SMILES IDX 43 57 57 58 44 59 47 60 56 61 70 62 45 63 46 64 55 66 71 67
REMARK SMILES IDX 48 68 37 69 38 70 42 71 39 72 41 73 40 74 59 75 60 76 64 77
REMARK SMILES IDX 61 78 63 79 62 80 49 81 50 82 54 83 51 84 53 85 52 86
REMARK H PARENT 20 6 7 25 25 35 69 54 47 65
REMARK Flexibility Score: inf
ROOT
ATOM      1  C   UNL A   1      34.656  30.209  27.644  1.00  0.00     0.023 C 
ENDROOT
BRANCH   1   2
ATOM      2  C   UNL A   1      34.313  28.916  26.909  1.00  0.00     0.116 C 
BRANCH   2   3
ATOM      3  N   UNL A   1      33.995  29.159  25.513  1.00  0.00    -0.352 N 
ATOM      4  C   UNL A   1      33.557  28.424  24.464  1.00  0.00     0.251 C 
ATOM      5  O   UNL A   1      33.403  29.051  23.412  1.00  0.00    -0.270 OA
ATOM      6  H   UNL A   1      34.132  30.101  25.265  1.00  0.00     0.163 HD
BRANCH   4   7
ATOM      7  C   UNL A   1      33.268  26.962  24.499  1.00  0.00     0.067 C 
ATOM      8  C   UNL A   1      33.542  21.975  25.278  1.00  0.00     0.029 A 
ATOM      9  C   UNL A   1      32.495  22.914  25.218  1.00  0.00     0.058 A 
ATOM     10  C   UNL A   1      34.847  22.433  25.024  1.00  0.00     0.050 A 
ATOM     11  C   UNL A   1      32.759  24.264  25.006  1.00  0.00     0.128 A 
ATOM     12  C   UNL A   1      35.112  23.802  24.875  1.00  0.00     0.033 A 
ATOM     13  Cl  UNL A   1      36.187  21.365  24.804  1.00  0.00    -0.084 Cl
ATOM     14  C   UNL A   1      34.069  24.724  24.890  1.00  0.00     0.019 A 
ATOM     15  O   UNL A   1      31.686  25.110  24.949  1.00  0.00    -0.475 OA
ATOM     16  C   UNL A   1      34.305  26.161  24.815  1.00  0.00     0.025 C 
ATOM     17  C   UNL A   1      31.933  26.338  24.204  1.00  0.00     0.314 C 
BRANCH   8  18
ATOM     18  C   UNL A   1      33.193  20.542  25.640  1.00  0.00     0.301 C 
BRANCH  18  19
ATOM     19  N   UNL A   1      33.303  19.542  24.566  1.00  0.00    -0.327 N 
ATOM     20  C   UNL A   1      32.321  20.326  22.432  1.00  0.00     0.075 C 
ATOM     21  C   UNL A   1      32.164  19.418  23.643  1.00  0.00     0.181 C 
ATOM     22  C   UNL A   1      32.132  17.943  23.247  1.00  0.00     0.071 C 
ATOM     23  C   UNL A   1      32.656  17.255  24.490  1.00  0.00     0.071 C 
ATOM     24  C   UNL A   1      33.737  18.205  24.987  1.00  0.00     0.181 C 
ATOM     25  H   UNL A   1      34.059  19.974  24.034  1.00  0.00     0.348 HD
ATOM     26  C   UNL A   1      35.098  17.912  24.354  1.00  0.00     0.075 C 
ENDBRANCH  18  19
ENDBRANCH   8  18
BRANCH  17  27
ATOM     27  C   UNL A   1      31.727  26.100  22.691  1.00  0.00     0.429 C 
ATOM     28  F   UNL A   1      30.953  25.005  22.484  1.00  0.00    -0.167 F 
ATOM     29  F   UNL A   1      31.093  27.138  22.091  1.00  0.00    -0.167 F 
ATOM     30  F   UNL A   1      32.884  25.911  22.020  1.00  0.00    -0.167 F 
ENDBRANCH  17  27
ENDBRANCH   4   7
ENDBRANCH   2   3
ENDBRANCH   1   2
BRANCH   1  31
ATOM     31  C   UNL A   1      33.517  31.229  27.688  1.00  0.00     0.023 C 
BRANCH  31  32
ATOM     32  C   UNL A   1      33.911  32.659  27.332  1.00  0.00     0.116 C 
BRANCH  32  33
ATOM     33  N   UNL A   1      33.150  33.686  28.031  1.00  0.00    -0.352 N 
ATOM     34  C   UNL A   1      33.472  34.304  29.220  1.00  0.00     0.251 C 
ATOM     35  H   UNL A   1      32.309  33.971  27.604  1.00  0.00     0.163 HD
ATOM     36  O   UNL A   1      32.718  35.113  29.741  1.00  0.00    -0.269 OA
BRANCH  34  37
ATOM     37  C   UNL A   1      34.729  33.910  29.882  1.00  0.00     0.039 A 
ATOM     38  C   UNL A   1      35.949  34.365  29.379  1.00  0.00     0.014 A 
ATOM     39  C   UNL A   1      34.684  32.970  30.914  1.00  0.00     0.014 A 
ATOM     40  C   UNL A   1      37.123  33.743  29.784  1.00  0.00     0.010 A 
ATOM     41  C   UNL A   1      35.874  32.403  31.373  1.00  0.00     0.010 A 
ATOM     42  C   UNL A   1      37.095  32.741  30.768  1.00  0.00    -0.014 A 
BRANCH  42  43
ATOM     43  C   UNL A   1      38.351  32.032  31.119  1.00  0.00     0.031 A 
ATOM     44  C   UNL A   1      39.138  32.426  32.341  1.00  0.00     0.074 A 
ATOM     45  C   UNL A   1      38.739  30.980  30.375  1.00  0.00     0.049 A 
ATOM     46  N   UNL A   1      40.240  31.895  32.813  1.00  0.00    -0.248 NA
ATOM     47  C   UNL A   1      38.629  33.553  33.139  1.00  0.00     0.031 C 
ATOM     48  C   UNL A   1      38.036  30.480  29.191  1.00  0.00     0.029 A 
ATOM     49  N   UNL A   1      39.793  30.117  30.525  1.00  0.00    -0.354 N 
ATOM     50  C   UNL A   1      40.566  32.638  33.941  1.00  0.00     0.074 A 
ATOM     51  C   UNL A   1      39.558  33.665  34.080  1.00  0.00     0.031 C 
ATOM     52  C   UNL A   1      38.638  29.361  28.764  1.00  0.00     0.029 A 
ATOM     53  C   UNL A   1      39.806  29.102  29.599  1.00  0.00     0.049 A 
ATOM     54  H   UNL A   1      40.476  30.215  31.228  1.00  0.00     0.167 HD
ATOM     55  C   UNL A   1      41.609  32.472  34.787  1.00  0.00     0.031 A 
ATOM     56  C   UNL A   1      40.665  28.080  29.433  1.00  0.00     0.031 A 
ATOM     57  C   UNL A   1      42.596  31.433  34.664  1.00  0.00     0.049 A 
ATOM     58  C   UNL A   1      41.837  27.948  30.360  1.00  0.00     0.074 A 
ATOM     59  C   UNL A   1      43.681  31.181  35.487  1.00  0.00     0.029 A 
ATOM     60  N   UNL A   1      42.616  30.474  33.665  1.00  0.00    -0.354 N 
ATOM     61  N   UNL A   1      42.139  28.670  31.412  1.00  0.00    -0.248 NA
ATOM     62  C   UNL A   1      42.794  26.871  30.071  1.00  0.00     0.031 C 
ATOM     63  C   UNL A   1      44.384  30.094  34.959  1.00  0.00     0.029 A 
ATOM     64  C   UNL A   1      43.707  29.641  33.839  1.00  0.00     0.049 A 
ATOM     65  H   UNL A   1      41.954  30.398  32.942  1.00  0.00     0.167 HD
ATOM     66  C   UNL A   1      43.313  28.129  31.916  1.00  0.00     0.074 A 
ATOM     67  C   UNL A   1      43.660  27.008  31.067  1.00  0.00     0.031 C 
ATOM     68  C   UNL A   1      44.039  28.531  32.985  1.00  0.00     0.031 A 
BRANCH  55  69
ATOM     69  C   UNL A   1      41.761  33.439  35.926  1.00  0.00    -0.014 A 
ATOM     70  C   UNL A   1      42.661  34.511  35.809  1.00  0.00     0.009 A 
ATOM     71  C   UNL A   1      41.105  33.232  37.148  1.00  0.00     0.009 A 
ATOM     72  C   UNL A   1      42.913  35.349  36.898  1.00  0.00     0.001 A 
ATOM     73  C   UNL A   1      41.343  34.084  38.230  1.00  0.00     0.001 A 
ATOM     74  C   UNL A   1      42.252  35.135  38.107  1.00  0.00     0.000 A 
ENDBRANCH  55  69
BRANCH  56  75
ATOM     75  C   UNL A   1      40.436  27.103  28.339  1.00  0.00    -0.014 A 
ATOM     76  C   UNL A   1      39.702  25.928  28.572  1.00  0.00     0.009 A 
ATOM     77  C   UNL A   1      40.986  27.320  27.067  1.00  0.00     0.009 A 
ATOM     78  C   UNL A   1      39.544  24.980  27.560  1.00  0.00     0.001 A 
ATOM     79  C   UNL A   1      40.801  26.381  26.049  1.00  0.00     0.001 A 
ATOM     80  C   UNL A   1      40.089  25.209  26.299  1.00  0.00     0.000 A 
ENDBRANCH  56  75
BRANCH  68  81
ATOM     81  C   UNL A   1      45.279  27.753  33.316  1.00  0.00    -0.014 A 
ATOM     82  C   UNL A   1      45.205  26.668  34.205  1.00  0.00     0.009 A 
ATOM     83  C   UNL A   1      46.531  28.150  32.822  1.00  0.00     0.009 A 
ATOM     84  C   UNL A   1      46.364  26.001  34.601  1.00  0.00     0.001 A 
ATOM     85  C   UNL A   1      47.686  27.463  33.202  1.00  0.00     0.001 A 
ATOM     86  C   UNL A   1      47.602  26.396  34.097  1.00  0.00     0.000 A 
ENDBRANCH  68  81
ENDBRANCH  42  43
ENDBRANCH  34  37
ENDBRANCH  32  33
ENDBRANCH  31  32
ENDBRANCH   1  31
TORSDOF 14
ENDMDL
MODEL 3
REMARK VINA RESULT:     -12.1      5.535     10.359
REMARK SMILES C[C@@H]1CC[C@H](C)[N@H+]1Cc1cc2c(cc1Cl)C=C(C(=O)NCCCCNC(=O)c1ccc(-c3c4nc(c(-c5ccccc5)c5ccc([nH]5)c(-c5ccccc5)c5nc(c(-c6ccccc6)c6ccc3[nH]6)C=C5)C=C4)cc1)[C@@H](C(F)(F)F)O2
REMARK SMILES IDX 22 1 21 2 20 3 18 4 19 5 17 7 9 8 10 9 14 10 11 11 13 12
REMARK SMILES IDX 15 13 12 14 81 15 16 16 76 17 8 18 7 19 6 20 5 21 4 22 3 23
REMARK SMILES IDX 2 24 1 26 77 27 78 28 79 29 80 30 23 31 24 32 25 33 26 34
REMARK SMILES IDX 27 36 28 37 29 38 75 39 30 40 74 41 31 42 32 43 33 44 68 45
REMARK SMILES IDX 34 46 73 47 67 48 69 49 35 50 72 51 66 52 65 53 36 55 58 56
REMARK SMILES IDX 43 57 57 58 44 59 47 60 56 61 70 62 45 63 46 64 55 66 71 67
REMARK SMILES IDX 48 68 37 69 38 70 42 71 39 72 41 73 40 74 59 75 60 76 64 77
REMARK SMILES IDX 61 78 63 79 62 80 49 81 50 82 54 83 51 84 53 85 52 86
REMARK H PARENT 20 6 7 25 25 35 69 54 47 65
REMARK Flexibility Score: inf
ROOT
ATOM      1  C   UNL A   1      34.077  33.753  32.485  1.00  0.00     0.023 C 
ENDROOT
BRANCH   1   2
ATOM      2  C   UNL A   1      34.480  34.501  31.217  1.00  0.00     0.116 C 
BRANCH   2   3
ATOM      3  N   UNL A   1      33.998  33.834  30.022  1.00  0.00    -0.352 N 
ATOM      4  C   UNL A   1      34.447  32.867  29.188  1.00  0.00     0.251 C 
ATOM      5  O   UNL A   1      33.686  32.580  28.258  1.00  0.00    -0.270 OA
ATOM      6  H   UNL A   1      33.116  34.171  29.746  1.00  0.00     0.163 HD
BRANCH   4   7
ATOM      7  C   UNL A   1      35.754  32.161  29.315  1.00  0.00     0.067 C 
ATOM      8  C   UNL A   1      39.346  28.707  30.159  1.00  0.00     0.029 A 
ATOM      9  C   UNL A   1      39.189  29.775  29.256  1.00  0.00     0.058 A 
ATOM     10  C   UNL A   1      38.340  28.511  31.122  1.00  0.00     0.050 A 
ATOM     11  C   UNL A   1      38.032  30.549  29.260  1.00  0.00     0.128 A 
ATOM     12  C   UNL A   1      37.151  29.252  31.080  1.00  0.00     0.033 A 
ATOM     13  Cl  UNL A   1      38.516  27.419  32.450  1.00  0.00    -0.084 Cl
ATOM     14  C   UNL A   1      36.985  30.259  30.131  1.00  0.00     0.019 A 
ATOM     15  O   UNL A   1      37.962  31.575  28.359  1.00  0.00    -0.475 OA
ATOM     16  C   UNL A   1      35.737  31.003  30.003  1.00  0.00     0.025 C 
ATOM     17  C   UNL A   1      37.057  32.649  28.746  1.00  0.00     0.314 C 
BRANCH   8  18
ATOM     18  C   UNL A   1      40.574  27.824  30.013  1.00  0.00     0.301 C 
BRANCH  18  19
ATOM     19  N   UNL A   1      40.966  27.456  28.643  1.00  0.00    -0.327 N 
ATOM     20  C   UNL A   1      39.498  25.716  27.667  1.00  0.00     0.075 C 
ATOM     21  C   UNL A   1      40.859  26.038  28.270  1.00  0.00     0.181 C 
ATOM     22  C   UNL A   1      41.991  25.802  27.273  1.00  0.00     0.071 C 
ATOM     23  C   UNL A   1      43.058  26.764  27.750  1.00  0.00     0.071 C 
ATOM     24  C   UNL A   1      42.259  27.983  28.191  1.00  0.00     0.181 C 
ATOM     25  H   UNL A   1      40.225  27.944  28.138  1.00  0.00     0.348 HD
ATOM     26  C   UNL A   1      42.014  28.959  27.040  1.00  0.00     0.075 C 
ENDBRANCH  18  19
ENDBRANCH   8  18
BRANCH  17  27
ATOM     27  C   UNL A   1      37.769  33.637  29.697  1.00  0.00     0.429 C 
ATOM     28  F   UNL A   1      37.264  34.887  29.547  1.00  0.00    -0.167 F 
ATOM     29  F   UNL A   1      37.598  33.307  31.001  1.00  0.00    -0.167 F 
ATOM     30  F   UNL A   1      39.102  33.711  29.487  1.00  0.00    -0.167 F 
ENDBRANCH  17  27
ENDBRANCH   4   7
ENDBRANCH   2   3
ENDBRANCH   1   2
BRANCH   1  31
ATOM     31  C   UNL A   1      35.247  33.117  33.238  1.00  0.00     0.023 C 
BRANCH  31  32
ATOM     32  C   UNL A   1      36.140  34.094  33.997  1.00  0.00     0.116 C 
BRANCH  32  33
ATOM     33  N   UNL A   1      36.471  33.680  35.354  1.00  0.00    -0.352 N 
ATOM     34  C   UNL A   1      37.566  32.952  35.764  1.00  0.00     0.251 C 
ATOM     35  H   UNL A   1      35.838  33.951  36.058  1.00  0.00     0.163 HD
ATOM     36  O   UNL A   1      37.704  32.612  36.930  1.00  0.00    -0.269 OA
BRANCH  34  37
ATOM     37  C   UNL A   1      38.541  32.537  34.738  1.00  0.00     0.039 A 
ATOM     38  C   UNL A   1      38.190  31.561  33.804  1.00  0.00     0.014 A 
ATOM     39  C   UNL A   1      39.847  33.026  34.810  1.00  0.00     0.014 A 
ATOM     40  C   UNL A   1      39.189  30.942  33.065  1.00  0.00     0.010 A 
ATOM     41  C   UNL A   1      40.835  32.453  34.008  1.00  0.00     0.010 A 
ATOM     42  C   UNL A   1      40.524  31.365  33.176  1.00  0.00    -0.014 A 
BRANCH  42  43
ATOM     43  C   UNL A   1      41.583  30.629  32.441  1.00  0.00     0.031 A 
ATOM     44  C   UNL A   1      42.216  31.221  31.210  1.00  0.00     0.074 A 
ATOM     45  C   UNL A   1      42.027  29.458  32.934  1.00  0.00     0.049 A 
ATOM     46  N   UNL A   1      43.175  30.731  30.464  1.00  0.00    -0.248 NA
ATOM     47  C   UNL A   1      41.717  32.531  30.756  1.00  0.00     0.031 C 
ATOM     48  C   UNL A   1      41.519  28.804  34.141  1.00  0.00     0.029 A 
ATOM     49  N   UNL A   1      43.032  28.630  32.505  1.00  0.00    -0.354 N 
ATOM     50  C   UNL A   1      43.373  31.654  29.444  1.00  0.00     0.074 A 
ATOM     51  C   UNL A   1      42.429  32.728  29.654  1.00  0.00     0.031 C 
ATOM     52  C   UNL A   1      42.258  27.715  34.394  1.00  0.00     0.029 A 
ATOM     53  C   UNL A   1      43.247  27.556  33.333  1.00  0.00     0.049 A 
ATOM     54  H   UNL A   1      43.551  28.791  31.683  1.00  0.00     0.167 HD
ATOM     55  C   UNL A   1      44.267  31.610  28.429  1.00  0.00     0.031 A 
ATOM     56  C   UNL A   1      44.134  26.547  33.247  1.00  0.00     0.031 A 
ATOM     57  C   UNL A   1      45.224  30.553  28.236  1.00  0.00     0.049 A 
ATOM     58  C   UNL A   1      45.083  26.502  32.085  1.00  0.00     0.074 A 
ATOM     59  C   UNL A   1      46.180  30.435  27.241  1.00  0.00     0.029 A 
ATOM     60  N   UNL A   1      45.353  29.443  29.053  1.00  0.00    -0.354 N 
ATOM     61  N   UNL A   1      45.244  27.375  31.121  1.00  0.00    -0.248 NA
ATOM     62  C   UNL A   1      45.961  25.328  31.992  1.00  0.00     0.031 C 
ATOM     63  C   UNL A   1      46.859  29.228  27.431  1.00  0.00     0.029 A 
ATOM     64  C   UNL A   1      46.359  28.623  28.574  1.00  0.00     0.049 A 
ATOM     65  H   UNL A   1      44.811  29.265  29.855  1.00  0.00     0.167 HD
ATOM     66  C   UNL A   1      46.248  26.862  30.313  1.00  0.00     0.074 A 
ATOM     67  C   UNL A   1      46.672  25.612  30.908  1.00  0.00     0.031 C 
ATOM     68  C   UNL A   1      46.768  27.382  29.176  1.00  0.00     0.031 A 
BRANCH  55  69
ATOM     69  C   UNL A   1      44.258  32.727  27.425  1.00  0.00    -0.014 A 
ATOM     70  C   UNL A   1      43.784  32.486  26.125  1.00  0.00     0.009 A 
ATOM     71  C   UNL A   1      44.816  33.978  27.725  1.00  0.00     0.009 A 
ATOM     72  C   UNL A   1      43.882  33.471  25.140  1.00  0.00     0.001 A 
ATOM     73  C   UNL A   1      44.895  34.969  26.744  1.00  0.00     0.001 A 
ATOM     74  C   UNL A   1      44.436  34.712  25.451  1.00  0.00     0.000 A 
ENDBRANCH  55  69
BRANCH  56  75
ATOM     75  C   UNL A   1      44.159  25.503  34.301  1.00  0.00    -0.014 A 
ATOM     76  C   UNL A   1      44.975  25.649  35.434  1.00  0.00     0.009 A 
ATOM     77  C   UNL A   1      43.396  24.334  34.159  1.00  0.00     0.009 A 
ATOM     78  C   UNL A   1      45.047  24.636  36.391  1.00  0.00     0.001 A 
ATOM     79  C   UNL A   1      43.449  23.334  35.134  1.00  0.00     0.001 A 
ATOM     80  C   UNL A   1      44.280  23.483  36.243  1.00  0.00     0.000 A 
ENDBRANCH  56  75
BRANCH  68  81
ATOM     81  C   UNL A   1      47.864  26.613  28.497  1.00  0.00    -0.014 A 
ATOM     82  C   UNL A   1      49.201  26.833  28.865  1.00  0.00     0.009 A 
ATOM     83  C   UNL A   1      47.580  25.743  27.434  1.00  0.00     0.009 A 
ATOM     84  C   UNL A   1      50.236  26.204  28.173  1.00  0.00     0.001 A 
ATOM     85  C   UNL A   1      48.617  25.095  26.760  1.00  0.00     0.001 A 
ATOM     86  C   UNL A   1      49.943  25.332  27.125  1.00  0.00     0.000 A 
ENDBRANCH  68  81
ENDBRANCH  42  43
ENDBRANCH  34  37
ENDBRANCH  32  33
ENDBRANCH  31  32
ENDBRANCH   1  31
TORSDOF 14
ENDMDL
