MODEL 1
REMARK VINA RESULT:     -11.0      0.000      0.000
REMARK SMILES C[C@H](NC(=O)OCc1ccccc1)C(=O)NCC(=O)N1CCC[C@H]1C(=O)NCCCCNC(=O)c1ccc(-c2c3nc(c(-c4ccccc4)c4ccc([nH]4)c(-c4ccccc4)c4nc(c(-c5ccccc5)c5ccc2[nH]5)C=C4)C=C3)cc1
REMARK SMILES IDX 20 1 21 2 22 3 23 4 24 5 18 6 19 7 17 8 16 9 14 10 15 11
REMARK SMILES IDX 2 13 1 14 3 15 4 16 5 18 6 19 7 20 8 21 9 22 13 23 10 24
REMARK SMILES IDX 12 25 11 26 25 27 26 28 27 29 28 31 29 32 30 33 31 34 32 35
REMARK SMILES IDX 33 36 34 38 35 39 36 40 82 41 37 42 81 43 38 44 39 45 40 46
REMARK SMILES IDX 75 47 41 48 80 49 74 50 76 51 42 52 79 53 73 54 72 55 43 57
REMARK SMILES IDX 65 58 50 59 64 60 51 61 54 62 63 63 77 64 52 65 53 66 62 68
REMARK SMILES IDX 78 69 55 70 44 71 45 72 49 73 46 74 48 75 47 76 66 77 67 78
REMARK SMILES IDX 71 79 68 80 70 81 69 82 56 83 57 84 61 85 58 86 60 87 59 88
REMARK H PARENT 16 12 3 17 27 30 32 37 76 56 54 67
REMARK Flexibility Score: inf
ROOT
ATOM      1  N   UNL A   1      31.652  22.566  24.808  1.00  0.00    -0.329 N 
ATOM      2  C   UNL A   1      30.660  22.679  25.855  1.00  0.00     0.120 C 
ATOM      3  C   UNL A   1      31.464  23.171  27.043  1.00  0.00     0.024 C 
ATOM      4  C   UNL A   1      32.801  22.455  26.907  1.00  0.00     0.037 C 
ATOM      5  C   UNL A   1      32.915  22.041  25.417  1.00  0.00     0.174 C 
ENDROOT
BRANCH   1   6
ATOM      6  C   UNL A   1      31.629  23.192  23.578  1.00  0.00     0.242 C 
ATOM      7  O   UNL A   1      30.584  23.665  23.114  1.00  0.00    -0.273 OA
BRANCH   6   8
ATOM      8  C   UNL A   1      32.873  23.507  22.734  1.00  0.00     0.216 C 
BRANCH   8   9
ATOM      9  N   UNL A   1      32.830  24.101  21.424  1.00  0.00    -0.345 N 
ATOM     10  C   UNL A   1      32.737  25.404  21.053  1.00  0.00     0.242 C 
ATOM     11  O   UNL A   1      32.939  25.644  19.857  1.00  0.00    -0.273 OA
ATOM     12  H   UNL A   1      32.876  23.460  20.678  1.00  0.00     0.164 HD
BRANCH  10  13
ATOM     13  C   UNL A   1      32.468  26.563  22.040  1.00  0.00     0.171 C 
ATOM     14  C   UNL A   1      33.634  26.815  22.982  1.00  0.00     0.042 C 
BRANCH  13  15
ATOM     15  N   UNL A   1      31.131  26.537  22.624  1.00  0.00    -0.310 N 
ATOM     16  C   UNL A   1      30.562  27.189  23.674  1.00  0.00     0.408 C 
ATOM     17  H   UNL A   1      30.516  25.921  22.166  1.00  0.00     0.167 HD
ATOM     18  O   UNL A   1      29.439  26.880  24.040  1.00  0.00    -0.225 OA
BRANCH  16  19
ATOM     19  O   UNL A   1      31.350  28.138  24.228  1.00  0.00    -0.445 OA
BRANCH  19  20
ATOM     20  C   UNL A   1      31.235  28.286  25.656  1.00  0.00     0.270 C 
BRANCH  20  21
ATOM     21  C   UNL A   1      32.347  29.101  26.263  1.00  0.00    -0.011 A 
ATOM     22  C   UNL A   1      33.593  28.500  26.498  1.00  0.00     0.007 A 
ATOM     23  C   UNL A   1      32.150  30.436  26.632  1.00  0.00     0.007 A 
ATOM     24  C   UNL A   1      34.603  29.207  27.145  1.00  0.00     0.000 A 
ATOM     25  C   UNL A   1      33.158  31.137  27.288  1.00  0.00     0.000 A 
ATOM     26  C   UNL A   1      34.380  30.520  27.553  1.00  0.00     0.000 A 
ENDBRANCH  20  21
ENDBRANCH  19  20
ENDBRANCH  16  19
ENDBRANCH  13  15
ENDBRANCH  10  13
ENDBRANCH   8   9
ENDBRANCH   6   8
ENDBRANCH   1   6
BRANCH   5  27
ATOM     27  C   UNL A   1      33.200  20.491  25.331  1.00  0.00     0.242 C 
ATOM     28  O   UNL A   1      32.300  19.649  25.250  1.00  0.00    -0.273 OA
ATOM     29  N   UNL A   1      34.473  19.994  25.456  1.00  0.00    -0.354 N 
ATOM     30  H   UNL A   1      34.587  19.017  25.423  1.00  0.00     0.163 HD
BRANCH  29  31
ATOM     31  C   UNL A   1      35.646  20.796  25.629  1.00  0.00     0.116 C 
BRANCH  31  32
ATOM     32  C   UNL A   1      36.389  21.263  24.394  1.00  0.00     0.023 C 
BRANCH  32  33
ATOM     33  C   UNL A   1      36.515  22.757  24.192  1.00  0.00     0.023 C 
BRANCH  33  34
ATOM     34  C   UNL A   1      37.446  23.467  25.160  1.00  0.00     0.116 C 
BRANCH  34  35
ATOM     35  N   UNL A   1      38.649  22.707  25.478  1.00  0.00    -0.352 N 
ATOM     36  C   UNL A   1      39.761  23.084  26.198  1.00  0.00     0.251 C 
ATOM     37  H   UNL A   1      38.670  21.788  25.126  1.00  0.00     0.163 HD
ATOM     38  O   UNL A   1      40.734  22.343  26.275  1.00  0.00    -0.269 OA
BRANCH  36  39
ATOM     39  C   UNL A   1      39.792  24.415  26.841  1.00  0.00     0.039 A 
ATOM     40  C   UNL A   1      39.240  24.569  28.113  1.00  0.00     0.014 A 
ATOM     41  C   UNL A   1      40.431  25.488  26.217  1.00  0.00     0.014 A 
ATOM     42  C   UNL A   1      39.420  25.773  28.801  1.00  0.00     0.010 A 
ATOM     43  C   UNL A   1      40.707  26.639  26.946  1.00  0.00     0.010 A 
ATOM     44  C   UNL A   1      40.206  26.796  28.246  1.00  0.00    -0.014 A 
BRANCH  44  45
ATOM     45  C   UNL A   1      40.518  28.035  29.006  1.00  0.00     0.031 A 
ATOM     46  C   UNL A   1      41.829  28.159  29.738  1.00  0.00     0.074 A 
ATOM     47  C   UNL A   1      39.598  29.018  29.099  1.00  0.00     0.049 A 
ATOM     48  N   UNL A   1      42.255  29.129  30.506  1.00  0.00    -0.248 NA
ATOM     49  C   UNL A   1      42.773  27.036  29.616  1.00  0.00     0.031 C 
ATOM     50  C   UNL A   1      38.269  29.003  28.481  1.00  0.00     0.029 A 
ATOM     51  N   UNL A   1      39.639  30.224  29.757  1.00  0.00    -0.354 N 
ATOM     52  C   UNL A   1      43.498  28.722  30.974  1.00  0.00     0.074 A 
ATOM     53  C   UNL A   1      43.739  27.399  30.446  1.00  0.00     0.031 C 
ATOM     54  C   UNL A   1      37.636  30.153  28.765  1.00  0.00     0.029 A 
ATOM     55  C   UNL A   1      38.490  30.967  29.623  1.00  0.00     0.049 A 
ATOM     56  H   UNL A   1      40.418  30.526  30.277  1.00  0.00     0.167 HD
ATOM     57  C   UNL A   1      44.372  29.398  31.755  1.00  0.00     0.031 A 
ATOM     58  C   UNL A   1      38.155  32.165  30.144  1.00  0.00     0.031 A 
ATOM     59  C   UNL A   1      44.146  30.725  32.259  1.00  0.00     0.049 A 
ATOM     60  C   UNL A   1      39.147  32.886  31.016  1.00  0.00     0.074 A 
ATOM     61  C   UNL A   1      45.007  31.521  32.994  1.00  0.00     0.029 A 
ATOM     62  N   UNL A   1      42.979  31.449  32.083  1.00  0.00    -0.354 N 
ATOM     63  N   UNL A   1      40.357  32.525  31.368  1.00  0.00    -0.248 NA
ATOM     64  C   UNL A   1      38.730  34.190  31.554  1.00  0.00     0.031 C 
ATOM     65  C   UNL A   1      44.335  32.701  33.322  1.00  0.00     0.029 A 
ATOM     66  C   UNL A   1      43.084  32.669  32.727  1.00  0.00     0.049 A 
ATOM     67  H   UNL A   1      42.193  31.142  31.576  1.00  0.00     0.167 HD
ATOM     68  C   UNL A   1      40.856  33.570  32.135  1.00  0.00     0.074 A 
ATOM     69  C   UNL A   1      39.828  34.588  32.179  1.00  0.00     0.031 C 
ATOM     70  C   UNL A   1      42.059  33.678  32.751  1.00  0.00     0.031 A 
BRANCH  57  71
ATOM     71  C   UNL A   1      45.662  28.718  32.122  1.00  0.00    -0.014 A 
ATOM     72  C   UNL A   1      46.819  28.877  31.345  1.00  0.00     0.009 A 
ATOM     73  C   UNL A   1      45.740  27.977  33.312  1.00  0.00     0.009 A 
ATOM     74  C   UNL A   1      48.023  28.293  31.741  1.00  0.00     0.001 A 
ATOM     75  C   UNL A   1      46.951  27.418  33.721  1.00  0.00     0.001 A 
ATOM     76  C   UNL A   1      48.090  27.572  32.934  1.00  0.00     0.000 A 
ENDBRANCH  57  71
BRANCH  58  77
ATOM     77  C   UNL A   1      36.818  32.764  29.875  1.00  0.00    -0.014 A 
ATOM     78  C   UNL A   1      36.605  33.565  28.740  1.00  0.00     0.009 A 
ATOM     79  C   UNL A   1      35.762  32.587  30.783  1.00  0.00     0.009 A 
ATOM     80  C   UNL A   1      35.383  34.216  28.551  1.00  0.00     0.001 A 
ATOM     81  C   UNL A   1      34.529  33.208  30.570  1.00  0.00     0.001 A 
ATOM     82  C   UNL A   1      34.347  34.035  29.463  1.00  0.00     0.000 A 
ENDBRANCH  58  77
BRANCH  70  83
ATOM     83  C   UNL A   1      42.352  34.960  33.479  1.00  0.00    -0.014 A 
ATOM     84  C   UNL A   1      43.025  36.022  32.856  1.00  0.00     0.009 A 
ATOM     85  C   UNL A   1      41.901  35.123  34.798  1.00  0.00     0.009 A 
ATOM     86  C   UNL A   1      43.274  37.205  33.554  1.00  0.00     0.001 A 
ATOM     87  C   UNL A   1      42.120  36.318  35.482  1.00  0.00     0.001 A 
ATOM     88  C   UNL A   1      42.816  37.355  34.863  1.00  0.00     0.000 A 
ENDBRANCH  70  83
ENDBRANCH  44  45
ENDBRANCH  36  39
ENDBRANCH  34  35
ENDBRANCH  33  34
ENDBRANCH  32  33
ENDBRANCH  31  32
ENDBRANCH  29  31
ENDBRANCH   5  27
TORSDOF 19
ENDMDL
MODEL 2
REMARK VINA RESULT:     -10.7      0.332      5.673
REMARK SMILES C[C@H](NC(=O)OCc1ccccc1)C(=O)NCC(=O)N1CCC[C@H]1C(=O)NCCCCNC(=O)c1ccc(-c2c3nc(c(-c4ccccc4)c4ccc([nH]4)c(-c4ccccc4)c4nc(c(-c5ccccc5)c5ccc2[nH]5)C=C4)C=C3)cc1
REMARK SMILES IDX 20 1 21 2 22 3 23 4 24 5 18 6 19 7 17 8 16 9 14 10 15 11
REMARK SMILES IDX 2 13 1 14 3 15 4 16 5 18 6 19 7 20 8 21 9 22 13 23 10 24
REMARK SMILES IDX 12 25 11 26 25 27 26 28 27 29 28 31 29 32 30 33 31 34 32 35
REMARK SMILES IDX 33 36 34 38 35 39 36 40 82 41 37 42 81 43 38 44 39 45 40 46
REMARK SMILES IDX 75 47 41 48 80 49 74 50 76 51 42 52 79 53 73 54 72 55 43 57
REMARK SMILES IDX 65 58 50 59 64 60 51 61 54 62 63 63 77 64 52 65 53 66 62 68
REMARK SMILES IDX 78 69 55 70 44 71 45 72 49 73 46 74 48 75 47 76 66 77 67 78
REMARK SMILES IDX 71 79 68 80 70 81 69 82 56 83 57 84 61 85 58 86 60 87 59 88
REMARK H PARENT 16 12 3 17 27 30 32 37 76 56 54 67
REMARK Flexibility Score: inf
ROOT
ATOM      1  N   UNL A   1      31.610  22.614  24.838  1.00  0.00    -0.329 N 
ATOM      2  C   UNL A   1      30.619  22.682  25.891  1.00  0.00     0.120 C 
ATOM      3  C   UNL A   1      31.427  23.114  27.099  1.00  0.00     0.024 C 
ATOM      4  C   UNL A   1      32.760  22.399  26.928  1.00  0.00     0.037 C 
ATOM      5  C   UNL A   1      32.871  22.055  25.420  1.00  0.00     0.174 C 
ENDROOT
BRANCH   1   6
ATOM      6  C   UNL A   1      31.588  23.297  23.639  1.00  0.00     0.242 C 
ATOM      7  O   UNL A   1      30.531  23.724  23.159  1.00  0.00    -0.273 OA
BRANCH   6   8
ATOM      8  C   UNL A   1      32.837  23.733  22.859  1.00  0.00     0.216 C 
BRANCH   8   9
ATOM      9  N   UNL A   1      32.817  24.191  21.495  1.00  0.00    -0.345 N 
ATOM     10  C   UNL A   1      32.664  25.443  20.991  1.00  0.00     0.242 C 
ATOM     11  O   UNL A   1      32.905  25.576  19.785  1.00  0.00    -0.273 OA
ATOM     12  H   UNL A   1      32.932  23.483  20.820  1.00  0.00     0.164 HD
BRANCH  10  13
ATOM     13  C   UNL A   1      32.286  26.675  21.844  1.00  0.00     0.171 C 
ATOM     14  C   UNL A   1      33.406  27.111  22.776  1.00  0.00     0.042 C 
BRANCH  13  15
ATOM     15  N   UNL A   1      30.940  26.610  22.403  1.00  0.00    -0.310 N 
ATOM     16  C   UNL A   1      30.365  27.154  23.509  1.00  0.00     0.408 C 
ATOM     17  H   UNL A   1      30.322  26.058  21.871  1.00  0.00     0.167 HD
ATOM     18  O   UNL A   1      29.232  26.826  23.824  1.00  0.00    -0.225 OA
BRANCH  16  19
ATOM     19  O   UNL A   1      31.159  28.021  24.175  1.00  0.00    -0.445 OA
BRANCH  19  20
ATOM     20  C   UNL A   1      31.548  27.617  25.502  1.00  0.00     0.270 C 
BRANCH  20  21
ATOM     21  C   UNL A   1      32.521  28.565  26.154  1.00  0.00    -0.011 A 
ATOM     22  C   UNL A   1      33.836  28.142  26.396  1.00  0.00     0.007 A 
ATOM     23  C   UNL A   1      32.127  29.846  26.556  1.00  0.00     0.007 A 
ATOM     24  C   UNL A   1      34.724  28.967  27.084  1.00  0.00     0.000 A 
ATOM     25  C   UNL A   1      33.014  30.664  27.252  1.00  0.00     0.000 A 
ATOM     26  C   UNL A   1      34.308  30.221  27.524  1.00  0.00     0.000 A 
ENDBRANCH  20  21
ENDBRANCH  19  20
ENDBRANCH  16  19
ENDBRANCH  13  15
ENDBRANCH  10  13
ENDBRANCH   8   9
ENDBRANCH   6   8
ENDBRANCH   1   6
BRANCH   5  27
ATOM     27  C   UNL A   1      33.149  20.509  25.261  1.00  0.00     0.242 C 
ATOM     28  O   UNL A   1      32.245  19.679  25.123  1.00  0.00    -0.273 OA
ATOM     29  N   UNL A   1      34.417  20.000  25.381  1.00  0.00    -0.354 N 
ATOM     30  H   UNL A   1      34.526  19.024  25.300  1.00  0.00     0.163 HD
BRANCH  29  31
ATOM     31  C   UNL A   1      35.591  20.784  25.612  1.00  0.00     0.116 C 
BRANCH  31  32
ATOM     32  C   UNL A   1      36.258  21.452  24.427  1.00  0.00     0.023 C 
BRANCH  32  33
ATOM     33  C   UNL A   1      36.182  22.962  24.357  1.00  0.00     0.023 C 
BRANCH  33  34
ATOM     34  C   UNL A   1      37.295  23.702  25.080  1.00  0.00     0.116 C 
BRANCH  34  35
ATOM     35  N   UNL A   1      38.447  22.865  25.393  1.00  0.00    -0.352 N 
ATOM     36  C   UNL A   1      39.556  23.149  26.158  1.00  0.00     0.251 C 
ATOM     37  H   UNL A   1      38.430  21.963  24.998  1.00  0.00     0.163 HD
ATOM     38  O   UNL A   1      40.487  22.353  26.225  1.00  0.00    -0.269 OA
BRANCH  36  39
ATOM     39  C   UNL A   1      39.639  24.445  26.865  1.00  0.00     0.039 A 
ATOM     40  C   UNL A   1      39.049  24.573  28.123  1.00  0.00     0.014 A 
ATOM     41  C   UNL A   1      40.360  25.506  26.315  1.00  0.00     0.014 A 
ATOM     42  C   UNL A   1      39.271  25.732  28.873  1.00  0.00     0.010 A 
ATOM     43  C   UNL A   1      40.674  26.605  27.106  1.00  0.00     0.010 A 
ATOM     44  C   UNL A   1      40.134  26.732  28.394  1.00  0.00    -0.014 A 
BRANCH  44  45
ATOM     45  C   UNL A   1      40.487  27.915  29.222  1.00  0.00     0.031 A 
ATOM     46  C   UNL A   1      39.516  29.060  29.349  1.00  0.00     0.074 A 
ATOM     47  C   UNL A   1      41.703  27.994  29.800  1.00  0.00     0.049 A 
ATOM     48  N   UNL A   1      39.668  30.203  29.969  1.00  0.00    -0.248 NA
ATOM     49  C   UNL A   1      38.219  28.919  28.667  1.00  0.00     0.031 C 
ATOM     50  C   UNL A   1      42.756  26.978  29.714  1.00  0.00     0.029 A 
ATOM     51  N   UNL A   1      42.264  28.982  30.574  1.00  0.00    -0.354 N 
ATOM     52  C   UNL A   1      38.501  30.919  29.732  1.00  0.00     0.074 A 
ATOM     53  C   UNL A   1      37.670  30.107  28.872  1.00  0.00     0.031 C 
ATOM     54  C   UNL A   1      43.820  27.381  30.429  1.00  0.00     0.029 A 
ATOM     55  C   UNL A   1      43.547  28.702  30.984  1.00  0.00     0.049 A 
ATOM     56  H   UNL A   1      41.792  29.812  30.811  1.00  0.00     0.167 HD
ATOM     57  C   UNL A   1      38.141  32.134  30.205  1.00  0.00     0.031 A 
ATOM     58  C   UNL A   1      44.413  29.433  31.714  1.00  0.00     0.031 A 
ATOM     59  C   UNL A   1      38.954  32.932  31.083  1.00  0.00     0.049 A 
ATOM     60  C   UNL A   1      43.985  30.786  32.218  1.00  0.00     0.074 A 
ATOM     61  C   UNL A   1      38.642  34.143  31.676  1.00  0.00     0.029 A 
ATOM     62  N   UNL A   1      40.236  32.603  31.489  1.00  0.00    -0.354 N 
ATOM     63  N   UNL A   1      42.839  31.403  32.061  1.00  0.00    -0.248 NA
ATOM     64  C   UNL A   1      44.968  31.538  33.012  1.00  0.00     0.031 C 
ATOM     65  C   UNL A   1      39.760  34.580  32.388  1.00  0.00     0.029 A 
ATOM     66  C   UNL A   1      40.742  33.606  32.298  1.00  0.00     0.049 A 
ATOM     67  H   UNL A   1      40.716  31.780  31.240  1.00  0.00     0.167 HD
ATOM     68  C   UNL A   1      42.952  32.595  32.765  1.00  0.00     0.074 A 
ATOM     69  C   UNL A   1      44.268  32.605  33.368  1.00  0.00     0.031 C 
ATOM     70  C   UNL A   1      42.048  33.595  32.901  1.00  0.00     0.031 A 
BRANCH  57  71
ATOM     71  C   UNL A   1      36.808  32.689  29.786  1.00  0.00    -0.014 A 
ATOM     72  C   UNL A   1      36.666  33.437  28.608  1.00  0.00     0.009 A 
ATOM     73  C   UNL A   1      35.663  32.383  30.539  1.00  0.00     0.009 A 
ATOM     74  C   UNL A   1      35.408  33.885  28.203  1.00  0.00     0.001 A 
ATOM     75  C   UNL A   1      34.403  32.806  30.116  1.00  0.00     0.001 A 
ATOM     76  C   UNL A   1      34.276  33.560  28.951  1.00  0.00     0.000 A 
ENDBRANCH  57  71
BRANCH  58  77
ATOM     77  C   UNL A   1      45.780  28.921  32.009  1.00  0.00    -0.014 A 
ATOM     78  C   UNL A   1      46.025  28.146  33.154  1.00  0.00     0.009 A 
ATOM     79  C   UNL A   1      46.861  29.256  31.178  1.00  0.00     0.009 A 
ATOM     80  C   UNL A   1      47.327  27.763  33.487  1.00  0.00     0.001 A 
ATOM     81  C   UNL A   1      48.156  28.838  31.492  1.00  0.00     0.001 A 
ATOM     82  C   UNL A   1      48.390  28.107  32.655  1.00  0.00     0.000 A 
ENDBRANCH  58  77
BRANCH  70  83
ATOM     83  C   UNL A   1      42.427  34.758  33.775  1.00  0.00    -0.014 A 
ATOM     84  C   UNL A   1      42.263  34.715  35.168  1.00  0.00     0.009 A 
ATOM     85  C   UNL A   1      43.003  35.899  33.194  1.00  0.00     0.009 A 
ATOM     86  C   UNL A   1      42.633  35.807  35.956  1.00  0.00     0.001 A 
ATOM     87  C   UNL A   1      43.404  36.974  33.987  1.00  0.00     0.001 A 
ATOM     88  C   UNL A   1      43.209  36.931  35.366  1.00  0.00     0.000 A 
ENDBRANCH  70  83
ENDBRANCH  44  45
ENDBRANCH  36  39
ENDBRANCH  34  35
ENDBRANCH  33  34
ENDBRANCH  32  33
ENDBRANCH  31  32
ENDBRANCH  29  31
ENDBRANCH   5  27
TORSDOF 19
ENDMDL
MODEL 3
REMARK VINA RESULT:     -10.3      2.623      7.249
REMARK SMILES C[C@H](NC(=O)OCc1ccccc1)C(=O)NCC(=O)N1CCC[C@H]1C(=O)NCCCCNC(=O)c1ccc(-c2c3nc(c(-c4ccccc4)c4ccc([nH]4)c(-c4ccccc4)c4nc(c(-c5ccccc5)c5ccc2[nH]5)C=C4)C=C3)cc1
REMARK SMILES IDX 20 1 21 2 22 3 23 4 24 5 18 6 19 7 17 8 16 9 14 10 15 11
REMARK SMILES IDX 2 13 1 14 3 15 4 16 5 18 6 19 7 20 8 21 9 22 13 23 10 24
REMARK SMILES IDX 12 25 11 26 25 27 26 28 27 29 28 31 29 32 30 33 31 34 32 35
REMARK SMILES IDX 33 36 34 38 35 39 36 40 82 41 37 42 81 43 38 44 39 45 40 46
REMARK SMILES IDX 75 47 41 48 80 49 74 50 76 51 42 52 79 53 73 54 72 55 43 57
REMARK SMILES IDX 65 58 50 59 64 60 51 61 54 62 63 63 77 64 52 65 53 66 62 68
REMARK SMILES IDX 78 69 55 70 44 71 45 72 49 73 46 74 48 75 47 76 66 77 67 78
REMARK SMILES IDX 71 79 68 80 70 81 69 82 56 83 57 84 61 85 58 86 60 87 59 88
REMARK H PARENT 16 12 3 17 27 30 32 37 76 56 54 67
REMARK Flexibility Score: inf
ROOT
ATOM      1  N   UNL A   1      32.796  22.653  24.803  1.00  0.00    -0.329 N 
ATOM      2  C   UNL A   1      33.057  21.275  24.450  1.00  0.00     0.120 C 
ATOM      3  C   UNL A   1      33.186  20.590  25.797  1.00  0.00     0.024 C 
ATOM      4  C   UNL A   1      33.885  21.622  26.671  1.00  0.00     0.037 C 
ATOM      5  C   UNL A   1      33.633  22.995  25.996  1.00  0.00     0.174 C 
ENDROOT
BRANCH   1   6
ATOM      6  C   UNL A   1      31.707  23.411  24.423  1.00  0.00     0.242 C 
ATOM      7  O   UNL A   1      30.956  23.926  25.260  1.00  0.00    -0.273 OA
BRANCH   6   8
ATOM      8  C   UNL A   1      31.390  23.824  22.978  1.00  0.00     0.216 C 
BRANCH   8   9
ATOM      9  N   UNL A   1      32.338  24.442  22.089  1.00  0.00    -0.345 N 
ATOM     10  C   UNL A   1      32.561  25.754  21.818  1.00  0.00     0.242 C 
ATOM     11  O   UNL A   1      33.585  26.009  21.174  1.00  0.00    -0.273 OA
ATOM     12  H   UNL A   1      32.916  23.814  21.600  1.00  0.00     0.164 HD
BRANCH  10  13
ATOM     13  C   UNL A   1      31.658  26.904  22.322  1.00  0.00     0.171 C 
ATOM     14  C   UNL A   1      32.440  28.168  22.639  1.00  0.00     0.042 C 
BRANCH  13  15
ATOM     15  N   UNL A   1      30.655  26.478  23.291  1.00  0.00    -0.310 N 
ATOM     16  C   UNL A   1      29.381  26.881  23.550  1.00  0.00     0.408 C 
ATOM     17  H   UNL A   1      30.962  25.752  23.880  1.00  0.00     0.167 HD
ATOM     18  O   UNL A   1      28.794  26.440  24.525  1.00  0.00    -0.225 OA
BRANCH  16  19
ATOM     19  O   UNL A   1      28.896  27.781  22.665  1.00  0.00    -0.445 OA
BRANCH  19  20
ATOM     20  C   UNL A   1      27.959  28.735  23.198  1.00  0.00     0.270 C 
BRANCH  20  21
ATOM     21  C   UNL A   1      28.154  30.129  22.660  1.00  0.00    -0.011 A 
ATOM     22  C   UNL A   1      28.437  31.177  23.549  1.00  0.00     0.007 A 
ATOM     23  C   UNL A   1      28.022  30.405  21.295  1.00  0.00     0.007 A 
ATOM     24  C   UNL A   1      28.526  32.487  23.085  1.00  0.00     0.000 A 
ATOM     25  C   UNL A   1      28.102  31.717  20.835  1.00  0.00     0.000 A 
ATOM     26  C   UNL A   1      28.344  32.758  21.731  1.00  0.00     0.000 A 
ENDBRANCH  20  21
ENDBRANCH  19  20
ENDBRANCH  16  19
ENDBRANCH  13  15
ENDBRANCH  10  13
ENDBRANCH   8   9
ENDBRANCH   6   8
ENDBRANCH   1   6
BRANCH   5  27
ATOM     27  C   UNL A   1      35.017  23.716  25.758  1.00  0.00     0.242 C 
ATOM     28  O   UNL A   1      36.101  23.177  26.002  1.00  0.00    -0.273 OA
ATOM     29  N   UNL A   1      35.077  25.030  25.369  1.00  0.00    -0.354 N 
ATOM     30  H   UNL A   1      35.968  25.435  25.264  1.00  0.00     0.163 HD
BRANCH  29  31
ATOM     31  C   UNL A   1      33.936  25.853  25.104  1.00  0.00     0.116 C 
BRANCH  31  32
ATOM     32  C   UNL A   1      33.307  26.607  26.257  1.00  0.00     0.023 C 
BRANCH  32  33
ATOM     33  C   UNL A   1      33.632  28.080  26.373  1.00  0.00     0.023 C 
BRANCH  33  34
ATOM     34  C   UNL A   1      33.184  28.744  27.664  1.00  0.00     0.116 C 
BRANCH  34  35
ATOM     35  N   UNL A   1      33.401  30.185  27.688  1.00  0.00    -0.352 N 
ATOM     36  C   UNL A   1      34.544  30.897  27.977  1.00  0.00     0.251 C 
ATOM     37  H   UNL A   1      32.613  30.732  27.465  1.00  0.00     0.163 HD
ATOM     38  O   UNL A   1      34.515  32.120  28.054  1.00  0.00    -0.269 OA
BRANCH  36  39
ATOM     39  C   UNL A   1      35.804  30.170  28.242  1.00  0.00     0.039 A 
ATOM     40  C   UNL A   1      36.750  30.053  27.222  1.00  0.00     0.014 A 
ATOM     41  C   UNL A   1      36.078  29.669  29.516  1.00  0.00     0.014 A 
ATOM     42  C   UNL A   1      38.012  29.526  27.510  1.00  0.00     0.010 A 
ATOM     43  C   UNL A   1      37.368  29.253  29.826  1.00  0.00     0.010 A 
ATOM     44  C   UNL A   1      38.350  29.176  28.828  1.00  0.00    -0.014 A 
BRANCH  44  45
ATOM     45  C   UNL A   1      39.723  28.730  29.186  1.00  0.00     0.031 A 
ATOM     46  C   UNL A   1      40.643  29.658  29.937  1.00  0.00     0.074 A 
ATOM     47  C   UNL A   1      40.168  27.525  28.776  1.00  0.00     0.049 A 
ATOM     48  N   UNL A   1      41.893  29.478  30.280  1.00  0.00    -0.248 NA
ATOM     49  C   UNL A   1      40.100  30.970  30.327  1.00  0.00     0.031 C 
ATOM     50  C   UNL A   1      39.397  26.551  27.997  1.00  0.00     0.029 A 
ATOM     51  N   UNL A   1      41.386  26.912  28.952  1.00  0.00    -0.354 N 
ATOM     52  C   UNL A   1      42.287  30.656  30.902  1.00  0.00     0.074 A 
ATOM     53  C   UNL A   1      41.164  31.563  30.846  1.00  0.00     0.031 C 
ATOM     54  C   UNL A   1      40.148  25.456  27.790  1.00  0.00     0.029 A 
ATOM     55  C   UNL A   1      41.468  25.667  28.375  1.00  0.00     0.049 A 
ATOM     56  H   UNL A   1      42.130  27.328  29.444  1.00  0.00     0.167 HD
ATOM     57  C   UNL A   1      43.471  30.949  31.488  1.00  0.00     0.031 A 
ATOM     58  C   UNL A   1      42.495  24.796  28.313  1.00  0.00     0.031 A 
ATOM     59  C   UNL A   1      44.580  30.039  31.569  1.00  0.00     0.049 A 
ATOM     60  C   UNL A   1      43.801  25.157  28.967  1.00  0.00     0.074 A 
ATOM     61  C   UNL A   1      45.793  30.220  32.210  1.00  0.00     0.029 A 
ATOM     62  N   UNL A   1      44.614  28.781  30.990  1.00  0.00    -0.354 N 
ATOM     63  N   UNL A   1      44.123  26.239  29.633  1.00  0.00    -0.248 NA
ATOM     64  C   UNL A   1      44.886  24.169  28.870  1.00  0.00     0.031 C 
ATOM     65  C   UNL A   1      46.588  29.098  31.962  1.00  0.00     0.029 A 
ATOM     66  C   UNL A   1      45.841  28.189  31.230  1.00  0.00     0.049 A 
ATOM     67  H   UNL A   1      43.876  28.371  30.484  1.00  0.00     0.167 HD
ATOM     68  C   UNL A   1      45.429  26.045  30.064  1.00  0.00     0.074 A 
ATOM     69  C   UNL A   1      45.833  24.734  29.604  1.00  0.00     0.031 C 
ATOM     70  C   UNL A   1      46.225  26.879  30.777  1.00  0.00     0.031 A 
BRANCH  57  71
ATOM     71  C   UNL A   1      43.640  32.316  32.091  1.00  0.00    -0.014 A 
ATOM     72  C   UNL A   1      44.040  33.414  31.314  1.00  0.00     0.009 A 
ATOM     73  C   UNL A   1      43.309  32.523  33.440  1.00  0.00     0.009 A 
ATOM     74  C   UNL A   1      44.125  34.687  31.879  1.00  0.00     0.001 A 
ATOM     75  C   UNL A   1      43.365  33.802  33.995  1.00  0.00     0.001 A 
ATOM     76  C   UNL A   1      43.778  34.882  33.217  1.00  0.00     0.000 A 
ENDBRANCH  57  71
BRANCH  58  77
ATOM     77  C   UNL A   1      42.349  23.499  27.595  1.00  0.00    -0.014 A 
ATOM     78  C   UNL A   1      41.877  22.357  28.264  1.00  0.00     0.009 A 
ATOM     79  C   UNL A   1      42.737  23.380  26.251  1.00  0.00     0.009 A 
ATOM     80  C   UNL A   1      41.849  21.118  27.619  1.00  0.00     0.001 A 
ATOM     81  C   UNL A   1      42.671  22.148  25.597  1.00  0.00     0.001 A 
ATOM     82  C   UNL A   1      42.243  21.015  26.287  1.00  0.00     0.000 A 
ENDBRANCH  58  77
BRANCH  70  83
ATOM     83  C   UNL A   1      47.592  26.379  31.150  1.00  0.00    -0.014 A 
ATOM     84  C   UNL A   1      47.834  25.747  32.380  1.00  0.00     0.009 A 
ATOM     85  C   UNL A   1      48.647  26.501  30.231  1.00  0.00     0.009 A 
ATOM     86  C   UNL A   1      49.113  25.284  32.695  1.00  0.00     0.001 A 
ATOM     87  C   UNL A   1      49.915  26.007  30.534  1.00  0.00     0.001 A 
ATOM     88  C   UNL A   1      50.150  25.408  31.770  1.00  0.00     0.000 A 
ENDBRANCH  70  83
ENDBRANCH  44  45
ENDBRANCH  36  39
ENDBRANCH  34  35
ENDBRANCH  33  34
ENDBRANCH  32  33
ENDBRANCH  31  32
ENDBRANCH  29  31
ENDBRANCH   5  27
TORSDOF 19
ENDMDL
