MODEL 1
REMARK VINA RESULT:     -12.9      0.000      0.000
REMARK SMILES Cc1sc(NC(=O)[C@@H]2[C@@H](C(=O)NCCCCNC(=O)c3ccc(-c4c5nc(c(-c6ccccc6)c6ccc([nH]6)c(-c6ccccc6)c6nc(c(-c7ccccc7)c7ccc4[nH]7)C=C6)C=C5)cc3)[C@@H]3C=C[C@H]2C3)c(C#N)c1C
REMARK SMILES IDX 14 1 13 2 12 3 10 4 11 5 9 7 8 8 71 9 68 10 70 11 72 12
REMARK SMILES IDX 69 13 6 14 5 15 7 17 4 18 1 19 2 20 3 21 76 22 73 23 77 24
REMARK SMILES IDX 74 25 75 26 15 27 16 28 17 29 18 30 19 32 20 33 21 34 67 35
REMARK SMILES IDX 22 36 66 37 23 38 24 39 25 40 60 41 26 42 65 43 59 44 61 45
REMARK SMILES IDX 27 46 64 47 58 48 57 49 28 51 50 52 35 53 49 54 36 55 39 56
REMARK SMILES IDX 48 57 62 58 37 59 38 60 47 62 63 63 40 64 29 65 30 66 34 67
REMARK SMILES IDX 31 68 33 69 32 70 51 71 52 72 56 73 53 74 55 75 54 76 41 77
REMARK SMILES IDX 42 78 46 79 43 80 45 81 44 82
REMARK H PARENT 12 6 5 16 17 31 61 50 39 61
REMARK Flexibility Score: inf
ROOT
ATOM      1  C   UNL A   1      36.397  20.298  25.016  1.00  0.00     0.023 C 
ENDROOT
BRANCH   1   2
ATOM      2  C   UNL A   1      36.395  21.744  25.506  1.00  0.00     0.116 C 
BRANCH   2   3
ATOM      3  N   UNL A   1      35.534  21.931  26.658  1.00  0.00    -0.356 N 
ATOM      4  C   UNL A   1      34.319  22.482  26.879  1.00  0.00     0.224 C 
ATOM      5  O   UNL A   1      33.932  22.388  28.053  1.00  0.00    -0.275 OA
ATOM      6  H   UNL A   1      35.931  21.566  27.482  1.00  0.00     0.163 HD
BRANCH   4   7
ATOM      7  C   UNL A   1      33.400  23.138  25.835  1.00  0.00     0.098 C 
ATOM      8  C   UNL A   1      31.906  22.812  26.196  1.00  0.00     0.099 C 
ATOM      9  C   UNL A   1      31.407  22.198  24.832  1.00  0.00     0.025 C 
ATOM     10  C   UNL A   1      33.530  22.672  24.374  1.00  0.00     0.025 C 
ATOM     11  C   UNL A   1      31.407  23.278  23.771  1.00  0.00    -0.027 C 
ATOM     12  C   UNL A   1      32.636  21.430  24.368  1.00  0.00     0.017 C 
ATOM     13  C   UNL A   1      32.685  23.575  23.507  1.00  0.00    -0.027 C 
BRANCH   8  14
ATOM     14  C   UNL A   1      30.801  23.766  26.687  1.00  0.00     0.229 C 
ATOM     15  N   UNL A   1      30.743  25.117  26.705  1.00  0.00    -0.316 N 
ATOM     16  H   UNL A   1      30.130  25.436  27.406  1.00  0.00     0.170 HD
ATOM     17  O   UNL A   1      29.893  23.267  27.385  1.00  0.00    -0.274 OA
BRANCH  15  18
ATOM     18  C   UNL A   1      31.304  26.170  26.019  1.00  0.00     0.113 A 
ATOM     19  C   UNL A   1      33.892  28.970  25.205  1.00  0.00     0.057 C 
ATOM     20  C   UNL A   1      32.782  27.975  25.226  1.00  0.00     0.008 A 
ATOM     21  S   UNL A   1      32.889  26.651  26.279  1.00  0.00    -0.122 S 
ATOM     22  C   UNL A   1      31.631  27.912  24.460  1.00  0.00    -0.017 A 
ATOM     23  C   UNL A   1      30.774  26.847  24.933  1.00  0.00     0.090 A 
ATOM     24  C   UNL A   1      31.308  28.821  23.318  1.00  0.00     0.047 C 
BRANCH  23  25
ATOM     25  C   UNL A   1      29.492  26.530  24.352  1.00  0.00     0.103 C 
ATOM     26  N   UNL A   1      28.468  26.294  23.886  1.00  0.00    -0.192 NA
ENDBRANCH  23  25
ENDBRANCH  15  18
ENDBRANCH   8  14
ENDBRANCH   4   7
ENDBRANCH   2   3
ENDBRANCH   1   2
BRANCH   1  27
ATOM     27  C   UNL A   1      37.788  19.738  24.699  1.00  0.00     0.023 C 
BRANCH  27  28
ATOM     28  C   UNL A   1      38.888  20.234  25.630  1.00  0.00     0.116 C 
BRANCH  28  29
ATOM     29  N   UNL A   1      39.910  19.216  25.917  1.00  0.00    -0.352 N 
ATOM     30  C   UNL A   1      41.282  19.387  26.045  1.00  0.00     0.251 C 
ATOM     31  H   UNL A   1      39.578  18.297  26.034  1.00  0.00     0.163 HD
ATOM     32  O   UNL A   1      42.067  18.461  25.908  1.00  0.00    -0.269 OA
BRANCH  30  33
ATOM     33  C   UNL A   1      41.768  20.707  26.465  1.00  0.00     0.039 A 
ATOM     34  C   UNL A   1      42.374  21.656  25.628  1.00  0.00     0.014 A 
ATOM     35  C   UNL A   1      41.504  20.999  27.784  1.00  0.00     0.014 A 
ATOM     36  C   UNL A   1      42.721  22.898  26.173  1.00  0.00     0.010 A 
ATOM     37  C   UNL A   1      41.397  22.313  28.066  1.00  0.00     0.010 A 
ATOM     38  C   UNL A   1      42.260  23.192  27.452  1.00  0.00    -0.014 A 
BRANCH  38  39
ATOM     39  C   UNL A   1      42.437  24.427  28.194  1.00  0.00     0.031 A 
ATOM     40  C   UNL A   1      41.345  25.406  27.945  1.00  0.00     0.074 A 
ATOM     41  C   UNL A   1      43.303  24.457  29.244  1.00  0.00     0.049 A 
ATOM     42  N   UNL A   1      41.417  26.499  27.260  1.00  0.00    -0.248 NA
ATOM     43  C   UNL A   1      39.957  25.023  28.285  1.00  0.00     0.031 C 
ATOM     44  C   UNL A   1      44.183  23.389  29.760  1.00  0.00     0.029 A 
ATOM     45  N   UNL A   1      43.512  25.437  30.161  1.00  0.00    -0.354 N 
ATOM     46  C   UNL A   1      40.144  27.059  27.322  1.00  0.00     0.074 A 
ATOM     47  C   UNL A   1      39.259  25.991  27.690  1.00  0.00     0.031 C 
ATOM     48  C   UNL A   1      44.629  23.708  31.002  1.00  0.00     0.029 A 
ATOM     49  C   UNL A   1      44.203  25.057  31.316  1.00  0.00     0.049 A 
ATOM     50  H   UNL A   1      43.197  26.359  30.020  1.00  0.00     0.167 HD
ATOM     51  C   UNL A   1      39.974  28.408  27.428  1.00  0.00     0.031 A 
ATOM     52  C   UNL A   1      44.371  25.811  32.439  1.00  0.00     0.031 A 
ATOM     53  C   UNL A   1      41.214  29.093  27.155  1.00  0.00     0.049 A 
ATOM     54  C   UNL A   1      44.077  27.217  32.053  1.00  0.00     0.074 A 
ATOM     55  C   UNL A   1      42.056  29.181  26.067  1.00  0.00     0.029 A 
ATOM     56  N   UNL A   1      41.965  29.435  28.256  1.00  0.00    -0.354 N 
ATOM     57  N   UNL A   1      44.812  27.878  31.204  1.00  0.00    -0.248 NA
ATOM     58  C   UNL A   1      42.693  27.656  32.164  1.00  0.00     0.031 C 
ATOM     59  C   UNL A   1      43.369  29.094  26.619  1.00  0.00     0.029 A 
ATOM     60  C   UNL A   1      43.268  29.090  28.012  1.00  0.00     0.049 A 
ATOM     61  H   UNL A   1      41.625  29.856  29.078  1.00  0.00     0.167 HD
ATOM     62  C   UNL A   1      43.903  28.499  30.358  1.00  0.00     0.074 A 
ATOM     63  C   UNL A   1      42.607  28.364  31.032  1.00  0.00     0.031 C 
ATOM     64  C   UNL A   1      44.219  28.757  29.053  1.00  0.00     0.031 A 
BRANCH  51  65
ATOM     65  C   UNL A   1      38.878  29.066  28.240  1.00  0.00    -0.014 A 
ATOM     66  C   UNL A   1      38.830  28.792  29.620  1.00  0.00     0.009 A 
ATOM     67  C   UNL A   1      37.745  29.694  27.689  1.00  0.00     0.009 A 
ATOM     68  C   UNL A   1      37.677  29.032  30.375  1.00  0.00     0.001 A 
ATOM     69  C   UNL A   1      36.603  29.968  28.448  1.00  0.00     0.001 A 
ATOM     70  C   UNL A   1      36.557  29.605  29.785  1.00  0.00     0.000 A 
ENDBRANCH  51  65
BRANCH  52  71
ATOM     71  C   UNL A   1      44.395  25.391  33.867  1.00  0.00    -0.014 A 
ATOM     72  C   UNL A   1      44.747  26.281  34.899  1.00  0.00     0.009 A 
ATOM     73  C   UNL A   1      43.777  24.183  34.245  1.00  0.00     0.009 A 
ATOM     74  C   UNL A   1      44.468  25.985  36.246  1.00  0.00     0.001 A 
ATOM     75  C   UNL A   1      43.491  23.892  35.587  1.00  0.00     0.001 A 
ATOM     76  C   UNL A   1      43.828  24.797  36.588  1.00  0.00     0.000 A 
ENDBRANCH  52  71
BRANCH  64  77
ATOM     77  C   UNL A   1      45.640  28.504  28.601  1.00  0.00    -0.014 A 
ATOM     78  C   UNL A   1      46.685  29.444  28.698  1.00  0.00     0.009 A 
ATOM     79  C   UNL A   1      45.964  27.197  28.214  1.00  0.00     0.009 A 
ATOM     80  C   UNL A   1      48.005  29.086  28.391  1.00  0.00     0.001 A 
ATOM     81  C   UNL A   1      47.280  26.835  27.927  1.00  0.00     0.001 A 
ATOM     82  C   UNL A   1      48.301  27.779  28.007  1.00  0.00     0.000 A 
ENDBRANCH  64  77
ENDBRANCH  38  39
ENDBRANCH  30  33
ENDBRANCH  28  29
ENDBRANCH  27  28
ENDBRANCH   1  27
TORSDOF 14
ENDMDL
MODEL 2
REMARK VINA RESULT:     -12.4      4.323      9.059
REMARK SMILES Cc1sc(NC(=O)[C@@H]2[C@@H](C(=O)NCCCCNC(=O)c3ccc(-c4c5nc(c(-c6ccccc6)c6ccc([nH]6)c(-c6ccccc6)c6nc(c(-c7ccccc7)c7ccc4[nH]7)C=C6)C=C5)cc3)[C@@H]3C=C[C@H]2C3)c(C#N)c1C
REMARK SMILES IDX 14 1 13 2 12 3 10 4 11 5 9 7 8 8 71 9 68 10 70 11 72 12
REMARK SMILES IDX 69 13 6 14 5 15 7 17 4 18 1 19 2 20 3 21 76 22 73 23 77 24
REMARK SMILES IDX 74 25 75 26 15 27 16 28 17 29 18 30 19 32 20 33 21 34 67 35
REMARK SMILES IDX 22 36 66 37 23 38 24 39 25 40 60 41 26 42 65 43 59 44 61 45
REMARK SMILES IDX 27 46 64 47 58 48 57 49 28 51 50 52 35 53 49 54 36 55 39 56
REMARK SMILES IDX 48 57 62 58 37 59 38 60 47 62 63 63 40 64 29 65 30 66 34 67
REMARK SMILES IDX 31 68 33 69 32 70 51 71 52 72 56 73 53 74 55 75 54 76 41 77
REMARK SMILES IDX 42 78 46 79 43 80 45 81 44 82
REMARK H PARENT 12 6 5 16 17 31 61 50 39 61
REMARK Flexibility Score: inf
ROOT
ATOM      1  C   UNL A   1      31.403  30.822  25.741  1.00  0.00     0.023 C 
ENDROOT
BRANCH   1   2
ATOM      2  C   UNL A   1      32.625  29.927  25.925  1.00  0.00     0.116 C 
BRANCH   2   3
ATOM      3  N   UNL A   1      33.315  29.676  24.674  1.00  0.00    -0.356 N 
ATOM      4  C   UNL A   1      33.381  28.651  23.793  1.00  0.00     0.224 C 
ATOM      5  O   UNL A   1      34.090  28.886  22.804  1.00  0.00    -0.275 OA
ATOM      6  H   UNL A   1      33.871  30.440  24.397  1.00  0.00     0.163 HD
BRANCH   4   7
ATOM      7  C   UNL A   1      32.643  27.305  23.888  1.00  0.00     0.098 C 
ATOM      8  C   UNL A   1      32.379  26.768  22.436  1.00  0.00     0.099 C 
ATOM      9  C   UNL A   1      30.822  26.525  22.497  1.00  0.00     0.025 C 
ATOM     10  C   UNL A   1      31.249  27.298  24.537  1.00  0.00     0.025 C 
ATOM     11  C   UNL A   1      30.531  25.404  23.471  1.00  0.00    -0.027 C 
ATOM     12  C   UNL A   1      30.359  27.693  23.356  1.00  0.00     0.017 C 
ATOM     13  C   UNL A   1      30.804  25.864  24.698  1.00  0.00    -0.027 C 
BRANCH   8  14
ATOM     14  C   UNL A   1      32.994  25.543  21.732  1.00  0.00     0.229 C 
ATOM     15  N   UNL A   1      33.639  24.467  22.235  1.00  0.00    -0.316 N 
ATOM     16  H   UNL A   1      34.244  24.071  21.566  1.00  0.00     0.170 HD
ATOM     17  O   UNL A   1      33.138  25.617  20.494  1.00  0.00    -0.274 OA
BRANCH  15  18
ATOM     18  C   UNL A   1      33.688  23.771  23.421  1.00  0.00     0.113 A 
ATOM     19  C   UNL A   1      34.742  22.973  27.089  1.00  0.00     0.057 C 
ATOM     20  C   UNL A   1      34.130  23.035  25.731  1.00  0.00     0.008 A 
ATOM     21  S   UNL A   1      34.287  24.460  24.827  1.00  0.00    -0.122 S 
ATOM     22  C   UNL A   1      33.372  22.096  25.054  1.00  0.00    -0.017 A 
ATOM     23  C   UNL A   1      33.116  22.541  23.702  1.00  0.00     0.090 A 
ATOM     24  C   UNL A   1      32.896  20.800  25.629  1.00  0.00     0.047 C 
BRANCH  23  25
ATOM     25  C   UNL A   1      32.362  21.780  22.735  1.00  0.00     0.103 C 
ATOM     26  N   UNL A   1      31.752  21.188  21.962  1.00  0.00    -0.192 NA
ENDBRANCH  23  25
ENDBRANCH  15  18
ENDBRANCH   8  14
ENDBRANCH   4   7
ENDBRANCH   2   3
ENDBRANCH   1   2
BRANCH   1  27
ATOM     27  C   UNL A   1      31.274  31.942  26.779  1.00  0.00     0.023 C 
BRANCH  27  28
ATOM     28  C   UNL A   1      32.606  32.536  27.225  1.00  0.00     0.116 C 
BRANCH  28  29
ATOM     29  N   UNL A   1      32.526  33.970  27.540  1.00  0.00    -0.352 N 
ATOM     30  C   UNL A   1      33.112  34.651  28.599  1.00  0.00     0.251 C 
ATOM     31  H   UNL A   1      31.988  34.516  26.923  1.00  0.00     0.163 HD
ATOM     32  O   UNL A   1      32.694  35.732  28.987  1.00  0.00    -0.269 OA
BRANCH  30  33
ATOM     33  C   UNL A   1      34.336  34.085  29.181  1.00  0.00     0.039 A 
ATOM     34  C   UNL A   1      34.420  33.419  30.412  1.00  0.00     0.014 A 
ATOM     35  C   UNL A   1      35.435  34.185  28.358  1.00  0.00     0.014 A 
ATOM     36  C   UNL A   1      35.653  32.877  30.791  1.00  0.00     0.010 A 
ATOM     37  C   UNL A   1      36.379  33.242  28.551  1.00  0.00     0.010 A 
ATOM     38  C   UNL A   1      36.667  32.850  29.839  1.00  0.00    -0.014 A 
BRANCH  38  39
ATOM     39  C   UNL A   1      37.998  32.289  29.978  1.00  0.00     0.031 A 
ATOM     40  C   UNL A   1      38.059  30.856  29.583  1.00  0.00     0.074 A 
ATOM     41  C   UNL A   1      39.067  33.124  30.095  1.00  0.00     0.049 A 
ATOM     42  N   UNL A   1      38.187  29.835  30.363  1.00  0.00    -0.248 NA
ATOM     43  C   UNL A   1      37.697  30.486  28.196  1.00  0.00     0.031 C 
ATOM     44  C   UNL A   1      39.098  34.599  30.153  1.00  0.00     0.029 A 
ATOM     45  N   UNL A   1      40.393  32.833  30.082  1.00  0.00    -0.354 N 
ATOM     46  C   UNL A   1      38.192  28.725  29.522  1.00  0.00     0.074 A 
ATOM     47  C   UNL A   1      37.601  29.160  28.289  1.00  0.00     0.031 C 
ATOM     48  C   UNL A   1      40.359  35.051  29.934  1.00  0.00     0.029 A 
ATOM     49  C   UNL A   1      41.255  33.913  29.872  1.00  0.00     0.049 A 
ATOM     50  H   UNL A   1      40.727  31.916  30.212  1.00  0.00     0.167 HD
ATOM     51  C   UNL A   1      39.002  27.657  29.773  1.00  0.00     0.031 A 
ATOM     52  C   UNL A   1      42.597  33.842  29.643  1.00  0.00     0.031 A 
ATOM     53  C   UNL A   1      39.547  27.741  31.106  1.00  0.00     0.049 A 
ATOM     54  C   UNL A   1      43.029  32.487  30.080  1.00  0.00     0.074 A 
ATOM     55  C   UNL A   1      39.010  27.760  32.375  1.00  0.00     0.029 A 
ATOM     56  N   UNL A   1      40.802  28.297  31.208  1.00  0.00    -0.354 N 
ATOM     57  N   UNL A   1      42.974  32.103  31.324  1.00  0.00    -0.248 NA
ATOM     58  C   UNL A   1      42.969  31.424  29.088  1.00  0.00     0.031 C 
ATOM     59  C   UNL A   1      39.759  28.757  33.069  1.00  0.00     0.029 A 
ATOM     60  C   UNL A   1      40.792  29.198  32.239  1.00  0.00     0.049 A 
ATOM     61  H   UNL A   1      41.575  28.083  30.637  1.00  0.00     0.167 HD
ATOM     62  C   UNL A   1      42.425  30.829  31.276  1.00  0.00     0.074 A 
ATOM     63  C   UNL A   1      42.488  30.443  29.861  1.00  0.00     0.031 C 
ATOM     64  C   UNL A   1      41.668  30.349  32.308  1.00  0.00     0.031 A 
BRANCH  51  65
ATOM     65  C   UNL A   1      39.687  26.839  28.697  1.00  0.00    -0.014 A 
ATOM     66  C   UNL A   1      40.538  27.515  27.802  1.00  0.00     0.009 A 
ATOM     67  C   UNL A   1      39.326  25.525  28.344  1.00  0.00     0.009 A 
ATOM     68  C   UNL A   1      40.913  26.949  26.578  1.00  0.00     0.001 A 
ATOM     69  C   UNL A   1      39.728  24.942  27.138  1.00  0.00     0.001 A 
ATOM     70  C   UNL A   1      40.494  25.668  26.239  1.00  0.00     0.000 A 
ENDBRANCH  51  65
BRANCH  52  71
ATOM     71  C   UNL A   1      43.452  34.677  28.755  1.00  0.00    -0.014 A 
ATOM     72  C   UNL A   1      42.995  35.146  27.509  1.00  0.00     0.009 A 
ATOM     73  C   UNL A   1      44.622  35.266  29.271  1.00  0.00     0.009 A 
ATOM     74  C   UNL A   1      43.666  36.177  26.826  1.00  0.00     0.001 A 
ATOM     75  C   UNL A   1      45.286  36.300  28.595  1.00  0.00     0.001 A 
ATOM     76  C   UNL A   1      44.803  36.762  27.375  1.00  0.00     0.000 A 
ENDBRANCH  52  71
BRANCH  64  77
ATOM     77  C   UNL A   1      41.586  31.173  33.574  1.00  0.00    -0.014 A 
ATOM     78  C   UNL A   1      40.659  32.212  33.789  1.00  0.00     0.009 A 
ATOM     79  C   UNL A   1      42.377  30.762  34.655  1.00  0.00     0.009 A 
ATOM     80  C   UNL A   1      40.552  32.831  35.041  1.00  0.00     0.001 A 
ATOM     81  C   UNL A   1      42.257  31.365  35.907  1.00  0.00     0.001 A 
ATOM     82  C   UNL A   1      41.351  32.405  36.101  1.00  0.00     0.000 A 
ENDBRANCH  64  77
ENDBRANCH  38  39
ENDBRANCH  30  33
ENDBRANCH  28  29
ENDBRANCH  27  28
ENDBRANCH   1  27
TORSDOF 14
ENDMDL
MODEL 3
REMARK VINA RESULT:     -12.2      1.430      1.964
REMARK SMILES Cc1sc(NC(=O)[C@@H]2[C@@H](C(=O)NCCCCNC(=O)c3ccc(-c4c5nc(c(-c6ccccc6)c6ccc([nH]6)c(-c6ccccc6)c6nc(c(-c7ccccc7)c7ccc4[nH]7)C=C6)C=C5)cc3)[C@@H]3C=C[C@H]2C3)c(C#N)c1C
REMARK SMILES IDX 14 1 13 2 12 3 10 4 11 5 9 7 8 8 71 9 68 10 70 11 72 12
REMARK SMILES IDX 69 13 6 14 5 15 7 17 4 18 1 19 2 20 3 21 76 22 73 23 77 24
REMARK SMILES IDX 74 25 75 26 15 27 16 28 17 29 18 30 19 32 20 33 21 34 67 35
REMARK SMILES IDX 22 36 66 37 23 38 24 39 25 40 60 41 26 42 65 43 59 44 61 45
REMARK SMILES IDX 27 46 64 47 58 48 57 49 28 51 50 52 35 53 49 54 36 55 39 56
REMARK SMILES IDX 48 57 62 58 37 59 38 60 47 62 63 63 40 64 29 65 30 66 34 67
REMARK SMILES IDX 31 68 33 69 32 70 51 71 52 72 56 73 53 74 55 75 54 76 41 77
REMARK SMILES IDX 42 78 46 79 43 80 45 81 44 82
REMARK H PARENT 12 6 5 16 17 31 61 50 39 61
REMARK Flexibility Score: inf
ROOT
ATOM      1  C   UNL A   1      38.452  22.622  25.760  1.00  0.00     0.023 C 
ENDROOT
BRANCH   1   2
ATOM      2  C   UNL A   1      37.072  23.255  25.611  1.00  0.00     0.116 C 
BRANCH   2   3
ATOM      3  N   UNL A   1      36.095  22.657  26.501  1.00  0.00    -0.356 N 
ATOM      4  C   UNL A   1      34.956  21.944  26.349  1.00  0.00     0.224 C 
ATOM      5  O   UNL A   1      34.440  21.590  27.419  1.00  0.00    -0.275 OA
ATOM      6  H   UNL A   1      36.316  22.806  27.449  1.00  0.00     0.163 HD
BRANCH   4   7
ATOM      7  C   UNL A   1      34.308  21.513  25.023  1.00  0.00     0.098 C 
ATOM      8  C   UNL A   1      33.519  22.732  24.423  1.00  0.00     0.099 C 
ATOM      9  C   UNL A   1      32.099  22.081  24.213  1.00  0.00     0.025 C 
ATOM     10  C   UNL A   1      33.258  20.390  25.072  1.00  0.00     0.025 C 
ATOM     11  C   UNL A   1      32.194  21.013  23.143  1.00  0.00    -0.027 C 
ATOM     12  C   UNL A   1      31.990  21.171  25.427  1.00  0.00     0.017 C 
ATOM     13  C   UNL A   1      32.906  20.002  23.655  1.00  0.00    -0.027 C 
BRANCH   8  14
ATOM     14  C   UNL A   1      33.826  23.552  23.155  1.00  0.00     0.229 C 
ATOM     15  N   UNL A   1      33.099  24.496  22.516  1.00  0.00    -0.316 N 
ATOM     16  H   UNL A   1      33.348  24.551  21.565  1.00  0.00     0.170 HD
ATOM     17  O   UNL A   1      34.782  23.165  22.451  1.00  0.00    -0.274 OA
BRANCH  15  18
ATOM     18  C   UNL A   1      32.109  25.400  22.823  1.00  0.00     0.113 A 
ATOM     19  C   UNL A   1      28.570  26.645  23.886  1.00  0.00     0.057 C 
ATOM     20  C   UNL A   1      30.005  26.480  23.516  1.00  0.00     0.008 A 
ATOM     21  S   UNL A   1      30.702  24.938  23.611  1.00  0.00    -0.122 S 
ATOM     22  C   UNL A   1      30.937  27.427  23.128  1.00  0.00    -0.017 A 
ATOM     23  C   UNL A   1      32.168  26.781  22.728  1.00  0.00     0.090 A 
ATOM     24  C   UNL A   1      30.705  28.904  23.109  1.00  0.00     0.047 C 
BRANCH  23  25
ATOM     25  C   UNL A   1      33.332  27.492  22.259  1.00  0.00     0.103 C 
ATOM     26  N   UNL A   1      34.253  28.059  21.869  1.00  0.00    -0.192 NA
ENDBRANCH  23  25
ENDBRANCH  15  18
ENDBRANCH   8  14
ENDBRANCH   4   7
ENDBRANCH   2   3
ENDBRANCH   1   2
BRANCH   1  27
ATOM     27  C   UNL A   1      38.432  21.135  26.134  1.00  0.00     0.023 C 
BRANCH  27  28
ATOM     28  C   UNL A   1      39.062  20.221  25.089  1.00  0.00     0.116 C 
BRANCH  28  29
ATOM     29  N   UNL A   1      39.947  19.199  25.669  1.00  0.00    -0.352 N 
ATOM     30  C   UNL A   1      41.273  19.333  26.058  1.00  0.00     0.251 C 
ATOM     31  H   UNL A   1      39.549  18.309  25.797  1.00  0.00     0.163 HD
ATOM     32  O   UNL A   1      42.018  18.370  26.167  1.00  0.00    -0.269 OA
BRANCH  30  33
ATOM     33  C   UNL A   1      41.739  20.669  26.449  1.00  0.00     0.039 A 
ATOM     34  C   UNL A   1      42.209  21.658  25.571  1.00  0.00     0.014 A 
ATOM     35  C   UNL A   1      41.600  20.930  27.793  1.00  0.00     0.014 A 
ATOM     36  C   UNL A   1      42.551  22.907  26.099  1.00  0.00     0.010 A 
ATOM     37  C   UNL A   1      41.462  22.234  28.109  1.00  0.00     0.010 A 
ATOM     38  C   UNL A   1      42.214  23.162  27.425  1.00  0.00    -0.014 A 
BRANCH  38  39
ATOM     39  C   UNL A   1      42.410  24.394  28.167  1.00  0.00     0.031 A 
ATOM     40  C   UNL A   1      41.323  25.382  27.932  1.00  0.00     0.074 A 
ATOM     41  C   UNL A   1      43.288  24.415  29.206  1.00  0.00     0.049 A 
ATOM     42  N   UNL A   1      41.395  26.476  27.248  1.00  0.00    -0.248 NA
ATOM     43  C   UNL A   1      39.935  25.010  28.288  1.00  0.00     0.031 C 
ATOM     44  C   UNL A   1      44.165  23.339  29.710  1.00  0.00     0.029 A 
ATOM     45  N   UNL A   1      43.516  25.392  30.122  1.00  0.00    -0.354 N 
ATOM     46  C   UNL A   1      40.128  27.046  27.327  1.00  0.00     0.074 A 
ATOM     47  C   UNL A   1      39.239  25.984  27.703  1.00  0.00     0.031 C 
ATOM     48  C   UNL A   1      44.628  23.652  30.947  1.00  0.00     0.029 A 
ATOM     49  C   UNL A   1      44.217  25.004  31.268  1.00  0.00     0.049 A 
ATOM     50  H   UNL A   1      43.206  26.316  29.987  1.00  0.00     0.167 HD
ATOM     51  C   UNL A   1      39.970  28.396  27.436  1.00  0.00     0.031 A 
ATOM     52  C   UNL A   1      44.405  25.755  32.391  1.00  0.00     0.031 A 
ATOM     53  C   UNL A   1      41.212  29.072  27.150  1.00  0.00     0.049 A 
ATOM     54  C   UNL A   1      44.117  27.164  32.010  1.00  0.00     0.074 A 
ATOM     55  C   UNL A   1      42.042  29.155  26.052  1.00  0.00     0.029 A 
ATOM     56  N   UNL A   1      41.979  29.406  28.242  1.00  0.00    -0.354 N 
ATOM     57  N   UNL A   1      44.848  27.821  31.154  1.00  0.00    -0.248 NA
ATOM     58  C   UNL A   1      42.739  27.614  32.139  1.00  0.00     0.031 C 
ATOM     59  C   UNL A   1      43.361  29.056  26.589  1.00  0.00     0.029 A 
ATOM     60  C   UNL A   1      43.277  29.050  27.983  1.00  0.00     0.049 A 
ATOM     61  H   UNL A   1      41.652  29.828  29.069  1.00  0.00     0.167 HD
ATOM     62  C   UNL A   1      43.934  28.450  30.320  1.00  0.00     0.074 A 
ATOM     63  C   UNL A   1      42.644  28.324  31.009  1.00  0.00     0.031 C 
ATOM     64  C   UNL A   1      44.236  28.708  29.012  1.00  0.00     0.031 A 
BRANCH  51  65
ATOM     65  C   UNL A   1      38.889  29.061  28.263  1.00  0.00    -0.014 A 
ATOM     66  C   UNL A   1      38.870  28.804  29.646  1.00  0.00     0.009 A 
ATOM     67  C   UNL A   1      37.743  29.680  27.727  1.00  0.00     0.009 A 
ATOM     68  C   UNL A   1      37.731  29.050  30.422  1.00  0.00     0.001 A 
ATOM     69  C   UNL A   1      36.616  29.961  28.506  1.00  0.00     0.001 A 
ATOM     70  C   UNL A   1      36.598  29.614  29.848  1.00  0.00     0.000 A 
ENDBRANCH  51  65
BRANCH  52  71
ATOM     71  C   UNL A   1      44.442  25.332  33.818  1.00  0.00    -0.014 A 
ATOM     72  C   UNL A   1      44.785  26.225  34.850  1.00  0.00     0.009 A 
ATOM     73  C   UNL A   1      43.845  24.114  34.196  1.00  0.00     0.009 A 
ATOM     74  C   UNL A   1      44.517  25.922  36.198  1.00  0.00     0.001 A 
ATOM     75  C   UNL A   1      43.569  23.815  35.539  1.00  0.00     0.001 A 
ATOM     76  C   UNL A   1      43.897  24.723  36.540  1.00  0.00     0.000 A 
ENDBRANCH  52  71
BRANCH  64  77
ATOM     77  C   UNL A   1      45.650  28.445  28.542  1.00  0.00    -0.014 A 
ATOM     78  C   UNL A   1      46.700  29.381  28.616  1.00  0.00     0.009 A 
ATOM     79  C   UNL A   1      45.963  27.132  28.165  1.00  0.00     0.009 A 
ATOM     80  C   UNL A   1      48.014  29.014  28.294  1.00  0.00     0.001 A 
ATOM     81  C   UNL A   1      47.274  26.762  27.863  1.00  0.00     0.001 A 
ATOM     82  C   UNL A   1      48.299  27.702  27.919  1.00  0.00     0.000 A 
ENDBRANCH  64  77
ENDBRANCH  38  39
ENDBRANCH  30  33
ENDBRANCH  28  29
ENDBRANCH  27  28
ENDBRANCH   1  27
TORSDOF 14
ENDMDL
