MODEL 1
REMARK VINA RESULT:     -11.2      0.000      0.000
REMARK SMILES Cc1nc(CN(CC(=O)NCCCCNC(=O)c2ccc(-c3c4nc(c(-c5ccccc5)c5ccc([nH]5)c(-c5ccccc5)c5nc(c(-c6ccccc6)c6ccc3[nH]6)C=C5)C=C4)cc2)c2cccc(Cl)c2)sc1C
REMARK SMILES IDX 12 1 11 2 10 3 8 4 9 5 7 7 6 8 5 9 4 10 1 11 2 12 3 13 74 14
REMARK SMILES IDX 73 15 75 16 66 17 67 18 72 19 68 20 70 21 69 22 71 23 13 24
REMARK SMILES IDX 14 25 15 26 16 27 17 29 18 30 19 31 65 32 20 33 64 34 21 35
REMARK SMILES IDX 22 36 23 37 58 38 24 39 63 40 57 41 59 42 25 43 62 44 56 45
REMARK SMILES IDX 55 46 26 48 48 49 33 50 47 51 34 52 37 53 46 54 60 55 35 56
REMARK SMILES IDX 36 57 45 59 61 60 38 61 27 62 28 63 32 64 29 65 31 66 30 67
REMARK SMILES IDX 49 68 50 69 54 70 51 71 53 72 52 73 39 74 40 75 44 76 41 77
REMARK SMILES IDX 43 78 42 79
REMARK H PARENT 10 6 15 28 59 47 37 58
REMARK Flexibility Score: inf
ROOT
ATOM      1  C   UNL A   1      36.185  20.726  25.115  1.00  0.00     0.023 C 
ENDROOT
BRANCH   1   2
ATOM      2  C   UNL A   1      36.144  22.082  25.819  1.00  0.00     0.116 C 
BRANCH   2   3
ATOM      3  N   UNL A   1      35.294  22.079  26.986  1.00  0.00    -0.355 N 
ATOM      4  C   UNL A   1      34.067  22.656  27.161  1.00  0.00     0.239 C 
ATOM      5  O   UNL A   1      33.503  22.455  28.242  1.00  0.00    -0.273 OA
ATOM      6  H   UNL A   1      35.648  21.591  27.765  1.00  0.00     0.163 HD
BRANCH   4   7
ATOM      7  C   UNL A   1      33.398  23.483  26.050  1.00  0.00     0.217 C 
BRANCH   7   8
ATOM      8  N   UNL A   1      32.127  22.932  25.528  1.00  0.00    -0.355 N 
BRANCH   8   9
ATOM      9  C   UNL A   1      30.890  23.701  25.819  1.00  0.00     0.184 C 
BRANCH   9  10
ATOM     10  C   UNL A   1      30.915  25.207  25.828  1.00  0.00     0.112 A 
ATOM     11  C   UNL A   1      31.647  28.272  27.550  1.00  0.00     0.068 C 
ATOM     12  C   UNL A   1      31.296  27.284  26.496  1.00  0.00     0.051 A 
ATOM     13  N   UNL A   1      31.113  25.966  26.886  1.00  0.00    -0.244 NA
ATOM     14  C   UNL A   1      31.177  27.511  25.135  1.00  0.00     0.025 A 
ATOM     15  S   UNL A   1      30.731  26.062  24.343  1.00  0.00    -0.122 S 
ATOM     16  C   UNL A   1      31.398  28.760  24.356  1.00  0.00     0.058 C 
ENDBRANCH   9  10
ENDBRANCH   8   9
BRANCH   8  17
ATOM     17  C   UNL A   1      32.167  21.906  24.587  1.00  0.00     0.039 A 
ATOM     18  C   UNL A   1      32.023  22.159  23.212  1.00  0.00     0.026 A 
ATOM     19  C   UNL A   1      32.335  20.559  24.938  1.00  0.00     0.046 A 
ATOM     20  C   UNL A   1      32.052  21.139  22.250  1.00  0.00     0.004 A 
ATOM     21  C   UNL A   1      32.375  19.534  23.986  1.00  0.00     0.043 A 
ATOM     22  C   UNL A   1      32.233  19.818  22.638  1.00  0.00     0.020 A 
ATOM     23  Cl  UNL A   1      32.585  17.903  24.500  1.00  0.00    -0.084 Cl
ENDBRANCH   8  17
ENDBRANCH   7   8
ENDBRANCH   4   7
ENDBRANCH   2   3
ENDBRANCH   1   2
BRANCH   1  24
ATOM     24  C   UNL A   1      37.583  20.242  24.728  1.00  0.00     0.023 C 
BRANCH  24  25
ATOM     25  C   UNL A   1      38.669  20.477  25.771  1.00  0.00     0.116 C 
BRANCH  25  26
ATOM     26  N   UNL A   1      39.734  19.487  25.725  1.00  0.00    -0.352 N 
ATOM     27  C   UNL A   1      41.061  19.625  26.048  1.00  0.00     0.251 C 
ATOM     28  H   UNL A   1      39.465  18.591  25.420  1.00  0.00     0.163 HD
ATOM     29  O   UNL A   1      41.845  18.703  25.835  1.00  0.00    -0.269 OA
BRANCH  27  30
ATOM     30  C   UNL A   1      41.557  20.899  26.612  1.00  0.00     0.039 A 
ATOM     31  C   UNL A   1      42.028  21.881  25.737  1.00  0.00     0.014 A 
ATOM     32  C   UNL A   1      41.547  21.135  27.989  1.00  0.00     0.014 A 
ATOM     33  C   UNL A   1      42.421  23.123  26.237  1.00  0.00     0.010 A 
ATOM     34  C   UNL A   1      41.866  22.399  28.479  1.00  0.00     0.010 A 
ATOM     35  C   UNL A   1      42.304  23.407  27.609  1.00  0.00    -0.014 A 
BRANCH  35  36
ATOM     36  C   UNL A   1      42.611  24.762  28.133  1.00  0.00     0.031 A 
ATOM     37  C   UNL A   1      44.013  25.132  28.531  1.00  0.00     0.074 A 
ATOM     38  C   UNL A   1      41.609  25.650  28.293  1.00  0.00     0.049 A 
ATOM     39  N   UNL A   1      44.462  26.268  29.004  1.00  0.00    -0.248 NA
ATOM     40  C   UNL A   1      45.041  24.087  28.403  1.00  0.00     0.031 C 
ATOM     41  C   UNL A   1      40.198  25.402  27.987  1.00  0.00     0.029 A 
ATOM     42  N   UNL A   1      41.626  26.946  28.748  1.00  0.00    -0.354 N 
ATOM     43  C   UNL A   1      45.817  26.070  29.240  1.00  0.00     0.074 A 
ATOM     44  C   UNL A   1      46.106  24.692  28.907  1.00  0.00     0.031 C 
ATOM     45  C   UNL A   1      39.493  26.520  28.222  1.00  0.00     0.029 A 
ATOM     46  C   UNL A   1      40.391  27.550  28.735  1.00  0.00     0.049 A 
ATOM     47  H   UNL A   1      42.443  27.398  29.055  1.00  0.00     0.167 HD
ATOM     48  C   UNL A   1      46.741  26.958  29.678  1.00  0.00     0.031 A 
ATOM     49  C   UNL A   1      40.022  28.792  29.095  1.00  0.00     0.031 A 
ATOM     50  C   UNL A   1      46.455  28.330  30.005  1.00  0.00     0.049 A 
ATOM     51  C   UNL A   1      41.066  29.752  29.597  1.00  0.00     0.074 A 
ATOM     52  C   UNL A   1      47.335  29.324  30.394  1.00  0.00     0.029 A 
ATOM     53  N   UNL A   1      45.190  28.898  29.992  1.00  0.00    -0.354 N 
ATOM     54  N   UNL A   1      42.357  29.573  29.731  1.00  0.00    -0.248 NA
ATOM     55  C   UNL A   1      40.597  31.088  29.989  1.00  0.00     0.031 C 
ATOM     56  C   UNL A   1      46.596  30.477  30.678  1.00  0.00     0.029 A 
ATOM     57  C   UNL A   1      45.263  30.220  30.401  1.00  0.00     0.049 A 
ATOM     58  H   UNL A   1      44.364  28.432  29.732  1.00  0.00     0.167 HD
ATOM     59  C   UNL A   1      42.859  30.783  30.192  1.00  0.00     0.074 A 
ATOM     60  C   UNL A   1      41.737  31.691  30.294  1.00  0.00     0.031 C 
ATOM     61  C   UNL A   1      44.137  31.112  30.505  1.00  0.00     0.031 A 
BRANCH  48  62
ATOM     62  C   UNL A   1      48.155  26.470  29.840  1.00  0.00    -0.014 A 
ATOM     63  C   UNL A   1      48.596  25.896  31.044  1.00  0.00     0.009 A 
ATOM     64  C   UNL A   1      49.046  26.542  28.759  1.00  0.00     0.009 A 
ATOM     65  C   UNL A   1      49.909  25.437  31.170  1.00  0.00     0.001 A 
ATOM     66  C   UNL A   1      50.349  26.055  28.877  1.00  0.00     0.001 A 
ATOM     67  C   UNL A   1      50.782  25.512  30.085  1.00  0.00     0.000 A 
ENDBRANCH  48  62
BRANCH  49  68
ATOM     68  C   UNL A   1      38.601  29.216  28.979  1.00  0.00    -0.014 A 
ATOM     69  C   UNL A   1      37.739  29.129  30.084  1.00  0.00     0.009 A 
ATOM     70  C   UNL A   1      38.091  29.688  27.759  1.00  0.00     0.009 A 
ATOM     71  C   UNL A   1      36.391  29.474  29.961  1.00  0.00     0.001 A 
ATOM     72  C   UNL A   1      36.751  30.062  27.648  1.00  0.00     0.001 A 
ATOM     73  C   UNL A   1      35.900  29.944  28.745  1.00  0.00     0.000 A 
ENDBRANCH  49  68
BRANCH  61  74
ATOM     74  C   UNL A   1      44.390  32.525  30.956  1.00  0.00    -0.014 A 
ATOM     75  C   UNL A   1      44.677  33.546  30.036  1.00  0.00     0.009 A 
ATOM     76  C   UNL A   1      44.316  32.842  32.321  1.00  0.00     0.009 A 
ATOM     77  C   UNL A   1      44.928  34.846  30.480  1.00  0.00     0.001 A 
ATOM     78  C   UNL A   1      44.533  34.148  32.759  1.00  0.00     0.001 A 
ATOM     79  C   UNL A   1      44.852  35.147  31.840  1.00  0.00     0.000 A 
ENDBRANCH  61  74
ENDBRANCH  35  36
ENDBRANCH  27  30
ENDBRANCH  25  26
ENDBRANCH  24  25
ENDBRANCH   1  24
TORSDOF 15
ENDMDL
MODEL 2
REMARK VINA RESULT:     -11.1      1.318      6.009
REMARK SMILES Cc1nc(CN(CC(=O)NCCCCNC(=O)c2ccc(-c3c4nc(c(-c5ccccc5)c5ccc([nH]5)c(-c5ccccc5)c5nc(c(-c6ccccc6)c6ccc3[nH]6)C=C5)C=C4)cc2)c2cccc(Cl)c2)sc1C
REMARK SMILES IDX 12 1 11 2 10 3 8 4 9 5 7 7 6 8 5 9 4 10 1 11 2 12 3 13 74 14
REMARK SMILES IDX 73 15 75 16 66 17 67 18 72 19 68 20 70 21 69 22 71 23 13 24
REMARK SMILES IDX 14 25 15 26 16 27 17 29 18 30 19 31 65 32 20 33 64 34 21 35
REMARK SMILES IDX 22 36 23 37 58 38 24 39 63 40 57 41 59 42 25 43 62 44 56 45
REMARK SMILES IDX 55 46 26 48 48 49 33 50 47 51 34 52 37 53 46 54 60 55 35 56
REMARK SMILES IDX 36 57 45 59 61 60 38 61 27 62 28 63 32 64 29 65 31 66 30 67
REMARK SMILES IDX 49 68 50 69 54 70 51 71 53 72 52 73 39 74 40 75 44 76 41 77
REMARK SMILES IDX 43 78 42 79
REMARK H PARENT 10 6 15 28 59 47 37 58
REMARK Flexibility Score: inf
ROOT
ATOM      1  C   UNL A   1      36.421  20.612  25.052  1.00  0.00     0.023 C 
ENDROOT
BRANCH   1   2
ATOM      2  C   UNL A   1      36.488  22.024  25.631  1.00  0.00     0.116 C 
BRANCH   2   3
ATOM      3  N   UNL A   1      35.654  22.187  26.799  1.00  0.00    -0.355 N 
ATOM      4  C   UNL A   1      34.344  22.570  26.877  1.00  0.00     0.239 C 
ATOM      5  O   UNL A   1      33.826  22.571  28.000  1.00  0.00    -0.273 OA
ATOM      6  H   UNL A   1      36.090  21.993  27.660  1.00  0.00     0.163 HD
BRANCH   4   7
ATOM      7  C   UNL A   1      33.536  22.943  25.622  1.00  0.00     0.217 C 
BRANCH   7   8
ATOM      8  N   UNL A   1      32.295  22.163  25.413  1.00  0.00    -0.355 N 
BRANCH   8   9
ATOM      9  C   UNL A   1      31.012  22.838  25.736  1.00  0.00     0.184 C 
BRANCH   9  10
ATOM     10  C   UNL A   1      30.891  24.336  25.622  1.00  0.00     0.112 A 
ATOM     11  C   UNL A   1      31.403  27.592  27.047  1.00  0.00     0.068 C 
ATOM     12  C   UNL A   1      31.100  26.489  26.098  1.00  0.00     0.051 A 
ATOM     13  N   UNL A   1      31.065  25.197  26.603  1.00  0.00    -0.244 NA
ATOM     14  C   UNL A   1      30.895  26.586  24.731  1.00  0.00     0.025 A 
ATOM     15  S   UNL A   1      30.555  25.038  24.085  1.00  0.00    -0.122 S 
ATOM     16  C   UNL A   1      30.956  27.778  23.843  1.00  0.00     0.058 C 
ENDBRANCH   9  10
ENDBRANCH   8   9
BRANCH   8  17
ATOM     17  C   UNL A   1      32.353  20.975  24.689  1.00  0.00     0.039 A 
ATOM     18  C   UNL A   1      32.153  20.946  23.298  1.00  0.00     0.026 A 
ATOM     19  C   UNL A   1      32.597  19.730  25.288  1.00  0.00     0.046 A 
ATOM     20  C   UNL A   1      32.200  19.759  22.553  1.00  0.00     0.004 A 
ATOM     21  C   UNL A   1      32.654  18.541  24.553  1.00  0.00     0.043 A 
ATOM     22  C   UNL A   1      32.456  18.549  23.182  1.00  0.00     0.020 A 
ATOM     23  Cl  UNL A   1      32.958  17.052  25.366  1.00  0.00    -0.084 Cl
ENDBRANCH   8  17
ENDBRANCH   7   8
ENDBRANCH   4   7
ENDBRANCH   2   3
ENDBRANCH   1   2
BRANCH   1  24
ATOM     24  C   UNL A   1      37.776  19.996  24.696  1.00  0.00     0.023 C 
BRANCH  24  25
ATOM     25  C   UNL A   1      38.890  20.238  25.708  1.00  0.00     0.116 C 
BRANCH  25  26
ATOM     26  N   UNL A   1      39.866  19.160  25.756  1.00  0.00    -0.352 N 
ATOM     27  C   UNL A   1      41.213  19.221  26.013  1.00  0.00     0.251 C 
ATOM     28  H   UNL A   1      39.511  18.260  25.579  1.00  0.00     0.163 HD
ATOM     29  O   UNL A   1      41.907  18.214  25.897  1.00  0.00    -0.269 OA
BRANCH  27  30
ATOM     30  C   UNL A   1      41.838  20.508  26.390  1.00  0.00     0.039 A 
ATOM     31  C   UNL A   1      42.301  21.349  25.375  1.00  0.00     0.014 A 
ATOM     32  C   UNL A   1      41.955  20.893  27.727  1.00  0.00     0.014 A 
ATOM     33  C   UNL A   1      42.816  22.605  25.699  1.00  0.00     0.010 A 
ATOM     34  C   UNL A   1      42.396  22.176  28.044  1.00  0.00     0.010 A 
ATOM     35  C   UNL A   1      42.829  23.045  27.034  1.00  0.00    -0.014 A 
BRANCH  35  36
ATOM     36  C   UNL A   1      43.268  24.423  27.375  1.00  0.00     0.031 A 
ATOM     37  C   UNL A   1      42.265  25.474  27.763  1.00  0.00     0.074 A 
ATOM     38  C   UNL A   1      44.575  24.739  27.289  1.00  0.00     0.049 A 
ATOM     39  N   UNL A   1      42.469  26.725  28.094  1.00  0.00    -0.248 NA
ATOM     40  C   UNL A   1      40.847  25.078  27.759  1.00  0.00     0.031 C 
ATOM     41  C   UNL A   1      45.645  23.825  26.881  1.00  0.00     0.029 A 
ATOM     42  N   UNL A   1      45.229  25.919  27.546  1.00  0.00    -0.354 N 
ATOM     43  C   UNL A   1      41.210  27.265  28.325  1.00  0.00     0.074 A 
ATOM     44  C   UNL A   1      40.246  26.223  28.047  1.00  0.00     0.031 C 
ATOM     45  C   UNL A   1      46.823  24.464  26.957  1.00  0.00     0.029 A 
ATOM     46  C   UNL A   1      46.591  25.842  27.376  1.00  0.00     0.049 A 
ATOM     47  H   UNL A   1      44.767  26.741  27.826  1.00  0.00     0.167 HD
ATOM     48  C   UNL A   1      40.885  28.511  28.747  1.00  0.00     0.031 A 
ATOM     49  C   UNL A   1      47.546  26.775  27.539  1.00  0.00     0.031 A 
ATOM     50  C   UNL A   1      41.844  29.547  29.028  1.00  0.00     0.049 A 
ATOM     51  C   UNL A   1      47.155  28.156  27.987  1.00  0.00     0.074 A 
ATOM     52  C   UNL A   1      41.616  30.819  29.522  1.00  0.00     0.029 A 
ATOM     53  N   UNL A   1      43.211  29.433  28.829  1.00  0.00    -0.354 N 
ATOM     54  N   UNL A   1      45.967  28.623  28.285  1.00  0.00    -0.248 NA
ATOM     55  C   UNL A   1      48.243  29.134  28.132  1.00  0.00     0.031 C 
ATOM     56  C   UNL A   1      42.839  31.498  29.563  1.00  0.00     0.029 A 
ATOM     57  C   UNL A   1      43.835  30.626  29.157  1.00  0.00     0.049 A 
ATOM     58  H   UNL A   1      43.670  28.626  28.503  1.00  0.00     0.167 HD
ATOM     59  C   UNL A   1      46.169  29.940  28.681  1.00  0.00     0.074 A 
ATOM     60  C   UNL A   1      47.592  30.188  28.605  1.00  0.00     0.031 C 
ATOM     61  C   UNL A   1      45.254  30.862  29.071  1.00  0.00     0.031 A 
BRANCH  48  62
ATOM     62  C   UNL A   1      39.425  28.829  28.921  1.00  0.00    -0.014 A 
ATOM     63  C   UNL A   1      38.779  28.642  30.154  1.00  0.00     0.009 A 
ATOM     64  C   UNL A   1      38.695  29.367  27.850  1.00  0.00     0.009 A 
ATOM     65  C   UNL A   1      37.426  28.956  30.299  1.00  0.00     0.001 A 
ATOM     66  C   UNL A   1      37.351  29.709  28.006  1.00  0.00     0.001 A 
ATOM     67  C   UNL A   1      36.715  29.494  29.227  1.00  0.00     0.000 A 
ENDBRANCH  48  62
BRANCH  49  68
ATOM     68  C   UNL A   1      48.975  26.438  27.294  1.00  0.00    -0.014 A 
ATOM     69  C   UNL A   1      49.486  26.408  25.987  1.00  0.00     0.009 A 
ATOM     70  C   UNL A   1      49.828  26.120  28.362  1.00  0.00     0.009 A 
ATOM     71  C   UNL A   1      50.811  26.037  25.752  1.00  0.00     0.001 A 
ATOM     72  C   UNL A   1      51.162  25.780  28.126  1.00  0.00     0.001 A 
ATOM     73  C   UNL A   1      51.649  25.727  26.822  1.00  0.00     0.000 A 
ENDBRANCH  49  68
BRANCH  61  74
ATOM     74  C   UNL A   1      45.775  32.213  29.477  1.00  0.00    -0.014 A 
ATOM     75  C   UNL A   1      45.875  33.266  28.554  1.00  0.00     0.009 A 
ATOM     76  C   UNL A   1      46.148  32.442  30.811  1.00  0.00     0.009 A 
ATOM     77  C   UNL A   1      46.381  34.506  28.950  1.00  0.00     0.001 A 
ATOM     78  C   UNL A   1      46.620  33.691  31.211  1.00  0.00     0.001 A 
ATOM     79  C   UNL A   1      46.749  34.719  30.278  1.00  0.00     0.000 A 
ENDBRANCH  61  74
ENDBRANCH  35  36
ENDBRANCH  27  30
ENDBRANCH  25  26
ENDBRANCH  24  25
ENDBRANCH   1  24
TORSDOF 15
ENDMDL
MODEL 3
REMARK VINA RESULT:     -11.0      4.462      9.495
REMARK SMILES Cc1nc(CN(CC(=O)NCCCCNC(=O)c2ccc(-c3c4nc(c(-c5ccccc5)c5ccc([nH]5)c(-c5ccccc5)c5nc(c(-c6ccccc6)c6ccc3[nH]6)C=C5)C=C4)cc2)c2cccc(Cl)c2)sc1C
REMARK SMILES IDX 12 1 11 2 10 3 8 4 9 5 7 7 6 8 5 9 4 10 1 11 2 12 3 13 74 14
REMARK SMILES IDX 73 15 75 16 66 17 67 18 72 19 68 20 70 21 69 22 71 23 13 24
REMARK SMILES IDX 14 25 15 26 16 27 17 29 18 30 19 31 65 32 20 33 64 34 21 35
REMARK SMILES IDX 22 36 23 37 58 38 24 39 63 40 57 41 59 42 25 43 62 44 56 45
REMARK SMILES IDX 55 46 26 48 48 49 33 50 47 51 34 52 37 53 46 54 60 55 35 56
REMARK SMILES IDX 36 57 45 59 61 60 38 61 27 62 28 63 32 64 29 65 31 66 30 67
REMARK SMILES IDX 49 68 50 69 54 70 51 71 53 72 52 73 39 74 40 75 44 76 41 77
REMARK SMILES IDX 43 78 42 79
REMARK H PARENT 10 6 15 28 59 47 37 58
REMARK Flexibility Score: inf
ROOT
ATOM      1  C   UNL A   1      31.790  30.512  26.724  1.00  0.00     0.023 C 
ENDROOT
BRANCH   1   2
ATOM      2  C   UNL A   1      31.604  29.961  25.312  1.00  0.00     0.116 C 
BRANCH   2   3
ATOM      3  N   UNL A   1      32.858  29.715  24.639  1.00  0.00    -0.355 N 
ATOM      4  C   UNL A   1      33.340  28.550  24.111  1.00  0.00     0.239 C 
ATOM      5  O   UNL A   1      34.424  28.608  23.521  1.00  0.00    -0.273 OA
ATOM      6  H   UNL A   1      33.449  30.497  24.548  1.00  0.00     0.163 HD
BRANCH   4   7
ATOM      7  C   UNL A   1      32.550  27.232  24.208  1.00  0.00     0.217 C 
BRANCH   7   8
ATOM      8  N   UNL A   1      31.666  26.938  23.058  1.00  0.00    -0.355 N 
BRANCH   8   9
ATOM      9  C   UNL A   1      32.163  25.957  22.060  1.00  0.00     0.184 C 
BRANCH   9  10
ATOM     10  C   UNL A   1      32.874  24.707  22.511  1.00  0.00     0.112 A 
ATOM     11  C   UNL A   1      35.941  23.022  23.320  1.00  0.00     0.068 C 
ATOM     12  C   UNL A   1      34.499  23.352  23.164  1.00  0.00     0.051 A 
ATOM     13  N   UNL A   1      34.175  24.506  22.467  1.00  0.00    -0.244 NA
ATOM     14  C   UNL A   1      33.417  22.661  23.684  1.00  0.00     0.025 A 
ATOM     15  S   UNL A   1      31.961  23.422  23.205  1.00  0.00    -0.122 S 
ATOM     16  C   UNL A   1      33.387  21.453  24.552  1.00  0.00     0.058 C 
ENDBRANCH   9  10
ENDBRANCH   8   9
BRANCH   8  17
ATOM     17  C   UNL A   1      30.340  27.361  23.095  1.00  0.00     0.039 A 
ATOM     18  C   UNL A   1      29.348  26.627  23.769  1.00  0.00     0.026 A 
ATOM     19  C   UNL A   1      29.896  28.529  22.457  1.00  0.00     0.046 A 
ATOM     20  C   UNL A   1      28.006  27.033  23.811  1.00  0.00     0.004 A 
ATOM     21  C   UNL A   1      28.561  28.947  22.500  1.00  0.00     0.043 A 
ATOM     22  C   UNL A   1      27.610  28.201  23.177  1.00  0.00     0.020 A 
ATOM     23  Cl  UNL A   1      28.097  30.395  21.688  1.00  0.00    -0.084 Cl
ENDBRANCH   8  17
ENDBRANCH   7   8
ENDBRANCH   4   7
ENDBRANCH   2   3
ENDBRANCH   1   2
BRANCH   1  24
ATOM     24  C   UNL A   1      31.506  32.008  26.876  1.00  0.00     0.023 C 
BRANCH  24  25
ATOM     25  C   UNL A   1      32.729  32.885  27.120  1.00  0.00     0.116 C 
BRANCH  25  26
ATOM     26  N   UNL A   1      32.397  34.205  27.632  1.00  0.00    -0.352 N 
ATOM     27  C   UNL A   1      33.017  34.934  28.616  1.00  0.00     0.251 C 
ATOM     28  H   UNL A   1      31.617  34.636  27.215  1.00  0.00     0.163 HD
ATOM     29  O   UNL A   1      32.523  35.992  29.000  1.00  0.00    -0.269 OA
BRANCH  27  30
ATOM     30  C   UNL A   1      34.257  34.429  29.243  1.00  0.00     0.039 A 
ATOM     31  C   UNL A   1      34.158  33.715  30.440  1.00  0.00     0.014 A 
ATOM     32  C   UNL A   1      35.506  34.640  28.654  1.00  0.00     0.014 A 
ATOM     33  C   UNL A   1      35.303  33.153  31.007  1.00  0.00     0.010 A 
ATOM     34  C   UNL A   1      36.635  34.015  29.178  1.00  0.00     0.010 A 
ATOM     35  C   UNL A   1      36.545  33.264  30.358  1.00  0.00    -0.014 A 
BRANCH  35  36
ATOM     36  C   UNL A   1      37.746  32.573  30.894  1.00  0.00     0.031 A 
ATOM     37  C   UNL A   1      38.431  33.076  32.134  1.00  0.00     0.074 A 
ATOM     38  C   UNL A   1      38.247  31.511  30.231  1.00  0.00     0.049 A 
ATOM     39  N   UNL A   1      39.487  32.596  32.744  1.00  0.00    -0.248 NA
ATOM     40  C   UNL A   1      37.874  34.285  32.761  1.00  0.00     0.031 C 
ATOM     41  C   UNL A   1      37.704  30.951  28.991  1.00  0.00     0.029 A 
ATOM     42  N   UNL A   1      39.327  30.710  30.511  1.00  0.00    -0.354 N 
ATOM     43  C   UNL A   1      39.726  33.449  33.814  1.00  0.00     0.074 A 
ATOM     44  C   UNL A   1      38.738  34.504  33.742  1.00  0.00     0.031 C 
ATOM     45  C   UNL A   1      38.424  29.873  28.642  1.00  0.00     0.029 A 
ATOM     46  C   UNL A   1      39.505  29.691  29.606  1.00  0.00     0.049 A 
ATOM     47  H   UNL A   1      39.916  30.851  31.286  1.00  0.00     0.167 HD
ATOM     48  C   UNL A   1      40.671  33.355  34.780  1.00  0.00     0.031 A 
ATOM     49  C   UNL A   1      40.434  28.719  29.556  1.00  0.00     0.031 A 
ATOM     50  C   UNL A   1      41.651  32.304  34.855  1.00  0.00     0.049 A 
ATOM     51  C   UNL A   1      41.484  28.651  30.630  1.00  0.00     0.074 A 
ATOM     52  C   UNL A   1      42.607  32.087  35.832  1.00  0.00     0.029 A 
ATOM     53  N   UNL A   1      41.807  31.300  33.912  1.00  0.00    -0.354 N 
ATOM     54  N   UNL A   1      41.641  29.415  31.683  1.00  0.00    -0.248 NA
ATOM     55  C   UNL A   1      42.479  27.575  30.511  1.00  0.00     0.031 C 
ATOM     56  C   UNL A   1      43.384  30.988  35.447  1.00  0.00     0.029 A 
ATOM     57  C   UNL A   1      42.868  30.482  34.266  1.00  0.00     0.049 A 
ATOM     58  H   UNL A   1      41.248  31.186  33.110  1.00  0.00     0.167 HD
ATOM     59  C   UNL A   1      42.733  28.896  32.366  1.00  0.00     0.074 A 
ATOM     60  C   UNL A   1      43.183  27.740  31.621  1.00  0.00     0.031 C 
ATOM     61  C   UNL A   1      43.311  29.338  33.511  1.00  0.00     0.031 A 
BRANCH  48  62
ATOM     62  C   UNL A   1      40.699  34.428  35.834  1.00  0.00    -0.014 A 
ATOM     63  C   UNL A   1      41.518  35.561  35.702  1.00  0.00     0.009 A 
ATOM     64  C   UNL A   1      39.860  34.328  36.954  1.00  0.00     0.009 A 
ATOM     65  C   UNL A   1      41.520  36.553  36.685  1.00  0.00     0.001 A 
ATOM     66  C   UNL A   1      39.840  35.335  37.921  1.00  0.00     0.001 A 
ATOM     67  C   UNL A   1      40.677  36.441  37.790  1.00  0.00     0.000 A 
ENDBRANCH  48  62
BRANCH  49  68
ATOM     68  C   UNL A   1      40.409  27.713  28.459  1.00  0.00    -0.014 A 
ATOM     69  C   UNL A   1      39.717  26.502  28.619  1.00  0.00     0.009 A 
ATOM     70  C   UNL A   1      41.096  27.946  27.258  1.00  0.00     0.009 A 
ATOM     71  C   UNL A   1      39.740  25.534  27.613  1.00  0.00     0.001 A 
ATOM     72  C   UNL A   1      41.090  26.990  26.240  1.00  0.00     0.001 A 
ATOM     73  C   UNL A   1      40.423  25.781  26.424  1.00  0.00     0.000 A 
ENDBRANCH  49  68
BRANCH  61  74
ATOM     74  C   UNL A   1      44.475  28.546  34.040  1.00  0.00    -0.014 A 
ATOM     75  C   UNL A   1      45.796  28.858  33.682  1.00  0.00     0.009 A 
ATOM     76  C   UNL A   1      44.245  27.485  34.930  1.00  0.00     0.009 A 
ATOM     77  C   UNL A   1      46.859  28.095  34.170  1.00  0.00     0.001 A 
ATOM     78  C   UNL A   1      45.311  26.746  35.443  1.00  0.00     0.001 A 
ATOM     79  C   UNL A   1      46.617  27.043  35.053  1.00  0.00     0.000 A 
ENDBRANCH  61  74
ENDBRANCH  35  36
ENDBRANCH  27  30
ENDBRANCH  25  26
ENDBRANCH  24  25
ENDBRANCH   1  24
TORSDOF 15
ENDMDL
