MODEL 1
REMARK VINA RESULT:     -11.6      0.000      0.000
REMARK SMILES COc1cccc(NC(=O)/C(C#N)=C\c2ccc(O[C@@H](C)C(=O)NCCCCNC(=O)c3ccc(-c4c5nc(c(-c6ccccc6)c6ccc([nH]6)c(-c6ccccc6)c6nc(c(-c7ccccc7)c7ccc4[nH]7)C=C6)C=C5)cc3)cc2)c1
REMARK SMILES IDX 22 1 23 2 24 3 20 5 21 6 19 7 18 8 15 9 16 10 81 11 17 12
REMARK SMILES IDX 80 13 14 14 11 15 9 16 8 17 10 19 7 20 3 21 4 22 82 23 5 24
REMARK SMILES IDX 6 25 2 26 1 27 12 28 13 29 25 30 26 31 27 32 28 33 29 34
REMARK SMILES IDX 30 35 31 37 32 38 33 39 79 40 34 41 78 42 35 43 36 44 37 45
REMARK SMILES IDX 72 46 38 47 77 48 71 49 73 50 39 51 76 52 70 53 69 54 40 56
REMARK SMILES IDX 62 57 47 58 61 59 48 60 51 61 60 62 74 63 49 64 50 65 59 67
REMARK SMILES IDX 75 68 52 69 41 70 42 71 46 72 43 73 45 74 44 75 63 76 64 77
REMARK SMILES IDX 68 78 65 79 67 80 66 81 53 82 54 83 58 84 55 85 57 86 56 87
REMARK H PARENT 24 4 8 18 29 36 73 55 51 66
REMARK Flexibility Score: inf
ROOT
ATOM      1  C   UNL A   1      33.630  20.681  25.698  1.00  0.00     0.260 C 
ATOM      2  O   UNL A   1      32.986  19.637  25.515  1.00  0.00    -0.271 OA
ATOM      3  N   UNL A   1      34.944  20.608  25.350  1.00  0.00    -0.353 N 
ATOM      4  H   UNL A   1      35.180  19.791  24.853  1.00  0.00     0.163 HD
ENDROOT
BRANCH   1   5
ATOM      5  C   UNL A   1      32.890  21.967  26.192  1.00  0.00     0.258 C 
ATOM      6  C   UNL A   1      33.383  22.410  27.574  1.00  0.00     0.064 C 
BRANCH   5   7
ATOM      7  O   UNL A   1      31.523  22.258  25.882  1.00  0.00    -0.481 OA
BRANCH   7   8
ATOM      8  C   UNL A   1      31.146  23.483  25.438  1.00  0.00     0.120 A 
ATOM      9  C   UNL A   1      30.005  25.849  24.378  1.00  0.00    -0.024 A 
ATOM     10  C   UNL A   1      30.495  24.850  23.526  1.00  0.00     0.012 A 
ATOM     11  C   UNL A   1      30.236  25.676  25.749  1.00  0.00     0.012 A 
ATOM     12  C   UNL A   1      31.048  23.669  24.057  1.00  0.00     0.047 A 
ATOM     13  C   UNL A   1      30.877  24.552  26.263  1.00  0.00     0.047 A 
BRANCH   9  14
ATOM     14  C   UNL A   1      29.149  26.937  23.837  1.00  0.00     0.033 C 
ATOM     15  C   UNL A   1      29.553  28.135  23.379  1.00  0.00     0.118 C 
BRANCH  15  16
ATOM     16  C   UNL A   1      31.030  28.475  22.945  1.00  0.00     0.266 C 
ATOM     17  N   UNL A   1      32.115  28.010  23.674  1.00  0.00    -0.321 N 
ATOM     18  H   UNL A   1      32.602  27.261  23.263  1.00  0.00     0.170 HD
ATOM     19  O   UNL A   1      31.270  29.125  21.926  1.00  0.00    -0.268 OA
BRANCH  17  20
ATOM     20  C   UNL A   1      32.634  28.449  24.931  1.00  0.00     0.045 A 
ATOM     21  C   UNL A   1      32.904  30.239  26.545  1.00  0.00     0.120 A 
ATOM     22  C   UNL A   1      33.870  29.515  27.235  1.00  0.00     0.046 A 
ATOM     23  C   UNL A   1      32.336  29.747  25.362  1.00  0.00     0.072 A 
ATOM     24  C   UNL A   1      34.083  28.197  26.876  1.00  0.00     0.006 A 
ATOM     25  C   UNL A   1      33.387  27.647  25.791  1.00  0.00     0.026 A 
BRANCH  21  26
ATOM     26  O   UNL A   1      32.487  31.444  27.047  1.00  0.00    -0.497 OA
ATOM     27  C   UNL A   1      31.195  31.750  26.501  1.00  0.00     0.278 C 
ENDBRANCH  21  26
ENDBRANCH  17  20
ENDBRANCH  15  16
BRANCH  15  28
ATOM     28  C   UNL A   1      28.725  29.111  22.561  1.00  0.00     0.105 C 
ATOM     29  N   UNL A   1      28.038  29.922  21.882  1.00  0.00    -0.192 NA
ENDBRANCH  15  28
ENDBRANCH   9  14
ENDBRANCH   7   8
ENDBRANCH   5   7
ENDBRANCH   1   5
BRANCH   3  30
ATOM     30  C   UNL A   1      36.056  21.501  25.570  1.00  0.00     0.116 C 
BRANCH  30  31
ATOM     31  C   UNL A   1      37.193  21.188  24.601  1.00  0.00     0.023 C 
BRANCH  31  32
ATOM     32  C   UNL A   1      37.951  19.889  24.827  1.00  0.00     0.023 C 
BRANCH  32  33
ATOM     33  C   UNL A   1      38.985  19.930  25.945  1.00  0.00     0.116 C 
BRANCH  33  34
ATOM     34  N   UNL A   1      40.145  19.065  25.753  1.00  0.00    -0.352 N 
ATOM     35  C   UNL A   1      41.465  19.359  26.000  1.00  0.00     0.251 C 
ATOM     36  H   UNL A   1      39.960  18.164  25.404  1.00  0.00     0.163 HD
ATOM     37  O   UNL A   1      42.342  18.517  25.850  1.00  0.00    -0.269 OA
BRANCH  35  38
ATOM     38  C   UNL A   1      41.821  20.713  26.438  1.00  0.00     0.039 A 
ATOM     39  C   UNL A   1      42.052  20.967  27.792  1.00  0.00     0.014 A 
ATOM     40  C   UNL A   1      41.993  21.706  25.473  1.00  0.00     0.014 A 
ATOM     41  C   UNL A   1      42.529  22.220  28.172  1.00  0.00     0.010 A 
ATOM     42  C   UNL A   1      42.557  22.912  25.842  1.00  0.00     0.010 A 
ATOM     43  C   UNL A   1      42.814  23.185  27.194  1.00  0.00    -0.014 A 
BRANCH  43  44
ATOM     44  C   UNL A   1      43.341  24.520  27.545  1.00  0.00     0.031 A 
ATOM     45  C   UNL A   1      42.383  25.592  27.978  1.00  0.00     0.074 A 
ATOM     46  C   UNL A   1      44.646  24.790  27.365  1.00  0.00     0.049 A 
ATOM     47  N   UNL A   1      42.609  26.858  28.214  1.00  0.00    -0.248 NA
ATOM     48  C   UNL A   1      40.971  25.196  28.114  1.00  0.00     0.031 C 
ATOM     49  C   UNL A   1      45.654  23.842  26.884  1.00  0.00     0.029 A 
ATOM     50  N   UNL A   1      45.345  25.954  27.553  1.00  0.00    -0.354 N 
ATOM     51  C   UNL A   1      41.365  27.412  28.487  1.00  0.00     0.074 A 
ATOM     52  C   UNL A   1      40.385  26.363  28.324  1.00  0.00     0.031 C 
ATOM     53  C   UNL A   1      46.848  24.456  26.844  1.00  0.00     0.029 A 
ATOM     54  C   UNL A   1      46.682  25.843  27.262  1.00  0.00     0.049 A 
ATOM     55  H   UNL A   1      44.928  26.789  27.866  1.00  0.00     0.167 HD
ATOM     56  C   UNL A   1      41.068  28.678  28.863  1.00  0.00     0.031 A 
ATOM     57  C   UNL A   1      47.662  26.763  27.334  1.00  0.00     0.031 A 
ATOM     58  C   UNL A   1      42.057  29.703  29.050  1.00  0.00     0.049 A 
ATOM     59  C   UNL A   1      47.321  28.147  27.810  1.00  0.00     0.074 A 
ATOM     60  C   UNL A   1      41.885  31.001  29.497  1.00  0.00     0.029 A 
ATOM     61  N   UNL A   1      43.412  29.537  28.806  1.00  0.00    -0.354 N 
ATOM     62  N   UNL A   1      46.151  28.645  28.132  1.00  0.00    -0.248 NA
ATOM     63  C   UNL A   1      48.440  29.086  27.954  1.00  0.00     0.031 C 
ATOM     64  C   UNL A   1      43.134  31.632  29.488  1.00  0.00     0.029 A 
ATOM     65  C   UNL A   1      44.090  30.711  29.083  1.00  0.00     0.049 A 
ATOM     66  H   UNL A   1      43.831  28.707  28.482  1.00  0.00     0.167 HD
ATOM     67  C   UNL A   1      46.394  29.948  28.544  1.00  0.00     0.074 A 
ATOM     68  C   UNL A   1      47.826  30.154  28.445  1.00  0.00     0.031 C 
ATOM     69  C   UNL A   1      45.515  30.890  28.968  1.00  0.00     0.031 A 
BRANCH  56  70
ATOM     70  C   UNL A   1      39.616  29.002  29.082  1.00  0.00    -0.014 A 
ATOM     71  C   UNL A   1      39.005  28.816  30.334  1.00  0.00     0.009 A 
ATOM     72  C   UNL A   1      38.838  29.477  28.015  1.00  0.00     0.009 A 
ATOM     73  C   UNL A   1      37.637  29.040  30.498  1.00  0.00     0.001 A 
ATOM     74  C   UNL A   1      37.477  29.734  28.190  1.00  0.00     0.001 A 
ATOM     75  C   UNL A   1      36.875  29.500  29.426  1.00  0.00     0.000 A 
ENDBRANCH  56  70
BRANCH  57  76
ATOM     76  C   UNL A   1      49.056  26.381  26.999  1.00  0.00    -0.014 A 
ATOM     77  C   UNL A   1      49.930  25.939  28.005  1.00  0.00     0.009 A 
ATOM     78  C   UNL A   1      49.516  26.425  25.674  1.00  0.00     0.009 A 
ATOM     79  C   UNL A   1      51.239  25.566  27.694  1.00  0.00     0.001 A 
ATOM     80  C   UNL A   1      50.818  26.028  25.363  1.00  0.00     0.001 A 
ATOM     81  C   UNL A   1      51.680  25.606  26.374  1.00  0.00     0.000 A 
ENDBRANCH  57  76
BRANCH  69  82
ATOM     82  C   UNL A   1      46.089  32.212  29.386  1.00  0.00    -0.014 A 
ATOM     83  C   UNL A   1      46.525  32.437  30.701  1.00  0.00     0.009 A 
ATOM     84  C   UNL A   1      46.219  33.240  28.439  1.00  0.00     0.009 A 
ATOM     85  C   UNL A   1      47.041  33.681  31.069  1.00  0.00     0.001 A 
ATOM     86  C   UNL A   1      46.763  34.472  28.802  1.00  0.00     0.001 A 
ATOM     87  C   UNL A   1      47.163  34.695  30.119  1.00  0.00     0.000 A 
ENDBRANCH  69  82
ENDBRANCH  43  44
ENDBRANCH  35  38
ENDBRANCH  33  34
ENDBRANCH  32  33
ENDBRANCH  31  32
ENDBRANCH  30  31
ENDBRANCH   3  30
TORSDOF 18
ENDMDL
MODEL 2
REMARK VINA RESULT:     -11.4      1.767      6.123
REMARK SMILES COc1cccc(NC(=O)/C(C#N)=C\c2ccc(O[C@@H](C)C(=O)NCCCCNC(=O)c3ccc(-c4c5nc(c(-c6ccccc6)c6ccc([nH]6)c(-c6ccccc6)c6nc(c(-c7ccccc7)c7ccc4[nH]7)C=C6)C=C5)cc3)cc2)c1
REMARK SMILES IDX 22 1 23 2 24 3 20 5 21 6 19 7 18 8 15 9 16 10 81 11 17 12
REMARK SMILES IDX 80 13 14 14 11 15 9 16 8 17 10 19 7 20 3 21 4 22 82 23 5 24
REMARK SMILES IDX 6 25 2 26 1 27 12 28 13 29 25 30 26 31 27 32 28 33 29 34
REMARK SMILES IDX 30 35 31 37 32 38 33 39 79 40 34 41 78 42 35 43 36 44 37 45
REMARK SMILES IDX 72 46 38 47 77 48 71 49 73 50 39 51 76 52 70 53 69 54 40 56
REMARK SMILES IDX 62 57 47 58 61 59 48 60 51 61 60 62 74 63 49 64 50 65 59 67
REMARK SMILES IDX 75 68 52 69 41 70 42 71 46 72 43 73 45 74 44 75 63 76 64 77
REMARK SMILES IDX 68 78 65 79 67 80 66 81 53 82 54 83 58 84 55 85 57 86 56 87
REMARK H PARENT 24 4 8 18 29 36 73 55 51 66
REMARK Flexibility Score: inf
ROOT
ATOM      1  C   UNL A   1      32.945  21.168  25.801  1.00  0.00     0.260 C 
ATOM      2  O   UNL A   1      32.084  20.407  25.337  1.00  0.00    -0.271 OA
ATOM      3  N   UNL A   1      34.222  20.880  25.428  1.00  0.00    -0.353 N 
ATOM      4  H   UNL A   1      34.286  20.204  24.714  1.00  0.00     0.163 HD
ENDROOT
BRANCH   1   5
ATOM      5  C   UNL A   1      32.503  22.402  26.654  1.00  0.00     0.258 C 
ATOM      6  C   UNL A   1      33.221  22.444  28.008  1.00  0.00     0.064 C 
BRANCH   5   7
ATOM      7  O   UNL A   1      31.183  22.953  26.618  1.00  0.00    -0.481 OA
BRANCH   7   8
ATOM      8  C   UNL A   1      30.892  24.038  25.859  1.00  0.00     0.120 A 
ATOM      9  C   UNL A   1      29.909  26.120  24.207  1.00  0.00    -0.024 A 
ATOM     10  C   UNL A   1      30.266  24.881  23.657  1.00  0.00     0.012 A 
ATOM     11  C   UNL A   1      30.193  26.310  25.566  1.00  0.00     0.012 A 
ATOM     12  C   UNL A   1      30.741  23.845  24.484  1.00  0.00     0.047 A 
ATOM     13  C   UNL A   1      30.759  25.315  26.357  1.00  0.00     0.047 A 
BRANCH   9  14
ATOM     14  C   UNL A   1      29.125  27.094  23.404  1.00  0.00     0.033 C 
ATOM     15  C   UNL A   1      29.315  28.422  23.330  1.00  0.00     0.118 C 
BRANCH  15  16
ATOM     16  C   UNL A   1      30.644  29.161  23.750  1.00  0.00     0.266 C 
ATOM     17  N   UNL A   1      31.862  28.822  23.178  1.00  0.00    -0.321 N 
ATOM     18  H   UNL A   1      32.201  29.462  22.513  1.00  0.00     0.170 HD
ATOM     19  O   UNL A   1      30.638  30.086  24.563  1.00  0.00    -0.268 OA
BRANCH  17  20
ATOM     20  C   UNL A   1      32.700  27.688  23.405  1.00  0.00     0.045 A 
ATOM     21  C   UNL A   1      33.563  25.563  22.616  1.00  0.00     0.120 A 
ATOM     22  C   UNL A   1      34.071  25.264  23.875  1.00  0.00     0.046 A 
ATOM     23  C   UNL A   1      32.822  26.731  22.391  1.00  0.00     0.072 A 
ATOM     24  C   UNL A   1      34.048  26.252  24.843  1.00  0.00     0.006 A 
ATOM     25  C   UNL A   1      33.453  27.490  24.564  1.00  0.00     0.026 A 
BRANCH  21  26
ATOM     26  O   UNL A   1      33.813  24.708  21.575  1.00  0.00    -0.497 OA
ATOM     27  C   UNL A   1      32.769  24.850  20.599  1.00  0.00     0.278 C 
ENDBRANCH  21  26
ENDBRANCH  17  20
ENDBRANCH  15  16
BRANCH  15  28
ATOM     28  C   UNL A   1      28.718  29.360  22.295  1.00  0.00     0.105 C 
ATOM     29  N   UNL A   1      28.221  30.139  21.436  1.00  0.00    -0.192 NA
ENDBRANCH  15  28
ENDBRANCH   9  14
ENDBRANCH   7   8
ENDBRANCH   5   7
ENDBRANCH   1   5
BRANCH   3  30
ATOM     30  C   UNL A   1      35.499  21.377  25.879  1.00  0.00     0.116 C 
BRANCH  30  31
ATOM     31  C   UNL A   1      36.377  21.752  24.688  1.00  0.00     0.023 C 
BRANCH  31  32
ATOM     32  C   UNL A   1      37.661  20.958  24.501  1.00  0.00     0.023 C 
BRANCH  32  33
ATOM     33  C   UNL A   1      38.539  20.847  25.742  1.00  0.00     0.116 C 
BRANCH  33  34
ATOM     34  N   UNL A   1      39.559  19.805  25.691  1.00  0.00    -0.352 N 
ATOM     35  C   UNL A   1      40.867  19.886  26.106  1.00  0.00     0.251 C 
ATOM     36  H   UNL A   1      39.277  18.941  25.315  1.00  0.00     0.163 HD
ATOM     37  O   UNL A   1      41.609  18.911  26.062  1.00  0.00    -0.269 OA
BRANCH  35  38
ATOM     38  C   UNL A   1      41.378  21.170  26.597  1.00  0.00     0.039 A 
ATOM     39  C   UNL A   1      41.911  22.095  25.696  1.00  0.00     0.014 A 
ATOM     40  C   UNL A   1      41.252  21.467  27.953  1.00  0.00     0.014 A 
ATOM     41  C   UNL A   1      42.257  23.364  26.157  1.00  0.00     0.010 A 
ATOM     42  C   UNL A   1      41.505  22.754  28.387  1.00  0.00     0.010 A 
ATOM     43  C   UNL A   1      42.025  23.707  27.498  1.00  0.00    -0.014 A 
BRANCH  43  44
ATOM     44  C   UNL A   1      42.355  25.046  28.029  1.00  0.00     0.031 A 
ATOM     45  C   UNL A   1      43.767  25.336  28.452  1.00  0.00     0.074 A 
ATOM     46  C   UNL A   1      41.374  25.943  28.233  1.00  0.00     0.049 A 
ATOM     47  N   UNL A   1      44.251  26.390  29.052  1.00  0.00    -0.248 NA
ATOM     48  C   UNL A   1      44.756  24.271  28.211  1.00  0.00     0.031 C 
ATOM     49  C   UNL A   1      39.957  25.742  27.922  1.00  0.00     0.029 A 
ATOM     50  N   UNL A   1      41.423  27.203  28.768  1.00  0.00    -0.354 N 
ATOM     51  C   UNL A   1      45.587  26.099  29.294  1.00  0.00     0.074 A 
ATOM     52  C   UNL A   1      45.820  24.749  28.835  1.00  0.00     0.031 C 
ATOM     53  C   UNL A   1      39.276  26.854  28.244  1.00  0.00     0.029 A 
ATOM     54  C   UNL A   1      40.201  27.827  28.814  1.00  0.00     0.049 A 
ATOM     55  H   UNL A   1      42.255  27.622  29.089  1.00  0.00     0.167 HD
ATOM     56  C   UNL A   1      46.542  26.895  29.829  1.00  0.00     0.031 A 
ATOM     57  C   UNL A   1      39.871  29.053  29.261  1.00  0.00     0.031 A 
ATOM     58  C   UNL A   1      46.303  28.246  30.254  1.00  0.00     0.049 A 
ATOM     59  C   UNL A   1      40.957  29.943  29.797  1.00  0.00     0.074 A 
ATOM     60  C   UNL A   1      47.206  29.173  30.744  1.00  0.00     0.029 A 
ATOM     61  N   UNL A   1      45.063  28.867  30.227  1.00  0.00    -0.354 N 
ATOM     62  N   UNL A   1      42.232  29.684  29.959  1.00  0.00    -0.248 NA
ATOM     63  C   UNL A   1      40.559  31.300  30.190  1.00  0.00     0.031 C 
ATOM     64  C   UNL A   1      46.503  30.344  31.049  1.00  0.00     0.029 A 
ATOM     65  C   UNL A   1      45.172  30.162  30.701  1.00  0.00     0.049 A 
ATOM     66  H   UNL A   1      44.228  28.449  29.917  1.00  0.00     0.167 HD
ATOM     67  C   UNL A   1      42.798  30.855  30.447  1.00  0.00     0.074 A 
ATOM     68  C   UNL A   1      41.725  31.827  30.538  1.00  0.00     0.031 C 
ATOM     69  C   UNL A   1      44.086  31.106  30.787  1.00  0.00     0.031 A 
BRANCH  56  70
ATOM     70  C   UNL A   1      47.916  26.303  29.983  1.00  0.00    -0.014 A 
ATOM     71  C   UNL A   1      48.801  26.215  28.894  1.00  0.00     0.009 A 
ATOM     72  C   UNL A   1      48.325  25.803  31.228  1.00  0.00     0.009 A 
ATOM     73  C   UNL A   1      50.039  25.585  29.035  1.00  0.00     0.001 A 
ATOM     74  C   UNL A   1      49.579  25.205  31.374  1.00  0.00     0.001 A 
ATOM     75  C   UNL A   1      50.427  25.083  30.275  1.00  0.00     0.000 A 
ENDBRANCH  56  70
BRANCH  57  76
ATOM     76  C   UNL A   1      38.466  29.519  29.164  1.00  0.00    -0.014 A 
ATOM     77  C   UNL A   1      37.967  30.017  27.950  1.00  0.00     0.009 A 
ATOM     78  C   UNL A   1      37.604  29.442  30.269  1.00  0.00     0.009 A 
ATOM     79  C   UNL A   1      36.642  30.445  27.850  1.00  0.00     0.001 A 
ATOM     80  C   UNL A   1      36.272  29.847  30.159  1.00  0.00     0.001 A 
ATOM     81  C   UNL A   1      35.795  30.355  28.952  1.00  0.00     0.000 A 
ENDBRANCH  57  76
BRANCH  69  82
ATOM     82  C   UNL A   1      44.404  32.496  31.256  1.00  0.00    -0.014 A 
ATOM     83  C   UNL A   1      44.351  32.839  32.616  1.00  0.00     0.009 A 
ATOM     84  C   UNL A   1      44.787  33.470  30.321  1.00  0.00     0.009 A 
ATOM     85  C   UNL A   1      44.636  34.143  33.025  1.00  0.00     0.001 A 
ATOM     86  C   UNL A   1      45.100  34.765  30.736  1.00  0.00     0.001 A 
ATOM     87  C   UNL A   1      45.014  35.102  32.086  1.00  0.00     0.000 A 
ENDBRANCH  69  82
ENDBRANCH  43  44
ENDBRANCH  35  38
ENDBRANCH  33  34
ENDBRANCH  32  33
ENDBRANCH  31  32
ENDBRANCH  30  31
ENDBRANCH   3  30
TORSDOF 18
ENDMDL
MODEL 3
REMARK VINA RESULT:     -11.4      2.343      6.789
REMARK SMILES COc1cccc(NC(=O)/C(C#N)=C\c2ccc(O[C@@H](C)C(=O)NCCCCNC(=O)c3ccc(-c4c5nc(c(-c6ccccc6)c6ccc([nH]6)c(-c6ccccc6)c6nc(c(-c7ccccc7)c7ccc4[nH]7)C=C6)C=C5)cc3)cc2)c1
REMARK SMILES IDX 22 1 23 2 24 3 20 5 21 6 19 7 18 8 15 9 16 10 81 11 17 12
REMARK SMILES IDX 80 13 14 14 11 15 9 16 8 17 10 19 7 20 3 21 4 22 82 23 5 24
REMARK SMILES IDX 6 25 2 26 1 27 12 28 13 29 25 30 26 31 27 32 28 33 29 34
REMARK SMILES IDX 30 35 31 37 32 38 33 39 79 40 34 41 78 42 35 43 36 44 37 45
REMARK SMILES IDX 72 46 38 47 77 48 71 49 73 50 39 51 76 52 70 53 69 54 40 56
REMARK SMILES IDX 62 57 47 58 61 59 48 60 51 61 60 62 74 63 49 64 50 65 59 67
REMARK SMILES IDX 75 68 52 69 41 70 42 71 46 72 43 73 45 74 44 75 63 76 64 77
REMARK SMILES IDX 68 78 65 79 67 80 66 81 53 82 54 83 58 84 55 85 57 86 56 87
REMARK H PARENT 24 4 8 18 29 36 73 55 51 66
REMARK Flexibility Score: inf
ROOT
ATOM      1  C   UNL A   1      32.874  20.995  25.501  1.00  0.00     0.260 C 
ATOM      2  O   UNL A   1      32.019  20.236  25.021  1.00  0.00    -0.271 OA
ATOM      3  N   UNL A   1      34.150  20.743  25.101  1.00  0.00    -0.353 N 
ATOM      4  H   UNL A   1      34.215  20.095  24.362  1.00  0.00     0.163 HD
ENDROOT
BRANCH   1   5
ATOM      5  C   UNL A   1      32.423  22.190  26.405  1.00  0.00     0.258 C 
ATOM      6  C   UNL A   1      33.163  22.198  27.746  1.00  0.00     0.064 C 
BRANCH   5   7
ATOM      7  O   UNL A   1      31.091  22.715  26.410  1.00  0.00    -0.481 OA
BRANCH   7   8
ATOM      8  C   UNL A   1      30.782  23.860  25.754  1.00  0.00     0.120 A 
ATOM      9  C   UNL A   1      29.769  26.064  24.289  1.00  0.00    -0.024 A 
ATOM     10  C   UNL A   1      30.178  24.897  23.630  1.00  0.00     0.012 A 
ATOM     11  C   UNL A   1      30.017  26.128  25.667  1.00  0.00     0.012 A 
ATOM     12  C   UNL A   1      30.668  23.799  24.363  1.00  0.00     0.047 A 
ATOM     13  C   UNL A   1      30.597  25.076  26.371  1.00  0.00     0.047 A 
BRANCH   9  14
ATOM     14  C   UNL A   1      28.972  27.089  23.566  1.00  0.00     0.033 C 
ATOM     15  C   UNL A   1      29.240  28.401  23.464  1.00  0.00     0.118 C 
BRANCH  15  16
ATOM     16  C   UNL A   1      30.651  29.050  23.739  1.00  0.00     0.266 C 
ATOM     17  N   UNL A   1      31.749  28.735  22.953  1.00  0.00    -0.321 N 
ATOM     18  H   UNL A   1      32.012  29.429  22.308  1.00  0.00     0.170 HD
ATOM     19  O   UNL A   1      30.814  29.886  24.630  1.00  0.00    -0.268 OA
BRANCH  17  20
ATOM     20  C   UNL A   1      32.557  27.556  22.933  1.00  0.00     0.045 A 
ATOM     21  C   UNL A   1      33.224  25.524  21.788  1.00  0.00     0.120 A 
ATOM     22  C   UNL A   1      33.866  25.055  22.929  1.00  0.00     0.046 A 
ATOM     23  C   UNL A   1      32.514  26.733  21.802  1.00  0.00     0.072 A 
ATOM     24  C   UNL A   1      34.005  25.912  24.004  1.00  0.00     0.006 A 
ATOM     25  C   UNL A   1      33.436  27.192  23.955  1.00  0.00     0.026 A 
BRANCH  21  26
ATOM     26  O   UNL A   1      33.308  24.801  20.628  1.00  0.00    -0.497 OA
ATOM     27  C   UNL A   1      32.496  25.435  19.628  1.00  0.00     0.278 C 
ENDBRANCH  21  26
ENDBRANCH  17  20
ENDBRANCH  15  16
BRANCH  15  28
ATOM     28  C   UNL A   1      28.601  29.378  22.491  1.00  0.00     0.105 C 
ATOM     29  N   UNL A   1      28.072  30.188  21.683  1.00  0.00    -0.192 NA
ENDBRANCH  15  28
ENDBRANCH   9  14
ENDBRANCH   7   8
ENDBRANCH   5   7
ENDBRANCH   1   5
BRANCH   3  30
ATOM     30  C   UNL A   1      35.425  21.247  25.552  1.00  0.00     0.116 C 
BRANCH  30  31
ATOM     31  C   UNL A   1      35.748  22.573  24.870  1.00  0.00     0.023 C 
BRANCH  31  32
ATOM     32  C   UNL A   1      37.219  22.939  24.738  1.00  0.00     0.023 C 
BRANCH  32  33
ATOM     33  C   UNL A   1      38.048  22.753  26.003  1.00  0.00     0.116 C 
BRANCH  33  34
ATOM     34  N   UNL A   1      39.328  22.078  25.815  1.00  0.00    -0.352 N 
ATOM     35  C   UNL A   1      40.579  22.533  26.156  1.00  0.00     0.251 C 
ATOM     36  H   UNL A   1      39.290  21.190  25.393  1.00  0.00     0.163 HD
ATOM     37  O   UNL A   1      41.573  21.837  25.997  1.00  0.00    -0.269 OA
BRANCH  35  38
ATOM     38  C   UNL A   1      40.716  23.885  26.709  1.00  0.00     0.039 A 
ATOM     39  C   UNL A   1      40.967  24.056  28.072  1.00  0.00     0.014 A 
ATOM     40  C   UNL A   1      40.663  24.973  25.838  1.00  0.00     0.014 A 
ATOM     41  C   UNL A   1      41.238  25.336  28.553  1.00  0.00     0.010 A 
ATOM     42  C   UNL A   1      41.027  26.224  26.300  1.00  0.00     0.010 A 
ATOM     43  C   UNL A   1      41.300  26.418  27.662  1.00  0.00    -0.014 A 
BRANCH  43  44
ATOM     44  C   UNL A   1      41.604  27.790  28.121  1.00  0.00     0.031 A 
ATOM     45  C   UNL A   1      43.035  28.239  28.182  1.00  0.00     0.074 A 
ATOM     46  C   UNL A   1      40.613  28.573  28.583  1.00  0.00     0.049 A 
ATOM     47  N   UNL A   1      43.536  29.345  28.664  1.00  0.00    -0.248 NA
ATOM     48  C   UNL A   1      44.044  27.290  27.680  1.00  0.00     0.031 C 
ATOM     49  C   UNL A   1      39.194  28.213  28.632  1.00  0.00     0.029 A 
ATOM     50  N   UNL A   1      40.655  29.836  29.113  1.00  0.00    -0.354 N 
ATOM     51  C   UNL A   1      44.914  29.208  28.557  1.00  0.00     0.074 A 
ATOM     52  C   UNL A   1      45.171  27.889  28.027  1.00  0.00     0.031 C 
ATOM     53  C   UNL A   1      38.498  29.244  29.137  1.00  0.00     0.029 A 
ATOM     54  C   UNL A   1      39.423  30.319  29.476  1.00  0.00     0.049 A 
ATOM     55  H   UNL A   1      41.489  30.347  29.224  1.00  0.00     0.167 HD
ATOM     56  C   UNL A   1      45.879  30.110  28.851  1.00  0.00     0.031 A 
ATOM     57  C   UNL A   1      39.083  31.504  30.017  1.00  0.00     0.031 A 
ATOM     58  C   UNL A   1      45.607  31.429  29.350  1.00  0.00     0.049 A 
ATOM     59  C   UNL A   1      40.164  32.514  30.282  1.00  0.00     0.074 A 
ATOM     60  C   UNL A   1      46.495  32.455  29.617  1.00  0.00     0.029 A 
ATOM     61  N   UNL A   1      44.339  31.908  29.647  1.00  0.00    -0.354 N 
ATOM     62  N   UNL A   1      41.460  32.401  30.114  1.00  0.00    -0.248 NA
ATOM     63  C   UNL A   1      39.730  33.821  30.789  1.00  0.00     0.031 C 
ATOM     64  C   UNL A   1      45.767  33.542  30.113  1.00  0.00     0.029 A 
ATOM     65  C   UNL A   1      44.420  33.211  30.106  1.00  0.00     0.049 A 
ATOM     66  H   UNL A   1      43.504  31.396  29.548  1.00  0.00     0.167 HD
ATOM     67  C   UNL A   1      41.997  33.631  30.468  1.00  0.00     0.074 A 
ATOM     68  C   UNL A   1      40.881  34.478  30.844  1.00  0.00     0.031 C 
ATOM     69  C   UNL A   1      43.294  34.027  30.480  1.00  0.00     0.031 A 
BRANCH  56  70
ATOM     70  C   UNL A   1      47.304  29.676  28.644  1.00  0.00    -0.014 A 
ATOM     71  C   UNL A   1      47.952  29.859  27.411  1.00  0.00     0.009 A 
ATOM     72  C   UNL A   1      48.003  29.054  29.689  1.00  0.00     0.009 A 
ATOM     73  C   UNL A   1      49.246  29.373  27.209  1.00  0.00     0.001 A 
ATOM     74  C   UNL A   1      49.310  28.601  29.496  1.00  0.00     0.001 A 
ATOM     75  C   UNL A   1      49.923  28.747  28.253  1.00  0.00     0.000 A 
ENDBRANCH  56  70
BRANCH  57  76
ATOM     76  C   UNL A   1      37.656  31.809  30.285  1.00  0.00    -0.014 A 
ATOM     77  C   UNL A   1      36.874  32.451  29.311  1.00  0.00     0.009 A 
ATOM     78  C   UNL A   1      37.055  31.436  31.497  1.00  0.00     0.009 A 
ATOM     79  C   UNL A   1      35.528  32.729  29.553  1.00  0.00     0.001 A 
ATOM     80  C   UNL A   1      35.702  31.693  31.726  1.00  0.00     0.001 A 
ATOM     81  C   UNL A   1      34.941  32.346  30.757  1.00  0.00     0.000 A 
ENDBRANCH  57  76
BRANCH  69  82
ATOM     82  C   UNL A   1      43.564  35.448  30.882  1.00  0.00    -0.014 A 
ATOM     83  C   UNL A   1      43.679  36.469  29.925  1.00  0.00     0.009 A 
ATOM     84  C   UNL A   1      43.678  35.772  32.243  1.00  0.00     0.009 A 
ATOM     85  C   UNL A   1      43.945  37.780  30.324  1.00  0.00     0.001 A 
ATOM     86  C   UNL A   1      43.916  37.088  32.639  1.00  0.00     0.001 A 
ATOM     87  C   UNL A   1      44.059  38.088  31.679  1.00  0.00     0.000 A 
ENDBRANCH  69  82
ENDBRANCH  43  44
ENDBRANCH  35  38
ENDBRANCH  33  34
ENDBRANCH  32  33
ENDBRANCH  31  32
ENDBRANCH  30  31
ENDBRANCH   3  30
TORSDOF 18
ENDMDL
