MODEL 1
REMARK VINA RESULT:     -10.4      0.000      0.000
REMARK SMILES CC[C@@H](C)[C@@H]([NH3+])C(=O)N1CCC(CC(=O)NCCCCNC(=O)c2ccc(-c3c4nc(c(-c5ccccc5)c5ccc([nH]5)c(-c5ccccc5)c5nc(c(-c6ccccc6)c6ccc3[nH]6)C=C5)C=C4)cc2)CC1
REMARK SMILES IDX 17 1 16 2 14 3 15 4 13 6 12 7 7 8 8 9 9 10 10 11 73 12 11 13
REMARK SMILES IDX 72 14 5 15 3 16 4 17 2 18 1 19 6 20 18 24 19 25 20 26 21 27
REMARK SMILES IDX 22 28 23 30 24 31 25 32 71 33 26 34 70 35 27 36 28 37 29 38
REMARK SMILES IDX 64 39 30 40 69 41 63 42 65 43 31 44 68 45 62 46 61 47 32 49
REMARK SMILES IDX 54 50 39 51 53 52 40 53 43 54 52 55 66 56 41 57 42 58 51 60
REMARK SMILES IDX 67 61 44 62 33 63 34 64 38 65 35 66 37 67 36 68 55 69 56 70
REMARK SMILES IDX 60 71 57 72 59 73 58 74 45 75 46 76 50 77 47 78 49 79 48 80
REMARK H PARENT 16 5 6 21 6 22 6 23 21 29 65 48 43 59
REMARK Flexibility Score: inf
ROOT
ATOM      1  C   UNL A   1      37.364  23.514  25.578  1.00  0.00     0.116 C 
ENDROOT
BRANCH   1   2
ATOM      2  N   UNL A   1      36.138  23.142  26.267  1.00  0.00    -0.356 N 
ATOM      3  C   UNL A   1      34.899  23.714  26.238  1.00  0.00     0.220 C 
ATOM      4  O   UNL A   1      34.020  23.241  26.960  1.00  0.00    -0.275 OA
ATOM      5  H   UNL A   1      36.214  22.350  26.846  1.00  0.00     0.163 HD
BRANCH   3   6
ATOM      6  C   UNL A   1      34.610  24.910  25.345  1.00  0.00     0.103 C 
BRANCH   6   7
ATOM      7  C   UNL A   1      33.106  25.189  25.141  1.00  0.00     0.002 C 
ATOM      8  C   UNL A   1      31.261  28.443  23.682  1.00  0.00     0.281 C 
ATOM      9  O   UNL A   1      31.958  29.287  24.259  1.00  0.00    -0.268 OA
ATOM     10  N   UNL A   1      31.166  27.145  24.169  1.00  0.00    -0.338 N 
ATOM     11  C   UNL A   1      31.286  26.950  25.598  1.00  0.00     0.120 C 
ATOM     12  C   UNL A   1      31.395  25.931  23.398  1.00  0.00     0.120 C 
ATOM     13  C   UNL A   1      32.656  26.406  25.949  1.00  0.00     0.026 C 
ATOM     14  C   UNL A   1      32.806  25.391  23.649  1.00  0.00     0.026 C 
BRANCH   8  15
ATOM     15  C   UNL A   1      30.232  28.924  22.604  1.00  0.00     0.273 C 
BRANCH  15  16
ATOM     16  C   UNL A   1      28.889  29.478  23.118  1.00  0.00     0.054 C 
ATOM     17  C   UNL A   1      27.826  28.366  23.064  1.00  0.00     0.014 C 
BRANCH  16  18
ATOM     18  C   UNL A   1      28.390  30.724  22.352  1.00  0.00     0.006 C 
ATOM     19  C   UNL A   1      27.714  31.732  23.277  1.00  0.00     0.004 C 
ENDBRANCH  16  18
ENDBRANCH  15  16
BRANCH  15  20
ATOM     20  N   UNL A   1      30.950  29.897  21.743  1.00  0.00    -0.347 N 
ATOM     21  H   UNL A   1      30.402  30.077  20.902  1.00  0.00     0.345 HD
ATOM     22  H   UNL A   1      31.858  29.514  21.481  1.00  0.00     0.345 HD
ATOM     23  H   UNL A   1      31.083  30.769  22.255  1.00  0.00     0.345 HD
ENDBRANCH  15  20
ENDBRANCH   8  15
ENDBRANCH   6   7
ENDBRANCH   3   6
ENDBRANCH   1   2
BRANCH   1  24
ATOM     24  C   UNL A   1      38.585  22.793  26.157  1.00  0.00     0.023 C 
BRANCH  24  25
ATOM     25  C   UNL A   1      38.896  21.443  25.540  1.00  0.00     0.023 C 
BRANCH  25  26
ATOM     26  C   UNL A   1      39.426  20.430  26.530  1.00  0.00     0.116 C 
BRANCH  26  27
ATOM     27  N   UNL A   1      40.448  19.550  25.972  1.00  0.00    -0.352 N 
ATOM     28  C   UNL A   1      41.801  19.782  25.843  1.00  0.00     0.251 C 
ATOM     29  H   UNL A   1      40.131  18.678  25.645  1.00  0.00     0.163 HD
ATOM     30  O   UNL A   1      42.530  18.990  25.273  1.00  0.00    -0.269 OA
BRANCH  28  31
ATOM     31  C   UNL A   1      42.336  21.050  26.376  1.00  0.00     0.039 A 
ATOM     32  C   UNL A   1      42.644  22.081  25.487  1.00  0.00     0.014 A 
ATOM     33  C   UNL A   1      42.399  21.249  27.756  1.00  0.00     0.014 A 
ATOM     34  C   UNL A   1      42.924  23.350  25.991  1.00  0.00     0.010 A 
ATOM     35  C   UNL A   1      42.561  22.534  28.247  1.00  0.00     0.010 A 
ATOM     36  C   UNL A   1      42.833  23.596  27.371  1.00  0.00    -0.014 A 
BRANCH  36  37
ATOM     37  C   UNL A   1      43.036  24.950  27.938  1.00  0.00     0.031 A 
ATOM     38  C   UNL A   1      44.409  25.357  28.394  1.00  0.00     0.074 A 
ATOM     39  C   UNL A   1      41.983  25.769  28.128  1.00  0.00     0.049 A 
ATOM     40  N   UNL A   1      44.784  26.442  29.021  1.00  0.00    -0.248 NA
ATOM     41  C   UNL A   1      45.500  24.397  28.151  1.00  0.00     0.031 C 
ATOM     42  C   UNL A   1      40.592  25.468  27.782  1.00  0.00     0.029 A 
ATOM     43  N   UNL A   1      41.923  27.027  28.672  1.00  0.00    -0.354 N 
ATOM     44  C   UNL A   1      46.138  26.274  29.279  1.00  0.00     0.074 A 
ATOM     45  C   UNL A   1      46.508  24.964  28.794  1.00  0.00     0.031 C 
ATOM     46  C   UNL A   1      39.823  26.526  28.087  1.00  0.00     0.029 A 
ATOM     47  C   UNL A   1      40.657  27.561  28.688  1.00  0.00     0.049 A 
ATOM     48  H   UNL A   1      42.712  27.503  29.018  1.00  0.00     0.167 HD
ATOM     49  C   UNL A   1      47.008  27.145  29.842  1.00  0.00     0.031 A 
ATOM     50  C   UNL A   1      40.220  28.752  29.139  1.00  0.00     0.031 A 
ATOM     51  C   UNL A   1      46.649  28.463  30.282  1.00  0.00     0.049 A 
ATOM     52  C   UNL A   1      41.209  29.713  29.737  1.00  0.00     0.074 A 
ATOM     53  C   UNL A   1      47.467  29.452  30.796  1.00  0.00     0.029 A 
ATOM     54  N   UNL A   1      45.362  28.978  30.250  1.00  0.00    -0.354 N 
ATOM     55  N   UNL A   1      42.500  29.567  29.913  1.00  0.00    -0.248 NA
ATOM     56  C   UNL A   1      40.681  31.007  30.192  1.00  0.00     0.031 C 
ATOM     57  C   UNL A   1      46.666  30.557  31.108  1.00  0.00     0.029 A 
ATOM     58  C   UNL A   1      45.359  30.267  30.749  1.00  0.00     0.049 A 
ATOM     59  H   UNL A   1      44.568  28.497  29.921  1.00  0.00     0.167 HD
ATOM     60  C   UNL A   1      42.943  30.756  30.474  1.00  0.00     0.074 A 
ATOM     61  C   UNL A   1      41.784  31.619  30.597  1.00  0.00     0.031 C 
ATOM     62  C   UNL A   1      44.195  31.106  30.856  1.00  0.00     0.031 A 
BRANCH  49  63
ATOM     63  C   UNL A   1      48.429  26.689  30.001  1.00  0.00    -0.014 A 
ATOM     64  C   UNL A   1      48.847  25.999  31.151  1.00  0.00     0.009 A 
ATOM     65  C   UNL A   1      49.362  26.946  28.985  1.00  0.00     0.009 A 
ATOM     66  C   UNL A   1      50.180  25.614  31.300  1.00  0.00     0.001 A 
ATOM     67  C   UNL A   1      50.690  26.532  29.124  1.00  0.00     0.001 A 
ATOM     68  C   UNL A   1      51.099  25.877  30.284  1.00  0.00     0.000 A 
ENDBRANCH  49  63
BRANCH  50  69
ATOM     69  C   UNL A   1      38.785  29.116  29.017  1.00  0.00    -0.014 A 
ATOM     70  C   UNL A   1      38.283  29.616  27.804  1.00  0.00     0.009 A 
ATOM     71  C   UNL A   1      37.911  28.973  30.104  1.00  0.00     0.009 A 
ATOM     72  C   UNL A   1      36.943  29.988  27.692  1.00  0.00     0.001 A 
ATOM     73  C   UNL A   1      36.565  29.323  29.982  1.00  0.00     0.001 A 
ATOM     74  C   UNL A   1      36.083  29.838  28.780  1.00  0.00     0.000 A 
ENDBRANCH  50  69
BRANCH  62  75
ATOM     75  C   UNL A   1      44.382  32.487  31.411  1.00  0.00    -0.014 A 
ATOM     76  C   UNL A   1      44.299  32.732  32.790  1.00  0.00     0.009 A 
ATOM     77  C   UNL A   1      44.698  33.546  30.545  1.00  0.00     0.009 A 
ATOM     78  C   UNL A   1      44.505  34.019  33.288  1.00  0.00     0.001 A 
ATOM     79  C   UNL A   1      44.928  34.825  31.049  1.00  0.00     0.001 A 
ATOM     80  C   UNL A   1      44.824  35.062  32.419  1.00  0.00     0.000 A 
ENDBRANCH  62  75
ENDBRANCH  36  37
ENDBRANCH  28  31
ENDBRANCH  26  27
ENDBRANCH  25  26
ENDBRANCH  24  25
ENDBRANCH   1  24
TORSDOF 16
ENDMDL
MODEL 2
REMARK VINA RESULT:     -10.3      1.884      8.137
REMARK SMILES CC[C@@H](C)[C@@H]([NH3+])C(=O)N1CCC(CC(=O)NCCCCNC(=O)c2ccc(-c3c4nc(c(-c5ccccc5)c5ccc([nH]5)c(-c5ccccc5)c5nc(c(-c6ccccc6)c6ccc3[nH]6)C=C5)C=C4)cc2)CC1
REMARK SMILES IDX 17 1 16 2 14 3 15 4 13 6 12 7 7 8 8 9 9 10 10 11 73 12 11 13
REMARK SMILES IDX 72 14 5 15 3 16 4 17 2 18 1 19 6 20 18 24 19 25 20 26 21 27
REMARK SMILES IDX 22 28 23 30 24 31 25 32 71 33 26 34 70 35 27 36 28 37 29 38
REMARK SMILES IDX 64 39 30 40 69 41 63 42 65 43 31 44 68 45 62 46 61 47 32 49
REMARK SMILES IDX 54 50 39 51 53 52 40 53 43 54 52 55 66 56 41 57 42 58 51 60
REMARK SMILES IDX 67 61 44 62 33 63 34 64 38 65 35 66 37 67 36 68 55 69 56 70
REMARK SMILES IDX 60 71 57 72 59 73 58 74 45 75 46 76 50 77 47 78 49 79 48 80
REMARK H PARENT 16 5 6 21 6 22 6 23 21 29 65 48 43 59
REMARK Flexibility Score: inf
ROOT
ATOM      1  C   UNL A   1      31.246  29.352  24.274  1.00  0.00     0.116 C 
ENDROOT
BRANCH   1   2
ATOM      2  N   UNL A   1      32.330  29.051  23.353  1.00  0.00    -0.356 N 
ATOM      3  C   UNL A   1      32.697  27.869  22.776  1.00  0.00     0.220 C 
ATOM      4  O   UNL A   1      33.700  27.856  22.059  1.00  0.00    -0.275 OA
ATOM      5  H   UNL A   1      32.888  29.822  23.106  1.00  0.00     0.163 HD
BRANCH   3   6
ATOM      6  C   UNL A   1      31.897  26.599  23.015  1.00  0.00     0.103 C 
BRANCH   6   7
ATOM      7  C   UNL A   1      32.280  25.854  24.311  1.00  0.00     0.002 C 
ATOM      8  C   UNL A   1      34.142  22.331  24.805  1.00  0.00     0.281 C 
ATOM      9  O   UNL A   1      33.550  21.717  23.909  1.00  0.00    -0.268 OA
ATOM     10  N   UNL A   1      33.583  23.467  25.378  1.00  0.00    -0.338 N 
ATOM     11  C   UNL A   1      32.140  23.549  25.446  1.00  0.00     0.120 C 
ATOM     12  C   UNL A   1      34.244  24.757  25.519  1.00  0.00     0.120 C 
ATOM     13  C   UNL A   1      31.608  24.483  24.378  1.00  0.00     0.026 C 
ATOM     14  C   UNL A   1      33.806  25.712  24.404  1.00  0.00     0.026 C 
BRANCH   8  15
ATOM     15  C   UNL A   1      35.354  21.643  25.518  1.00  0.00     0.273 C 
BRANCH  15  16
ATOM     16  C   UNL A   1      36.750  22.248  25.265  1.00  0.00     0.054 C 
ATOM     17  C   UNL A   1      36.863  22.663  23.787  1.00  0.00     0.014 C 
BRANCH  16  18
ATOM     18  C   UNL A   1      37.918  21.310  25.643  1.00  0.00     0.006 C 
ATOM     19  C   UNL A   1      37.924  20.036  24.804  1.00  0.00     0.004 C 
ENDBRANCH  16  18
ENDBRANCH  15  16
BRANCH  15  20
ATOM     20  N   UNL A   1      35.018  21.589  26.963  1.00  0.00    -0.347 N 
ATOM     21  H   UNL A   1      34.273  22.256  27.164  1.00  0.00     0.345 HD
ATOM     22  H   UNL A   1      35.843  21.824  27.513  1.00  0.00     0.345 HD
ATOM     23  H   UNL A   1      34.705  20.648  27.203  1.00  0.00     0.345 HD
ENDBRANCH  15  20
ENDBRANCH   8  15
ENDBRANCH   6   7
ENDBRANCH   3   6
ENDBRANCH   1   2
BRANCH   1  24
ATOM     24  C   UNL A   1      31.766  29.892  25.610  1.00  0.00     0.023 C 
BRANCH  24  25
ATOM     25  C   UNL A   1      32.206  28.839  26.610  1.00  0.00     0.023 C 
BRANCH  25  26
ATOM     26  C   UNL A   1      33.557  29.119  27.231  1.00  0.00     0.116 C 
BRANCH  26  27
ATOM     27  N   UNL A   1      33.637  30.421  27.886  1.00  0.00    -0.352 N 
ATOM     28  C   UNL A   1      34.703  30.975  28.563  1.00  0.00     0.251 C 
ATOM     29  H   UNL A   1      32.826  30.975  27.839  1.00  0.00     0.163 HD
ATOM     30  O   UNL A   1      34.602  32.043  29.142  1.00  0.00    -0.269 OA
BRANCH  28  31
ATOM     31  C   UNL A   1      35.963  30.209  28.608  1.00  0.00     0.039 A 
ATOM     32  C   UNL A   1      36.829  30.265  27.515  1.00  0.00     0.014 A 
ATOM     33  C   UNL A   1      36.332  29.553  29.784  1.00  0.00     0.014 A 
ATOM     34  C   UNL A   1      38.115  29.740  27.640  1.00  0.00     0.010 A 
ATOM     35  C   UNL A   1      37.645  29.140  29.943  1.00  0.00     0.010 A 
ATOM     36  C   UNL A   1      38.547  29.222  28.872  1.00  0.00    -0.014 A 
BRANCH  36  37
ATOM     37  C   UNL A   1      39.932  28.736  29.072  1.00  0.00     0.031 A 
ATOM     38  C   UNL A   1      40.966  29.671  29.634  1.00  0.00     0.074 A 
ATOM     39  C   UNL A   1      40.280  27.499  28.665  1.00  0.00     0.049 A 
ATOM     40  N   UNL A   1      42.253  29.490  29.779  1.00  0.00    -0.248 NA
ATOM     41  C   UNL A   1      40.498  31.006  30.046  1.00  0.00     0.031 C 
ATOM     42  C   UNL A   1      39.383  26.517  28.052  1.00  0.00     0.029 A 
ATOM     43  N   UNL A   1      41.494  26.860  28.701  1.00  0.00    -0.354 N 
ATOM     44  C   UNL A   1      42.747  30.694  30.262  1.00  0.00     0.074 A 
ATOM     45  C   UNL A   1      41.637  31.617  30.329  1.00  0.00     0.031 C 
ATOM     46  C   UNL A   1      40.068  25.389  27.805  1.00  0.00     0.029 A 
ATOM     47  C   UNL A   1      41.459  25.581  28.202  1.00  0.00     0.049 A 
ATOM     48  H   UNL A   1      42.313  27.278  29.053  1.00  0.00     0.167 HD
ATOM     49  C   UNL A   1      44.009  31.001  30.644  1.00  0.00     0.031 A 
ATOM     50  C   UNL A   1      42.440  24.668  28.077  1.00  0.00     0.031 A 
ATOM     51  C   UNL A   1      45.101  30.070  30.618  1.00  0.00     0.049 A 
ATOM     52  C   UNL A   1      43.828  25.022  28.533  1.00  0.00     0.074 A 
ATOM     53  C   UNL A   1      46.400  30.254  31.054  1.00  0.00     0.029 A 
ATOM     54  N   UNL A   1      45.016  28.774  30.135  1.00  0.00    -0.354 N 
ATOM     55  N   UNL A   1      44.267  26.145  29.050  1.00  0.00    -0.248 NA
ATOM     56  C   UNL A   1      44.855  23.980  28.394  1.00  0.00     0.031 C 
ATOM     57  C   UNL A   1      47.113  29.077  30.802  1.00  0.00     0.029 A 
ATOM     58  C   UNL A   1      46.245  28.149  30.248  1.00  0.00     0.049 A 
ATOM     59  H   UNL A   1      44.203  28.359  29.767  1.00  0.00     0.167 HD
ATOM     60  C   UNL A   1      45.612  25.936  29.321  1.00  0.00     0.074 A 
ATOM     61  C   UNL A   1      45.914  24.575  28.925  1.00  0.00     0.031 C 
ATOM     62  C   UNL A   1      46.518  26.793  29.851  1.00  0.00     0.031 A 
BRANCH  49  63
ATOM     63  C   UNL A   1      44.259  32.400  31.128  1.00  0.00    -0.014 A 
ATOM     64  C   UNL A   1      44.128  32.733  32.486  1.00  0.00     0.009 A 
ATOM     65  C   UNL A   1      44.638  33.396  30.216  1.00  0.00     0.009 A 
ATOM     66  C   UNL A   1      44.329  34.047  32.914  1.00  0.00     0.001 A 
ATOM     67  C   UNL A   1      44.867  34.704  30.652  1.00  0.00     0.001 A 
ATOM     68  C   UNL A   1      44.702  35.029  31.998  1.00  0.00     0.000 A 
ENDBRANCH  49  63
BRANCH  50  69
ATOM     69  C   UNL A   1      42.143  23.321  27.524  1.00  0.00    -0.014 A 
ATOM     70  C   UNL A   1      42.396  23.041  26.172  1.00  0.00     0.009 A 
ATOM     71  C   UNL A   1      41.603  22.314  28.336  1.00  0.00     0.009 A 
ATOM     72  C   UNL A   1      42.091  21.787  25.640  1.00  0.00     0.001 A 
ATOM     73  C   UNL A   1      41.322  21.052  27.807  1.00  0.00     0.001 A 
ATOM     74  C   UNL A   1      41.558  20.792  26.458  1.00  0.00     0.000 A 
ENDBRANCH  50  69
BRANCH  62  75
ATOM     75  C   UNL A   1      47.910  26.275  30.061  1.00  0.00    -0.014 A 
ATOM     76  C   UNL A   1      48.872  26.348  29.043  1.00  0.00     0.009 A 
ATOM     77  C   UNL A   1      48.276  25.755  31.313  1.00  0.00     0.009 A 
ATOM     78  C   UNL A   1      50.170  25.887  29.268  1.00  0.00     0.001 A 
ATOM     79  C   UNL A   1      49.581  25.319  31.542  1.00  0.00     0.001 A 
ATOM     80  C   UNL A   1      50.524  25.378  30.518  1.00  0.00     0.000 A 
ENDBRANCH  62  75
ENDBRANCH  36  37
ENDBRANCH  28  31
ENDBRANCH  26  27
ENDBRANCH  25  26
ENDBRANCH  24  25
ENDBRANCH   1  24
TORSDOF 16
ENDMDL
MODEL 3
REMARK VINA RESULT:     -10.2      4.246      9.740
REMARK SMILES CC[C@@H](C)[C@@H]([NH3+])C(=O)N1CCC(CC(=O)NCCCCNC(=O)c2ccc(-c3c4nc(c(-c5ccccc5)c5ccc([nH]5)c(-c5ccccc5)c5nc(c(-c6ccccc6)c6ccc3[nH]6)C=C5)C=C4)cc2)CC1
REMARK SMILES IDX 17 1 16 2 14 3 15 4 13 6 12 7 7 8 8 9 9 10 10 11 73 12 11 13
REMARK SMILES IDX 72 14 5 15 3 16 4 17 2 18 1 19 6 20 18 24 19 25 20 26 21 27
REMARK SMILES IDX 22 28 23 30 24 31 25 32 71 33 26 34 70 35 27 36 28 37 29 38
REMARK SMILES IDX 64 39 30 40 69 41 63 42 65 43 31 44 68 45 62 46 61 47 32 49
REMARK SMILES IDX 54 50 39 51 53 52 40 53 43 54 52 55 66 56 41 57 42 58 51 60
REMARK SMILES IDX 67 61 44 62 33 63 34 64 38 65 35 66 37 67 36 68 55 69 56 70
REMARK SMILES IDX 60 71 57 72 59 73 58 74 45 75 46 76 50 77 47 78 49 79 48 80
REMARK H PARENT 16 5 6 21 6 22 6 23 21 29 65 48 43 59
REMARK Flexibility Score: inf
ROOT
ATOM      1  C   UNL A   1      32.997  29.806  26.196  1.00  0.00     0.116 C 
ENDROOT
BRANCH   1   2
ATOM      2  N   UNL A   1      33.668  29.627  24.919  1.00  0.00    -0.356 N 
ATOM      3  C   UNL A   1      33.669  28.564  24.062  1.00  0.00     0.220 C 
ATOM      4  O   UNL A   1      34.369  28.631  23.050  1.00  0.00    -0.275 OA
ATOM      5  H   UNL A   1      34.207  30.396  24.625  1.00  0.00     0.163 HD
BRANCH   3   6
ATOM      6  C   UNL A   1      32.837  27.326  24.351  1.00  0.00     0.103 C 
BRANCH   6   7
ATOM      7  C   UNL A   1      33.633  26.006  24.277  1.00  0.00     0.002 C 
ATOM      8  C   UNL A   1      32.336  22.231  23.837  1.00  0.00     0.281 C 
ATOM      9  O   UNL A   1      31.370  22.310  24.606  1.00  0.00    -0.268 OA
ATOM     10  N   UNL A   1      33.406  23.112  23.946  1.00  0.00    -0.338 N 
ATOM     11  C   UNL A   1      33.723  23.629  25.259  1.00  0.00     0.120 C 
ATOM     12  C   UNL A   1      33.962  23.908  22.860  1.00  0.00     0.120 C 
ATOM     13  C   UNL A   1      33.232  25.055  25.405  1.00  0.00     0.026 C 
ATOM     14  C   UNL A   1      33.422  25.340  22.910  1.00  0.00     0.026 C 
BRANCH   8  15
ATOM     15  C   UNL A   1      32.504  20.941  22.966  1.00  0.00     0.273 C 
BRANCH  15  16
ATOM     16  C   UNL A   1      32.459  19.588  23.705  1.00  0.00     0.054 C 
ATOM     17  C   UNL A   1      33.632  19.513  24.699  1.00  0.00     0.014 C 
BRANCH  16  18
ATOM     18  C   UNL A   1      32.480  18.360  22.767  1.00  0.00     0.006 C 
ATOM     19  C   UNL A   1      33.247  17.190  23.375  1.00  0.00     0.004 C 
ENDBRANCH  16  18
ENDBRANCH  15  16
BRANCH  15  20
ATOM     20  N   UNL A   1      31.487  21.027  21.888  1.00  0.00    -0.347 N 
ATOM     21  H   UNL A   1      30.581  20.728  22.249  1.00  0.00     0.345 HD
ATOM     22  H   UNL A   1      31.761  20.423  21.113  1.00  0.00     0.345 HD
ATOM     23  H   UNL A   1      31.421  21.991  21.560  1.00  0.00     0.345 HD
ENDBRANCH  15  20
ENDBRANCH   8  15
ENDBRANCH   6   7
ENDBRANCH   3   6
ENDBRANCH   1   2
BRANCH   1  24
ATOM     24  C   UNL A   1      31.792  30.745  26.081  1.00  0.00     0.023 C 
BRANCH  24  25
ATOM     25  C   UNL A   1      31.660  31.773  27.188  1.00  0.00     0.023 C 
BRANCH  25  26
ATOM     26  C   UNL A   1      32.817  32.746  27.255  1.00  0.00     0.116 C 
BRANCH  26  27
ATOM     27  N   UNL A   1      32.411  34.112  27.565  1.00  0.00    -0.352 N 
ATOM     28  C   UNL A   1      32.954  34.980  28.489  1.00  0.00     0.251 C 
ATOM     29  H   UNL A   1      31.650  34.461  27.047  1.00  0.00     0.163 HD
ATOM     30  O   UNL A   1      32.456  36.069  28.709  1.00  0.00    -0.269 OA
BRANCH  28  31
ATOM     31  C   UNL A   1      34.136  34.525  29.247  1.00  0.00     0.039 A 
ATOM     32  C   UNL A   1      33.950  33.899  30.481  1.00  0.00     0.014 A 
ATOM     33  C   UNL A   1      35.403  34.604  28.667  1.00  0.00     0.014 A 
ATOM     34  C   UNL A   1      35.031  33.263  31.089  1.00  0.00     0.010 A 
ATOM     35  C   UNL A   1      36.444  33.873  29.214  1.00  0.00     0.010 A 
ATOM     36  C   UNL A   1      36.272  33.201  30.434  1.00  0.00    -0.014 A 
BRANCH  36  37
ATOM     37  C   UNL A   1      37.420  32.460  31.005  1.00  0.00     0.031 A 
ATOM     38  C   UNL A   1      38.030  32.930  32.296  1.00  0.00     0.074 A 
ATOM     39  C   UNL A   1      37.969  31.434  30.325  1.00  0.00     0.049 A 
ATOM     40  N   UNL A   1      39.105  32.503  32.906  1.00  0.00    -0.248 NA
ATOM     41  C   UNL A   1      37.369  34.062  32.967  1.00  0.00     0.031 C 
ATOM     42  C   UNL A   1      37.505  30.918  29.035  1.00  0.00     0.029 A 
ATOM     43  N   UNL A   1      39.049  30.643  30.628  1.00  0.00    -0.354 N 
ATOM     44  C   UNL A   1      39.265  33.335  34.006  1.00  0.00     0.074 A 
ATOM     45  C   UNL A   1      38.215  34.327  33.949  1.00  0.00     0.031 C 
ATOM     46  C   UNL A   1      38.272  29.876  28.676  1.00  0.00     0.029 A 
ATOM     47  C   UNL A   1      39.305  29.676  29.686  1.00  0.00     0.049 A 
ATOM     48  H   UNL A   1      39.589  30.758  31.442  1.00  0.00     0.167 HD
ATOM     49  C   UNL A   1      40.186  33.265  34.995  1.00  0.00     0.031 A 
ATOM     50  C   UNL A   1      40.267  28.735  29.645  1.00  0.00     0.031 A 
ATOM     51  C   UNL A   1      41.200  32.253  35.074  1.00  0.00     0.049 A 
ATOM     52  C   UNL A   1      41.263  28.660  30.768  1.00  0.00     0.074 A 
ATOM     53  C   UNL A   1      42.134  32.045  36.072  1.00  0.00     0.029 A 
ATOM     54  N   UNL A   1      41.405  31.271  34.117  1.00  0.00    -0.354 N 
ATOM     55  N   UNL A   1      41.361  29.413  31.837  1.00  0.00    -0.248 NA
ATOM     56  C   UNL A   1      42.277  27.599  30.682  1.00  0.00     0.031 C 
ATOM     57  C   UNL A   1      42.930  30.955  35.701  1.00  0.00     0.029 A 
ATOM     58  C   UNL A   1      42.461  30.461  34.493  1.00  0.00     0.049 A 
ATOM     59  H   UNL A   1      40.877  31.165  33.293  1.00  0.00     0.167 HD
ATOM     60  C   UNL A   1      42.429  28.904  32.562  1.00  0.00     0.074 A 
ATOM     61  C   UNL A   1      42.938  27.768  31.819  1.00  0.00     0.031 C 
ATOM     62  C   UNL A   1      42.945  29.335  33.739  1.00  0.00     0.031 A 
BRANCH  49  63
ATOM     63  C   UNL A   1      40.122  34.314  36.068  1.00  0.00    -0.014 A 
ATOM     64  C   UNL A   1      39.335  34.131  37.216  1.00  0.00     0.009 A 
ATOM     65  C   UNL A   1      40.865  35.496  35.933  1.00  0.00     0.009 A 
ATOM     66  C   UNL A   1      39.258  35.130  38.187  1.00  0.00     0.001 A 
ATOM     67  C   UNL A   1      40.810  36.482  36.921  1.00  0.00     0.001 A 
ATOM     68  C   UNL A   1      39.998  36.303  38.041  1.00  0.00     0.000 A 
ENDBRANCH  49  63
BRANCH  50  69
ATOM     69  C   UNL A   1      40.319  27.768  28.517  1.00  0.00    -0.014 A 
ATOM     70  C   UNL A   1      39.657  26.534  28.613  1.00  0.00     0.009 A 
ATOM     71  C   UNL A   1      41.030  28.067  27.347  1.00  0.00     0.009 A 
ATOM     72  C   UNL A   1      39.727  25.610  27.569  1.00  0.00     0.001 A 
ATOM     73  C   UNL A   1      41.077  27.151  26.293  1.00  0.00     0.001 A 
ATOM     74  C   UNL A   1      40.434  25.921  26.409  1.00  0.00     0.000 A 
ENDBRANCH  50  69
BRANCH  62  75
ATOM     75  C   UNL A   1      44.096  28.560  34.308  1.00  0.00    -0.014 A 
ATOM     76  C   UNL A   1      45.423  28.923  34.031  1.00  0.00     0.009 A 
ATOM     77  C   UNL A   1      43.847  27.485  35.175  1.00  0.00     0.009 A 
ATOM     78  C   UNL A   1      46.479  28.206  34.594  1.00  0.00     0.001 A 
ATOM     79  C   UNL A   1      44.905  26.787  35.757  1.00  0.00     0.001 A 
ATOM     80  C   UNL A   1      46.220  27.143  35.459  1.00  0.00     0.000 A 
ENDBRANCH  62  75
ENDBRANCH  36  37
ENDBRANCH  28  31
ENDBRANCH  26  27
ENDBRANCH  25  26
ENDBRANCH  24  25
ENDBRANCH   1  24
TORSDOF 16
ENDMDL
