MODEL 1
REMARK VINA RESULT:     -11.3      0.000      0.000
REMARK SMILES CCOC(=O)C1=NN(c2ccc([N+](=O)[O-])cc2C(F)(F)F)[C@@](C)(C(=O)NCCCCNC(=O)c2ccc(-c3c4nc(c(-c5ccccc5)c5ccc([nH]5)c(-c5ccccc5)c5nc(c(-c6ccccc6)c6ccc3[nH]6)C=C5)C=C4)cc2)C1
REMARK SMILES IDX 28 1 27 2 26 3 24 4 25 5 22 7 6 8 7 9 82 10 8 11 23 12 4 13
REMARK SMILES IDX 5 14 3 15 2 16 1 17 9 18 10 19 17 20 11 21 16 22 12 23 18 24
REMARK SMILES IDX 19 25 20 26 21 27 13 28 14 29 15 30 29 31 30 32 31 33 32 34
REMARK SMILES IDX 33 36 34 37 35 38 81 39 36 40 80 41 37 42 38 43 39 44 74 45
REMARK SMILES IDX 40 46 79 47 73 48 75 49 41 50 78 51 72 52 71 53 42 55 64 56
REMARK SMILES IDX 49 57 63 58 50 59 53 60 62 61 76 62 51 63 52 64 61 66 77 67
REMARK SMILES IDX 54 68 43 69 44 70 48 71 45 72 47 73 46 74 65 75 66 76 70 77
REMARK SMILES IDX 67 78 69 79 68 80 55 81 56 82 60 83 57 84 59 85 58 86
REMARK H PARENT 26 6 31 35 75 54 53 65
REMARK Flexibility Score: inf
ROOT
ATOM      1  C   UNL A   1      35.191  23.667  23.952  1.00  0.00     0.023 C 
ENDROOT
BRANCH   1   2
ATOM      2  C   UNL A   1      34.703  24.809  24.844  1.00  0.00     0.116 C 
BRANCH   2   3
ATOM      3  N   UNL A   1      34.239  25.932  24.055  1.00  0.00    -0.354 N 
ATOM      4  C   UNL A   1      33.046  26.582  23.988  1.00  0.00     0.248 C 
ATOM      5  O   UNL A   1      32.978  27.431  23.088  1.00  0.00    -0.272 OA
ATOM      6  H   UNL A   1      34.923  26.297  23.449  1.00  0.00     0.163 HD
BRANCH   4   7
ATOM      7  C   UNL A   1      31.840  26.321  24.944  1.00  0.00     0.144 C 
ATOM      8  C   UNL A   1      29.950  26.962  23.778  1.00  0.00     0.149 C 
ATOM      9  N   UNL A   1      29.980  25.676  23.629  1.00  0.00    -0.169 NA
ATOM     10  C   UNL A   1      30.869  27.526  24.807  1.00  0.00     0.106 C 
ATOM     11  N   UNL A   1      30.960  25.214  24.472  1.00  0.00    -0.249 N 
ATOM     12  C   UNL A   1      32.245  26.224  26.411  1.00  0.00     0.048 C 
BRANCH   8  13
ATOM     13  C   UNL A   1      29.032  27.889  23.016  1.00  0.00     0.354 C 
ATOM     14  O   UNL A   1      27.864  28.002  23.297  1.00  0.00    -0.245 OA
BRANCH  13  15
ATOM     15  O   UNL A   1      29.707  28.489  22.008  1.00  0.00    -0.461 OA
BRANCH  15  16
ATOM     16  C   UNL A   1      29.847  29.908  22.123  1.00  0.00     0.230 C 
ATOM     17  C   UNL A   1      28.754  30.621  21.348  1.00  0.00     0.049 C 
ENDBRANCH  15  16
ENDBRANCH  13  15
ENDBRANCH   8  13
BRANCH  11  18
ATOM     18  C   UNL A   1      31.319  23.883  24.312  1.00  0.00     0.073 A 
ATOM     19  C   UNL A   1      31.851  23.459  23.076  1.00  0.00     0.036 A 
ATOM     20  C   UNL A   1      31.108  22.916  25.313  1.00  0.00     0.088 A 
ATOM     21  C   UNL A   1      32.248  22.138  22.853  1.00  0.00     0.088 A 
ATOM     22  C   UNL A   1      31.539  21.585  25.100  1.00  0.00     0.101 A 
ATOM     23  C   UNL A   1      32.113  21.206  23.880  1.00  0.00     0.270 A 
BRANCH  20  24
ATOM     24  C   UNL A   1      30.427  23.231  26.624  1.00  0.00     0.418 C 
ATOM     25  F   UNL A   1      29.545  22.258  26.996  1.00  0.00    -0.166 F 
ATOM     26  F   UNL A   1      31.326  23.307  27.648  1.00  0.00    -0.166 F 
ATOM     27  F   UNL A   1      29.719  24.391  26.662  1.00  0.00    -0.166 F 
ENDBRANCH  20  24
BRANCH  23  28
ATOM     28  N   UNL A   1      32.578  19.826  23.684  1.00  0.00     0.062 N 
ATOM     29  O   UNL A   1      32.122  19.198  22.719  1.00  0.00    -0.258 OA
ATOM     30  O   UNL A   1      33.413  19.385  24.484  1.00  0.00    -0.258 OA
ENDBRANCH  23  28
ENDBRANCH  11  18
ENDBRANCH   4   7
ENDBRANCH   2   3
ENDBRANCH   1   2
BRANCH   1  31
ATOM     31  C   UNL A   1      36.257  22.758  24.567  1.00  0.00     0.023 C 
BRANCH  31  32
ATOM     32  C   UNL A   1      37.341  23.471  25.367  1.00  0.00     0.116 C 
BRANCH  32  33
ATOM     33  N   UNL A   1      38.505  22.632  25.603  1.00  0.00    -0.352 N 
ATOM     34  C   UNL A   1      39.702  22.947  26.197  1.00  0.00     0.251 C 
ATOM     35  H   UNL A   1      38.422  21.701  25.292  1.00  0.00     0.163 HD
ATOM     36  O   UNL A   1      40.626  22.142  26.186  1.00  0.00    -0.269 OA
BRANCH  34  37
ATOM     37  C   UNL A   1      39.886  24.269  26.830  1.00  0.00     0.039 A 
ATOM     38  C   UNL A   1      39.395  24.469  28.124  1.00  0.00     0.014 A 
ATOM     39  C   UNL A   1      40.528  25.306  26.148  1.00  0.00     0.014 A 
ATOM     40  C   UNL A   1      39.612  25.689  28.765  1.00  0.00     0.010 A 
ATOM     41  C   UNL A   1      40.776  26.511  26.801  1.00  0.00     0.010 A 
ATOM     42  C   UNL A   1      40.329  26.706  28.117  1.00  0.00    -0.014 A 
BRANCH  42  43
ATOM     43  C   UNL A   1      40.639  27.982  28.799  1.00  0.00     0.031 A 
ATOM     44  C   UNL A   1      41.963  28.171  29.477  1.00  0.00     0.074 A 
ATOM     45  C   UNL A   1      39.695  28.938  28.884  1.00  0.00     0.049 A 
ATOM     46  N   UNL A   1      42.354  29.143  30.261  1.00  0.00    -0.248 NA
ATOM     47  C   UNL A   1      42.968  27.118  29.266  1.00  0.00     0.031 C 
ATOM     48  C   UNL A   1      38.356  28.864  28.296  1.00  0.00     0.029 A 
ATOM     49  N   UNL A   1      39.719  30.154  29.515  1.00  0.00    -0.354 N 
ATOM     50  C   UNL A   1      43.631  28.795  30.678  1.00  0.00     0.074 A 
ATOM     51  C   UNL A   1      43.955  27.532  30.049  1.00  0.00     0.031 C 
ATOM     52  C   UNL A   1      37.687  29.993  28.590  1.00  0.00     0.029 A 
ATOM     53  C   UNL A   1      38.542  30.852  29.404  1.00  0.00     0.049 A 
ATOM     54  H   UNL A   1      40.504  30.494  30.003  1.00  0.00     0.167 HD
ATOM     55  C   UNL A   1      44.454  29.461  31.521  1.00  0.00     0.031 A 
ATOM     56  C   UNL A   1      38.187  32.045  29.912  1.00  0.00     0.031 A 
ATOM     57  C   UNL A   1      44.160  30.734  32.117  1.00  0.00     0.049 A 
ATOM     58  C   UNL A   1      39.156  32.808  30.764  1.00  0.00     0.074 A 
ATOM     59  C   UNL A   1      44.946  31.494  32.967  1.00  0.00     0.029 A 
ATOM     60  N   UNL A   1      42.991  31.446  31.907  1.00  0.00    -0.354 N 
ATOM     61  N   UNL A   1      40.353  32.458  31.162  1.00  0.00    -0.248 NA
ATOM     62  C   UNL A   1      38.719  34.130  31.237  1.00  0.00     0.031 C 
ATOM     63  C   UNL A   1      44.249  32.671  33.269  1.00  0.00     0.029 A 
ATOM     64  C   UNL A   1      43.036  32.642  32.601  1.00  0.00     0.049 A 
ATOM     65  H   UNL A   1      42.238  31.145  31.347  1.00  0.00     0.167 HD
ATOM     66  C   UNL A   1      40.815  33.514  31.934  1.00  0.00     0.074 A 
ATOM     67  C   UNL A   1      39.774  34.522  31.939  1.00  0.00     0.031 C 
ATOM     68  C   UNL A   1      41.996  33.632  32.586  1.00  0.00     0.031 A 
BRANCH  55  69
ATOM     69  C   UNL A   1      45.751  28.795  31.861  1.00  0.00    -0.014 A 
ATOM     70  C   UNL A   1      45.846  27.915  32.949  1.00  0.00     0.009 A 
ATOM     71  C   UNL A   1      46.889  29.050  31.081  1.00  0.00     0.009 A 
ATOM     72  C   UNL A   1      47.068  27.318  33.263  1.00  0.00     0.001 A 
ATOM     73  C   UNL A   1      48.106  28.445  31.393  1.00  0.00     0.001 A 
ATOM     74  C   UNL A   1      48.197  27.585  32.486  1.00  0.00     0.000 A 
ENDBRANCH  55  69
BRANCH  56  75
ATOM     75  C   UNL A   1      36.844  32.593  29.622  1.00  0.00    -0.014 A 
ATOM     76  C   UNL A   1      36.627  33.342  28.457  1.00  0.00     0.009 A 
ATOM     77  C   UNL A   1      35.775  32.359  30.499  1.00  0.00     0.009 A 
ATOM     78  C   UNL A   1      35.360  33.859  28.179  1.00  0.00     0.001 A 
ATOM     79  C   UNL A   1      34.509  32.871  30.214  1.00  0.00     0.001 A 
ATOM     80  C   UNL A   1      34.302  33.621  29.057  1.00  0.00     0.000 A 
ENDBRANCH  56  75
BRANCH  68  81
ATOM     81  C   UNL A   1      42.219  34.902  33.346  1.00  0.00    -0.014 A 
ATOM     82  C   UNL A   1      42.972  35.943  32.786  1.00  0.00     0.009 A 
ATOM     83  C   UNL A   1      41.657  35.066  34.621  1.00  0.00     0.009 A 
ATOM     84  C   UNL A   1      43.173  37.127  33.498  1.00  0.00     0.001 A 
ATOM     85  C   UNL A   1      41.856  36.252  35.327  1.00  0.00     0.001 A 
ATOM     86  C   UNL A   1      42.616  37.280  34.767  1.00  0.00     0.000 A 
ENDBRANCH  68  81
ENDBRANCH  42  43
ENDBRANCH  34  37
ENDBRANCH  32  33
ENDBRANCH  31  32
ENDBRANCH   1  31
TORSDOF 17
ENDMDL
MODEL 2
REMARK VINA RESULT:     -11.2      2.817      6.007
REMARK SMILES CCOC(=O)C1=NN(c2ccc([N+](=O)[O-])cc2C(F)(F)F)[C@@](C)(C(=O)NCCCCNC(=O)c2ccc(-c3c4nc(c(-c5ccccc5)c5ccc([nH]5)c(-c5ccccc5)c5nc(c(-c6ccccc6)c6ccc3[nH]6)C=C5)C=C4)cc2)C1
REMARK SMILES IDX 28 1 27 2 26 3 24 4 25 5 22 7 6 8 7 9 82 10 8 11 23 12 4 13
REMARK SMILES IDX 5 14 3 15 2 16 1 17 9 18 10 19 17 20 11 21 16 22 12 23 18 24
REMARK SMILES IDX 19 25 20 26 21 27 13 28 14 29 15 30 29 31 30 32 31 33 32 34
REMARK SMILES IDX 33 36 34 37 35 38 81 39 36 40 80 41 37 42 38 43 39 44 74 45
REMARK SMILES IDX 40 46 79 47 73 48 75 49 41 50 78 51 72 52 71 53 42 55 64 56
REMARK SMILES IDX 49 57 63 58 50 59 53 60 62 61 76 62 51 63 52 64 61 66 77 67
REMARK SMILES IDX 54 68 43 69 44 70 48 71 45 72 47 73 46 74 65 75 66 76 70 77
REMARK SMILES IDX 67 78 69 79 68 80 55 81 56 82 60 83 57 84 59 85 58 86
REMARK H PARENT 26 6 31 35 75 54 53 65
REMARK Flexibility Score: inf
ROOT
ATOM      1  C   UNL A   1      35.410  23.664  23.671  1.00  0.00     0.023 C 
ENDROOT
BRANCH   1   2
ATOM      2  C   UNL A   1      34.816  24.773  24.540  1.00  0.00     0.116 C 
BRANCH   2   3
ATOM      3  N   UNL A   1      34.259  25.836  23.730  1.00  0.00    -0.354 N 
ATOM      4  C   UNL A   1      33.050  26.461  23.732  1.00  0.00     0.248 C 
ATOM      5  O   UNL A   1      32.883  27.250  22.792  1.00  0.00    -0.272 OA
ATOM      6  H   UNL A   1      34.876  26.173  23.042  1.00  0.00     0.163 HD
BRANCH   4   7
ATOM      7  C   UNL A   1      31.941  26.241  24.808  1.00  0.00     0.144 C 
ATOM      8  C   UNL A   1      29.952  26.874  23.816  1.00  0.00     0.149 C 
ATOM      9  N   UNL A   1      29.955  25.584  23.700  1.00  0.00    -0.169 NA
ATOM     10  C   UNL A   1      30.973  27.454  24.734  1.00  0.00     0.106 C 
ATOM     11  N   UNL A   1      31.008  25.132  24.456  1.00  0.00    -0.249 N 
ATOM     12  C   UNL A   1      32.487  26.178  26.231  1.00  0.00     0.048 C 
BRANCH   8  13
ATOM     13  C   UNL A   1      28.973  27.792  23.121  1.00  0.00     0.354 C 
ATOM     14  O   UNL A   1      27.791  27.763  23.363  1.00  0.00    -0.245 OA
BRANCH  13  15
ATOM     15  O   UNL A   1      29.619  28.561  22.215  1.00  0.00    -0.461 OA
BRANCH  15  16
ATOM     16  C   UNL A   1      29.571  29.970  22.461  1.00  0.00     0.230 C 
ATOM     17  C   UNL A   1      28.872  30.692  21.324  1.00  0.00     0.049 C 
ENDBRANCH  15  16
ENDBRANCH  13  15
ENDBRANCH   8  13
BRANCH  11  18
ATOM     18  C   UNL A   1      31.337  23.793  24.299  1.00  0.00     0.073 A 
ATOM     19  C   UNL A   1      31.776  23.337  23.039  1.00  0.00     0.036 A 
ATOM     20  C   UNL A   1      31.182  22.850  25.332  1.00  0.00     0.088 A 
ATOM     21  C   UNL A   1      32.139  22.006  22.816  1.00  0.00     0.088 A 
ATOM     22  C   UNL A   1      31.578  21.508  25.118  1.00  0.00     0.101 A 
ATOM     23  C   UNL A   1      32.061  21.097  23.869  1.00  0.00     0.270 A 
BRANCH  20  24
ATOM     24  C   UNL A   1      30.597  23.200  26.681  1.00  0.00     0.418 C 
ATOM     25  F   UNL A   1      29.847  24.339  26.639  1.00  0.00    -0.166 F 
ATOM     26  F   UNL A   1      29.748  22.229  27.124  1.00  0.00    -0.166 F 
ATOM     27  F   UNL A   1      31.495  23.398  27.682  1.00  0.00    -0.166 F 
ENDBRANCH  20  24
BRANCH  23  28
ATOM     28  N   UNL A   1      32.492  19.706  23.670  1.00  0.00     0.062 N 
ATOM     29  O   UNL A   1      32.136  19.138  22.629  1.00  0.00    -0.258 OA
ATOM     30  O   UNL A   1      33.203  19.196  24.546  1.00  0.00    -0.258 OA
ENDBRANCH  23  28
ENDBRANCH  11  18
ENDBRANCH   4   7
ENDBRANCH   2   3
ENDBRANCH   1   2
BRANCH   1  31
ATOM     31  C   UNL A   1      35.405  22.265  24.289  1.00  0.00     0.023 C 
BRANCH  31  32
ATOM     32  C   UNL A   1      36.191  22.122  25.588  1.00  0.00     0.116 C 
BRANCH  32  33
ATOM     33  N   UNL A   1      37.140  21.021  25.549  1.00  0.00    -0.352 N 
ATOM     34  C   UNL A   1      38.492  21.027  25.785  1.00  0.00     0.251 C 
ATOM     35  H   UNL A   1      36.757  20.143  25.320  1.00  0.00     0.163 HD
ATOM     36  O   UNL A   1      39.160  20.020  25.570  1.00  0.00    -0.269 OA
BRANCH  34  37
ATOM     37  C   UNL A   1      39.152  22.253  26.277  1.00  0.00     0.039 A 
ATOM     38  C   UNL A   1      40.215  22.131  27.176  1.00  0.00     0.014 A 
ATOM     39  C   UNL A   1      38.715  23.515  25.863  1.00  0.00     0.014 A 
ATOM     40  C   UNL A   1      40.892  23.273  27.606  1.00  0.00     0.010 A 
ATOM     41  C   UNL A   1      39.414  24.651  26.265  1.00  0.00     0.010 A 
ATOM     42  C   UNL A   1      40.512  24.537  27.130  1.00  0.00    -0.014 A 
BRANCH  42  43
ATOM     43  C   UNL A   1      41.258  25.757  27.510  1.00  0.00     0.031 A 
ATOM     44  C   UNL A   1      40.635  26.767  28.426  1.00  0.00     0.074 A 
ATOM     45  C   UNL A   1      42.463  25.998  26.959  1.00  0.00     0.049 A 
ATOM     46  N   UNL A   1      41.058  27.964  28.739  1.00  0.00    -0.248 NA
ATOM     47  C   UNL A   1      39.358  26.390  29.051  1.00  0.00     0.031 C 
ATOM     48  C   UNL A   1      43.165  25.112  26.028  1.00  0.00     0.029 A 
ATOM     49  N   UNL A   1      43.300  27.074  27.094  1.00  0.00    -0.354 N 
ATOM     50  C   UNL A   1      40.075  28.505  29.556  1.00  0.00     0.074 A 
ATOM     51  C   UNL A   1      39.044  27.501  29.703  1.00  0.00     0.031 C 
ATOM     52  C   UNL A   1      44.332  25.680  25.681  1.00  0.00     0.029 A 
ATOM     53  C   UNL A   1      44.445  26.975  26.345  1.00  0.00     0.049 A 
ATOM     54  H   UNL A   1      43.098  27.846  27.672  1.00  0.00     0.167 HD
ATOM     55  C   UNL A   1      40.031  29.734  30.122  1.00  0.00     0.031 A 
ATOM     56  C   UNL A   1      45.467  27.837  26.199  1.00  0.00     0.031 A 
ATOM     57  C   UNL A   1      41.067  30.723  30.016  1.00  0.00     0.049 A 
ATOM     58  C   UNL A   1      45.437  29.153  26.916  1.00  0.00     0.074 A 
ATOM     59  C   UNL A   1      41.116  31.988  30.575  1.00  0.00     0.029 A 
ATOM     60  N   UNL A   1      42.250  30.546  29.318  1.00  0.00    -0.354 N 
ATOM     61  N   UNL A   1      44.494  29.655  27.672  1.00  0.00    -0.248 NA
ATOM     62  C   UNL A   1      46.614  30.019  26.754  1.00  0.00     0.031 C 
ATOM     63  C   UNL A   1      42.336  32.577  30.216  1.00  0.00     0.029 A 
ATOM     64  C   UNL A   1      43.043  31.673  29.440  1.00  0.00     0.049 A 
ATOM     65  H   UNL A   1      42.491  29.737  28.810  1.00  0.00     0.167 HD
ATOM     66  C   UNL A   1      44.960  30.898  28.077  1.00  0.00     0.074 A 
ATOM     67  C   UNL A   1      46.275  31.068  27.491  1.00  0.00     0.031 C 
ATOM     68  C   UNL A   1      44.348  31.819  28.859  1.00  0.00     0.031 A 
BRANCH  55  69
ATOM     69  C   UNL A   1      38.792  30.076  30.890  1.00  0.00    -0.014 A 
ATOM     70  C   UNL A   1      38.755  29.956  32.287  1.00  0.00     0.009 A 
ATOM     71  C   UNL A   1      37.652  30.524  30.207  1.00  0.00     0.009 A 
ATOM     72  C   UNL A   1      37.585  30.260  32.985  1.00  0.00     0.001 A 
ATOM     73  C   UNL A   1      36.488  30.835  30.910  1.00  0.00     0.001 A 
ATOM     74  C   UNL A   1      36.453  30.698  32.297  1.00  0.00     0.000 A 
ENDBRANCH  55  69
BRANCH  56  75
ATOM     75  C   UNL A   1      46.612  27.475  25.334  1.00  0.00    -0.014 A 
ATOM     76  C   UNL A   1      46.678  27.956  24.019  1.00  0.00     0.009 A 
ATOM     77  C   UNL A   1      47.644  26.663  25.823  1.00  0.00     0.009 A 
ATOM     78  C   UNL A   1      47.759  27.620  23.201  1.00  0.00     0.001 A 
ATOM     79  C   UNL A   1      48.726  26.334  25.005  1.00  0.00     0.001 A 
ATOM     80  C   UNL A   1      48.782  26.811  23.695  1.00  0.00     0.000 A 
ENDBRANCH  56  75
BRANCH  68  81
ATOM     81  C   UNL A   1      45.105  33.080  29.129  1.00  0.00    -0.014 A 
ATOM     82  C   UNL A   1      45.914  33.195  30.268  1.00  0.00     0.009 A 
ATOM     83  C   UNL A   1      45.024  34.155  28.230  1.00  0.00     0.009 A 
ATOM     84  C   UNL A   1      46.621  34.373  30.512  1.00  0.00     0.001 A 
ATOM     85  C   UNL A   1      45.736  35.328  28.475  1.00  0.00     0.001 A 
ATOM     86  C   UNL A   1      46.531  35.438  29.617  1.00  0.00     0.000 A 
ENDBRANCH  68  81
ENDBRANCH  42  43
ENDBRANCH  34  37
ENDBRANCH  32  33
ENDBRANCH  31  32
ENDBRANCH   1  31
TORSDOF 17
ENDMDL
MODEL 3
REMARK VINA RESULT:     -11.1      2.631      3.971
REMARK SMILES CCOC(=O)C1=NN(c2ccc([N+](=O)[O-])cc2C(F)(F)F)[C@@](C)(C(=O)NCCCCNC(=O)c2ccc(-c3c4nc(c(-c5ccccc5)c5ccc([nH]5)c(-c5ccccc5)c5nc(c(-c6ccccc6)c6ccc3[nH]6)C=C5)C=C4)cc2)C1
REMARK SMILES IDX 28 1 27 2 26 3 24 4 25 5 22 7 6 8 7 9 82 10 8 11 23 12 4 13
REMARK SMILES IDX 5 14 3 15 2 16 1 17 9 18 10 19 17 20 11 21 16 22 12 23 18 24
REMARK SMILES IDX 19 25 20 26 21 27 13 28 14 29 15 30 29 31 30 32 31 33 32 34
REMARK SMILES IDX 33 36 34 37 35 38 81 39 36 40 80 41 37 42 38 43 39 44 74 45
REMARK SMILES IDX 40 46 79 47 73 48 75 49 41 50 78 51 72 52 71 53 42 55 64 56
REMARK SMILES IDX 49 57 63 58 50 59 53 60 62 61 76 62 51 63 52 64 61 66 77 67
REMARK SMILES IDX 54 68 43 69 44 70 48 71 45 72 47 73 46 74 65 75 66 76 70 77
REMARK SMILES IDX 67 78 69 79 68 80 55 81 56 82 60 83 57 84 59 85 58 86
REMARK H PARENT 26 6 31 35 75 54 53 65
REMARK Flexibility Score: inf
ROOT
ATOM      1  C   UNL A   1      36.397  20.823  24.647  1.00  0.00     0.023 C 
ENDROOT
BRANCH   1   2
ATOM      2  C   UNL A   1      36.074  21.693  25.862  1.00  0.00     0.116 C 
BRANCH   2   3
ATOM      3  N   UNL A   1      35.507  22.965  25.463  1.00  0.00    -0.354 N 
ATOM      4  C   UNL A   1      34.301  23.550  25.693  1.00  0.00     0.248 C 
ATOM      5  O   UNL A   1      34.122  24.608  25.074  1.00  0.00    -0.272 OA
ATOM      6  H   UNL A   1      36.115  23.514  24.917  1.00  0.00     0.163 HD
BRANCH   4   7
ATOM      7  C   UNL A   1      33.209  22.981  26.652  1.00  0.00     0.144 C 
ATOM      8  C   UNL A   1      31.219  23.968  26.011  1.00  0.00     0.149 C 
ATOM      9  N   UNL A   1      31.182  22.806  25.442  1.00  0.00    -0.169 NA
ATOM     10  C   UNL A   1      32.275  24.159  27.046  1.00  0.00     0.106 C 
ATOM     11  N   UNL A   1      32.236  22.092  25.953  1.00  0.00    -0.249 N 
ATOM     12  C   UNL A   1      33.782  22.401  27.940  1.00  0.00     0.048 C 
BRANCH   8  13
ATOM     13  C   UNL A   1      30.254  25.093  25.721  1.00  0.00     0.354 C 
ATOM     14  O   UNL A   1      29.405  25.424  26.513  1.00  0.00    -0.245 OA
BRANCH  13  15
ATOM     15  O   UNL A   1      30.476  25.590  24.483  1.00  0.00    -0.461 OA
BRANCH  15  16
ATOM     16  C   UNL A   1      29.389  26.326  23.913  1.00  0.00     0.230 C 
ATOM     17  C   UNL A   1      29.864  27.666  23.384  1.00  0.00     0.049 C 
ENDBRANCH  15  16
ENDBRANCH  13  15
ENDBRANCH   8  13
BRANCH  11  18
ATOM     18  C   UNL A   1      32.522  20.892  25.317  1.00  0.00     0.073 A 
ATOM     19  C   UNL A   1      32.857  19.764  26.096  1.00  0.00     0.036 A 
ATOM     20  C   UNL A   1      32.562  20.770  23.915  1.00  0.00     0.088 A 
ATOM     21  C   UNL A   1      33.139  18.522  25.520  1.00  0.00     0.088 A 
ATOM     22  C   UNL A   1      32.816  19.505  23.332  1.00  0.00     0.101 A 
ATOM     23  C   UNL A   1      33.093  18.391  24.134  1.00  0.00     0.270 A 
BRANCH  20  24
ATOM     24  C   UNL A   1      32.349  21.940  22.985  1.00  0.00     0.418 C 
ATOM     25  F   UNL A   1      33.360  22.853  23.061  1.00  0.00    -0.166 F 
ATOM     26  F   UNL A   1      32.326  21.542  21.679  1.00  0.00    -0.166 F 
ATOM     27  F   UNL A   1      31.207  22.652  23.179  1.00  0.00    -0.166 F 
ENDBRANCH  20  24
BRANCH  23  28
ATOM     28  N   UNL A   1      33.331  17.081  23.514  1.00  0.00     0.062 N 
ATOM     29  O   UNL A   1      33.613  17.058  22.308  1.00  0.00    -0.258 OA
ATOM     30  O   UNL A   1      33.254  16.081  24.240  1.00  0.00    -0.258 OA
ENDBRANCH  23  28
ENDBRANCH  11  18
ENDBRANCH   4   7
ENDBRANCH   2   3
ENDBRANCH   1   2
BRANCH   1  31
ATOM     31  C   UNL A   1      37.554  19.838  24.828  1.00  0.00     0.023 C 
BRANCH  31  32
ATOM     32  C   UNL A   1      38.719  20.347  25.670  1.00  0.00     0.116 C 
BRANCH  32  33
ATOM     33  N   UNL A   1      39.808  19.387  25.755  1.00  0.00    -0.352 N 
ATOM     34  C   UNL A   1      41.120  19.586  26.107  1.00  0.00     0.251 C 
ATOM     35  H   UNL A   1      39.569  18.459  25.528  1.00  0.00     0.163 HD
ATOM     36  O   UNL A   1      41.934  18.676  25.989  1.00  0.00    -0.269 OA
BRANCH  34  37
ATOM     37  C   UNL A   1      41.559  20.905  26.606  1.00  0.00     0.039 A 
ATOM     38  C   UNL A   1      42.091  21.825  25.697  1.00  0.00     0.014 A 
ATOM     39  C   UNL A   1      41.459  21.226  27.963  1.00  0.00     0.014 A 
ATOM     40  C   UNL A   1      42.456  23.098  26.136  1.00  0.00     0.010 A 
ATOM     41  C   UNL A   1      41.790  22.509  28.393  1.00  0.00     0.010 A 
ATOM     42  C   UNL A   1      42.280  23.456  27.481  1.00  0.00    -0.014 A 
BRANCH  42  43
ATOM     43  C   UNL A   1      42.587  24.822  27.959  1.00  0.00     0.031 A 
ATOM     44  C   UNL A   1      43.983  25.178  28.377  1.00  0.00     0.074 A 
ATOM     45  C   UNL A   1      41.591  25.717  28.100  1.00  0.00     0.049 A 
ATOM     46  N   UNL A   1      44.411  26.261  28.974  1.00  0.00    -0.248 NA
ATOM     47  C   UNL A   1      45.026  24.175  28.113  1.00  0.00     0.031 C 
ATOM     48  C   UNL A   1      40.186  25.485  27.760  1.00  0.00     0.029 A 
ATOM     49  N   UNL A   1      41.613  26.999  28.584  1.00  0.00    -0.354 N 
ATOM     50  C   UNL A   1      45.763  26.050  29.203  1.00  0.00     0.074 A 
ATOM     51  C   UNL A   1      46.087  24.745  28.668  1.00  0.00     0.031 C 
ATOM     52  C   UNL A   1      39.481  26.594  28.040  1.00  0.00     0.029 A 
ATOM     53  C   UNL A   1      40.380  27.599  28.600  1.00  0.00     0.049 A 
ATOM     54  H   UNL A   1      42.435  27.446  28.891  1.00  0.00     0.167 HD
ATOM     55  C   UNL A   1      46.652  26.865  29.817  1.00  0.00     0.031 A 
ATOM     56  C   UNL A   1      40.011  28.818  29.029  1.00  0.00     0.031 A 
ATOM     57  C   UNL A   1      46.351  28.178  30.315  1.00  0.00     0.049 A 
ATOM     58  C   UNL A   1      41.036  29.741  29.617  1.00  0.00     0.074 A 
ATOM     59  C   UNL A   1      47.196  29.085  30.932  1.00  0.00     0.029 A 
ATOM     60  N   UNL A   1      45.107  28.781  30.231  1.00  0.00    -0.354 N 
ATOM     61  N   UNL A   1      42.307  29.520  29.841  1.00  0.00    -0.248 NA
ATOM     62  C   UNL A   1      40.571  31.078  30.013  1.00  0.00     0.031 C 
ATOM     63  C   UNL A   1      46.459  30.242  31.220  1.00  0.00     0.029 A 
ATOM     64  C   UNL A   1      45.161  30.052  30.775  1.00  0.00     0.049 A 
ATOM     65  H   UNL A   1      44.302  28.367  29.843  1.00  0.00     0.167 HD
ATOM     66  C   UNL A   1      42.796  30.690  30.405  1.00  0.00     0.074 A 
ATOM     67  C   UNL A   1      41.688  31.621  30.479  1.00  0.00     0.031 C 
ATOM     68  C   UNL A   1      44.053  30.963  30.831  1.00  0.00     0.031 A 
BRANCH  55  69
ATOM     69  C   UNL A   1      48.039  26.331  30.001  1.00  0.00    -0.014 A 
ATOM     70  C   UNL A   1      48.983  26.408  28.967  1.00  0.00     0.009 A 
ATOM     71  C   UNL A   1      48.403  25.748  31.224  1.00  0.00     0.009 A 
ATOM     72  C   UNL A   1      50.265  25.887  29.149  1.00  0.00     0.001 A 
ATOM     73  C   UNL A   1      49.687  25.236  31.404  1.00  0.00     0.001 A 
ATOM     74  C   UNL A   1      50.616  25.301  30.366  1.00  0.00     0.000 A 
ENDBRANCH  55  69
BRANCH  56  75
ATOM     75  C   UNL A   1      38.597  29.239  28.915  1.00  0.00    -0.014 A 
ATOM     76  C   UNL A   1      38.107  29.734  27.698  1.00  0.00     0.009 A 
ATOM     77  C   UNL A   1      37.732  29.134  30.013  1.00  0.00     0.009 A 
ATOM     78  C   UNL A   1      36.772  30.128  27.586  1.00  0.00     0.001 A 
ATOM     79  C   UNL A   1      36.397  29.522  29.895  1.00  0.00     0.001 A 
ATOM     80  C   UNL A   1      35.918  30.021  28.684  1.00  0.00     0.000 A 
ENDBRANCH  56  75
BRANCH  68  81
ATOM     81  C   UNL A   1      44.287  32.327  31.401  1.00  0.00    -0.014 A 
ATOM     82  C   UNL A   1      44.203  32.545  32.783  1.00  0.00     0.009 A 
ATOM     83  C   UNL A   1      44.614  33.396  30.553  1.00  0.00     0.009 A 
ATOM     84  C   UNL A   1      44.428  33.818  33.308  1.00  0.00     0.001 A 
ATOM     85  C   UNL A   1      44.842  34.666  31.082  1.00  0.00     0.001 A 
ATOM     86  C   UNL A   1      44.746  34.877  32.458  1.00  0.00     0.000 A 
ENDBRANCH  68  81
ENDBRANCH  42  43
ENDBRANCH  34  37
ENDBRANCH  32  33
ENDBRANCH  31  32
ENDBRANCH   1  31
TORSDOF 17
ENDMDL
