MODEL 1
REMARK VINA RESULT:     -12.0      0.000      0.000
REMARK SMILES CS(=O)(=O)c1ccc(C2=NN(c3ccc(C(=O)NCCCCNC(=O)c4ccc(-c5c6nc(c(-c7ccccc7)c7ccc([nH]7)c(-c7ccccc7)c7nc(c(-c8ccccc8)c8ccc5[nH]8)C=C7)C=C6)cc4)cc3)[C@H](c3ccccc3)C2)cc1
REMARK SMILES IDX 20 1 19 2 18 3 16 4 17 5 15 7 12 8 13 9 75 10 14 11 74 12
REMARK SMILES IDX 11 13 9 14 10 15 83 16 76 17 8 18 5 19 6 20 85 21 7 22 84 23
REMARK SMILES IDX 2 24 1 25 3 26 4 27 77 28 78 29 82 30 79 31 81 32 80 33
REMARK SMILES IDX 21 34 22 35 23 36 24 37 25 39 26 40 27 41 73 42 28 43 72 44
REMARK SMILES IDX 29 45 30 46 31 47 66 48 32 49 71 50 65 51 67 52 33 53 70 54
REMARK SMILES IDX 64 55 63 56 34 58 56 59 41 60 55 61 42 62 45 63 54 64 68 65
REMARK SMILES IDX 43 66 44 67 53 69 69 70 46 71 35 72 36 73 40 74 37 75 39 76
REMARK SMILES IDX 38 77 57 78 58 79 62 80 59 81 61 82 60 83 47 84 48 85 52 86
REMARK SMILES IDX 49 87 51 88 50 89
REMARK H PARENT 18 6 23 38 67 57 45 68
REMARK Flexibility Score: inf
ROOT
ATOM      1  C   UNL A   1      36.336  30.267  30.127  1.00  0.00     0.023 C 
ENDROOT
BRANCH   1   2
ATOM      2  C   UNL A   1      35.628  29.876  28.828  1.00  0.00     0.116 C 
BRANCH   2   3
ATOM      3  N   UNL A   1      34.683  30.898  28.422  1.00  0.00    -0.352 N 
ATOM      4  C   UNL A   1      33.614  30.837  27.560  1.00  0.00     0.251 C 
ATOM      5  O   UNL A   1      32.893  31.826  27.443  1.00  0.00    -0.269 OA
ATOM      6  H   UNL A   1      34.830  31.781  28.832  1.00  0.00     0.163 HD
BRANCH   4   7
ATOM      7  C   UNL A   1      33.273  29.591  26.828  1.00  0.00     0.039 A 
ATOM      8  C   UNL A   1      32.607  27.348  25.266  1.00  0.00     0.060 A 
ATOM      9  C   UNL A   1      33.677  28.171  24.903  1.00  0.00     0.029 A 
ATOM     10  C   UNL A   1      31.933  27.610  26.460  1.00  0.00     0.029 A 
ATOM     11  C   UNL A   1      34.014  29.283  25.681  1.00  0.00     0.016 A 
ATOM     12  C   UNL A   1      32.272  28.712  27.242  1.00  0.00     0.016 A 
BRANCH   8  13
ATOM     13  N   UNL A   1      32.197  26.295  24.473  1.00  0.00    -0.257 N 
ATOM     14  C   UNL A   1      32.289  24.296  23.793  1.00  0.00     0.071 C 
ATOM     15  N   UNL A   1      32.490  25.031  24.840  1.00  0.00    -0.176 NA
ATOM     16  C   UNL A   1      31.862  25.034  22.551  1.00  0.00     0.091 C 
ATOM     17  C   UNL A   1      31.611  26.434  23.141  1.00  0.00     0.144 C 
BRANCH  14  18
ATOM     18  C   UNL A   1      32.513  22.842  23.819  1.00  0.00    -0.002 A 
ATOM     19  C   UNL A   1      32.711  20.069  23.866  1.00  0.00     0.067 A 
ATOM     20  C   UNL A   1      32.152  20.699  22.752  1.00  0.00     0.021 A 
ATOM     21  C   UNL A   1      33.174  20.816  24.956  1.00  0.00     0.021 A 
ATOM     22  C   UNL A   1      32.041  22.088  22.736  1.00  0.00     0.011 A 
ATOM     23  C   UNL A   1      33.086  22.212  24.926  1.00  0.00     0.011 A 
BRANCH  19  24
ATOM     24  S   UNL A   1      32.794  18.293  23.903  1.00  0.00     0.175 S 
ATOM     25  C   UNL A   1      34.486  17.921  24.273  1.00  0.00     0.163 C 
ATOM     26  O   UNL A   1      32.542  17.818  22.554  1.00  0.00    -0.224 OA
ATOM     27  O   UNL A   1      31.976  17.862  25.018  1.00  0.00    -0.224 OA
ENDBRANCH  19  24
ENDBRANCH  14  18
BRANCH  17  28
ATOM     28  C   UNL A   1      30.165  26.920  23.251  1.00  0.00    -0.023 A 
ATOM     29  C   UNL A   1      29.132  26.185  23.852  1.00  0.00     0.006 A 
ATOM     30  C   UNL A   1      29.856  28.211  22.775  1.00  0.00     0.006 A 
ATOM     31  C   UNL A   1      27.840  26.714  23.954  1.00  0.00     0.000 A 
ATOM     32  C   UNL A   1      28.573  28.749  22.900  1.00  0.00     0.000 A 
ATOM     33  C   UNL A   1      27.562  27.996  23.485  1.00  0.00     0.000 A 
ENDBRANCH  17  28
ENDBRANCH   8  13
ENDBRANCH   4   7
ENDBRANCH   2   3
ENDBRANCH   1   2
BRANCH   1  34
ATOM     34  C   UNL A   1      35.764  31.511  30.805  1.00  0.00     0.023 C 
BRANCH  34  35
ATOM     35  C   UNL A   1      35.870  31.516  32.324  1.00  0.00     0.116 C 
BRANCH  35  36
ATOM     36  N   UNL A   1      36.017  32.850  32.888  1.00  0.00    -0.352 N 
ATOM     37  C   UNL A   1      37.143  33.637  32.925  1.00  0.00     0.251 C 
ATOM     38  H   UNL A   1      35.207  33.236  33.294  1.00  0.00     0.163 HD
ATOM     39  O   UNL A   1      37.145  34.706  33.524  1.00  0.00    -0.269 OA
BRANCH  37  40
ATOM     40  C   UNL A   1      38.369  33.151  32.262  1.00  0.00     0.039 A 
ATOM     41  C   UNL A   1      39.237  32.321  32.974  1.00  0.00     0.014 A 
ATOM     42  C   UNL A   1      38.616  33.461  30.922  1.00  0.00     0.014 A 
ATOM     43  C   UNL A   1      40.319  31.733  32.315  1.00  0.00     0.010 A 
ATOM     44  C   UNL A   1      39.651  32.821  30.252  1.00  0.00     0.010 A 
ATOM     45  C   UNL A   1      40.508  31.946  30.940  1.00  0.00    -0.014 A 
BRANCH  45  46
ATOM     46  C   UNL A   1      41.585  31.256  30.188  1.00  0.00     0.031 A 
ATOM     47  C   UNL A   1      42.858  31.986  29.866  1.00  0.00     0.074 A 
ATOM     48  C   UNL A   1      41.378  30.013  29.713  1.00  0.00     0.049 A 
ATOM     49  N   UNL A   1      43.864  31.602  29.121  1.00  0.00    -0.248 NA
ATOM     50  C   UNL A   1      43.008  33.338  30.429  1.00  0.00     0.031 C 
ATOM     51  C   UNL A   1      40.168  29.214  29.920  1.00  0.00     0.029 A 
ATOM     52  N   UNL A   1      42.177  29.210  28.937  1.00  0.00    -0.354 N 
ATOM     53  C   UNL A   1      44.749  32.673  29.104  1.00  0.00     0.074 A 
ATOM     54  C   UNL A   1      44.146  33.735  29.880  1.00  0.00     0.031 C 
ATOM     55  C   UNL A   1      40.310  28.033  29.296  1.00  0.00     0.029 A 
ATOM     56  C   UNL A   1      41.597  28.007  28.611  1.00  0.00     0.049 A 
ATOM     57  H   UNL A   1      43.078  29.471  28.641  1.00  0.00     0.167 HD
ATOM     58  C   UNL A   1      45.960  32.759  28.507  1.00  0.00     0.031 A 
ATOM     59  C   UNL A   1      42.045  27.004  27.833  1.00  0.00     0.031 A 
ATOM     60  C   UNL A   1      46.568  31.694  27.755  1.00  0.00     0.049 A 
ATOM     61  C   UNL A   1      43.394  27.125  27.180  1.00  0.00     0.074 A 
ATOM     62  C   UNL A   1      47.824  31.658  27.178  1.00  0.00     0.029 A 
ATOM     63  N   UNL A   1      45.961  30.480  27.475  1.00  0.00    -0.354 N 
ATOM     64  N   UNL A   1      44.254  28.114  27.239  1.00  0.00    -0.248 NA
ATOM     65  C   UNL A   1      43.838  25.989  26.359  1.00  0.00     0.031 C 
ATOM     66  C   UNL A   1      47.958  30.442  26.502  1.00  0.00     0.029 A 
ATOM     67  C   UNL A   1      46.808  29.699  26.708  1.00  0.00     0.049 A 
ATOM     68  H   UNL A   1      45.062  30.213  27.777  1.00  0.00     0.167 HD
ATOM     69  C   UNL A   1      45.350  27.707  26.489  1.00  0.00     0.074 A 
ATOM     70  C   UNL A   1      45.053  26.378  25.997  1.00  0.00     0.031 C 
ATOM     71  C   UNL A   1      46.499  28.375  26.232  1.00  0.00     0.031 A 
BRANCH  58  72
ATOM     72  C   UNL A   1      46.708  34.056  28.633  1.00  0.00    -0.014 A 
ATOM     73  C   UNL A   1      46.600  35.059  27.657  1.00  0.00     0.009 A 
ATOM     74  C   UNL A   1      47.496  34.295  29.769  1.00  0.00     0.009 A 
ATOM     75  C   UNL A   1      47.293  36.262  27.801  1.00  0.00     0.001 A 
ATOM     76  C   UNL A   1      48.165  35.511  29.925  1.00  0.00     0.001 A 
ATOM     77  C   UNL A   1      48.069  36.490  28.935  1.00  0.00     0.000 A 
ENDBRANCH  58  72
BRANCH  59  78
ATOM     78  C   UNL A   1      41.209  25.792  27.621  1.00  0.00    -0.014 A 
ATOM     79  C   UNL A   1      40.085  25.839  26.783  1.00  0.00     0.009 A 
ATOM     80  C   UNL A   1      41.522  24.587  28.268  1.00  0.00     0.009 A 
ATOM     81  C   UNL A   1      39.275  24.713  26.622  1.00  0.00     0.001 A 
ATOM     82  C   UNL A   1      40.727  23.454  28.082  1.00  0.00     0.001 A 
ATOM     83  C   UNL A   1      39.599  23.521  27.267  1.00  0.00     0.000 A 
ENDBRANCH  59  78
BRANCH  71  84
ATOM     84  C   UNL A   1      47.542  27.668  25.415  1.00  0.00    -0.014 A 
ATOM     85  C   UNL A   1      47.539  27.734  24.013  1.00  0.00     0.009 A 
ATOM     86  C   UNL A   1      48.577  26.973  26.062  1.00  0.00     0.009 A 
ATOM     87  C   UNL A   1      48.538  27.096  23.276  1.00  0.00     0.001 A 
ATOM     88  C   UNL A   1      49.589  26.361  25.324  1.00  0.00     0.001 A 
ATOM     89  C   UNL A   1      49.565  26.417  23.931  1.00  0.00     0.000 A 
ENDBRANCH  71  84
ENDBRANCH  45  46
ENDBRANCH  37  40
ENDBRANCH  35  36
ENDBRANCH  34  35
ENDBRANCH   1  34
TORSDOF 15
ENDMDL
MODEL 2
REMARK VINA RESULT:     -11.6      5.640     12.502
REMARK SMILES CS(=O)(=O)c1ccc(C2=NN(c3ccc(C(=O)NCCCCNC(=O)c4ccc(-c5c6nc(c(-c7ccccc7)c7ccc([nH]7)c(-c7ccccc7)c7nc(c(-c8ccccc8)c8ccc5[nH]8)C=C7)C=C6)cc4)cc3)[C@H](c3ccccc3)C2)cc1
REMARK SMILES IDX 20 1 19 2 18 3 16 4 17 5 15 7 12 8 13 9 75 10 14 11 74 12
REMARK SMILES IDX 11 13 9 14 10 15 83 16 76 17 8 18 5 19 6 20 85 21 7 22 84 23
REMARK SMILES IDX 2 24 1 25 3 26 4 27 77 28 78 29 82 30 79 31 81 32 80 33
REMARK SMILES IDX 21 34 22 35 23 36 24 37 25 39 26 40 27 41 73 42 28 43 72 44
REMARK SMILES IDX 29 45 30 46 31 47 66 48 32 49 71 50 65 51 67 52 33 53 70 54
REMARK SMILES IDX 64 55 63 56 34 58 56 59 41 60 55 61 42 62 45 63 54 64 68 65
REMARK SMILES IDX 43 66 44 67 53 69 69 70 46 71 35 72 36 73 40 74 37 75 39 76
REMARK SMILES IDX 38 77 57 78 58 79 62 80 59 81 61 82 60 83 47 84 48 85 52 86
REMARK SMILES IDX 49 87 51 88 50 89
REMARK H PARENT 18 6 23 38 67 57 45 68
REMARK Flexibility Score: inf
ROOT
ATOM      1  C   UNL A   1      42.751  22.194  25.651  1.00  0.00     0.023 C 
ENDROOT
BRANCH   1   2
ATOM      2  C   UNL A   1      43.452  23.018  26.733  1.00  0.00     0.116 C 
BRANCH   2   3
ATOM      3  N   UNL A   1      44.839  23.262  26.384  1.00  0.00    -0.352 N 
ATOM      4  C   UNL A   1      45.884  23.731  27.144  1.00  0.00     0.251 C 
ATOM      5  O   UNL A   1      47.006  23.768  26.645  1.00  0.00    -0.269 OA
ATOM      6  H   UNL A   1      45.070  23.058  25.449  1.00  0.00     0.163 HD
BRANCH   4   7
ATOM      7  C   UNL A   1      45.700  24.123  28.565  1.00  0.00     0.039 A 
ATOM      8  C   UNL A   1      45.149  24.902  31.211  1.00  0.00     0.060 A 
ATOM      9  C   UNL A   1      44.416  23.876  30.608  1.00  0.00     0.029 A 
ATOM     10  C   UNL A   1      46.212  25.470  30.508  1.00  0.00     0.029 A 
ATOM     11  C   UNL A   1      44.691  23.483  29.294  1.00  0.00     0.016 A 
ATOM     12  C   UNL A   1      46.496  25.075  29.203  1.00  0.00     0.016 A 
BRANCH   8  13
ATOM     13  N   UNL A   1      44.843  25.370  32.473  1.00  0.00    -0.257 N 
ATOM     14  C   UNL A   1      43.886  26.691  33.817  1.00  0.00     0.071 C 
ATOM     15  N   UNL A   1      43.752  26.142  32.652  1.00  0.00    -0.176 NA
ATOM     16  C   UNL A   1      45.159  26.360  34.551  1.00  0.00     0.091 C 
ATOM     17  C   UNL A   1      45.715  25.249  33.641  1.00  0.00     0.144 C 
BRANCH  14  18
ATOM     18  C   UNL A   1      42.874  27.615  34.353  1.00  0.00    -0.002 A 
ATOM     19  C   UNL A   1      41.043  29.516  35.225  1.00  0.00     0.067 A 
ATOM     20  C   UNL A   1      40.983  29.058  33.907  1.00  0.00     0.021 A 
ATOM     21  C   UNL A   1      42.011  29.029  36.112  1.00  0.00     0.021 A 
ATOM     22  C   UNL A   1      41.910  28.115  33.469  1.00  0.00     0.011 A 
ATOM     23  C   UNL A   1      42.923  28.062  35.676  1.00  0.00     0.011 A 
BRANCH  19  24
ATOM     24  S   UNL A   1      39.894  30.763  35.760  1.00  0.00     0.175 S 
ATOM     25  C   UNL A   1      39.621  31.778  34.334  1.00  0.00     0.163 C 
ATOM     26  O   UNL A   1      40.575  31.588  36.743  1.00  0.00    -0.224 OA
ATOM     27  O   UNL A   1      38.657  30.080  36.080  1.00  0.00    -0.224 OA
ENDBRANCH  19  24
ENDBRANCH  14  18
BRANCH  17  28
ATOM     28  C   UNL A   1      45.698  23.813  34.164  1.00  0.00    -0.023 A 
ATOM     29  C   UNL A   1      44.537  23.035  34.289  1.00  0.00     0.006 A 
ATOM     30  C   UNL A   1      46.929  23.204  34.487  1.00  0.00     0.006 A 
ATOM     31  C   UNL A   1      44.604  21.710  34.737  1.00  0.00     0.000 A 
ATOM     32  C   UNL A   1      46.999  21.874  34.908  1.00  0.00     0.000 A 
ATOM     33  C   UNL A   1      45.833  21.128  35.039  1.00  0.00     0.000 A 
ENDBRANCH  17  28
ENDBRANCH   8  13
ENDBRANCH   4   7
ENDBRANCH   2   3
ENDBRANCH   1   2
BRANCH   1  34
ATOM     34  C   UNL A   1      41.732  21.189  26.186  1.00  0.00     0.023 C 
BRANCH  34  35
ATOM     35  C   UNL A   1      40.617  21.796  27.026  1.00  0.00     0.116 C 
BRANCH  35  36
ATOM     36  N   UNL A   1      39.428  22.129  26.254  1.00  0.00    -0.352 N 
ATOM     37  C   UNL A   1      38.796  23.345  26.148  1.00  0.00     0.251 C 
ATOM     38  H   UNL A   1      39.027  21.389  25.743  1.00  0.00     0.163 HD
ATOM     39  O   UNL A   1      37.740  23.455  25.537  1.00  0.00    -0.269 OA
BRANCH  37  40
ATOM     40  C   UNL A   1      39.392  24.513  26.825  1.00  0.00     0.039 A 
ATOM     41  C   UNL A   1      40.186  25.390  26.084  1.00  0.00     0.014 A 
ATOM     42  C   UNL A   1      39.106  24.772  28.168  1.00  0.00     0.014 A 
ATOM     43  C   UNL A   1      40.631  26.576  26.672  1.00  0.00     0.010 A 
ATOM     44  C   UNL A   1      39.491  25.984  28.728  1.00  0.00     0.010 A 
ATOM     45  C   UNL A   1      40.251  26.900  27.984  1.00  0.00    -0.014 A 
BRANCH  45  46
ATOM     46  C   UNL A   1      40.621  28.197  28.602  1.00  0.00     0.031 A 
ATOM     47  C   UNL A   1      42.013  28.407  29.126  1.00  0.00     0.074 A 
ATOM     48  C   UNL A   1      39.679  29.145  28.780  1.00  0.00     0.049 A 
ATOM     49  N   UNL A   1      42.497  29.417  29.802  1.00  0.00    -0.248 NA
ATOM     50  C   UNL A   1      42.982  27.325  28.884  1.00  0.00     0.031 C 
ATOM     51  C   UNL A   1      38.281  29.045  28.355  1.00  0.00     0.029 A 
ATOM     52  N   UNL A   1      39.755  30.374  29.386  1.00  0.00    -0.354 N 
ATOM     53  C   UNL A   1      43.813  29.081  30.091  1.00  0.00     0.074 A 
ATOM     54  C   UNL A   1      44.042  27.759  29.550  1.00  0.00     0.031 C 
ATOM     55  C   UNL A   1      37.635  30.170  28.704  1.00  0.00     0.029 A 
ATOM     56  C   UNL A   1      38.558  31.049  29.414  1.00  0.00     0.049 A 
ATOM     57  H   UNL A   1      40.587  30.737  29.766  1.00  0.00     0.167 HD
ATOM     58  C   UNL A   1      44.750  29.812  30.736  1.00  0.00     0.031 A 
ATOM     59  C   UNL A   1      38.236  32.235  29.964  1.00  0.00     0.031 A 
ATOM     60  C   UNL A   1      44.528  31.135  31.254  1.00  0.00     0.049 A 
ATOM     61  C   UNL A   1      39.296  33.027  30.677  1.00  0.00     0.074 A 
ATOM     62  C   UNL A   1      45.437  31.988  31.855  1.00  0.00     0.029 A 
ATOM     63  N   UNL A   1      43.310  31.796  31.233  1.00  0.00    -0.354 N 
ATOM     64  N   UNL A   1      40.559  32.729  30.872  1.00  0.00    -0.248 NA
ATOM     65  C   UNL A   1      38.890  34.324  31.239  1.00  0.00     0.031 C 
ATOM     66  C   UNL A   1      44.757  33.144  32.246  1.00  0.00     0.029 A 
ATOM     67  C   UNL A   1      43.438  33.035  31.837  1.00  0.00     0.049 A 
ATOM     68  H   UNL A   1      42.478  31.438  30.846  1.00  0.00     0.167 HD
ATOM     69  C   UNL A   1      41.102  33.811  31.552  1.00  0.00     0.074 A 
ATOM     70  C   UNL A   1      40.038  34.777  31.724  1.00  0.00     0.031 C 
ATOM     71  C   UNL A   1      42.370  33.988  31.994  1.00  0.00     0.031 A 
BRANCH  58  72
ATOM     72  C   UNL A   1      46.105  29.192  30.931  1.00  0.00    -0.014 A 
ATOM     73  C   UNL A   1      47.043  29.145  29.887  1.00  0.00     0.009 A 
ATOM     74  C   UNL A   1      46.464  28.689  32.190  1.00  0.00     0.009 A 
ATOM     75  C   UNL A   1      48.301  28.577  30.094  1.00  0.00     0.001 A 
ATOM     76  C   UNL A   1      47.734  28.147  32.402  1.00  0.00     0.001 A 
ATOM     77  C   UNL A   1      48.647  28.084  31.351  1.00  0.00     0.000 A 
ENDBRANCH  58  72
BRANCH  59  78
ATOM     78  C   UNL A   1      36.844  32.749  29.869  1.00  0.00    -0.014 A 
ATOM     79  C   UNL A   1      36.455  33.559  28.791  1.00  0.00     0.009 A 
ATOM     80  C   UNL A   1      35.902  32.446  30.863  1.00  0.00     0.009 A 
ATOM     81  C   UNL A   1      35.161  34.079  28.727  1.00  0.00     0.001 A 
ATOM     82  C   UNL A   1      34.599  32.943  30.782  1.00  0.00     0.001 A 
ATOM     83  C   UNL A   1      34.233  33.767  29.720  1.00  0.00     0.000 A 
ENDBRANCH  59  78
BRANCH  71  84
ATOM     84  C   UNL A   1      42.691  35.289  32.671  1.00  0.00    -0.014 A 
ATOM     85  C   UNL A   1      42.362  35.512  34.016  1.00  0.00     0.009 A 
ATOM     86  C   UNL A   1      43.386  36.285  31.965  1.00  0.00     0.009 A 
ATOM     87  C   UNL A   1      42.701  36.718  34.634  1.00  0.00     0.001 A 
ATOM     88  C   UNL A   1      43.748  37.476  32.593  1.00  0.00     0.001 A 
ATOM     89  C   UNL A   1      43.399  37.695  33.925  1.00  0.00     0.000 A 
ENDBRANCH  71  84
ENDBRANCH  45  46
ENDBRANCH  37  40
ENDBRANCH  35  36
ENDBRANCH  34  35
ENDBRANCH   1  34
TORSDOF 15
ENDMDL
MODEL 3
REMARK VINA RESULT:     -11.6      3.293      9.525
REMARK SMILES CS(=O)(=O)c1ccc(C2=NN(c3ccc(C(=O)NCCCCNC(=O)c4ccc(-c5c6nc(c(-c7ccccc7)c7ccc([nH]7)c(-c7ccccc7)c7nc(c(-c8ccccc8)c8ccc5[nH]8)C=C7)C=C6)cc4)cc3)[C@H](c3ccccc3)C2)cc1
REMARK SMILES IDX 20 1 19 2 18 3 16 4 17 5 15 7 12 8 13 9 75 10 14 11 74 12
REMARK SMILES IDX 11 13 9 14 10 15 83 16 76 17 8 18 5 19 6 20 85 21 7 22 84 23
REMARK SMILES IDX 2 24 1 25 3 26 4 27 77 28 78 29 82 30 79 31 81 32 80 33
REMARK SMILES IDX 21 34 22 35 23 36 24 37 25 39 26 40 27 41 73 42 28 43 72 44
REMARK SMILES IDX 29 45 30 46 31 47 66 48 32 49 71 50 65 51 67 52 33 53 70 54
REMARK SMILES IDX 64 55 63 56 34 58 56 59 41 60 55 61 42 62 45 63 54 64 68 65
REMARK SMILES IDX 43 66 44 67 53 69 69 70 46 71 35 72 36 73 40 74 37 75 39 76
REMARK SMILES IDX 38 77 57 78 58 79 62 80 59 81 61 82 60 83 47 84 48 85 52 86
REMARK SMILES IDX 49 87 51 88 50 89
REMARK H PARENT 18 6 23 38 67 57 45 68
REMARK Flexibility Score: inf
ROOT
ATOM      1  C   UNL A   1      36.866  20.227  25.004  1.00  0.00     0.023 C 
ENDROOT
BRANCH   1   2
ATOM      2  C   UNL A   1      35.919  21.353  25.425  1.00  0.00     0.116 C 
BRANCH   2   3
ATOM      3  N   UNL A   1      34.927  20.872  26.367  1.00  0.00    -0.352 N 
ATOM      4  C   UNL A   1      33.875  21.522  26.969  1.00  0.00     0.251 C 
ATOM      5  O   UNL A   1      33.105  20.871  27.672  1.00  0.00    -0.269 OA
ATOM      6  H   UNL A   1      35.021  19.925  26.617  1.00  0.00     0.163 HD
BRANCH   4   7
ATOM      7  C   UNL A   1      33.611  22.964  26.732  1.00  0.00     0.039 A 
ATOM      8  C   UNL A   1      32.947  25.638  26.166  1.00  0.00     0.060 A 
ATOM      9  C   UNL A   1      32.003  24.780  26.737  1.00  0.00     0.029 A 
ATOM     10  C   UNL A   1      34.245  25.169  25.964  1.00  0.00     0.029 A 
ATOM     11  C   UNL A   1      32.332  23.451  27.025  1.00  0.00     0.016 A 
ATOM     12  C   UNL A   1      34.581  23.849  26.258  1.00  0.00     0.016 A 
BRANCH   8  13
ATOM     13  N   UNL A   1      32.626  26.927  25.792  1.00  0.00    -0.257 N 
ATOM     14  C   UNL A   1      32.469  29.008  26.128  1.00  0.00     0.071 C 
ATOM     15  N   UNL A   1      33.170  27.969  26.453  1.00  0.00    -0.176 NA
ATOM     16  C   UNL A   1      31.305  28.748  25.208  1.00  0.00     0.091 C 
ATOM     17  C   UNL A   1      31.582  27.281  24.830  1.00  0.00     0.144 C 
BRANCH  14  18
ATOM     18  C   UNL A   1      32.774  30.342  26.669  1.00  0.00    -0.002 A 
ATOM     19  C   UNL A   1      33.359  32.766  27.898  1.00  0.00     0.067 A 
ATOM     20  C   UNL A   1      34.308  31.741  27.914  1.00  0.00     0.021 A 
ATOM     21  C   UNL A   1      32.120  32.589  27.270  1.00  0.00     0.021 A 
ATOM     22  C   UNL A   1      34.007  30.523  27.310  1.00  0.00     0.011 A 
ATOM     23  C   UNL A   1      31.832  31.373  26.640  1.00  0.00     0.011 A 
BRANCH  19  24
ATOM     24  S   UNL A   1      33.727  34.298  28.722  1.00  0.00     0.175 S 
ATOM     25  C   UNL A   1      34.633  33.832  30.172  1.00  0.00     0.163 C 
ATOM     26  O   UNL A   1      32.467  34.862  29.173  1.00  0.00    -0.224 OA
ATOM     27  O   UNL A   1      34.613  35.039  27.847  1.00  0.00    -0.224 OA
ENDBRANCH  19  24
ENDBRANCH  14  18
BRANCH  17  28
ATOM     28  C   UNL A   1      32.054  26.980  23.408  1.00  0.00    -0.023 A 
ATOM     29  C   UNL A   1      33.030  27.723  22.729  1.00  0.00     0.006 A 
ATOM     30  C   UNL A   1      31.521  25.849  22.752  1.00  0.00     0.006 A 
ATOM     31  C   UNL A   1      33.443  27.362  21.441  1.00  0.00     0.000 A 
ATOM     32  C   UNL A   1      31.952  25.474  21.478  1.00  0.00     0.000 A 
ATOM     33  C   UNL A   1      32.910  26.235  20.818  1.00  0.00     0.000 A 
ENDBRANCH  17  28
ENDBRANCH   8  13
ENDBRANCH   4   7
ENDBRANCH   2   3
ENDBRANCH   1   2
BRANCH   1  34
ATOM     34  C   UNL A   1      38.308  20.674  24.766  1.00  0.00     0.023 C 
BRANCH  34  35
ATOM     35  C   UNL A   1      39.224  20.545  25.975  1.00  0.00     0.116 C 
BRANCH  35  36
ATOM     36  N   UNL A   1      40.121  19.400  25.900  1.00  0.00    -0.352 N 
ATOM     37  C   UNL A   1      41.478  19.369  26.116  1.00  0.00     0.251 C 
ATOM     38  H   UNL A   1      39.702  18.541  25.666  1.00  0.00     0.163 HD
ATOM     39  O   UNL A   1      42.124  18.347  25.920  1.00  0.00    -0.269 OA
BRANCH  37  40
ATOM     40  C   UNL A   1      42.154  20.608  26.549  1.00  0.00     0.039 A 
ATOM     41  C   UNL A   1      42.717  21.443  25.582  1.00  0.00     0.014 A 
ATOM     42  C   UNL A   1      42.166  20.969  27.898  1.00  0.00     0.014 A 
ATOM     43  C   UNL A   1      43.226  22.686  25.962  1.00  0.00     0.010 A 
ATOM     44  C   UNL A   1      42.609  22.235  28.263  1.00  0.00     0.010 A 
ATOM     45  C   UNL A   1      43.136  23.107  27.298  1.00  0.00    -0.014 A 
BRANCH  45  46
ATOM     46  C   UNL A   1      43.573  24.463  27.717  1.00  0.00     0.031 A 
ATOM     47  C   UNL A   1      42.549  25.503  28.069  1.00  0.00     0.074 A 
ATOM     48  C   UNL A   1      44.881  24.783  27.683  1.00  0.00     0.049 A 
ATOM     49  N   UNL A   1      42.720  26.771  28.342  1.00  0.00    -0.248 NA
ATOM     50  C   UNL A   1      41.142  25.068  28.088  1.00  0.00     0.031 C 
ATOM     51  C   UNL A   1      45.970  23.876  27.316  1.00  0.00     0.029 A 
ATOM     52  N   UNL A   1      45.515  25.973  27.944  1.00  0.00    -0.354 N 
ATOM     53  C   UNL A   1      41.447  27.290  28.536  1.00  0.00     0.074 A 
ATOM     54  C   UNL A   1      40.510  26.211  28.313  1.00  0.00     0.031 C 
ATOM     55  C   UNL A   1      47.137  24.538  27.386  1.00  0.00     0.029 A 
ATOM     56  C   UNL A   1      46.876  25.924  27.759  1.00  0.00     0.049 A 
ATOM     57  H   UNL A   1      45.040  26.784  28.235  1.00  0.00     0.167 HD
ATOM     58  C   UNL A   1      41.090  28.549  28.882  1.00  0.00     0.031 A 
ATOM     59  C   UNL A   1      47.807  26.891  27.860  1.00  0.00     0.031 A 
ATOM     60  C   UNL A   1      42.024  29.615  29.125  1.00  0.00     0.049 A 
ATOM     61  C   UNL A   1      47.383  28.282  28.244  1.00  0.00     0.074 A 
ATOM     62  C   UNL A   1      41.764  30.904  29.555  1.00  0.00     0.029 A 
ATOM     63  N   UNL A   1      43.396  29.515  28.957  1.00  0.00    -0.354 N 
ATOM     64  N   UNL A   1      46.181  28.737  28.502  1.00  0.00    -0.248 NA
ATOM     65  C   UNL A   1      48.447  29.291  28.360  1.00  0.00     0.031 C 
ATOM     66  C   UNL A   1      42.974  31.602  29.597  1.00  0.00     0.029 A 
ATOM     67  C   UNL A   1      43.993  30.731  29.248  1.00  0.00     0.049 A 
ATOM     68  H   UNL A   1      43.874  28.703  28.674  1.00  0.00     0.167 HD
ATOM     69  C   UNL A   1      46.347  30.075  28.838  1.00  0.00     0.074 A 
ATOM     70  C   UNL A   1      47.766  30.354  28.765  1.00  0.00     0.031 C 
ATOM     71  C   UNL A   1      45.407  30.989  29.176  1.00  0.00     0.031 A 
BRANCH  58  72
ATOM     72  C   UNL A   1      39.623  28.847  29.007  1.00  0.00    -0.014 A 
ATOM     73  C   UNL A   1      38.877  29.315  27.914  1.00  0.00     0.009 A 
ATOM     74  C   UNL A   1      38.968  28.612  30.226  1.00  0.00     0.009 A 
ATOM     75  C   UNL A   1      37.512  29.573  28.049  1.00  0.00     0.001 A 
ATOM     76  C   UNL A   1      37.597  28.843  30.350  1.00  0.00     0.001 A 
ATOM     77  C   UNL A   1      36.872  29.331  29.264  1.00  0.00     0.000 A 
ENDBRANCH  58  72
BRANCH  59  78
ATOM     78  C   UNL A   1      49.237  26.584  27.590  1.00  0.00    -0.014 A 
ATOM     79  C   UNL A   1      50.090  26.192  28.632  1.00  0.00     0.009 A 
ATOM     80  C   UNL A   1      49.757  26.696  26.292  1.00  0.00     0.009 A 
ATOM     81  C   UNL A   1      51.443  25.948  28.385  1.00  0.00     0.001 A 
ATOM     82  C   UNL A   1      51.104  26.423  26.042  1.00  0.00     0.001 A 
ATOM     83  C   UNL A   1      51.948  26.059  27.090  1.00  0.00     0.000 A 
ENDBRANCH  59  78
BRANCH  71  84
ATOM     84  C   UNL A   1      45.882  32.369  29.534  1.00  0.00    -0.014 A 
ATOM     85  C   UNL A   1      46.237  32.699  30.850  1.00  0.00     0.009 A 
ATOM     86  C   UNL A   1      46.032  33.333  28.525  1.00  0.00     0.009 A 
ATOM     87  C   UNL A   1      46.708  33.978  31.153  1.00  0.00     0.001 A 
ATOM     88  C   UNL A   1      46.530  34.601  28.825  1.00  0.00     0.001 A 
ATOM     89  C   UNL A   1      46.860  34.925  30.140  1.00  0.00     0.000 A 
ENDBRANCH  71  84
ENDBRANCH  45  46
ENDBRANCH  37  40
ENDBRANCH  35  36
ENDBRANCH  34  35
ENDBRANCH   1  34
TORSDOF 15
ENDMDL
