MODEL 1
REMARK VINA RESULT:     -10.8      0.000      0.000
REMARK SMILES CSc1cccc(N2C[C@@H](C(=O)NCCCCNC(=O)c3ccc(-c4c5nc(c(-c6ccccc6)c6ccc([nH]6)c(-c6ccccc6)c6nc(c(-c7ccccc7)c7ccc4[nH]7)C=C6)C=C5)cc3)CC2=O)c1
REMARK SMILES IDX 15 1 14 2 13 3 11 4 12 5 10 7 8 8 9 9 70 10 69 11 71 12 7 13
REMARK SMILES IDX 3 14 4 15 72 16 5 17 6 18 2 19 1 20 16 21 17 22 18 23 19 24
REMARK SMILES IDX 20 26 21 27 22 28 68 29 23 30 67 31 24 32 25 33 26 34 61 35
REMARK SMILES IDX 27 36 66 37 60 38 62 39 28 40 65 41 59 42 58 43 29 45 51 46
REMARK SMILES IDX 36 47 50 48 37 49 40 50 49 51 63 52 38 53 39 54 48 56 64 57
REMARK SMILES IDX 41 58 30 59 31 60 35 61 32 62 34 63 33 64 52 65 53 66 57 67
REMARK SMILES IDX 54 68 56 69 55 70 42 71 43 72 47 73 44 74 46 75 45 76
REMARK H PARENT 13 6 18 25 62 44 40 55
REMARK Flexibility Score: inf
ROOT
ATOM      1  C   UNL A   1      31.108  30.611  25.250  1.00  0.00     0.023 C 
ENDROOT
BRANCH   1   2
ATOM      2  C   UNL A   1      32.277  29.680  25.563  1.00  0.00     0.116 C 
BRANCH   2   3
ATOM      3  N   UNL A   1      33.231  29.614  24.470  1.00  0.00    -0.356 N 
ATOM      4  C   UNL A   1      33.593  28.596  23.648  1.00  0.00     0.225 C 
ATOM      5  O   UNL A   1      34.431  28.846  22.778  1.00  0.00    -0.275 OA
ATOM      6  H   UNL A   1      33.701  30.461  24.293  1.00  0.00     0.163 HD
BRANCH   4   7
ATOM      7  C   UNL A   1      33.000  27.205  23.744  1.00  0.00     0.107 C 
ATOM      8  N   UNL A   1      33.934  25.046  23.936  1.00  0.00    -0.312 N 
ATOM      9  C   UNL A   1      33.785  26.286  24.660  1.00  0.00     0.139 C 
ATOM     10  C   UNL A   1      33.474  25.133  22.624  1.00  0.00     0.227 C 
ATOM     11  C   UNL A   1      32.851  26.486  22.415  1.00  0.00     0.116 C 
ATOM     12  O   UNL A   1      33.501  24.277  21.750  1.00  0.00    -0.274 OA
BRANCH   8  13
ATOM     13  C   UNL A   1      34.538  23.899  24.507  1.00  0.00     0.045 A 
ATOM     14  C   UNL A   1      34.378  21.589  25.315  1.00  0.00     0.009 A 
ATOM     15  C   UNL A   1      35.715  21.648  25.710  1.00  0.00     0.015 A 
ATOM     16  C   UNL A   1      33.796  22.732  24.740  1.00  0.00     0.041 A 
ATOM     17  C   UNL A   1      36.466  22.804  25.492  1.00  0.00     0.003 A 
ATOM     18  C   UNL A   1      35.889  23.913  24.869  1.00  0.00     0.026 A 
BRANCH  14  19
ATOM     19  S   UNL A   1      33.325  20.152  25.496  1.00  0.00    -0.130 SA
ATOM     20  C   UNL A   1      32.533  20.002  23.873  1.00  0.00     0.091 C 
ENDBRANCH  14  19
ENDBRANCH   8  13
ENDBRANCH   4   7
ENDBRANCH   2   3
ENDBRANCH   1   2
BRANCH   1  21
ATOM     21  C   UNL A   1      30.985  31.823  26.176  1.00  0.00     0.023 C 
BRANCH  21  22
ATOM     22  C   UNL A   1      32.284  32.272  26.834  1.00  0.00     0.116 C 
BRANCH  22  23
ATOM     23  N   UNL A   1      32.207  33.614  27.390  1.00  0.00    -0.352 N 
ATOM     24  C   UNL A   1      33.054  34.237  28.274  1.00  0.00     0.251 C 
ATOM     25  H   UNL A   1      31.438  34.152  27.090  1.00  0.00     0.163 HD
ATOM     26  O   UNL A   1      32.762  35.332  28.744  1.00  0.00    -0.269 OA
BRANCH  24  27
ATOM     27  C   UNL A   1      34.306  33.569  28.684  1.00  0.00     0.039 A 
ATOM     28  C   UNL A   1      35.481  33.845  27.981  1.00  0.00     0.014 A 
ATOM     29  C   UNL A   1      34.326  32.692  29.772  1.00  0.00     0.014 A 
ATOM     30  C   UNL A   1      36.689  33.297  28.413  1.00  0.00     0.010 A 
ATOM     31  C   UNL A   1      35.541  32.215  30.250  1.00  0.00     0.010 A 
ATOM     32  C   UNL A   1      36.736  32.510  29.576  1.00  0.00    -0.014 A 
BRANCH  32  33
ATOM     33  C   UNL A   1      38.023  31.990  30.103  1.00  0.00     0.031 A 
ATOM     34  C   UNL A   1      38.592  30.702  29.577  1.00  0.00     0.074 A 
ATOM     35  C   UNL A   1      38.649  32.644  31.102  1.00  0.00     0.049 A 
ATOM     36  N   UNL A   1      39.670  30.061  29.951  1.00  0.00    -0.248 NA
ATOM     37  C   UNL A   1      37.837  30.031  28.505  1.00  0.00     0.031 C 
ATOM     38  C   UNL A   1      38.184  33.884  31.728  1.00  0.00     0.029 A 
ATOM     39  N   UNL A   1      39.813  32.353  31.770  1.00  0.00    -0.354 N 
ATOM     40  C   UNL A   1      39.714  28.909  29.175  1.00  0.00     0.074 A 
ATOM     41  C   UNL A   1      38.526  28.910  28.349  1.00  0.00     0.031 C 
ATOM     42  C   UNL A   1      39.068  34.263  32.664  1.00  0.00     0.029 A 
ATOM     43  C   UNL A   1      40.136  33.271  32.740  1.00  0.00     0.049 A 
ATOM     44  H   UNL A   1      40.363  31.561  31.572  1.00  0.00     0.167 HD
ATOM     45  C   UNL A   1      40.666  27.947  29.137  1.00  0.00     0.031 A 
ATOM     46  C   UNL A   1      41.170  33.306  33.601  1.00  0.00     0.031 A 
ATOM     47  C   UNL A   1      41.849  27.946  29.955  1.00  0.00     0.049 A 
ATOM     48  C   UNL A   1      42.198  32.209  33.560  1.00  0.00     0.074 A 
ATOM     49  C   UNL A   1      42.898  27.044  29.952  1.00  0.00     0.029 A 
ATOM     50  N   UNL A   1      42.136  28.893  30.927  1.00  0.00    -0.354 N 
ATOM     51  N   UNL A   1      42.260  31.164  32.770  1.00  0.00    -0.248 NA
ATOM     52  C   UNL A   1      43.305  32.304  34.522  1.00  0.00     0.031 C 
ATOM     53  C   UNL A   1      43.790  27.409  30.965  1.00  0.00     0.029 A 
ATOM     54  C   UNL A   1      43.332  28.578  31.551  1.00  0.00     0.049 A 
ATOM     55  H   UNL A   1      41.575  29.672  31.142  1.00  0.00     0.167 HD
ATOM     56  C   UNL A   1      43.428  30.496  33.118  1.00  0.00     0.074 A 
ATOM     57  C   UNL A   1      44.049  31.262  34.178  1.00  0.00     0.031 C 
ATOM     58  C   UNL A   1      43.940  29.350  32.605  1.00  0.00     0.031 A 
BRANCH  45  59
ATOM     59  C   UNL A   1      40.456  26.802  28.182  1.00  0.00    -0.014 A 
ATOM     60  C   UNL A   1      41.035  26.803  26.903  1.00  0.00     0.009 A 
ATOM     61  C   UNL A   1      39.698  25.690  28.581  1.00  0.00     0.009 A 
ATOM     62  C   UNL A   1      40.825  25.734  26.029  1.00  0.00     0.001 A 
ATOM     63  C   UNL A   1      39.517  24.608  27.718  1.00  0.00     0.001 A 
ATOM     64  C   UNL A   1      40.072  24.635  26.440  1.00  0.00     0.000 A 
ENDBRANCH  45  59
BRANCH  46  65
ATOM     65  C   UNL A   1      41.294  34.424  34.576  1.00  0.00    -0.014 A 
ATOM     66  C   UNL A   1      41.992  35.593  34.236  1.00  0.00     0.009 A 
ATOM     67  C   UNL A   1      40.728  34.322  35.856  1.00  0.00     0.009 A 
ATOM     68  C   UNL A   1      42.148  36.622  35.167  1.00  0.00     0.001 A 
ATOM     69  C   UNL A   1      40.856  35.367  36.774  1.00  0.00     0.001 A 
ATOM     70  C   UNL A   1      41.575  36.511  36.432  1.00  0.00     0.000 A 
ENDBRANCH  46  65
BRANCH  58  71
ATOM     71  C   UNL A   1      45.258  28.876  33.153  1.00  0.00    -0.014 A 
ATOM     72  C   UNL A   1      46.477  29.308  32.608  1.00  0.00     0.009 A 
ATOM     73  C   UNL A   1      45.276  28.013  34.261  1.00  0.00     0.009 A 
ATOM     74  C   UNL A   1      47.687  28.855  33.140  1.00  0.00     0.001 A 
ATOM     75  C   UNL A   1      46.486  27.591  34.811  1.00  0.00     0.001 A 
ATOM     76  C   UNL A   1      47.690  28.004  34.244  1.00  0.00     0.000 A 
ENDBRANCH  58  71
ENDBRANCH  32  33
ENDBRANCH  24  27
ENDBRANCH  22  23
ENDBRANCH  21  22
ENDBRANCH   1  21
TORSDOF 13
ENDMDL
MODEL 2
REMARK VINA RESULT:     -10.7      2.813      7.137
REMARK SMILES CSc1cccc(N2C[C@@H](C(=O)NCCCCNC(=O)c3ccc(-c4c5nc(c(-c6ccccc6)c6ccc([nH]6)c(-c6ccccc6)c6nc(c(-c7ccccc7)c7ccc4[nH]7)C=C6)C=C5)cc3)CC2=O)c1
REMARK SMILES IDX 15 1 14 2 13 3 11 4 12 5 10 7 8 8 9 9 70 10 69 11 71 12 7 13
REMARK SMILES IDX 3 14 4 15 72 16 5 17 6 18 2 19 1 20 16 21 17 22 18 23 19 24
REMARK SMILES IDX 20 26 21 27 22 28 68 29 23 30 67 31 24 32 25 33 26 34 61 35
REMARK SMILES IDX 27 36 66 37 60 38 62 39 28 40 65 41 59 42 58 43 29 45 51 46
REMARK SMILES IDX 36 47 50 48 37 49 40 50 49 51 63 52 38 53 39 54 48 56 64 57
REMARK SMILES IDX 41 58 30 59 31 60 35 61 32 62 34 63 33 64 52 65 53 66 57 67
REMARK SMILES IDX 54 68 56 69 55 70 42 71 43 72 47 73 44 74 46 75 45 76
REMARK H PARENT 13 6 18 25 62 44 40 55
REMARK Flexibility Score: inf
ROOT
ATOM      1  C   UNL A   1      31.482  28.062  26.022  1.00  0.00     0.023 C 
ENDROOT
BRANCH   1   2
ATOM      2  C   UNL A   1      32.375  28.157  24.787  1.00  0.00     0.116 C 
BRANCH   2   3
ATOM      3  N   UNL A   1      32.206  27.020  23.901  1.00  0.00    -0.356 N 
ATOM      4  C   UNL A   1      32.822  25.811  23.856  1.00  0.00     0.225 C 
ATOM      5  O   UNL A   1      32.448  25.020  22.987  1.00  0.00    -0.275 OA
ATOM      6  H   UNL A   1      31.520  27.148  23.206  1.00  0.00     0.163 HD
BRANCH   4   7
ATOM      7  C   UNL A   1      33.911  25.401  24.827  1.00  0.00     0.107 C 
ATOM      8  N   UNL A   1      34.968  23.350  25.320  1.00  0.00    -0.312 N 
ATOM      9  C   UNL A   1      34.833  24.333  24.272  1.00  0.00     0.139 C 
ATOM     10  C   UNL A   1      34.122  23.596  26.399  1.00  0.00     0.227 C 
ATOM     11  C   UNL A   1      33.409  24.901  26.170  1.00  0.00     0.116 C 
ATOM     12  O   UNL A   1      33.968  22.930  27.413  1.00  0.00    -0.274 OA
BRANCH   8  13
ATOM     13  C   UNL A   1      35.833  22.234  25.209  1.00  0.00     0.045 A 
ATOM     14  C   UNL A   1      36.169  19.827  24.877  1.00  0.00     0.009 A 
ATOM     15  C   UNL A   1      37.541  20.005  25.065  1.00  0.00     0.015 A 
ATOM     16  C   UNL A   1      35.325  20.947  24.980  1.00  0.00     0.041 A 
ATOM     17  C   UNL A   1      38.061  21.278  25.302  1.00  0.00     0.003 A 
ATOM     18  C   UNL A   1      37.216  22.390  25.345  1.00  0.00     0.026 A 
BRANCH  14  19
ATOM     19  S   UNL A   1      35.386  18.256  24.520  1.00  0.00    -0.130 SA
ATOM     20  C   UNL A   1      33.616  18.639  24.602  1.00  0.00     0.091 C 
ENDBRANCH  14  19
ENDBRANCH   8  13
ENDBRANCH   4   7
ENDBRANCH   2   3
ENDBRANCH   1   2
BRANCH   1  21
ATOM     21  C   UNL A   1      32.212  28.208  27.358  1.00  0.00     0.023 C 
BRANCH  21  22
ATOM     22  C   UNL A   1      33.599  28.833  27.275  1.00  0.00     0.116 C 
BRANCH  22  23
ATOM     23  N   UNL A   1      33.639  30.199  27.775  1.00  0.00    -0.352 N 
ATOM     24  C   UNL A   1      34.658  30.858  28.419  1.00  0.00     0.251 C 
ATOM     25  H   UNL A   1      32.819  30.726  27.631  1.00  0.00     0.163 HD
ATOM     26  O   UNL A   1      34.471  31.973  28.895  1.00  0.00    -0.269 OA
BRANCH  24  27
ATOM     27  C   UNL A   1      35.974  30.205  28.568  1.00  0.00     0.039 A 
ATOM     28  C   UNL A   1      36.868  30.234  27.496  1.00  0.00     0.014 A 
ATOM     29  C   UNL A   1      36.335  29.586  29.769  1.00  0.00     0.014 A 
ATOM     30  C   UNL A   1      38.150  29.706  27.651  1.00  0.00     0.010 A 
ATOM     31  C   UNL A   1      37.638  29.136  29.948  1.00  0.00     0.010 A 
ATOM     32  C   UNL A   1      38.560  29.189  28.891  1.00  0.00    -0.014 A 
BRANCH  32  33
ATOM     33  C   UNL A   1      39.947  28.703  29.104  1.00  0.00     0.031 A 
ATOM     34  C   UNL A   1      40.988  29.617  29.688  1.00  0.00     0.074 A 
ATOM     35  C   UNL A   1      40.286  27.459  28.714  1.00  0.00     0.049 A 
ATOM     36  N   UNL A   1      42.261  29.393  29.895  1.00  0.00    -0.248 NA
ATOM     37  C   UNL A   1      40.548  30.971  30.065  1.00  0.00     0.031 C 
ATOM     38  C   UNL A   1      39.381  26.484  28.100  1.00  0.00     0.029 A 
ATOM     39  N   UNL A   1      41.490  26.800  28.772  1.00  0.00    -0.354 N 
ATOM     40  C   UNL A   1      42.774  30.578  30.410  1.00  0.00     0.074 A 
ATOM     41  C   UNL A   1      41.689  31.535  30.432  1.00  0.00     0.031 C 
ATOM     42  C   UNL A   1      40.052  25.345  27.868  1.00  0.00     0.029 A 
ATOM     43  C   UNL A   1      41.444  25.522  28.270  1.00  0.00     0.049 A 
ATOM     44  H   UNL A   1      42.309  27.207  29.138  1.00  0.00     0.167 HD
ATOM     45  C   UNL A   1      44.028  30.841  30.846  1.00  0.00     0.031 A 
ATOM     46  C   UNL A   1      42.415  24.598  28.139  1.00  0.00     0.031 A 
ATOM     47  C   UNL A   1      45.107  29.889  30.829  1.00  0.00     0.049 A 
ATOM     48  C   UNL A   1      43.807  24.926  28.603  1.00  0.00     0.074 A 
ATOM     49  C   UNL A   1      46.400  30.044  31.298  1.00  0.00     0.029 A 
ATOM     50  N   UNL A   1      45.019  28.606  30.310  1.00  0.00    -0.354 N 
ATOM     51  N   UNL A   1      44.258  26.027  29.153  1.00  0.00    -0.248 NA
ATOM     52  C   UNL A   1      44.823  23.876  28.438  1.00  0.00     0.031 C 
ATOM     53  C   UNL A   1      47.112  28.877  31.005  1.00  0.00     0.029 A 
ATOM     54  C   UNL A   1      46.244  27.970  30.419  1.00  0.00     0.049 A 
ATOM     55  H   UNL A   1      44.207  28.208  29.922  1.00  0.00     0.167 HD
ATOM     56  C   UNL A   1      45.600  25.791  29.429  1.00  0.00     0.074 A 
ATOM     57  C   UNL A   1      45.884  24.438  29.000  1.00  0.00     0.031 C 
ATOM     58  C   UNL A   1      46.513  26.622  29.988  1.00  0.00     0.031 A 
BRANCH  45  59
ATOM     59  C   UNL A   1      44.304  32.225  31.369  1.00  0.00    -0.014 A 
ATOM     60  C   UNL A   1      44.663  33.274  30.507  1.00  0.00     0.009 A 
ATOM     61  C   UNL A   1      44.169  32.493  32.741  1.00  0.00     0.009 A 
ATOM     62  C   UNL A   1      44.920  34.551  31.013  1.00  0.00     0.001 A 
ATOM     63  C   UNL A   1      44.394  33.777  33.239  1.00  0.00     0.001 A 
ATOM     64  C   UNL A   1      44.779  34.802  32.376  1.00  0.00     0.000 A 
ENDBRANCH  45  59
BRANCH  46  65
ATOM     65  C   UNL A   1      42.106  23.267  27.550  1.00  0.00    -0.014 A 
ATOM     66  C   UNL A   1      41.420  22.297  28.297  1.00  0.00     0.009 A 
ATOM     67  C   UNL A   1      42.508  22.954  26.242  1.00  0.00     0.009 A 
ATOM     68  C   UNL A   1      41.171  21.032  27.759  1.00  0.00     0.001 A 
ATOM     69  C   UNL A   1      42.229  21.700  25.695  1.00  0.00     0.001 A 
ATOM     70  C   UNL A   1      41.571  20.737  26.457  1.00  0.00     0.000 A 
ENDBRANCH  46  65
BRANCH  58  71
ATOM     71  C   UNL A   1      47.898  26.077  30.207  1.00  0.00    -0.014 A 
ATOM     72  C   UNL A   1      48.820  25.970  29.155  1.00  0.00     0.009 A 
ATOM     73  C   UNL A   1      48.297  25.704  31.501  1.00  0.00     0.009 A 
ATOM     74  C   UNL A   1      50.102  25.465  29.388  1.00  0.00     0.001 A 
ATOM     75  C   UNL A   1      49.589  25.233  31.737  1.00  0.00     0.001 A 
ATOM     76  C   UNL A   1      50.486  25.104  30.679  1.00  0.00     0.000 A 
ENDBRANCH  58  71
ENDBRANCH  32  33
ENDBRANCH  24  27
ENDBRANCH  22  23
ENDBRANCH  21  22
ENDBRANCH   1  21
TORSDOF 13
ENDMDL
MODEL 3
REMARK VINA RESULT:     -10.6      2.762      7.631
REMARK SMILES CSc1cccc(N2C[C@@H](C(=O)NCCCCNC(=O)c3ccc(-c4c5nc(c(-c6ccccc6)c6ccc([nH]6)c(-c6ccccc6)c6nc(c(-c7ccccc7)c7ccc4[nH]7)C=C6)C=C5)cc3)CC2=O)c1
REMARK SMILES IDX 15 1 14 2 13 3 11 4 12 5 10 7 8 8 9 9 70 10 69 11 71 12 7 13
REMARK SMILES IDX 3 14 4 15 72 16 5 17 6 18 2 19 1 20 16 21 17 22 18 23 19 24
REMARK SMILES IDX 20 26 21 27 22 28 68 29 23 30 67 31 24 32 25 33 26 34 61 35
REMARK SMILES IDX 27 36 66 37 60 38 62 39 28 40 65 41 59 42 58 43 29 45 51 46
REMARK SMILES IDX 36 47 50 48 37 49 40 50 49 51 63 52 38 53 39 54 48 56 64 57
REMARK SMILES IDX 41 58 30 59 31 60 35 61 32 62 34 63 33 64 52 65 53 66 57 67
REMARK SMILES IDX 54 68 56 69 55 70 42 71 43 72 47 73 44 74 46 75 45 76
REMARK H PARENT 13 6 18 25 62 44 40 55
REMARK Flexibility Score: inf
ROOT
ATOM      1  C   UNL A   1      36.166  21.446  24.325  1.00  0.00     0.023 C 
ENDROOT
BRANCH   1   2
ATOM      2  C   UNL A   1      34.859  20.859  24.853  1.00  0.00     0.116 C 
BRANCH   2   3
ATOM      3  N   UNL A   1      34.601  21.246  26.228  1.00  0.00    -0.356 N 
ATOM      4  C   UNL A   1      33.676  22.075  26.774  1.00  0.00     0.225 C 
ATOM      5  O   UNL A   1      33.683  22.198  28.002  1.00  0.00    -0.275 OA
ATOM      6  H   UNL A   1      35.208  20.832  26.884  1.00  0.00     0.163 HD
BRANCH   4   7
ATOM      7  C   UNL A   1      32.645  22.820  25.951  1.00  0.00     0.107 C 
ATOM      8  N   UNL A   1      31.788  25.018  26.012  1.00  0.00    -0.312 N 
ATOM      9  C   UNL A   1      32.996  24.280  25.734  1.00  0.00     0.139 C 
ATOM     10  C   UNL A   1      30.773  24.213  26.524  1.00  0.00     0.227 C 
ATOM     11  C   UNL A   1      31.235  22.782  26.513  1.00  0.00     0.116 C 
ATOM     12  O   UNL A   1      29.655  24.542  26.898  1.00  0.00    -0.274 OA
BRANCH   8  13
ATOM     13  C   UNL A   1      31.694  26.420  25.829  1.00  0.00     0.045 A 
ATOM     14  C   UNL A   1      31.297  28.352  24.372  1.00  0.00     0.009 A 
ATOM     15  C   UNL A   1      31.580  29.202  25.443  1.00  0.00     0.015 A 
ATOM     16  C   UNL A   1      31.384  26.964  24.574  1.00  0.00     0.041 A 
ATOM     17  C   UNL A   1      31.897  28.676  26.696  1.00  0.00     0.003 A 
ATOM     18  C   UNL A   1      31.926  27.294  26.895  1.00  0.00     0.026 A 
BRANCH  14  19
ATOM     19  S   UNL A   1      30.832  28.901  22.732  1.00  0.00    -0.130 SA
ATOM     20  C   UNL A   1      29.093  29.377  22.923  1.00  0.00     0.091 C 
ENDBRANCH  14  19
ENDBRANCH   8  13
ENDBRANCH   4   7
ENDBRANCH   2   3
ENDBRANCH   1   2
BRANCH   1  21
ATOM     21  C   UNL A   1      36.222  22.974  24.298  1.00  0.00     0.023 C 
BRANCH  21  22
ATOM     22  C   UNL A   1      37.218  23.605  25.264  1.00  0.00     0.116 C 
BRANCH  22  23
ATOM     23  N   UNL A   1      38.354  22.743  25.554  1.00  0.00    -0.352 N 
ATOM     24  C   UNL A   1      39.517  23.036  26.223  1.00  0.00     0.251 C 
ATOM     25  H   UNL A   1      38.278  21.819  25.223  1.00  0.00     0.163 HD
ATOM     26  O   UNL A   1      40.433  22.221  26.260  1.00  0.00    -0.269 OA
BRANCH  24  27
ATOM     27  C   UNL A   1      39.676  24.353  26.874  1.00  0.00     0.039 A 
ATOM     28  C   UNL A   1      39.140  24.546  28.148  1.00  0.00     0.014 A 
ATOM     29  C   UNL A   1      40.373  25.386  26.239  1.00  0.00     0.014 A 
ATOM     30  C   UNL A   1      39.362  25.751  28.816  1.00  0.00     0.010 A 
ATOM     31  C   UNL A   1      40.664  26.552  26.938  1.00  0.00     0.010 A 
ATOM     32  C   UNL A   1      40.161  26.749  28.233  1.00  0.00    -0.014 A 
BRANCH  32  33
ATOM     33  C   UNL A   1      40.484  28.002  28.962  1.00  0.00     0.031 A 
ATOM     34  C   UNL A   1      41.807  28.151  29.660  1.00  0.00     0.074 A 
ATOM     35  C   UNL A   1      39.562  28.981  29.048  1.00  0.00     0.049 A 
ATOM     36  N   UNL A   1      42.247  29.143  30.392  1.00  0.00    -0.248 NA
ATOM     37  C   UNL A   1      42.752  27.027  29.542  1.00  0.00     0.031 C 
ATOM     38  C   UNL A   1      38.227  28.946  28.448  1.00  0.00     0.029 A 
ATOM     39  N   UNL A   1      39.608  30.198  29.682  1.00  0.00    -0.354 N 
ATOM     40  C   UNL A   1      43.507  28.758  30.833  1.00  0.00     0.074 A 
ATOM     41  C   UNL A   1      43.739  27.420  30.334  1.00  0.00     0.031 C 
ATOM     42  C   UNL A   1      37.594  30.100  28.715  1.00  0.00     0.029 A 
ATOM     43  C   UNL A   1      38.457  30.935  29.544  1.00  0.00     0.049 A 
ATOM     44  H   UNL A   1      40.392  30.513  30.188  1.00  0.00     0.167 HD
ATOM     45  C   UNL A   1      44.400  29.460  31.569  1.00  0.00     0.031 A 
ATOM     46  C   UNL A   1      38.127  32.144  30.037  1.00  0.00     0.031 A 
ATOM     47  C   UNL A   1      44.172  30.791  32.063  1.00  0.00     0.049 A 
ATOM     48  C   UNL A   1      39.126  32.891  30.877  1.00  0.00     0.074 A 
ATOM     49  C   UNL A   1      45.037  31.607  32.773  1.00  0.00     0.029 A 
ATOM     50  N   UNL A   1      42.992  31.501  31.904  1.00  0.00    -0.354 N 
ATOM     51  N   UNL A   1      40.341  32.541  31.225  1.00  0.00    -0.248 NA
ATOM     52  C   UNL A   1      38.711  34.207  31.384  1.00  0.00     0.031 C 
ATOM     53  C   UNL A   1      44.357  32.785  33.097  1.00  0.00     0.029 A 
ATOM     54  C   UNL A   1      43.095  32.732  32.529  1.00  0.00     0.049 A 
ATOM     55  H   UNL A   1      42.199  31.177  31.419  1.00  0.00     0.167 HD
ATOM     56  C   UNL A   1      40.846  33.605  31.962  1.00  0.00     0.074 A 
ATOM     57  C   UNL A   1      39.812  34.618  31.997  1.00  0.00     0.031 C 
ATOM     58  C   UNL A   1      42.057  33.732  32.556  1.00  0.00     0.031 A 
BRANCH  45  59
ATOM     59  C   UNL A   1      45.708  28.790  31.896  1.00  0.00    -0.014 A 
ATOM     60  C   UNL A   1      46.829  28.930  31.061  1.00  0.00     0.009 A 
ATOM     61  C   UNL A   1      45.831  28.037  33.074  1.00  0.00     0.009 A 
ATOM     62  C   UNL A   1      48.033  28.296  31.379  1.00  0.00     0.001 A 
ATOM     63  C   UNL A   1      47.045  27.433  33.406  1.00  0.00     0.001 A 
ATOM     64  C   UNL A   1      48.141  27.554  32.554  1.00  0.00     0.000 A 
ENDBRANCH  45  59
BRANCH  46  65
ATOM     65  C   UNL A   1      36.793  32.733  29.743  1.00  0.00    -0.014 A 
ATOM     66  C   UNL A   1      36.581  33.471  28.569  1.00  0.00     0.009 A 
ATOM     67  C   UNL A   1      35.727  32.573  30.643  1.00  0.00     0.009 A 
ATOM     68  C   UNL A   1      35.341  34.063  28.316  1.00  0.00     0.001 A 
ATOM     69  C   UNL A   1      34.479  33.137  30.372  1.00  0.00     0.001 A 
ATOM     70  C   UNL A   1      34.290  33.891  29.215  1.00  0.00     0.000 A 
ENDBRANCH  46  65
BRANCH  58  71
ATOM     71  C   UNL A   1      42.349  35.028  33.261  1.00  0.00    -0.014 A 
ATOM     72  C   UNL A   1      43.109  36.040  32.653  1.00  0.00     0.009 A 
ATOM     73  C   UNL A   1      41.818  35.255  34.541  1.00  0.00     0.009 A 
ATOM     74  C   UNL A   1      43.361  37.236  33.328  1.00  0.00     0.001 A 
ATOM     75  C   UNL A   1      42.042  36.464  35.198  1.00  0.00     0.001 A 
ATOM     76  C   UNL A   1      42.822  37.449  34.596  1.00  0.00     0.000 A 
ENDBRANCH  58  71
ENDBRANCH  32  33
ENDBRANCH  24  27
ENDBRANCH  22  23
ENDBRANCH  21  22
ENDBRANCH   1  21
TORSDOF 13
ENDMDL
