MODEL 1
REMARK VINA RESULT:     -11.3      0.000      0.000
REMARK SMILES Cc1ccc(C(F)(F)F)cc1/C=C/C(=O)NCCCCNC(=O)c1ccc(-c2c3nc(c(-c4ccccc4)c4ccc([nH]4)c(-c4ccccc4)c4nc(c(-c5ccccc5)c5ccc2[nH]5)C=C4)C=C3)cc1
REMARK SMILES IDX 18 1 17 2 16 3 14 4 15 5 13 7 12 8 11 9 1 10 2 11 3 12 4 13
REMARK SMILES IDX 10 14 5 15 6 16 7 17 8 18 9 19 19 20 20 21 21 22 22 23 23 25
REMARK SMILES IDX 24 26 25 27 71 28 26 29 70 30 27 31 28 32 29 33 64 34 30 35
REMARK SMILES IDX 69 36 63 37 65 38 31 39 68 40 62 41 61 42 32 44 54 45 39 46
REMARK SMILES IDX 53 47 40 48 43 49 52 50 66 51 41 52 42 53 51 55 67 56 44 57
REMARK SMILES IDX 33 58 34 59 38 60 35 61 37 62 36 63 55 64 56 65 60 66 57 67
REMARK SMILES IDX 59 68 58 69 45 70 46 71 50 72 47 73 49 74 48 75
REMARK H PARENT 16 6 21 24 65 43 43 54
REMARK Flexibility Score: inf
ROOT
ATOM      1  C   UNL A   1      33.166  28.008  26.762  1.00  0.00     0.023 C 
ENDROOT
BRANCH   1   2
ATOM      2  C   UNL A   1      32.912  26.906  25.721  1.00  0.00     0.116 C 
BRANCH   2   3
ATOM      3  N   UNL A   1      31.962  25.909  26.189  1.00  0.00    -0.353 N 
ATOM      4  C   UNL A   1      32.163  24.643  26.647  1.00  0.00     0.243 C 
ATOM      5  O   UNL A   1      31.226  24.015  27.134  1.00  0.00    -0.270 OA
ATOM      6  H   UNL A   1      31.021  26.196  26.173  1.00  0.00     0.163 HD
BRANCH   4   7
ATOM      7  C   UNL A   1      33.513  24.040  26.637  1.00  0.00     0.072 C 
ATOM      8  C   UNL A   1      34.198  23.792  25.511  1.00  0.00     0.014 C 
BRANCH   8   9
ATOM      9  C   UNL A   1      35.518  23.147  25.486  1.00  0.00    -0.022 A 
ATOM     10  C   UNL A   1      34.570  21.012  24.424  1.00  0.00     0.045 C 
ATOM     11  C   UNL A   1      35.690  21.835  25.001  1.00  0.00    -0.044 A 
ATOM     12  C   UNL A   1      36.958  21.235  25.090  1.00  0.00     0.004 A 
ATOM     13  C   UNL A   1      38.043  21.928  25.626  1.00  0.00     0.013 A 
ATOM     14  C   UNL A   1      36.619  23.834  26.024  1.00  0.00     0.021 A 
ATOM     15  C   UNL A   1      37.888  23.239  26.090  1.00  0.00     0.056 A 
BRANCH  15  16
ATOM     16  C   UNL A   1      39.064  23.976  26.679  1.00  0.00     0.416 C 
ATOM     17  F   UNL A   1      38.781  24.514  27.898  1.00  0.00    -0.166 F 
ATOM     18  F   UNL A   1      40.144  23.167  26.870  1.00  0.00    -0.166 F 
ATOM     19  F   UNL A   1      39.505  25.008  25.908  1.00  0.00    -0.166 F 
ENDBRANCH  15  16
ENDBRANCH   8   9
ENDBRANCH   4   7
ENDBRANCH   2   3
ENDBRANCH   1   2
BRANCH   1  20
ATOM     20  C   UNL A   1      34.444  28.821  26.534  1.00  0.00     0.023 C 
BRANCH  20  21
ATOM     21  C   UNL A   1      34.699  29.872  27.604  1.00  0.00     0.116 C 
BRANCH  21  22
ATOM     22  N   UNL A   1      33.911  31.089  27.463  1.00  0.00    -0.352 N 
ATOM     23  C   UNL A   1      34.027  32.306  28.123  1.00  0.00     0.251 C 
ATOM     24  H   UNL A   1      33.186  31.043  26.798  1.00  0.00     0.163 HD
ATOM     25  O   UNL A   1      33.216  33.190  27.919  1.00  0.00    -0.269 OA
BRANCH  23  26
ATOM     26  C   UNL A   1      35.234  32.582  28.951  1.00  0.00     0.039 A 
ATOM     27  C   UNL A   1      36.299  33.243  28.324  1.00  0.00     0.014 A 
ATOM     28  C   UNL A   1      35.424  31.976  30.187  1.00  0.00     0.014 A 
ATOM     29  C   UNL A   1      37.595  33.019  28.775  1.00  0.00     0.010 A 
ATOM     30  C   UNL A   1      36.710  31.654  30.567  1.00  0.00     0.010 A 
ATOM     31  C   UNL A   1      37.790  32.095  29.799  1.00  0.00    -0.014 A 
BRANCH  31  32
ATOM     32  C   UNL A   1      39.056  31.399  30.002  1.00  0.00     0.031 A 
ATOM     33  C   UNL A   1      39.280  30.062  29.407  1.00  0.00     0.074 A 
ATOM     34  C   UNL A   1      40.061  32.034  30.655  1.00  0.00     0.049 A 
ATOM     35  N   UNL A   1      40.140  29.202  29.843  1.00  0.00    -0.248 NA
ATOM     36  C   UNL A   1      38.495  29.561  28.283  1.00  0.00     0.031 C 
ATOM     37  C   UNL A   1      41.460  31.614  30.723  1.00  0.00     0.029 A 
ATOM     38  N   UNL A   1      40.005  33.103  31.557  1.00  0.00    -0.354 N 
ATOM     39  C   UNL A   1      40.265  28.224  28.881  1.00  0.00     0.074 A 
ATOM     40  C   UNL A   1      39.137  28.423  28.003  1.00  0.00     0.031 C 
ATOM     41  C   UNL A   1      42.021  32.168  31.810  1.00  0.00     0.029 A 
ATOM     42  C   UNL A   1      40.950  32.811  32.553  1.00  0.00     0.049 A 
ATOM     43  H   UNL A   1      39.423  33.896  31.505  1.00  0.00     0.167 HD
ATOM     44  C   UNL A   1      41.400  27.469  28.836  1.00  0.00     0.031 A 
ATOM     45  C   UNL A   1      40.640  32.537  33.857  1.00  0.00     0.031 A 
ATOM     46  C   UNL A   1      42.272  27.732  29.983  1.00  0.00     0.049 A 
ATOM     47  C   UNL A   1      41.151  31.186  34.330  1.00  0.00     0.074 A 
ATOM     48  C   UNL A   1      43.444  28.456  30.134  1.00  0.00     0.029 A 
ATOM     49  N   UNL A   1      41.813  27.457  31.267  1.00  0.00    -0.354 N 
ATOM     50  N   UNL A   1      41.529  30.234  33.521  1.00  0.00    -0.248 NA
ATOM     51  C   UNL A   1      41.216  30.770  35.732  1.00  0.00     0.031 C 
ATOM     52  C   UNL A   1      43.639  28.691  31.520  1.00  0.00     0.029 A 
ATOM     53  C   UNL A   1      42.605  28.083  32.211  1.00  0.00     0.049 A 
ATOM     54  H   UNL A   1      41.033  26.894  31.475  1.00  0.00     0.167 HD
ATOM     55  C   UNL A   1      41.877  29.122  34.238  1.00  0.00     0.074 A 
ATOM     56  C   UNL A   1      41.672  29.508  35.622  1.00  0.00     0.031 C 
ATOM     57  C   UNL A   1      42.287  27.971  33.628  1.00  0.00     0.031 A 
BRANCH  44  58
ATOM     58  C   UNL A   1      41.867  26.731  27.594  1.00  0.00    -0.014 A 
ATOM     59  C   UNL A   1      42.393  25.430  27.716  1.00  0.00     0.009 A 
ATOM     60  C   UNL A   1      41.899  27.274  26.298  1.00  0.00     0.009 A 
ATOM     61  C   UNL A   1      43.005  24.765  26.641  1.00  0.00     0.001 A 
ATOM     62  C   UNL A   1      42.532  26.631  25.225  1.00  0.00     0.001 A 
ATOM     63  C   UNL A   1      43.101  25.379  25.401  1.00  0.00     0.000 A 
ENDBRANCH  44  58
BRANCH  45  64
ATOM     64  C   UNL A   1      39.387  33.168  34.352  1.00  0.00    -0.014 A 
ATOM     65  C   UNL A   1      38.155  32.601  33.979  1.00  0.00     0.009 A 
ATOM     66  C   UNL A   1      39.412  34.071  35.424  1.00  0.00     0.009 A 
ATOM     67  C   UNL A   1      37.000  32.838  34.731  1.00  0.00     0.001 A 
ATOM     68  C   UNL A   1      38.251  34.312  36.170  1.00  0.00     0.001 A 
ATOM     69  C   UNL A   1      37.057  33.668  35.847  1.00  0.00     0.000 A 
ENDBRANCH  45  64
BRANCH  57  70
ATOM     70  C   UNL A   1      42.489  26.637  34.298  1.00  0.00    -0.014 A 
ATOM     71  C   UNL A   1      41.532  26.010  35.107  1.00  0.00     0.009 A 
ATOM     72  C   UNL A   1      43.647  25.889  33.989  1.00  0.00     0.009 A 
ATOM     73  C   UNL A   1      41.741  24.719  35.613  1.00  0.00     0.001 A 
ATOM     74  C   UNL A   1      43.840  24.586  34.454  1.00  0.00     0.001 A 
ATOM     75  C   UNL A   1      42.888  24.005  35.278  1.00  0.00     0.000 A 
ENDBRANCH  57  70
ENDBRANCH  31  32
ENDBRANCH  23  26
ENDBRANCH  21  22
ENDBRANCH  20  21
ENDBRANCH   1  20
TORSDOF 13
ENDMDL
MODEL 2
REMARK VINA RESULT:     -11.0      3.971      8.905
REMARK SMILES Cc1ccc(C(F)(F)F)cc1/C=C/C(=O)NCCCCNC(=O)c1ccc(-c2c3nc(c(-c4ccccc4)c4ccc([nH]4)c(-c4ccccc4)c4nc(c(-c5ccccc5)c5ccc2[nH]5)C=C4)C=C3)cc1
REMARK SMILES IDX 18 1 17 2 16 3 14 4 15 5 13 7 12 8 11 9 1 10 2 11 3 12 4 13
REMARK SMILES IDX 10 14 5 15 6 16 7 17 8 18 9 19 19 20 20 21 21 22 22 23 23 25
REMARK SMILES IDX 24 26 25 27 71 28 26 29 70 30 27 31 28 32 29 33 64 34 30 35
REMARK SMILES IDX 69 36 63 37 65 38 31 39 68 40 62 41 61 42 32 44 54 45 39 46
REMARK SMILES IDX 53 47 40 48 43 49 52 50 66 51 41 52 42 53 51 55 67 56 44 57
REMARK SMILES IDX 33 58 34 59 38 60 35 61 37 62 36 63 55 64 56 65 60 66 57 67
REMARK SMILES IDX 59 68 58 69 45 70 46 71 50 72 47 73 49 74 48 75
REMARK H PARENT 16 6 21 24 65 43 43 54
REMARK Flexibility Score: inf
ROOT
ATOM      1  C   UNL A   1      37.548  21.086  25.152  1.00  0.00     0.023 C 
ENDROOT
BRANCH   1   2
ATOM      2  C   UNL A   1      36.019  21.084  24.993  1.00  0.00     0.116 C 
BRANCH   2   3
ATOM      3  N   UNL A   1      35.329  21.057  26.272  1.00  0.00    -0.353 N 
ATOM      4  C   UNL A   1      34.345  21.858  26.763  1.00  0.00     0.243 C 
ATOM      5  O   UNL A   1      33.795  21.569  27.823  1.00  0.00    -0.270 OA
ATOM      6  H   UNL A   1      35.621  20.343  26.883  1.00  0.00     0.163 HD
BRANCH   4   7
ATOM      7  C   UNL A   1      33.874  23.033  25.998  1.00  0.00     0.072 C 
ATOM      8  C   UNL A   1      34.480  24.229  26.041  1.00  0.00     0.014 C 
BRANCH   8   9
ATOM      9  C   UNL A   1      33.992  25.416  25.326  1.00  0.00    -0.022 A 
ATOM     10  C   UNL A   1      34.294  24.294  23.039  1.00  0.00     0.045 C 
ATOM     11  C   UNL A   1      33.928  25.458  23.920  1.00  0.00    -0.044 A 
ATOM     12  C   UNL A   1      33.544  26.654  23.289  1.00  0.00     0.004 A 
ATOM     13  C   UNL A   1      33.204  27.781  24.036  1.00  0.00     0.013 A 
ATOM     14  C   UNL A   1      33.648  26.560  26.068  1.00  0.00     0.021 A 
ATOM     15  C   UNL A   1      33.244  27.744  25.433  1.00  0.00     0.056 A 
BRANCH  15  16
ATOM     16  C   UNL A   1      32.886  28.972  26.233  1.00  0.00     0.416 C 
ATOM     17  F   UNL A   1      33.254  28.864  27.540  1.00  0.00    -0.166 F 
ATOM     18  F   UNL A   1      33.499  30.095  25.764  1.00  0.00    -0.166 F 
ATOM     19  F   UNL A   1      31.553  29.251  26.241  1.00  0.00    -0.166 F 
ENDBRANCH  15  16
ENDBRANCH   8   9
ENDBRANCH   4   7
ENDBRANCH   2   3
ENDBRANCH   1   2
BRANCH   1  20
ATOM     20  C   UNL A   1      38.133  22.391  25.700  1.00  0.00     0.023 C 
BRANCH  20  21
ATOM     21  C   UNL A   1      39.450  22.207  26.441  1.00  0.00     0.116 C 
BRANCH  21  22
ATOM     22  N   UNL A   1      40.225  21.044  26.026  1.00  0.00    -0.352 N 
ATOM     23  C   UNL A   1      41.597  20.828  26.069  1.00  0.00     0.251 C 
ATOM     24  H   UNL A   1      39.697  20.299  25.659  1.00  0.00     0.163 HD
ATOM     25  O   UNL A   1      42.068  19.809  25.599  1.00  0.00    -0.269 OA
BRANCH  23  26
ATOM     26  C   UNL A   1      42.466  21.764  26.835  1.00  0.00     0.039 A 
ATOM     27  C   UNL A   1      42.337  21.754  28.230  1.00  0.00     0.014 A 
ATOM     28  C   UNL A   1      43.159  22.792  26.208  1.00  0.00     0.014 A 
ATOM     29  C   UNL A   1      42.617  22.914  28.944  1.00  0.00     0.010 A 
ATOM     30  C   UNL A   1      43.325  23.980  26.890  1.00  0.00     0.010 A 
ATOM     31  C   UNL A   1      42.959  24.063  28.235  1.00  0.00    -0.014 A 
BRANCH  31  32
ATOM     32  C   UNL A   1      42.769  25.406  28.771  1.00  0.00     0.031 A 
ATOM     33  C   UNL A   1      41.609  26.225  28.351  1.00  0.00     0.074 A 
ATOM     34  C   UNL A   1      43.608  25.855  29.737  1.00  0.00     0.049 A 
ATOM     35  N   UNL A   1      41.563  27.515  28.416  1.00  0.00    -0.248 NA
ATOM     36  C   UNL A   1      40.408  25.641  27.760  1.00  0.00     0.031 C 
ATOM     37  C   UNL A   1      43.424  27.043  30.571  1.00  0.00     0.029 A 
ATOM     38  N   UNL A   1      44.908  25.442  30.055  1.00  0.00    -0.354 N 
ATOM     39  C   UNL A   1      40.251  27.887  28.220  1.00  0.00     0.074 A 
ATOM     40  C   UNL A   1      39.607  26.709  27.691  1.00  0.00     0.031 C 
ATOM     41  C   UNL A   1      44.625  27.436  31.028  1.00  0.00     0.029 A 
ATOM     42  C   UNL A   1      45.618  26.615  30.356  1.00  0.00     0.049 A 
ATOM     43  H   UNL A   1      45.252  24.520  30.064  1.00  0.00     0.167 HD
ATOM     44  C   UNL A   1      39.819  29.093  28.689  1.00  0.00     0.031 A 
ATOM     45  C   UNL A   1      46.652  27.107  29.606  1.00  0.00     0.031 A 
ATOM     46  C   UNL A   1      40.925  29.901  29.207  1.00  0.00     0.049 A 
ATOM     47  C   UNL A   1      46.418  28.525  29.112  1.00  0.00     0.074 A 
ATOM     48  C   UNL A   1      41.358  30.202  30.489  1.00  0.00     0.029 A 
ATOM     49  N   UNL A   1      41.945  30.294  28.346  1.00  0.00    -0.354 N 
ATOM     50  N   UNL A   1      45.246  29.097  29.087  1.00  0.00    -0.248 NA
ATOM     51  C   UNL A   1      47.459  29.386  28.549  1.00  0.00     0.031 C 
ATOM     52  C   UNL A   1      42.685  30.697  30.398  1.00  0.00     0.029 A 
ATOM     53  C   UNL A   1      43.045  30.727  29.062  1.00  0.00     0.049 A 
ATOM     54  H   UNL A   1      41.892  30.266  27.364  1.00  0.00     0.167 HD
ATOM     55  C   UNL A   1      45.346  30.345  28.535  1.00  0.00     0.074 A 
ATOM     56  C   UNL A   1      46.756  30.486  28.219  1.00  0.00     0.031 C 
ATOM     57  C   UNL A   1      44.254  31.148  28.368  1.00  0.00     0.031 A 
BRANCH  44  58
ATOM     58  C   UNL A   1      38.361  29.409  28.971  1.00  0.00    -0.014 A 
ATOM     59  C   UNL A   1      37.570  29.999  27.965  1.00  0.00     0.009 A 
ATOM     60  C   UNL A   1      37.724  29.235  30.212  1.00  0.00     0.009 A 
ATOM     61  C   UNL A   1      36.275  30.479  28.214  1.00  0.00     0.001 A 
ATOM     62  C   UNL A   1      36.441  29.736  30.479  1.00  0.00     0.001 A 
ATOM     63  C   UNL A   1      35.721  30.374  29.482  1.00  0.00     0.000 A 
ENDBRANCH  44  58
BRANCH  45  64
ATOM     64  C   UNL A   1      47.426  26.084  28.854  1.00  0.00    -0.014 A 
ATOM     65  C   UNL A   1      47.103  25.853  27.504  1.00  0.00     0.009 A 
ATOM     66  C   UNL A   1      48.653  25.611  29.339  1.00  0.00     0.009 A 
ATOM     67  C   UNL A   1      48.031  25.271  26.635  1.00  0.00     0.001 A 
ATOM     68  C   UNL A   1      49.576  25.020  28.468  1.00  0.00     0.001 A 
ATOM     69  C   UNL A   1      49.281  24.886  27.112  1.00  0.00     0.000 A 
ENDBRANCH  45  64
BRANCH  57  70
ATOM     70  C   UNL A   1      44.214  32.437  27.589  1.00  0.00    -0.014 A 
ATOM     71  C   UNL A   1      44.325  32.518  26.194  1.00  0.00     0.009 A 
ATOM     72  C   UNL A   1      43.901  33.634  28.271  1.00  0.00     0.009 A 
ATOM     73  C   UNL A   1      44.172  33.738  25.522  1.00  0.00     0.001 A 
ATOM     74  C   UNL A   1      43.704  34.844  27.602  1.00  0.00     0.001 A 
ATOM     75  C   UNL A   1      43.851  34.897  26.223  1.00  0.00     0.000 A 
ENDBRANCH  57  70
ENDBRANCH  31  32
ENDBRANCH  23  26
ENDBRANCH  21  22
ENDBRANCH  20  21
ENDBRANCH   1  20
TORSDOF 13
ENDMDL
MODEL 3
REMARK VINA RESULT:     -10.9      3.408      8.390
REMARK SMILES Cc1ccc(C(F)(F)F)cc1/C=C/C(=O)NCCCCNC(=O)c1ccc(-c2c3nc(c(-c4ccccc4)c4ccc([nH]4)c(-c4ccccc4)c4nc(c(-c5ccccc5)c5ccc2[nH]5)C=C4)C=C3)cc1
REMARK SMILES IDX 18 1 17 2 16 3 14 4 15 5 13 7 12 8 11 9 1 10 2 11 3 12 4 13
REMARK SMILES IDX 10 14 5 15 6 16 7 17 8 18 9 19 19 20 20 21 21 22 22 23 23 25
REMARK SMILES IDX 24 26 25 27 71 28 26 29 70 30 27 31 28 32 29 33 64 34 30 35
REMARK SMILES IDX 69 36 63 37 65 38 31 39 68 40 62 41 61 42 32 44 54 45 39 46
REMARK SMILES IDX 53 47 40 48 43 49 52 50 66 51 41 52 42 53 51 55 67 56 44 57
REMARK SMILES IDX 33 58 34 59 38 60 35 61 37 62 36 63 55 64 56 65 60 66 57 67
REMARK SMILES IDX 59 68 58 69 45 70 46 71 50 72 47 73 49 74 48 75
REMARK H PARENT 16 6 21 24 65 43 43 54
REMARK Flexibility Score: inf
ROOT
ATOM      1  C   UNL A   1      37.107  20.488  25.368  1.00  0.00     0.023 C 
ENDROOT
BRANCH   1   2
ATOM      2  C   UNL A   1      35.944  21.493  25.357  1.00  0.00     0.116 C 
BRANCH   2   3
ATOM      3  N   UNL A   1      35.065  21.335  26.504  1.00  0.00    -0.353 N 
ATOM      4  C   UNL A   1      34.227  22.224  27.105  1.00  0.00     0.243 C 
ATOM      5  O   UNL A   1      33.458  21.841  27.982  1.00  0.00    -0.270 OA
ATOM      6  H   UNL A   1      35.077  20.441  26.915  1.00  0.00     0.163 HD
BRANCH   4   7
ATOM      7  C   UNL A   1      34.176  23.634  26.660  1.00  0.00     0.072 C 
ATOM      8  C   UNL A   1      33.544  24.031  25.546  1.00  0.00     0.014 C 
BRANCH   8   9
ATOM      9  C   UNL A   1      33.529  25.419  25.067  1.00  0.00    -0.022 A 
ATOM     10  C   UNL A   1      33.493  24.683  22.610  1.00  0.00     0.045 C 
ATOM     11  C   UNL A   1      33.531  25.727  23.692  1.00  0.00    -0.044 A 
ATOM     12  C   UNL A   1      33.614  27.073  23.294  1.00  0.00     0.004 A 
ATOM     13  C   UNL A   1      33.668  28.098  24.238  1.00  0.00     0.013 A 
ATOM     14  C   UNL A   1      33.585  26.462  26.008  1.00  0.00     0.021 A 
ATOM     15  C   UNL A   1      33.645  27.804  25.606  1.00  0.00     0.056 A 
BRANCH  15  16
ATOM     16  C   UNL A   1      33.717  28.918  26.619  1.00  0.00     0.416 C 
ATOM     17  F   UNL A   1      32.759  28.807  27.581  1.00  0.00    -0.166 F 
ATOM     18  F   UNL A   1      34.908  28.946  27.281  1.00  0.00    -0.166 F 
ATOM     19  F   UNL A   1      33.562  30.159  26.080  1.00  0.00    -0.166 F 
ENDBRANCH  15  16
ENDBRANCH   8   9
ENDBRANCH   4   7
ENDBRANCH   2   3
ENDBRANCH   1   2
BRANCH   1  20
ATOM     20  C   UNL A   1      38.491  21.108  25.148  1.00  0.00     0.023 C 
BRANCH  20  21
ATOM     21  C   UNL A   1      38.771  22.310  26.039  1.00  0.00     0.116 C 
BRANCH  21  22
ATOM     22  N   UNL A   1      40.162  22.452  26.451  1.00  0.00    -0.352 N 
ATOM     23  C   UNL A   1      40.868  23.590  26.819  1.00  0.00     0.251 C 
ATOM     24  H   UNL A   1      40.679  21.615  26.472  1.00  0.00     0.163 HD
ATOM     25  O   UNL A   1      42.059  23.516  27.059  1.00  0.00    -0.269 OA
BRANCH  23  26
ATOM     26  C   UNL A   1      40.135  24.861  27.077  1.00  0.00     0.039 A 
ATOM     27  C   UNL A   1      40.502  25.974  26.309  1.00  0.00     0.014 A 
ATOM     28  C   UNL A   1      39.336  25.024  28.201  1.00  0.00     0.014 A 
ATOM     29  C   UNL A   1      40.338  27.248  26.842  1.00  0.00     0.010 A 
ATOM     30  C   UNL A   1      39.278  26.272  28.787  1.00  0.00     0.010 A 
ATOM     31  C   UNL A   1      39.870  27.365  28.149  1.00  0.00    -0.014 A 
BRANCH  31  32
ATOM     32  C   UNL A   1      40.137  28.532  28.981  1.00  0.00     0.031 A 
ATOM     33  C   UNL A   1      39.111  29.587  29.145  1.00  0.00     0.074 A 
ATOM     34  C   UNL A   1      41.295  28.590  29.685  1.00  0.00     0.049 A 
ATOM     35  N   UNL A   1      39.365  30.807  29.485  1.00  0.00    -0.248 NA
ATOM     36  C   UNL A   1      37.694  29.353  28.879  1.00  0.00     0.031 C 
ATOM     37  C   UNL A   1      41.619  29.530  30.757  1.00  0.00     0.029 A 
ATOM     38  N   UNL A   1      42.509  27.930  29.463  1.00  0.00    -0.354 N 
ATOM     39  C   UNL A   1      38.164  31.398  29.815  1.00  0.00     0.074 A 
ATOM     40  C   UNL A   1      37.157  30.502  29.299  1.00  0.00     0.031 C 
ATOM     41  C   UNL A   1      42.956  29.618  30.861  1.00  0.00     0.029 A 
ATOM     42  C   UNL A   1      43.512  28.871  29.745  1.00  0.00     0.049 A 
ATOM     43  H   UNL A   1      42.634  26.999  29.168  1.00  0.00     0.167 HD
ATOM     44  C   UNL A   1      38.157  32.487  30.637  1.00  0.00     0.031 A 
ATOM     45  C   UNL A   1      44.367  29.392  28.813  1.00  0.00     0.031 A 
ATOM     46  C   UNL A   1      39.512  32.967  30.913  1.00  0.00     0.049 A 
ATOM     47  C   UNL A   1      44.314  30.909  28.726  1.00  0.00     0.074 A 
ATOM     48  C   UNL A   1      40.349  32.858  32.012  1.00  0.00     0.029 A 
ATOM     49  N   UNL A   1      40.302  33.425  29.863  1.00  0.00    -0.354 N 
ATOM     50  N   UNL A   1      43.336  31.625  29.208  1.00  0.00    -0.248 NA
ATOM     51  C   UNL A   1      45.309  31.733  28.039  1.00  0.00     0.031 C 
ATOM     52  C   UNL A   1      41.669  33.168  31.591  1.00  0.00     0.029 A 
ATOM     53  C   UNL A   1      41.627  33.497  30.248  1.00  0.00     0.049 A 
ATOM     54  H   UNL A   1      39.964  33.664  28.970  1.00  0.00     0.167 HD
ATOM     55  C   UNL A   1      43.540  32.948  28.922  1.00  0.00     0.074 A 
ATOM     56  C   UNL A   1      44.796  32.969  28.193  1.00  0.00     0.031 C 
ATOM     57  C   UNL A   1      42.647  33.912  29.294  1.00  0.00     0.031 A 
BRANCH  44  58
ATOM     58  C   UNL A   1      36.945  32.918  31.444  1.00  0.00    -0.014 A 
ATOM     59  C   UNL A   1      36.760  32.410  32.745  1.00  0.00     0.009 A 
ATOM     60  C   UNL A   1      35.913  33.745  30.968  1.00  0.00     0.009 A 
ATOM     61  C   UNL A   1      35.579  32.625  33.473  1.00  0.00     0.001 A 
ATOM     62  C   UNL A   1      34.717  33.942  31.675  1.00  0.00     0.001 A 
ATOM     63  C   UNL A   1      34.543  33.368  32.924  1.00  0.00     0.000 A 
ENDBRANCH  44  58
BRANCH  45  64
ATOM     64  C   UNL A   1      44.653  28.505  27.655  1.00  0.00    -0.014 A 
ATOM     65  C   UNL A   1      45.501  27.399  27.846  1.00  0.00     0.009 A 
ATOM     66  C   UNL A   1      43.852  28.544  26.505  1.00  0.00     0.009 A 
ATOM     67  C   UNL A   1      45.462  26.306  26.975  1.00  0.00     0.001 A 
ATOM     68  C   UNL A   1      43.822  27.451  25.629  1.00  0.00     0.001 A 
ATOM     69  C   UNL A   1      44.596  26.320  25.884  1.00  0.00     0.000 A 
ENDBRANCH  45  64
BRANCH  57  70
ATOM     70  C   UNL A   1      42.664  35.352  28.853  1.00  0.00    -0.014 A 
ATOM     71  C   UNL A   1      43.283  36.387  29.566  1.00  0.00     0.009 A 
ATOM     72  C   UNL A   1      42.157  35.678  27.575  1.00  0.00     0.009 A 
ATOM     73  C   UNL A   1      43.355  37.687  29.046  1.00  0.00     0.001 A 
ATOM     74  C   UNL A   1      42.265  36.960  27.034  1.00  0.00     0.001 A 
ATOM     75  C   UNL A   1      42.856  37.971  27.778  1.00  0.00     0.000 A 
ENDBRANCH  57  70
ENDBRANCH  31  32
ENDBRANCH  23  26
ENDBRANCH  21  22
ENDBRANCH  20  21
ENDBRANCH   1  20
TORSDOF 13
ENDMDL
