MODEL 1
REMARK VINA RESULT:     -12.3      0.000      0.000
REMARK SMILES Cc1cc2c(cc1C(=O)c1ccccc1C(=O)NCCCCNC(=O)c1ccc(-c3c4nc(c(-c5ccccc5)c5ccc([nH]5)c(-c5ccccc5)c5nc(c(-c6ccccc6)c6ccc3[nH]6)C=C5)C=C4)cc1)CCCC2
REMARK SMILES IDX 20 1 19 2 18 3 16 4 17 5 15 7 10 8 11 9 12 10 14 11 13 12
REMARK SMILES IDX 8 13 9 14 7 15 1 16 2 17 3 18 4 19 6 20 5 21 77 22 74 23
REMARK SMILES IDX 76 24 75 25 21 26 22 27 23 28 24 29 25 31 26 32 27 33 73 34
REMARK SMILES IDX 28 35 72 36 29 37 30 38 31 39 66 40 32 41 71 42 65 43 67 44
REMARK SMILES IDX 33 45 70 46 64 47 63 48 34 50 56 51 41 52 55 53 42 54 45 55
REMARK SMILES IDX 54 56 68 57 43 58 44 59 53 61 69 62 46 63 35 64 36 65 40 66
REMARK SMILES IDX 37 67 39 68 38 69 57 70 58 71 62 72 59 73 61 74 60 75 47 76
REMARK SMILES IDX 48 77 52 78 49 79 51 80 50 81
REMARK H PARENT 18 6 23 30 67 49 45 60
REMARK Flexibility Score: inf
ROOT
ATOM      1  C   UNL A   1      31.751  28.855  26.143  1.00  0.00     0.023 C 
ENDROOT
BRANCH   1   2
ATOM      2  C   UNL A   1      32.522  27.648  26.653  1.00  0.00     0.116 C 
BRANCH   2   3
ATOM      3  N   UNL A   1      31.776  26.479  27.009  1.00  0.00    -0.352 N 
ATOM      4  C   UNL A   1      31.957  25.171  26.631  1.00  0.00     0.252 C 
ATOM      5  O   UNL A   1      31.185  24.360  27.155  1.00  0.00    -0.269 OA
ATOM      6  H   UNL A   1      31.018  26.637  27.618  1.00  0.00     0.163 HD
BRANCH   4   7
ATOM      7  C   UNL A   1      32.926  24.644  25.605  1.00  0.00     0.050 A 
ATOM      8  C   UNL A   1      32.884  24.677  24.197  1.00  0.00     0.035 A 
ATOM      9  C   UNL A   1      34.023  24.341  23.433  1.00  0.00     0.013 A 
ATOM     10  C   UNL A   1      35.175  23.851  24.040  1.00  0.00     0.001 A 
ATOM     11  C   UNL A   1      34.113  24.131  26.185  1.00  0.00     0.014 A 
ATOM     12  C   UNL A   1      35.211  23.722  25.420  1.00  0.00     0.001 A 
BRANCH   8  13
ATOM     13  C   UNL A   1      31.744  25.094  23.375  1.00  0.00     0.194 C 
ATOM     14  O   UNL A   1      31.124  24.195  22.810  1.00  0.00    -0.289 OA
BRANCH  13  15
ATOM     15  C   UNL A   1      31.345  26.552  23.202  1.00  0.00     0.026 A 
ATOM     16  C   UNL A   1      33.587  27.498  22.285  1.00  0.00     0.045 C 
ATOM     17  C   UNL A   1      32.137  27.597  22.671  1.00  0.00    -0.040 A 
ATOM     18  C   UNL A   1      31.533  28.848  22.424  1.00  0.00     0.008 A 
ATOM     19  C   UNL A   1      30.163  29.066  22.599  1.00  0.00    -0.044 A 
ATOM     20  C   UNL A   1      29.971  26.805  23.428  1.00  0.00     0.016 A 
ATOM     21  C   UNL A   1      29.368  28.029  23.096  1.00  0.00    -0.044 A 
ATOM     22  C   UNL A   1      29.587  30.425  22.288  1.00  0.00     0.036 C 
ATOM     23  C   UNL A   1      27.863  28.154  23.145  1.00  0.00     0.036 C 
ATOM     24  C   UNL A   1      28.085  30.390  22.023  1.00  0.00     0.005 C 
ATOM     25  C   UNL A   1      27.370  29.599  23.111  1.00  0.00     0.005 C 
ENDBRANCH  13  15
ENDBRANCH   8  13
ENDBRANCH   4   7
ENDBRANCH   2   3
ENDBRANCH   1   2
BRANCH   1  26
ATOM     26  C   UNL A   1      32.530  30.149  25.954  1.00  0.00     0.023 C 
BRANCH  26  27
ATOM     27  C   UNL A   1      33.005  30.864  27.215  1.00  0.00     0.116 C 
BRANCH  27  28
ATOM     28  N   UNL A   1      32.482  32.215  27.395  1.00  0.00    -0.352 N 
ATOM     29  C   UNL A   1      33.024  33.331  27.997  1.00  0.00     0.251 C 
ATOM     30  H   UNL A   1      31.583  32.354  27.019  1.00  0.00     0.163 HD
ATOM     31  O   UNL A   1      32.373  34.370  28.069  1.00  0.00    -0.269 OA
BRANCH  29  32
ATOM     32  C   UNL A   1      34.361  33.264  28.628  1.00  0.00     0.039 A 
ATOM     33  C   UNL A   1      35.495  33.688  27.943  1.00  0.00     0.014 A 
ATOM     34  C   UNL A   1      34.492  32.690  29.897  1.00  0.00     0.014 A 
ATOM     35  C   UNL A   1      36.745  33.267  28.374  1.00  0.00     0.010 A 
ATOM     36  C   UNL A   1      35.764  32.387  30.396  1.00  0.00     0.010 A 
ATOM     37  C   UNL A   1      36.897  32.583  29.592  1.00  0.00    -0.014 A 
BRANCH  37  38
ATOM     38  C   UNL A   1      38.234  32.037  29.959  1.00  0.00     0.031 A 
ATOM     39  C   UNL A   1      39.077  32.698  31.025  1.00  0.00     0.074 A 
ATOM     40  C   UNL A   1      38.647  30.875  29.412  1.00  0.00     0.049 A 
ATOM     41  N   UNL A   1      40.234  32.318  31.510  1.00  0.00    -0.248 NA
ATOM     42  C   UNL A   1      38.566  33.942  31.623  1.00  0.00     0.031 C 
ATOM     43  C   UNL A   1      37.915  30.118  28.394  1.00  0.00     0.029 A 
ATOM     44  N   UNL A   1      39.748  30.100  29.674  1.00  0.00    -0.354 N 
ATOM     45  C   UNL A   1      40.598  33.288  32.438  1.00  0.00     0.074 A 
ATOM     46  C   UNL A   1      39.554  34.286  32.436  1.00  0.00     0.031 C 
ATOM     47  C   UNL A   1      38.534  28.947  28.189  1.00  0.00     0.029 A 
ATOM     48  C   UNL A   1      39.751  28.905  28.993  1.00  0.00     0.049 A 
ATOM     49  H   UNL A   1      40.467  30.372  30.289  1.00  0.00     0.167 HD
ATOM     50  C   UNL A   1      41.698  33.338  33.228  1.00  0.00     0.031 A 
ATOM     51  C   UNL A   1      40.631  27.887  29.002  1.00  0.00     0.031 A 
ATOM     52  C   UNL A   1      42.724  32.330  33.260  1.00  0.00     0.049 A 
ATOM     53  C   UNL A   1      41.854  27.980  29.864  1.00  0.00     0.074 A 
ATOM     54  C   UNL A   1      43.867  32.293  34.039  1.00  0.00     0.029 A 
ATOM     55  N   UNL A   1      42.725  31.179  32.490  1.00  0.00    -0.354 N 
ATOM     56  N   UNL A   1      42.191  28.919  30.714  1.00  0.00    -0.248 NA
ATOM     57  C   UNL A   1      42.825  26.882  29.761  1.00  0.00     0.031 C 
ATOM     58  C   UNL A   1      44.586  31.143  33.706  1.00  0.00     0.029 A 
ATOM     59  C   UNL A   1      43.861  30.435  32.761  1.00  0.00     0.049 A 
ATOM     60  H   UNL A   1      42.023  30.926  31.847  1.00  0.00     0.167 HD
ATOM     61  C   UNL A   1      43.411  28.527  31.248  1.00  0.00     0.074 A 
ATOM     62  C   UNL A   1      43.742  27.251  30.646  1.00  0.00     0.031 C 
ATOM     63  C   UNL A   1      44.187  29.173  32.150  1.00  0.00     0.031 A 
BRANCH  50  64
ATOM     64  C   UNL A   1      41.872  34.533  34.125  1.00  0.00    -0.014 A 
ATOM     65  C   UNL A   1      41.349  34.504  35.429  1.00  0.00     0.009 A 
ATOM     66  C   UNL A   1      42.461  35.718  33.658  1.00  0.00     0.009 A 
ATOM     67  C   UNL A   1      41.401  35.639  36.241  1.00  0.00     0.001 A 
ATOM     68  C   UNL A   1      42.535  36.844  34.483  1.00  0.00     0.001 A 
ATOM     69  C   UNL A   1      41.997  36.806  35.769  1.00  0.00     0.000 A 
ENDBRANCH  50  64
BRANCH  51  70
ATOM     70  C   UNL A   1      40.371  26.696  28.154  1.00  0.00    -0.014 A 
ATOM     71  C   UNL A   1      40.878  26.629  26.845  1.00  0.00     0.009 A 
ATOM     72  C   UNL A   1      39.563  25.649  28.622  1.00  0.00     0.009 A 
ATOM     73  C   UNL A   1      40.553  25.558  26.011  1.00  0.00     0.001 A 
ATOM     74  C   UNL A   1      39.265  24.563  27.794  1.00  0.00     0.001 A 
ATOM     75  C   UNL A   1      39.750  24.524  26.488  1.00  0.00     0.000 A 
ENDBRANCH  51  70
BRANCH  63  76
ATOM     76  C   UNL A   1      45.479  28.522  32.550  1.00  0.00    -0.014 A 
ATOM     77  C   UNL A   1      46.646  28.772  31.810  1.00  0.00     0.009 A 
ATOM     78  C   UNL A   1      45.522  27.594  33.601  1.00  0.00     0.009 A 
ATOM     79  C   UNL A   1      47.830  28.096  32.108  1.00  0.00     0.001 A 
ATOM     80  C   UNL A   1      46.715  26.938  33.913  1.00  0.00     0.001 A 
ATOM     81  C   UNL A   1      47.864  27.183  33.161  1.00  0.00     0.000 A 
ENDBRANCH  63  76
ENDBRANCH  37  38
ENDBRANCH  29  32
ENDBRANCH  27  28
ENDBRANCH  26  27
ENDBRANCH   1  26
TORSDOF 13
ENDMDL
MODEL 2
REMARK VINA RESULT:     -12.3      0.497      5.882
REMARK SMILES Cc1cc2c(cc1C(=O)c1ccccc1C(=O)NCCCCNC(=O)c1ccc(-c3c4nc(c(-c5ccccc5)c5ccc([nH]5)c(-c5ccccc5)c5nc(c(-c6ccccc6)c6ccc3[nH]6)C=C5)C=C4)cc1)CCCC2
REMARK SMILES IDX 20 1 19 2 18 3 16 4 17 5 15 7 10 8 11 9 12 10 14 11 13 12
REMARK SMILES IDX 8 13 9 14 7 15 1 16 2 17 3 18 4 19 6 20 5 21 77 22 74 23
REMARK SMILES IDX 76 24 75 25 21 26 22 27 23 28 24 29 25 31 26 32 27 33 73 34
REMARK SMILES IDX 28 35 72 36 29 37 30 38 31 39 66 40 32 41 71 42 65 43 67 44
REMARK SMILES IDX 33 45 70 46 64 47 63 48 34 50 56 51 41 52 55 53 42 54 45 55
REMARK SMILES IDX 54 56 68 57 43 58 44 59 53 61 69 62 46 63 35 64 36 65 40 66
REMARK SMILES IDX 37 67 39 68 38 69 57 70 58 71 62 72 59 73 61 74 60 75 47 76
REMARK SMILES IDX 48 77 52 78 49 79 51 80 50 81
REMARK H PARENT 18 6 23 30 67 49 45 60
REMARK Flexibility Score: inf
ROOT
ATOM      1  C   UNL A   1      31.632  28.989  26.192  1.00  0.00     0.023 C 
ENDROOT
BRANCH   1   2
ATOM      2  C   UNL A   1      32.201  27.736  26.836  1.00  0.00     0.116 C 
BRANCH   2   3
ATOM      3  N   UNL A   1      31.365  26.576  26.898  1.00  0.00    -0.352 N 
ATOM      4  C   UNL A   1      31.595  25.299  26.447  1.00  0.00     0.252 C 
ATOM      5  O   UNL A   1      30.703  24.482  26.700  1.00  0.00    -0.269 OA
ATOM      6  H   UNL A   1      30.491  26.714  27.330  1.00  0.00     0.163 HD
BRANCH   4   7
ATOM      7  C   UNL A   1      32.761  24.820  25.622  1.00  0.00     0.050 A 
ATOM      8  C   UNL A   1      33.006  24.905  24.237  1.00  0.00     0.035 A 
ATOM      9  C   UNL A   1      34.283  24.609  23.710  1.00  0.00     0.013 A 
ATOM     10  C   UNL A   1      35.296  24.109  24.522  1.00  0.00     0.001 A 
ATOM     11  C   UNL A   1      33.815  24.299  26.414  1.00  0.00     0.014 A 
ATOM     12  C   UNL A   1      35.052  23.930  25.875  1.00  0.00     0.001 A 
BRANCH   8  13
ATOM     13  C   UNL A   1      32.049  25.339  23.215  1.00  0.00     0.194 C 
ATOM     14  O   UNL A   1      31.682  24.482  22.414  1.00  0.00    -0.289 OA
BRANCH  13  15
ATOM     15  C   UNL A   1      31.541  26.771  23.120  1.00  0.00     0.026 A 
ATOM     16  C   UNL A   1      33.711  27.934  22.281  1.00  0.00     0.045 C 
ATOM     17  C   UNL A   1      32.255  27.901  22.657  1.00  0.00    -0.040 A 
ATOM     18  C   UNL A   1      31.559  29.115  22.475  1.00  0.00     0.008 A 
ATOM     19  C   UNL A   1      30.175  29.218  22.649  1.00  0.00    -0.044 A 
ATOM     20  C   UNL A   1      30.151  26.905  23.347  1.00  0.00     0.016 A 
ATOM     21  C   UNL A   1      29.458  28.098  23.078  1.00  0.00    -0.044 A 
ATOM     22  C   UNL A   1      29.499  30.546  22.409  1.00  0.00     0.036 C 
ATOM     23  C   UNL A   1      27.949  28.106  23.119  1.00  0.00     0.036 C 
ATOM     24  C   UNL A   1      28.006  30.412  22.127  1.00  0.00     0.005 C 
ATOM     25  C   UNL A   1      27.347  29.509  23.162  1.00  0.00     0.005 C 
ENDBRANCH  13  15
ENDBRANCH   8  13
ENDBRANCH   4   7
ENDBRANCH   2   3
ENDBRANCH   1   2
BRANCH   1  26
ATOM     26  C   UNL A   1      32.595  30.141  25.941  1.00  0.00     0.023 C 
BRANCH  26  27
ATOM     27  C   UNL A   1      33.124  30.882  27.165  1.00  0.00     0.116 C 
BRANCH  27  28
ATOM     28  N   UNL A   1      32.617  32.241  27.333  1.00  0.00    -0.352 N 
ATOM     29  C   UNL A   1      33.148  33.340  27.975  1.00  0.00     0.251 C 
ATOM     30  H   UNL A   1      31.741  32.401  26.914  1.00  0.00     0.163 HD
ATOM     31  O   UNL A   1      32.513  34.390  28.026  1.00  0.00    -0.269 OA
BRANCH  29  32
ATOM     32  C   UNL A   1      34.450  33.242  28.672  1.00  0.00     0.039 A 
ATOM     33  C   UNL A   1      35.627  33.628  28.040  1.00  0.00     0.014 A 
ATOM     34  C   UNL A   1      34.502  32.677  29.950  1.00  0.00     0.014 A 
ATOM     35  C   UNL A   1      36.843  33.176  28.536  1.00  0.00     0.010 A 
ATOM     36  C   UNL A   1      35.738  32.343  30.513  1.00  0.00     0.010 A 
ATOM     37  C   UNL A   1      36.915  32.500  29.766  1.00  0.00    -0.014 A 
BRANCH  37  38
ATOM     38  C   UNL A   1      38.217  31.921  30.202  1.00  0.00     0.031 A 
ATOM     39  C   UNL A   1      38.717  30.616  29.628  1.00  0.00     0.074 A 
ATOM     40  C   UNL A   1      39.009  32.627  31.035  1.00  0.00     0.049 A 
ATOM     41  N   UNL A   1      39.855  30.004  29.850  1.00  0.00    -0.248 NA
ATOM     42  C   UNL A   1      37.835  29.902  28.691  1.00  0.00     0.031 C 
ATOM     43  C   UNL A   1      38.659  33.916  31.637  1.00  0.00     0.029 A 
ATOM     44  N   UNL A   1      40.288  32.392  31.474  1.00  0.00    -0.354 N 
ATOM     45  C   UNL A   1      39.808  28.827  29.110  1.00  0.00     0.074 A 
ATOM     46  C   UNL A   1      38.524  28.796  28.449  1.00  0.00     0.031 C 
ATOM     47  C   UNL A   1      39.727  34.402  32.284  1.00  0.00     0.029 A 
ATOM     48  C   UNL A   1      40.809  33.424  32.218  1.00  0.00     0.049 A 
ATOM     49  H   UNL A   1      40.784  31.566  31.275  1.00  0.00     0.167 HD
ATOM     50  C   UNL A   1      40.752  27.864  28.984  1.00  0.00     0.031 A 
ATOM     51  C   UNL A   1      42.016  33.573  32.793  1.00  0.00     0.031 A 
ATOM     52  C   UNL A   1      42.046  27.906  29.612  1.00  0.00     0.049 A 
ATOM     53  C   UNL A   1      43.034  32.480  32.662  1.00  0.00     0.074 A 
ATOM     54  C   UNL A   1      43.071  26.979  29.529  1.00  0.00     0.029 A 
ATOM     55  N   UNL A   1      42.497  28.932  30.426  1.00  0.00    -0.354 N 
ATOM     56  N   UNL A   1      42.958  31.365  31.979  1.00  0.00    -0.248 NA
ATOM     57  C   UNL A   1      44.298  32.658  33.390  1.00  0.00     0.031 C 
ATOM     58  C   UNL A   1      44.124  27.420  30.333  1.00  0.00     0.029 A 
ATOM     59  C   UNL A   1      43.778  28.649  30.869  1.00  0.00     0.049 A 
ATOM     60  H   UNL A   1      41.984  29.740  30.655  1.00  0.00     0.167 HD
ATOM     61  C   UNL A   1      44.161  30.707  32.193  1.00  0.00     0.074 A 
ATOM     62  C   UNL A   1      44.961  31.562  33.048  1.00  0.00     0.031 C 
ATOM     63  C   UNL A   1      44.561  29.500  31.728  1.00  0.00     0.031 A 
BRANCH  50  64
ATOM     64  C   UNL A   1      40.428  26.659  28.144  1.00  0.00    -0.014 A 
ATOM     65  C   UNL A   1      40.876  26.600  26.813  1.00  0.00     0.009 A 
ATOM     66  C   UNL A   1      39.604  25.631  28.627  1.00  0.00     0.009 A 
ATOM     67  C   UNL A   1      40.495  25.546  25.981  1.00  0.00     0.001 A 
ATOM     68  C   UNL A   1      39.247  24.563  27.800  1.00  0.00     0.001 A 
ATOM     69  C   UNL A   1      39.684  24.526  26.476  1.00  0.00     0.000 A 
ENDBRANCH  50  64
BRANCH  51  70
ATOM     70  C   UNL A   1      42.311  34.819  33.549  1.00  0.00    -0.014 A 
ATOM     71  C   UNL A   1      41.898  34.957  34.884  1.00  0.00     0.009 A 
ATOM     72  C   UNL A   1      42.949  35.899  32.921  1.00  0.00     0.009 A 
ATOM     73  C   UNL A   1      42.083  36.161  35.564  1.00  0.00     0.001 A 
ATOM     74  C   UNL A   1      43.161  37.093  33.616  1.00  0.00     0.001 A 
ATOM     75  C   UNL A   1      42.719  37.227  34.931  1.00  0.00     0.000 A 
ENDBRANCH  51  70
BRANCH  63  76
ATOM     76  C   UNL A   1      45.924  29.016  32.127  1.00  0.00    -0.014 A 
ATOM     77  C   UNL A   1      46.085  28.280  33.312  1.00  0.00     0.009 A 
ATOM     78  C   UNL A   1      47.059  29.363  31.379  1.00  0.00     0.009 A 
ATOM     79  C   UNL A   1      47.359  27.912  33.747  1.00  0.00     0.001 A 
ATOM     80  C   UNL A   1      48.330  28.971  31.804  1.00  0.00     0.001 A 
ATOM     81  C   UNL A   1      48.480  28.254  32.991  1.00  0.00     0.000 A 
ENDBRANCH  63  76
ENDBRANCH  37  38
ENDBRANCH  29  32
ENDBRANCH  27  28
ENDBRANCH  26  27
ENDBRANCH   1  26
TORSDOF 13
ENDMDL
MODEL 3
REMARK VINA RESULT:     -12.1      3.194      7.898
REMARK SMILES Cc1cc2c(cc1C(=O)c1ccccc1C(=O)NCCCCNC(=O)c1ccc(-c3c4nc(c(-c5ccccc5)c5ccc([nH]5)c(-c5ccccc5)c5nc(c(-c6ccccc6)c6ccc3[nH]6)C=C5)C=C4)cc1)CCCC2
REMARK SMILES IDX 20 1 19 2 18 3 16 4 17 5 15 7 10 8 11 9 12 10 14 11 13 12
REMARK SMILES IDX 8 13 9 14 7 15 1 16 2 17 3 18 4 19 6 20 5 21 77 22 74 23
REMARK SMILES IDX 76 24 75 25 21 26 22 27 23 28 24 29 25 31 26 32 27 33 73 34
REMARK SMILES IDX 28 35 72 36 29 37 30 38 31 39 66 40 32 41 71 42 65 43 67 44
REMARK SMILES IDX 33 45 70 46 64 47 63 48 34 50 56 51 41 52 55 53 42 54 45 55
REMARK SMILES IDX 54 56 68 57 43 58 44 59 53 61 69 62 46 63 35 64 36 65 40 66
REMARK SMILES IDX 37 67 39 68 38 69 57 70 58 71 62 72 59 73 61 74 60 75 47 76
REMARK SMILES IDX 48 77 52 78 49 79 51 80 50 81
REMARK H PARENT 18 6 23 30 67 49 45 60
REMARK Flexibility Score: inf
ROOT
ATOM      1  C   UNL A   1      36.782  22.749  24.433  1.00  0.00     0.023 C 
ENDROOT
BRANCH   1   2
ATOM      2  C   UNL A   1      36.189  23.618  25.530  1.00  0.00     0.116 C 
BRANCH   2   3
ATOM      3  N   UNL A   1      35.562  22.963  26.637  1.00  0.00    -0.352 N 
ATOM      4  C   UNL A   1      34.363  22.295  26.702  1.00  0.00     0.252 C 
ATOM      5  O   UNL A   1      34.109  21.773  27.793  1.00  0.00    -0.269 OA
ATOM      6  H   UNL A   1      36.066  22.998  27.483  1.00  0.00     0.163 HD
BRANCH   4   7
ATOM      7  C   UNL A   1      33.312  22.203  25.626  1.00  0.00     0.050 A 
ATOM      8  C   UNL A   1      32.210  23.034  25.343  1.00  0.00     0.035 A 
ATOM      9  C   UNL A   1      31.496  22.898  24.132  1.00  0.00     0.013 A 
ATOM     10  C   UNL A   1      31.781  21.866  23.243  1.00  0.00     0.001 A 
ATOM     11  C   UNL A   1      33.565  21.160  24.701  1.00  0.00     0.014 A 
ATOM     12  C   UNL A   1      32.803  20.979  23.542  1.00  0.00     0.001 A 
BRANCH   8  13
ATOM     13  C   UNL A   1      31.711  24.126  26.184  1.00  0.00     0.194 C 
ATOM     14  O   UNL A   1      31.493  23.849  27.362  1.00  0.00    -0.289 OA
BRANCH  13  15
ATOM     15  C   UNL A   1      31.452  25.525  25.646  1.00  0.00     0.026 A 
ATOM     16  C   UNL A   1      33.863  26.488  25.792  1.00  0.00     0.045 C 
ATOM     17  C   UNL A   1      32.406  26.544  25.422  1.00  0.00    -0.040 A 
ATOM     18  C   UNL A   1      32.002  27.718  24.748  1.00  0.00     0.008 A 
ATOM     19  C   UNL A   1      30.717  27.870  24.218  1.00  0.00    -0.044 A 
ATOM     20  C   UNL A   1      30.139  25.719  25.152  1.00  0.00     0.016 A 
ATOM     21  C   UNL A   1      29.776  26.856  24.410  1.00  0.00    -0.044 A 
ATOM     22  C   UNL A   1      30.369  29.145  23.488  1.00  0.00     0.036 C 
ATOM     23  C   UNL A   1      28.435  26.893  23.718  1.00  0.00     0.036 C 
ATOM     24  C   UNL A   1      29.180  28.986  22.546  1.00  0.00     0.005 C 
ATOM     25  C   UNL A   1      28.025  28.291  23.257  1.00  0.00     0.005 C 
ENDBRANCH  13  15
ENDBRANCH   8  13
ENDBRANCH   4   7
ENDBRANCH   2   3
ENDBRANCH   1   2
BRANCH   1  26
ATOM     26  C   UNL A   1      37.347  21.397  24.844  1.00  0.00     0.023 C 
BRANCH  26  27
ATOM     27  C   UNL A   1      38.584  21.405  25.736  1.00  0.00     0.116 C 
BRANCH  27  28
ATOM     28  N   UNL A   1      39.434  20.223  25.627  1.00  0.00    -0.352 N 
ATOM     29  C   UNL A   1      40.748  20.007  25.986  1.00  0.00     0.251 C 
ATOM     30  H   UNL A   1      38.991  19.441  25.225  1.00  0.00     0.163 HD
ATOM     31  O   UNL A   1      41.280  18.923  25.756  1.00  0.00    -0.269 OA
BRANCH  29  32
ATOM     32  C   UNL A   1      41.550  21.100  26.579  1.00  0.00     0.039 A 
ATOM     33  C   UNL A   1      41.701  21.206  27.958  1.00  0.00     0.014 A 
ATOM     34  C   UNL A   1      42.091  22.084  25.745  1.00  0.00     0.014 A 
ATOM     35  C   UNL A   1      42.106  22.416  28.505  1.00  0.00     0.010 A 
ATOM     36  C   UNL A   1      42.626  23.251  26.301  1.00  0.00     0.010 A 
ATOM     37  C   UNL A   1      42.547  23.468  27.685  1.00  0.00    -0.014 A 
BRANCH  37  38
ATOM     38  C   UNL A   1      42.853  24.791  28.299  1.00  0.00     0.031 A 
ATOM     39  C   UNL A   1      44.279  25.211  28.569  1.00  0.00     0.074 A 
ATOM     40  C   UNL A   1      41.850  25.668  28.513  1.00  0.00     0.049 A 
ATOM     41  N   UNL A   1      44.724  26.351  29.039  1.00  0.00    -0.248 NA
ATOM     42  C   UNL A   1      45.342  24.235  28.280  1.00  0.00     0.031 C 
ATOM     43  C   UNL A   1      40.432  25.400  28.267  1.00  0.00     0.029 A 
ATOM     44  N   UNL A   1      41.873  26.975  28.929  1.00  0.00    -0.354 N 
ATOM     45  C   UNL A   1      46.106  26.215  29.130  1.00  0.00     0.074 A 
ATOM     46  C   UNL A   1      46.427  24.877  28.690  1.00  0.00     0.031 C 
ATOM     47  C   UNL A   1      39.735  26.531  28.443  1.00  0.00     0.029 A 
ATOM     48  C   UNL A   1      40.640  27.582  28.897  1.00  0.00     0.049 A 
ATOM     49  H   UNL A   1      42.694  27.435  29.222  1.00  0.00     0.167 HD
ATOM     50  C   UNL A   1      47.024  27.124  29.536  1.00  0.00     0.031 A 
ATOM     51  C   UNL A   1      40.267  28.838  29.204  1.00  0.00     0.031 A 
ATOM     52  C   UNL A   1      46.714  28.469  29.943  1.00  0.00     0.049 A 
ATOM     53  C   UNL A   1      41.299  29.817  29.676  1.00  0.00     0.074 A 
ATOM     54  C   UNL A   1      47.584  29.462  30.357  1.00  0.00     0.029 A 
ATOM     55  N   UNL A   1      45.440  29.011  29.975  1.00  0.00    -0.354 N 
ATOM     56  N   UNL A   1      42.596  29.658  29.781  1.00  0.00    -0.248 NA
ATOM     57  C   UNL A   1      40.819  31.143  30.086  1.00  0.00     0.031 C 
ATOM     58  C   UNL A   1      46.832  30.591  30.687  1.00  0.00     0.029 A 
ATOM     59  C   UNL A   1      45.499  30.320  30.422  1.00  0.00     0.049 A 
ATOM     60  H   UNL A   1      44.616  28.537  29.717  1.00  0.00     0.167 HD
ATOM     61  C   UNL A   1      43.087  30.861  30.267  1.00  0.00     0.074 A 
ATOM     62  C   UNL A   1      41.953  31.751  30.411  1.00  0.00     0.031 C 
ATOM     63  C   UNL A   1      44.364  31.193  30.573  1.00  0.00     0.031 A 
BRANCH  50  64
ATOM     64  C   UNL A   1      48.468  26.702  29.580  1.00  0.00    -0.014 A 
ATOM     65  C   UNL A   1      48.983  26.115  30.748  1.00  0.00     0.009 A 
ATOM     66  C   UNL A   1      49.340  26.969  28.514  1.00  0.00     0.009 A 
ATOM     67  C   UNL A   1      50.344  25.817  30.854  1.00  0.00     0.001 A 
ATOM     68  C   UNL A   1      50.696  26.645  28.612  1.00  0.00     0.001 A 
ATOM     69  C   UNL A   1      51.198  26.078  29.784  1.00  0.00     0.000 A 
ENDBRANCH  50  64
BRANCH  51  70
ATOM     70  C   UNL A   1      38.839  29.225  29.069  1.00  0.00    -0.014 A 
ATOM     71  C   UNL A   1      37.957  29.082  30.153  1.00  0.00     0.009 A 
ATOM     72  C   UNL A   1      38.335  29.676  27.840  1.00  0.00     0.009 A 
ATOM     73  C   UNL A   1      36.596  29.349  30.001  1.00  0.00     0.001 A 
ATOM     74  C   UNL A   1      36.976  29.971  27.700  1.00  0.00     0.001 A 
ATOM     75  C   UNL A   1      36.107  29.797  28.776  1.00  0.00     0.000 A 
ENDBRANCH  51  70
BRANCH  63  76
ATOM     76  C   UNL A   1      44.618  32.576  31.098  1.00  0.00    -0.014 A 
ATOM     77  C   UNL A   1      44.527  32.827  32.476  1.00  0.00     0.009 A 
ATOM     78  C   UNL A   1      44.858  33.645  30.223  1.00  0.00     0.009 A 
ATOM     79  C   UNL A   1      44.661  34.127  32.967  1.00  0.00     0.001 A 
ATOM     80  C   UNL A   1      45.017  34.941  30.720  1.00  0.00     0.001 A 
ATOM     81  C   UNL A   1      44.909  35.181  32.090  1.00  0.00     0.000 A 
ENDBRANCH  63  76
ENDBRANCH  37  38
ENDBRANCH  29  32
ENDBRANCH  27  28
ENDBRANCH  26  27
ENDBRANCH   1  26
TORSDOF 13
ENDMDL
