MODEL 1
REMARK VINA RESULT:     -12.6      0.000      0.000
REMARK SMILES NS(=O)(=O)c1ccc(-n2nc(C(F)(F)F)cc2-c2ccc(CC(=O)NCCCCNC(=O)c3ccc(-c4c5nc(c(-c6ccccc6)c6ccc([nH]6)c(-c6ccccc6)c6nc(c(-c7ccccc7)c7ccc4[nH]7)C=C6)C=C5)cc3)cc2)cc1
REMARK SMILES IDX 26 1 25 2 23 3 24 4 22 6 21 7 18 8 19 9 82 10 20 11 81 12
REMARK SMILES IDX 17 13 9 14 10 15 11 16 16 17 8 18 5 19 6 20 84 21 7 22 83 23
REMARK SMILES IDX 2 24 3 25 4 26 1 27 12 30 13 31 14 32 15 33 27 34 28 35
REMARK SMILES IDX 29 36 30 37 31 38 32 40 33 41 34 42 80 43 35 44 79 45 36 46
REMARK SMILES IDX 37 47 38 48 73 49 39 50 78 51 72 52 74 53 40 54 77 55 71 56
REMARK SMILES IDX 70 57 41 59 63 60 48 61 62 62 49 63 52 64 61 65 75 66 50 67
REMARK SMILES IDX 51 68 60 70 76 71 53 72 42 73 43 74 47 75 44 76 46 77 45 78
REMARK SMILES IDX 64 79 65 80 69 81 66 82 68 83 67 84 54 85 55 86 59 87 56 88
REMARK SMILES IDX 58 89 57 90
REMARK H PARENT 25 5 1 28 1 29 30 39 74 58 52 69
REMARK Flexibility Score: inf
ROOT
ATOM      1  C   UNL A   1      31.912  28.404  24.075  1.00  0.00     0.116 C 
ENDROOT
BRANCH   1   2
ATOM      2  N   UNL A   1      31.051  27.654  24.970  1.00  0.00    -0.356 N 
ATOM      3  C   UNL A   1      30.656  26.349  24.895  1.00  0.00     0.224 C 
ATOM      4  O   UNL A   1      29.817  25.951  25.706  1.00  0.00    -0.275 OA
ATOM      5  H   UNL A   1      30.702  28.158  25.741  1.00  0.00     0.163 HD
BRANCH   3   6
ATOM      6  C   UNL A   1      31.283  25.411  23.876  1.00  0.00     0.135 C 
BRANCH   6   7
ATOM      7  C   UNL A   1      32.643  24.888  24.270  1.00  0.00    -0.039 A 
ATOM      8  C   UNL A   1      35.120  23.747  24.983  1.00  0.00     0.000 A 
ATOM      9  C   UNL A   1      34.202  24.139  25.969  1.00  0.00     0.010 A 
ATOM     10  C   UNL A   1      34.814  23.989  23.641  1.00  0.00     0.010 A 
ATOM     11  C   UNL A   1      32.973  24.702  25.617  1.00  0.00     0.005 A 
ATOM     12  C   UNL A   1      33.592  24.565  23.289  1.00  0.00     0.005 A 
BRANCH   8  13
ATOM     13  C   UNL A   1      36.393  23.128  25.351  1.00  0.00     0.075 A 
ATOM     14  N   UNL A   1      36.597  21.771  25.566  1.00  0.00    -0.233 N 
ATOM     15  N   UNL A   1      37.785  21.522  26.168  1.00  0.00    -0.163 NA
ATOM     16  C   UNL A   1      38.452  22.691  26.101  1.00  0.00     0.167 A 
ATOM     17  C   UNL A   1      37.606  23.724  25.630  1.00  0.00     0.064 A 
BRANCH  14  18
ATOM     18  C   UNL A   1      35.774  20.692  25.161  1.00  0.00     0.065 A 
ATOM     19  C   UNL A   1      34.146  18.550  24.454  1.00  0.00     0.082 A 
ATOM     20  C   UNL A   1      33.586  19.811  24.669  1.00  0.00     0.024 A 
ATOM     21  C   UNL A   1      35.530  18.376  24.510  1.00  0.00     0.024 A 
ATOM     22  C   UNL A   1      34.390  20.873  25.082  1.00  0.00     0.030 A 
ATOM     23  C   UNL A   1      36.354  19.464  24.818  1.00  0.00     0.030 A 
BRANCH  19  24
ATOM     24  S   UNL A   1      33.084  17.172  24.128  1.00  0.00     0.238 S 
ATOM     25  O   UNL A   1      31.873  17.309  24.918  1.00  0.00    -0.207 OA
ATOM     26  O   UNL A   1      33.869  15.972  24.097  1.00  0.00    -0.207 OA
BRANCH  24  27
ATOM     27  N   UNL A   1      32.578  17.436  22.541  1.00  0.00    -0.225 NA
ATOM     28  H   UNL A   1      31.570  17.593  22.528  1.00  0.00     0.137 HD
ATOM     29  H   UNL A   1      32.803  16.619  21.973  1.00  0.00     0.137 HD
ENDBRANCH  24  27
ENDBRANCH  19  24
ENDBRANCH  14  18
BRANCH  16  30
ATOM     30  C   UNL A   1      39.897  22.839  26.495  1.00  0.00     0.435 C 
ATOM     31  F   UNL A   1      40.318  24.130  26.500  1.00  0.00    -0.164 F 
ATOM     32  F   UNL A   1      40.141  22.331  27.733  1.00  0.00    -0.164 F 
ATOM     33  F   UNL A   1      40.720  22.167  25.641  1.00  0.00    -0.164 F 
ENDBRANCH  16  30
ENDBRANCH   8  13
ENDBRANCH   6   7
ENDBRANCH   3   6
ENDBRANCH   1   2
BRANCH   1  34
ATOM     34  C   UNL A   1      32.849  29.337  24.846  1.00  0.00     0.023 C 
BRANCH  34  35
ATOM     35  C   UNL A   1      33.639  28.654  25.968  1.00  0.00     0.023 C 
BRANCH  35  36
ATOM     36  C   UNL A   1      33.760  29.461  27.241  1.00  0.00     0.116 C 
BRANCH  36  37
ATOM     37  N   UNL A   1      34.115  30.867  27.018  1.00  0.00    -0.352 N 
ATOM     38  C   UNL A   1      35.172  31.560  27.587  1.00  0.00     0.251 C 
ATOM     39  H   UNL A   1      33.541  31.372  26.397  1.00  0.00     0.163 HD
ATOM     40  O   UNL A   1      35.211  32.782  27.604  1.00  0.00    -0.269 OA
BRANCH  38  41
ATOM     41  C   UNL A   1      36.265  30.763  28.163  1.00  0.00     0.039 A 
ATOM     42  C   UNL A   1      36.395  29.389  27.948  1.00  0.00     0.014 A 
ATOM     43  C   UNL A   1      37.243  31.482  28.841  1.00  0.00     0.014 A 
ATOM     44  C   UNL A   1      37.578  28.765  28.345  1.00  0.00     0.010 A 
ATOM     45  C   UNL A   1      38.475  30.922  29.008  1.00  0.00     0.010 A 
ATOM     46  C   UNL A   1      38.624  29.550  28.853  1.00  0.00    -0.014 A 
BRANCH  46  47
ATOM     47  C   UNL A   1      39.928  28.991  29.184  1.00  0.00     0.031 A 
ATOM     48  C   UNL A   1      40.204  28.820  30.638  1.00  0.00     0.074 A 
ATOM     49  C   UNL A   1      40.709  28.431  28.233  1.00  0.00     0.049 A 
ATOM     50  N   UNL A   1      41.153  29.356  31.329  1.00  0.00    -0.248 NA
ATOM     51  C   UNL A   1      39.257  28.030  31.444  1.00  0.00     0.031 C 
ATOM     52  C   UNL A   1      40.417  28.224  26.804  1.00  0.00     0.029 A 
ATOM     53  N   UNL A   1      41.895  27.789  28.378  1.00  0.00    -0.354 N 
ATOM     54  C   UNL A   1      41.033  28.854  32.623  1.00  0.00     0.074 A 
ATOM     55  C   UNL A   1      39.772  28.156  32.669  1.00  0.00     0.031 C 
ATOM     56  C   UNL A   1      41.257  27.297  26.295  1.00  0.00     0.029 A 
ATOM     57  C   UNL A   1      42.263  26.999  27.295  1.00  0.00     0.049 A 
ATOM     58  H   UNL A   1      42.452  27.877  29.186  1.00  0.00     0.167 HD
ATOM     59  C   UNL A   1      42.074  28.878  33.501  1.00  0.00     0.031 A 
ATOM     60  C   UNL A   1      43.311  26.143  27.237  1.00  0.00     0.031 A 
ATOM     61  C   UNL A   1      43.122  29.759  33.055  1.00  0.00     0.049 A 
ATOM     62  C   UNL A   1      44.243  26.524  28.321  1.00  0.00     0.074 A 
ATOM     63  C   UNL A   1      43.208  31.116  32.816  1.00  0.00     0.029 A 
ATOM     64  N   UNL A   1      44.179  29.190  32.385  1.00  0.00    -0.354 N 
ATOM     65  N   UNL A   1      44.888  27.656  28.342  1.00  0.00    -0.248 NA
ATOM     66  C   UNL A   1      44.088  25.868  29.609  1.00  0.00     0.031 C 
ATOM     67  C   UNL A   1      43.985  31.224  31.625  1.00  0.00     0.029 A 
ATOM     68  C   UNL A   1      44.398  29.940  31.257  1.00  0.00     0.049 A 
ATOM     69  H   UNL A   1      44.684  28.391  32.661  1.00  0.00     0.167 HD
ATOM     70  C   UNL A   1      44.831  28.070  29.665  1.00  0.00     0.074 A 
ATOM     71  C   UNL A   1      44.410  26.885  30.414  1.00  0.00     0.031 C 
ATOM     72  C   UNL A   1      44.846  29.396  29.993  1.00  0.00     0.031 A 
BRANCH  59  73
ATOM     73  C   UNL A   1      42.309  27.843  34.570  1.00  0.00    -0.014 A 
ATOM     74  C   UNL A   1      42.806  26.580  34.198  1.00  0.00     0.009 A 
ATOM     75  C   UNL A   1      41.812  27.964  35.882  1.00  0.00     0.009 A 
ATOM     76  C   UNL A   1      42.747  25.485  35.070  1.00  0.00     0.001 A 
ATOM     77  C   UNL A   1      41.787  26.882  36.768  1.00  0.00     0.001 A 
ATOM     78  C   UNL A   1      42.230  25.635  36.352  1.00  0.00     0.000 A 
ENDBRANCH  59  73
BRANCH  60  79
ATOM     79  C   UNL A   1      43.424  24.862  26.507  1.00  0.00    -0.014 A 
ATOM     80  C   UNL A   1      43.791  24.835  25.154  1.00  0.00     0.009 A 
ATOM     81  C   UNL A   1      43.448  23.648  27.219  1.00  0.00     0.009 A 
ATOM     82  C   UNL A   1      44.208  23.642  24.546  1.00  0.00     0.001 A 
ATOM     83  C   UNL A   1      43.865  22.458  26.612  1.00  0.00     0.001 A 
ATOM     84  C   UNL A   1      44.260  22.458  25.278  1.00  0.00     0.000 A 
ENDBRANCH  60  79
BRANCH  72  85
ATOM     85  C   UNL A   1      45.109  30.396  28.888  1.00  0.00    -0.014 A 
ATOM     86  C   UNL A   1      44.105  30.883  28.031  1.00  0.00     0.009 A 
ATOM     87  C   UNL A   1      46.377  30.990  28.821  1.00  0.00     0.009 A 
ATOM     88  C   UNL A   1      44.372  31.912  27.120  1.00  0.00     0.001 A 
ATOM     89  C   UNL A   1      46.638  32.030  27.927  1.00  0.00     0.001 A 
ATOM     90  C   UNL A   1      45.638  32.489  27.073  1.00  0.00     0.000 A 
ENDBRANCH  72  85
ENDBRANCH  46  47
ENDBRANCH  38  41
ENDBRANCH  36  37
ENDBRANCH  35  36
ENDBRANCH  34  35
ENDBRANCH   1  34
TORSDOF 17
ENDMDL
MODEL 2
REMARK VINA RESULT:     -12.2      4.046      6.529
REMARK SMILES NS(=O)(=O)c1ccc(-n2nc(C(F)(F)F)cc2-c2ccc(CC(=O)NCCCCNC(=O)c3ccc(-c4c5nc(c(-c6ccccc6)c6ccc([nH]6)c(-c6ccccc6)c6nc(c(-c7ccccc7)c7ccc4[nH]7)C=C6)C=C5)cc3)cc2)cc1
REMARK SMILES IDX 26 1 25 2 23 3 24 4 22 6 21 7 18 8 19 9 82 10 20 11 81 12
REMARK SMILES IDX 17 13 9 14 10 15 11 16 16 17 8 18 5 19 6 20 84 21 7 22 83 23
REMARK SMILES IDX 2 24 3 25 4 26 1 27 12 30 13 31 14 32 15 33 27 34 28 35
REMARK SMILES IDX 29 36 30 37 31 38 32 40 33 41 34 42 80 43 35 44 79 45 36 46
REMARK SMILES IDX 37 47 38 48 73 49 39 50 78 51 72 52 74 53 40 54 77 55 71 56
REMARK SMILES IDX 70 57 41 59 63 60 48 61 62 62 49 63 52 64 61 65 75 66 50 67
REMARK SMILES IDX 51 68 60 70 76 71 53 72 42 73 43 74 47 75 44 76 46 77 45 78
REMARK SMILES IDX 64 79 65 80 69 81 66 82 68 83 67 84 54 85 55 86 59 87 56 88
REMARK SMILES IDX 58 89 57 90
REMARK H PARENT 25 5 1 28 1 29 30 39 74 58 52 69
REMARK Flexibility Score: inf
ROOT
ATOM      1  C   UNL A   1      35.771  31.087  31.055  1.00  0.00     0.116 C 
ENDROOT
BRANCH   1   2
ATOM      2  N   UNL A   1      35.719  31.905  29.858  1.00  0.00    -0.356 N 
ATOM      3  C   UNL A   1      35.663  31.515  28.550  1.00  0.00     0.224 C 
ATOM      4  O   UNL A   1      35.749  32.387  27.683  1.00  0.00    -0.275 OA
ATOM      5  H   UNL A   1      35.726  32.877  30.010  1.00  0.00     0.163 HD
BRANCH   3   6
ATOM      6  C   UNL A   1      35.442  30.055  28.188  1.00  0.00     0.135 C 
BRANCH   6   7
ATOM      7  C   UNL A   1      34.270  29.816  27.267  1.00  0.00    -0.039 A 
ATOM      8  C   UNL A   1      32.147  29.496  25.441  1.00  0.00     0.000 A 
ATOM      9  C   UNL A   1      31.995  30.298  26.582  1.00  0.00     0.010 A 
ATOM     10  C   UNL A   1      33.348  28.806  25.256  1.00  0.00     0.010 A 
ATOM     11  C   UNL A   1      33.047  30.460  27.486  1.00  0.00     0.005 A 
ATOM     12  C   UNL A   1      34.396  28.955  26.167  1.00  0.00     0.005 A 
BRANCH   8  13
ATOM     13  C   UNL A   1      31.056  29.354  24.477  1.00  0.00     0.075 A 
ATOM     14  N   UNL A   1      30.594  28.152  23.955  1.00  0.00    -0.233 N 
ATOM     15  N   UNL A   1      29.785  28.339  22.884  1.00  0.00    -0.163 NA
ATOM     16  C   UNL A   1      29.522  29.660  22.882  1.00  0.00     0.167 A 
ATOM     17  C   UNL A   1      30.322  30.332  23.838  1.00  0.00     0.064 A 
BRANCH  14  18
ATOM     18  C   UNL A   1      30.804  26.846  24.459  1.00  0.00     0.065 A 
ATOM     19  C   UNL A   1      31.277  24.314  25.508  1.00  0.00     0.082 A 
ATOM     20  C   UNL A   1      30.263  25.112  26.041  1.00  0.00     0.024 A 
ATOM     21  C   UNL A   1      32.002  24.747  24.396  1.00  0.00     0.024 A 
ATOM     22  C   UNL A   1      30.061  26.404  25.558  1.00  0.00     0.030 A 
ATOM     23  C   UNL A   1      31.731  26.000  23.837  1.00  0.00     0.030 A 
BRANCH  19  24
ATOM     24  S   UNL A   1      31.649  22.759  26.268  1.00  0.00     0.238 S 
ATOM     25  O   UNL A   1      32.128  22.992  27.618  1.00  0.00    -0.207 OA
ATOM     26  O   UNL A   1      32.339  21.929  25.322  1.00  0.00    -0.207 OA
BRANCH  24  27
ATOM     27  N   UNL A   1      30.131  22.056  26.480  1.00  0.00    -0.225 NA
ATOM     28  H   UNL A   1      30.024  21.277  25.831  1.00  0.00     0.137 HD
ATOM     29  H   UNL A   1      29.407  22.752  26.299  1.00  0.00     0.137 HD
ENDBRANCH  24  27
ENDBRANCH  19  24
ENDBRANCH  14  18
BRANCH  16  30
ATOM     30  C   UNL A   1      28.515  30.299  21.963  1.00  0.00     0.435 C 
ATOM     31  F   UNL A   1      27.805  31.292  22.558  1.00  0.00    -0.164 F 
ATOM     32  F   UNL A   1      29.102  30.830  20.857  1.00  0.00    -0.164 F 
ATOM     33  F   UNL A   1      27.605  29.391  21.510  1.00  0.00    -0.164 F 
ENDBRANCH  16  30
ENDBRANCH   8  13
ENDBRANCH   6   7
ENDBRANCH   3   6
ENDBRANCH   1   2
BRANCH   1  34
ATOM     34  C   UNL A   1      36.117  31.922  32.292  1.00  0.00     0.023 C 
BRANCH  34  35
ATOM     35  C   UNL A   1      37.338  31.421  33.071  1.00  0.00     0.023 C 
BRANCH  35  36
ATOM     36  C   UNL A   1      38.595  32.239  32.877  1.00  0.00     0.116 C 
BRANCH  36  37
ATOM     37  N   UNL A   1      38.470  33.279  31.850  1.00  0.00    -0.352 N 
ATOM     38  C   UNL A   1      39.235  33.413  30.702  1.00  0.00     0.251 C 
ATOM     39  H   UNL A   1      37.767  33.954  31.992  1.00  0.00     0.163 HD
ATOM     40  O   UNL A   1      39.285  34.462  30.075  1.00  0.00    -0.269 OA
BRANCH  38  41
ATOM     41  C   UNL A   1      39.981  32.230  30.250  1.00  0.00     0.039 A 
ATOM     42  C   UNL A   1      41.372  32.132  30.340  1.00  0.00     0.014 A 
ATOM     43  C   UNL A   1      39.209  31.151  29.837  1.00  0.00     0.014 A 
ATOM     44  C   UNL A   1      41.966  30.894  30.097  1.00  0.00     0.010 A 
ATOM     45  C   UNL A   1      39.763  29.905  29.834  1.00  0.00     0.010 A 
ATOM     46  C   UNL A   1      41.146  29.779  29.869  1.00  0.00    -0.014 A 
BRANCH  46  47
ATOM     47  C   UNL A   1      41.685  28.433  29.719  1.00  0.00     0.031 A 
ATOM     48  C   UNL A   1      42.399  27.890  30.909  1.00  0.00     0.074 A 
ATOM     49  C   UNL A   1      41.331  27.651  28.675  1.00  0.00     0.049 A 
ATOM     50  N   UNL A   1      43.629  27.508  30.985  1.00  0.00    -0.248 NA
ATOM     51  C   UNL A   1      41.686  27.853  32.198  1.00  0.00     0.031 C 
ATOM     52  C   UNL A   1      40.367  27.933  27.597  1.00  0.00     0.029 A 
ATOM     53  N   UNL A   1      41.660  26.358  28.432  1.00  0.00    -0.354 N 
ATOM     54  C   UNL A   1      43.816  27.028  32.279  1.00  0.00     0.074 A 
ATOM     55  C   UNL A   1      42.633  27.393  33.019  1.00  0.00     0.031 C 
ATOM     56  C   UNL A   1      40.004  26.780  26.995  1.00  0.00     0.029 A 
ATOM     57  C   UNL A   1      40.850  25.718  27.502  1.00  0.00     0.049 A 
ATOM     58  H   UNL A   1      42.415  25.909  28.878  1.00  0.00     0.167 HD
ATOM     59  C   UNL A   1      44.843  26.190  32.592  1.00  0.00     0.031 A 
ATOM     60  C   UNL A   1      40.862  24.400  27.188  1.00  0.00     0.031 A 
ATOM     61  C   UNL A   1      45.841  26.165  31.554  1.00  0.00     0.049 A 
ATOM     62  C   UNL A   1      42.159  23.857  27.650  1.00  0.00     0.074 A 
ATOM     63  C   UNL A   1      46.690  27.106  31.007  1.00  0.00     0.029 A 
ATOM     64  N   UNL A   1      45.770  25.142  30.638  1.00  0.00    -0.354 N 
ATOM     65  N   UNL A   1      43.303  24.212  27.138  1.00  0.00    -0.248 NA
ATOM     66  C   UNL A   1      42.219  23.293  28.988  1.00  0.00     0.031 C 
ATOM     67  C   UNL A   1      46.670  26.838  29.606  1.00  0.00     0.029 A 
ATOM     68  C   UNL A   1      45.884  25.703  29.391  1.00  0.00     0.049 A 
ATOM     69  H   UNL A   1      45.657  24.185  30.839  1.00  0.00     0.167 HD
ATOM     70  C   UNL A   1      44.154  24.335  28.227  1.00  0.00     0.074 A 
ATOM     71  C   UNL A   1      43.458  23.664  29.327  1.00  0.00     0.031 C 
ATOM     72  C   UNL A   1      45.202  25.212  28.213  1.00  0.00     0.031 A 
BRANCH  59  73
ATOM     73  C   UNL A   1      44.777  25.125  33.655  1.00  0.00    -0.014 A 
ATOM     74  C   UNL A   1      44.343  23.833  33.300  1.00  0.00     0.009 A 
ATOM     75  C   UNL A   1      44.864  25.404  35.032  1.00  0.00     0.009 A 
ATOM     76  C   UNL A   1      43.957  22.900  34.270  1.00  0.00     0.001 A 
ATOM     77  C   UNL A   1      44.516  24.461  36.004  1.00  0.00     0.001 A 
ATOM     78  C   UNL A   1      44.036  23.217  35.622  1.00  0.00     0.000 A 
ENDBRANCH  59  73
BRANCH  60  79
ATOM     79  C   UNL A   1      39.736  23.531  26.786  1.00  0.00    -0.014 A 
ATOM     80  C   UNL A   1      38.492  24.079  26.440  1.00  0.00     0.009 A 
ATOM     81  C   UNL A   1      39.970  22.180  26.467  1.00  0.00     0.009 A 
ATOM     82  C   UNL A   1      37.532  23.313  25.761  1.00  0.00     0.001 A 
ATOM     83  C   UNL A   1      39.013  21.417  25.789  1.00  0.00     0.001 A 
ATOM     84  C   UNL A   1      37.799  21.988  25.423  1.00  0.00     0.000 A 
ENDBRANCH  60  79
BRANCH  72  85
ATOM     85  C   UNL A   1      45.519  25.916  26.912  1.00  0.00    -0.014 A 
ATOM     86  C   UNL A   1      44.925  27.132  26.527  1.00  0.00     0.009 A 
ATOM     87  C   UNL A   1      46.571  25.420  26.131  1.00  0.00     0.009 A 
ATOM     88  C   UNL A   1      45.356  27.814  25.382  1.00  0.00     0.001 A 
ATOM     89  C   UNL A   1      47.016  26.111  25.001  1.00  0.00     0.001 A 
ATOM     90  C   UNL A   1      46.406  27.305  24.623  1.00  0.00     0.000 A 
ENDBRANCH  72  85
ENDBRANCH  46  47
ENDBRANCH  38  41
ENDBRANCH  36  37
ENDBRANCH  35  36
ENDBRANCH  34  35
ENDBRANCH   1  34
TORSDOF 17
ENDMDL
MODEL 3
REMARK VINA RESULT:     -12.0      4.026      6.513
REMARK SMILES NS(=O)(=O)c1ccc(-n2nc(C(F)(F)F)cc2-c2ccc(CC(=O)NCCCCNC(=O)c3ccc(-c4c5nc(c(-c6ccccc6)c6ccc([nH]6)c(-c6ccccc6)c6nc(c(-c7ccccc7)c7ccc4[nH]7)C=C6)C=C5)cc3)cc2)cc1
REMARK SMILES IDX 26 1 25 2 23 3 24 4 22 6 21 7 18 8 19 9 82 10 20 11 81 12
REMARK SMILES IDX 17 13 9 14 10 15 11 16 16 17 8 18 5 19 6 20 84 21 7 22 83 23
REMARK SMILES IDX 2 24 3 25 4 26 1 27 12 30 13 31 14 32 15 33 27 34 28 35
REMARK SMILES IDX 29 36 30 37 31 38 32 40 33 41 34 42 80 43 35 44 79 45 36 46
REMARK SMILES IDX 37 47 38 48 73 49 39 50 78 51 72 52 74 53 40 54 77 55 71 56
REMARK SMILES IDX 70 57 41 59 63 60 48 61 62 62 49 63 52 64 61 65 75 66 50 67
REMARK SMILES IDX 51 68 60 70 76 71 53 72 42 73 43 74 47 75 44 76 46 77 45 78
REMARK SMILES IDX 64 79 65 80 69 81 66 82 68 83 67 84 54 85 55 86 59 87 56 88
REMARK SMILES IDX 58 89 57 90
REMARK H PARENT 25 5 1 28 1 29 30 39 74 58 52 69
REMARK Flexibility Score: inf
ROOT
ATOM      1  C   UNL A   1      35.428  33.044  27.963  1.00  0.00     0.116 C 
ENDROOT
BRANCH   1   2
ATOM      2  N   UNL A   1      36.152  31.787  27.922  1.00  0.00    -0.356 N 
ATOM      3  C   UNL A   1      35.679  30.515  28.069  1.00  0.00     0.224 C 
ATOM      4  O   UNL A   1      36.499  29.595  28.119  1.00  0.00    -0.275 OA
ATOM      5  H   UNL A   1      37.121  31.864  27.766  1.00  0.00     0.163 HD
BRANCH   3   6
ATOM      6  C   UNL A   1      34.183  30.247  28.111  1.00  0.00     0.135 C 
BRANCH   6   7
ATOM      7  C   UNL A   1      33.731  29.119  27.215  1.00  0.00    -0.039 A 
ATOM      8  C   UNL A   1      32.971  26.901  25.651  1.00  0.00     0.000 A 
ATOM      9  C   UNL A   1      34.087  27.676  25.301  1.00  0.00     0.010 A 
ATOM     10  C   UNL A   1      32.203  27.284  26.754  1.00  0.00     0.010 A 
ATOM     11  C   UNL A   1      34.466  28.773  26.077  1.00  0.00     0.005 A 
ATOM     12  C   UNL A   1      32.573  28.390  27.522  1.00  0.00     0.005 A 
BRANCH   8  13
ATOM     13  C   UNL A   1      32.594  25.732  24.857  1.00  0.00     0.075 A 
ATOM     14  N   UNL A   1      31.463  25.631  24.057  1.00  0.00    -0.233 N 
ATOM     15  N   UNL A   1      31.219  24.354  23.676  1.00  0.00    -0.163 NA
ATOM     16  C   UNL A   1      32.335  23.679  24.013  1.00  0.00     0.167 A 
ATOM     17  C   UNL A   1      33.201  24.495  24.782  1.00  0.00     0.064 A 
BRANCH  14  18
ATOM     18  C   UNL A   1      30.649  26.680  23.565  1.00  0.00     0.065 A 
ATOM     19  C   UNL A   1      29.075  28.792  22.670  1.00  0.00     0.082 A 
ATOM     20  C   UNL A   1      30.402  28.684  22.250  1.00  0.00     0.024 A 
ATOM     21  C   UNL A   1      28.508  27.799  23.471  1.00  0.00     0.024 A 
ATOM     22  C   UNL A   1      31.212  27.662  22.743  1.00  0.00     0.030 A 
ATOM     23  C   UNL A   1      29.285  26.711  23.881  1.00  0.00     0.030 A 
BRANCH  19  24
ATOM     24  S   UNL A   1      28.126  30.208  22.193  1.00  0.00     0.238 S 
ATOM     25  O   UNL A   1      26.957  30.306  23.049  1.00  0.00    -0.207 OA
ATOM     26  O   UNL A   1      28.057  30.264  20.761  1.00  0.00    -0.207 OA
BRANCH  24  27
ATOM     27  N   UNL A   1      29.096  31.504  22.662  1.00  0.00    -0.225 NA
ATOM     28  H   UNL A   1      28.744  32.362  22.239  1.00  0.00     0.137 HD
ATOM     29  H   UNL A   1      30.054  31.340  22.353  1.00  0.00     0.137 HD
ENDBRANCH  24  27
ENDBRANCH  19  24
ENDBRANCH  14  18
BRANCH  16  30
ATOM     30  C   UNL A   1      32.584  22.249  23.617  1.00  0.00     0.435 C 
ATOM     31  F   UNL A   1      33.899  21.908  23.651  1.00  0.00    -0.164 F 
ATOM     32  F   UNL A   1      31.921  21.376  24.422  1.00  0.00    -0.164 F 
ATOM     33  F   UNL A   1      32.152  21.998  22.349  1.00  0.00    -0.164 F 
ENDBRANCH  16  30
ENDBRANCH   8  13
ENDBRANCH   6   7
ENDBRANCH   3   6
ENDBRANCH   1   2
BRANCH   1  34
ATOM     34  C   UNL A   1      36.080  34.037  28.930  1.00  0.00     0.023 C 
BRANCH  34  35
ATOM     35  C   UNL A   1      37.182  33.433  29.808  1.00  0.00     0.023 C 
BRANCH  35  36
ATOM     36  C   UNL A   1      38.567  33.983  29.554  1.00  0.00     0.116 C 
BRANCH  36  37
ATOM     37  N   UNL A   1      39.299  34.329  30.778  1.00  0.00    -0.352 N 
ATOM     38  C   UNL A   1      40.086  33.485  31.545  1.00  0.00     0.251 C 
ATOM     39  H   UNL A   1      39.223  35.261  31.086  1.00  0.00     0.163 HD
ATOM     40  O   UNL A   1      40.393  33.755  32.698  1.00  0.00    -0.269 OA
BRANCH  38  41
ATOM     41  C   UNL A   1      40.558  32.245  30.911  1.00  0.00     0.039 A 
ATOM     42  C   UNL A   1      41.767  32.163  30.216  1.00  0.00     0.014 A 
ATOM     43  C   UNL A   1      39.786  31.114  31.150  1.00  0.00     0.014 A 
ATOM     44  C   UNL A   1      42.234  30.902  29.846  1.00  0.00     0.010 A 
ATOM     45  C   UNL A   1      40.354  29.884  30.999  1.00  0.00     0.010 A 
ATOM     46  C   UNL A   1      41.528  29.765  30.267  1.00  0.00    -0.014 A 
BRANCH  46  47
ATOM     47  C   UNL A   1      42.010  28.412  30.018  1.00  0.00     0.031 A 
ATOM     48  C   UNL A   1      42.766  27.783  31.137  1.00  0.00     0.074 A 
ATOM     49  C   UNL A   1      41.574  27.700  28.955  1.00  0.00     0.049 A 
ATOM     50  N   UNL A   1      43.985  27.357  31.126  1.00  0.00    -0.248 NA
ATOM     51  C   UNL A   1      42.122  27.700  32.460  1.00  0.00     0.031 C 
ATOM     52  C   UNL A   1      40.565  28.070  27.948  1.00  0.00     0.029 A 
ATOM     53  N   UNL A   1      41.845  26.412  28.628  1.00  0.00    -0.354 N 
ATOM     54  C   UNL A   1      44.222  26.803  32.382  1.00  0.00     0.074 A 
ATOM     55  C   UNL A   1      43.094  27.165  33.202  1.00  0.00     0.031 C 
ATOM     56  C   UNL A   1      40.131  26.964  27.307  1.00  0.00     0.029 A 
ATOM     57  C   UNL A   1      40.964  25.849  27.711  1.00  0.00     0.049 A 
ATOM     58  H   UNL A   1      42.605  25.915  29.008  1.00  0.00     0.167 HD
ATOM     59  C   UNL A   1      45.235  25.916  32.593  1.00  0.00     0.031 A 
ATOM     60  C   UNL A   1      40.913  24.550  27.329  1.00  0.00     0.031 A 
ATOM     61  C   UNL A   1      46.174  25.915  31.502  1.00  0.00     0.049 A 
ATOM     62  C   UNL A   1      42.213  23.942  27.690  1.00  0.00     0.074 A 
ATOM     63  C   UNL A   1      47.026  26.856  30.960  1.00  0.00     0.029 A 
ATOM     64  N   UNL A   1      46.019  24.946  30.540  1.00  0.00    -0.354 N 
ATOM     65  N   UNL A   1      43.340  24.287  27.136  1.00  0.00    -0.248 NA
ATOM     66  C   UNL A   1      42.324  23.304  28.992  1.00  0.00     0.031 C 
ATOM     67  C   UNL A   1      46.923  26.665  29.550  1.00  0.00     0.029 A 
ATOM     68  C   UNL A   1      46.087  25.569  29.319  1.00  0.00     0.049 A 
ATOM     69  H   UNL A   1      45.883  23.983  30.697  1.00  0.00     0.167 HD
ATOM     70  C   UNL A   1      44.251  24.322  28.182  1.00  0.00     0.074 A 
ATOM     71  C   UNL A   1      43.591  23.616  29.282  1.00  0.00     0.031 C 
ATOM     72  C   UNL A   1      45.327  25.164  28.157  1.00  0.00     0.031 A 
BRANCH  59  73
ATOM     73  C   UNL A   1      45.187  24.798  33.602  1.00  0.00    -0.014 A 
ATOM     74  C   UNL A   1      46.387  24.363  34.194  1.00  0.00     0.009 A 
ATOM     75  C   UNL A   1      44.057  23.980  33.792  1.00  0.00     0.009 A 
ATOM     76  C   UNL A   1      46.463  23.144  34.881  1.00  0.00     0.001 A 
ATOM     77  C   UNL A   1      44.121  22.782  34.511  1.00  0.00     0.001 A 
ATOM     78  C   UNL A   1      45.332  22.351  35.032  1.00  0.00     0.000 A 
ENDBRANCH  59  73
BRANCH  60  79
ATOM     79  C   UNL A   1      39.737  23.741  26.944  1.00  0.00    -0.014 A 
ATOM     80  C   UNL A   1      38.500  24.348  26.684  1.00  0.00     0.009 A 
ATOM     81  C   UNL A   1      39.905  22.399  26.555  1.00  0.00     0.009 A 
ATOM     82  C   UNL A   1      37.481  23.649  26.020  1.00  0.00     0.001 A 
ATOM     83  C   UNL A   1      38.890  21.702  25.891  1.00  0.00     0.001 A 
ATOM     84  C   UNL A   1      37.682  22.333  25.610  1.00  0.00     0.000 A 
ENDBRANCH  60  79
BRANCH  72  85
ATOM     85  C   UNL A   1      45.599  25.927  26.878  1.00  0.00    -0.014 A 
ATOM     86  C   UNL A   1      44.987  27.155  26.566  1.00  0.00     0.009 A 
ATOM     87  C   UNL A   1      46.630  25.473  26.044  1.00  0.00     0.009 A 
ATOM     88  C   UNL A   1      45.379  27.889  25.440  1.00  0.00     0.001 A 
ATOM     89  C   UNL A   1      47.035  26.216  24.933  1.00  0.00     0.001 A 
ATOM     90  C   UNL A   1      46.408  27.421  24.627  1.00  0.00     0.000 A 
ENDBRANCH  72  85
ENDBRANCH  46  47
ENDBRANCH  38  41
ENDBRANCH  36  37
ENDBRANCH  35  36
ENDBRANCH  34  35
ENDBRANCH   1  34
TORSDOF 17
ENDMDL
