MODEL 1
REMARK VINA RESULT:     -11.7      0.000      0.000
REMARK SMILES Cc1nsc(NC[C@@H]2C[C@H]3CC[C@@H]2C3)c1C(=O)NCCCCNC(=O)c1ccc(-c2c3nc(c(-c4ccccc4)c4ccc([nH]4)c(-c4ccccc4)c4nc(c(-c5ccccc5)c5ccc2[nH]5)C=C4)C=C3)cc1
REMARK SMILES IDX 20 1 19 2 18 3 16 4 17 5 15 7 1 8 2 9 3 10 4 11 5 12 6 13
REMARK SMILES IDX 7 15 8 16 9 17 13 18 10 19 12 20 14 21 11 22 21 23 22 24
REMARK SMILES IDX 23 25 24 26 25 28 26 29 27 30 73 31 28 32 72 33 29 34 30 35
REMARK SMILES IDX 31 36 66 37 32 38 71 39 65 40 67 41 33 42 70 43 64 44 63 45
REMARK SMILES IDX 34 47 56 48 41 49 55 50 42 51 45 52 54 53 68 54 43 55 44 56
REMARK SMILES IDX 53 58 69 59 46 60 35 61 36 62 40 63 37 64 39 65 38 66 57 67
REMARK SMILES IDX 58 68 62 69 59 70 61 71 60 72 47 73 48 74 52 75 49 76 51 77
REMARK SMILES IDX 50 78
REMARK H PARENT 18 6 6 14 23 27 67 46 45 57
REMARK Flexibility Score: inf
ROOT
ATOM      1  C   UNL A   1      31.860  30.123  26.423  1.00  0.00     0.023 C 
ENDROOT
BRANCH   1   2
ATOM      2  C   UNL A   1      33.257  29.847  25.866  1.00  0.00     0.116 C 
BRANCH   2   3
ATOM      3  N   UNL A   1      33.264  29.583  24.450  1.00  0.00    -0.352 N 
ATOM      4  C   UNL A   1      32.870  28.587  23.599  1.00  0.00     0.256 C 
ATOM      5  O   UNL A   1      33.033  28.934  22.416  1.00  0.00    -0.269 OA
ATOM      6  H   UNL A   1      33.667  30.331  23.954  1.00  0.00     0.163 HD
BRANCH   4   7
ATOM      7  C   UNL A   1      32.336  27.241  23.920  1.00  0.00     0.097 A 
ATOM      8  C   UNL A   1      33.929  25.990  25.692  1.00  0.00     0.069 C 
ATOM      9  C   UNL A   1      32.767  26.136  24.779  1.00  0.00     0.066 A 
ATOM     10  N   UNL A   1      31.989  25.052  24.788  1.00  0.00    -0.195 NA
ATOM     11  S   UNL A   1      30.697  25.281  23.829  1.00  0.00    -0.018 S 
ATOM     12  C   UNL A   1      31.109  26.862  23.322  1.00  0.00     0.122 A 
BRANCH  12  13
ATOM     13  N   UNL A   1      30.353  27.607  22.464  1.00  0.00    -0.375 N 
ATOM     14  H   UNL A   1      30.671  27.672  21.534  1.00  0.00     0.161 HD
BRANCH  13  15
ATOM     15  C   UNL A   1      29.129  28.309  22.786  1.00  0.00     0.117 C 
BRANCH  15  16
ATOM     16  C   UNL A   1      29.184  29.815  22.453  1.00  0.00     0.012 C 
ATOM     17  C   UNL A   1      29.758  30.649  23.630  1.00  0.00     0.009 C 
ATOM     18  C   UNL A   1      27.845  30.549  22.168  1.00  0.00    -0.006 C 
ATOM     19  C   UNL A   1      28.731  31.780  23.799  1.00  0.00    -0.011 C 
ATOM     20  C   UNL A   1      28.160  31.887  21.469  1.00  0.00     0.004 C 
ATOM     21  C   UNL A   1      27.419  31.038  23.554  1.00  0.00     0.007 C 
ATOM     22  C   UNL A   1      28.810  32.717  22.584  1.00  0.00     0.004 C 
ENDBRANCH  15  16
ENDBRANCH  13  15
ENDBRANCH  12  13
ENDBRANCH   4   7
ENDBRANCH   2   3
ENDBRANCH   1   2
BRANCH   1  23
ATOM     23  C   UNL A   1      31.583  31.594  26.775  1.00  0.00     0.023 C 
BRANCH  23  24
ATOM     24  C   UNL A   1      32.799  32.395  27.243  1.00  0.00     0.116 C 
BRANCH  24  25
ATOM     25  N   UNL A   1      32.477  33.760  27.643  1.00  0.00    -0.352 N 
ATOM     26  C   UNL A   1      33.047  34.491  28.670  1.00  0.00     0.251 C 
ATOM     27  H   UNL A   1      31.775  34.214  27.122  1.00  0.00     0.163 HD
ATOM     28  O   UNL A   1      32.477  35.441  29.172  1.00  0.00    -0.269 OA
BRANCH  26  29
ATOM     29  C   UNL A   1      34.382  34.086  29.144  1.00  0.00     0.039 A 
ATOM     30  C   UNL A   1      34.520  33.187  30.203  1.00  0.00     0.014 A 
ATOM     31  C   UNL A   1      35.494  34.566  28.455  1.00  0.00     0.014 A 
ATOM     32  C   UNL A   1      35.787  32.689  30.496  1.00  0.00     0.010 A 
ATOM     33  C   UNL A   1      36.731  34.004  28.687  1.00  0.00     0.010 A 
ATOM     34  C   UNL A   1      36.890  33.070  29.711  1.00  0.00    -0.014 A 
BRANCH  34  35
ATOM     35  C   UNL A   1      38.160  32.352  29.852  1.00  0.00     0.031 A 
ATOM     36  C   UNL A   1      38.115  30.920  29.439  1.00  0.00     0.074 A 
ATOM     37  C   UNL A   1      39.348  32.943  30.104  1.00  0.00     0.049 A 
ATOM     38  N   UNL A   1      38.263  29.881  30.191  1.00  0.00    -0.248 NA
ATOM     39  C   UNL A   1      37.763  30.603  28.044  1.00  0.00     0.031 C 
ATOM     40  C   UNL A   1      39.619  34.381  30.210  1.00  0.00     0.029 A 
ATOM     41  N   UNL A   1      40.596  32.392  30.196  1.00  0.00    -0.354 N 
ATOM     42  C   UNL A   1      38.236  28.783  29.334  1.00  0.00     0.074 A 
ATOM     43  C   UNL A   1      37.757  29.268  28.066  1.00  0.00     0.031 C 
ATOM     44  C   UNL A   1      40.946  34.600  30.096  1.00  0.00     0.029 A 
ATOM     45  C   UNL A   1      41.627  33.319  30.102  1.00  0.00     0.049 A 
ATOM     46  H   UNL A   1      40.750  31.427  30.317  1.00  0.00     0.167 HD
ATOM     47  C   UNL A   1      38.891  27.632  29.654  1.00  0.00     0.031 A 
ATOM     48  C   UNL A   1      42.955  33.075  30.040  1.00  0.00     0.031 A 
ATOM     49  C   UNL A   1      39.312  27.631  31.030  1.00  0.00     0.049 A 
ATOM     50  C   UNL A   1      43.205  31.739  30.610  1.00  0.00     0.074 A 
ATOM     51  C   UNL A   1      38.730  27.505  32.270  1.00  0.00     0.029 A 
ATOM     52  N   UNL A   1      40.563  28.159  31.214  1.00  0.00    -0.354 N 
ATOM     53  N   UNL A   1      43.025  31.459  31.870  1.00  0.00    -0.248 NA
ATOM     54  C   UNL A   1      43.370  30.588  29.733  1.00  0.00     0.031 C 
ATOM     55  C   UNL A   1      39.594  28.189  33.178  1.00  0.00     0.029 A 
ATOM     56  C   UNL A   1      40.693  28.678  32.472  1.00  0.00     0.049 A 
ATOM     57  H   UNL A   1      41.272  28.163  30.533  1.00  0.00     0.167 HD
ATOM     58  C   UNL A   1      42.601  30.146  31.866  1.00  0.00     0.074 A 
ATOM     59  C   UNL A   1      43.024  29.613  30.578  1.00  0.00     0.031 C 
ATOM     60  C   UNL A   1      41.663  29.714  32.757  1.00  0.00     0.031 A 
BRANCH  47  61
ATOM     61  C   UNL A   1      39.634  26.773  28.646  1.00  0.00    -0.014 A 
ATOM     62  C   UNL A   1      40.501  27.413  27.737  1.00  0.00     0.009 A 
ATOM     63  C   UNL A   1      39.266  25.451  28.338  1.00  0.00     0.009 A 
ATOM     64  C   UNL A   1      40.909  26.791  26.550  1.00  0.00     0.001 A 
ATOM     65  C   UNL A   1      39.702  24.814  27.170  1.00  0.00     0.001 A 
ATOM     66  C   UNL A   1      40.500  25.495  26.262  1.00  0.00     0.000 A 
ENDBRANCH  47  61
BRANCH  48  67
ATOM     67  C   UNL A   1      44.024  33.873  29.408  1.00  0.00    -0.014 A 
ATOM     68  C   UNL A   1      45.225  34.137  30.083  1.00  0.00     0.009 A 
ATOM     69  C   UNL A   1      43.965  34.150  28.030  1.00  0.00     0.009 A 
ATOM     70  C   UNL A   1      46.344  34.620  29.392  1.00  0.00     0.001 A 
ATOM     71  C   UNL A   1      45.082  34.632  27.342  1.00  0.00     0.001 A 
ATOM     72  C   UNL A   1      46.277  34.851  28.019  1.00  0.00     0.000 A 
ENDBRANCH  48  67
BRANCH  60  73
ATOM     73  C   UNL A   1      41.494  30.502  34.025  1.00  0.00    -0.014 A 
ATOM     74  C   UNL A   1      40.588  31.565  34.166  1.00  0.00     0.009 A 
ATOM     75  C   UNL A   1      42.235  30.098  35.145  1.00  0.00     0.009 A 
ATOM     76  C   UNL A   1      40.456  32.227  35.392  1.00  0.00     0.001 A 
ATOM     77  C   UNL A   1      42.085  30.743  36.373  1.00  0.00     0.001 A 
ATOM     78  C   UNL A   1      41.202  31.812  36.494  1.00  0.00     0.000 A 
ENDBRANCH  60  73
ENDBRANCH  34  35
ENDBRANCH  26  29
ENDBRANCH  24  25
ENDBRANCH  23  24
ENDBRANCH   1  23
TORSDOF 14
ENDMDL
MODEL 2
REMARK VINA RESULT:     -11.5      4.678      9.333
REMARK SMILES Cc1nsc(NC[C@@H]2C[C@H]3CC[C@@H]2C3)c1C(=O)NCCCCNC(=O)c1ccc(-c2c3nc(c(-c4ccccc4)c4ccc([nH]4)c(-c4ccccc4)c4nc(c(-c5ccccc5)c5ccc2[nH]5)C=C4)C=C3)cc1
REMARK SMILES IDX 20 1 19 2 18 3 16 4 17 5 15 7 1 8 2 9 3 10 4 11 5 12 6 13
REMARK SMILES IDX 7 15 8 16 9 17 13 18 10 19 12 20 14 21 11 22 21 23 22 24
REMARK SMILES IDX 23 25 24 26 25 28 26 29 27 30 73 31 28 32 72 33 29 34 30 35
REMARK SMILES IDX 31 36 66 37 32 38 71 39 65 40 67 41 33 42 70 43 64 44 63 45
REMARK SMILES IDX 34 47 56 48 41 49 55 50 42 51 45 52 54 53 68 54 43 55 44 56
REMARK SMILES IDX 53 58 69 59 46 60 35 61 36 62 40 63 37 64 39 65 38 66 57 67
REMARK SMILES IDX 58 68 62 69 59 70 61 71 60 72 47 73 48 74 52 75 49 76 51 77
REMARK SMILES IDX 50 78
REMARK H PARENT 18 6 6 14 23 27 67 46 45 57
REMARK Flexibility Score: inf
ROOT
ATOM      1  C   UNL A   1      37.279  34.300  34.444  1.00  0.00     0.023 C 
ENDROOT
BRANCH   1   2
ATOM      2  C   UNL A   1      36.318  34.851  33.389  1.00  0.00     0.116 C 
BRANCH   2   3
ATOM      3  N   UNL A   1      35.431  33.852  32.850  1.00  0.00    -0.352 N 
ATOM      4  C   UNL A   1      34.434  33.773  31.916  1.00  0.00     0.256 C 
ATOM      5  O   UNL A   1      34.057  32.597  31.779  1.00  0.00    -0.269 OA
ATOM      6  H   UNL A   1      35.584  32.977  33.275  1.00  0.00     0.163 HD
BRANCH   4   7
ATOM      7  C   UNL A   1      33.799  34.863  31.135  1.00  0.00     0.097 A 
ATOM      8  C   UNL A   1      32.426  36.514  32.759  1.00  0.00     0.069 C 
ATOM      9  C   UNL A   1      32.947  36.008  31.462  1.00  0.00     0.066 A 
ATOM     10  N   UNL A   1      32.563  36.775  30.441  1.00  0.00    -0.195 NA
ATOM     11  S   UNL A   1      33.209  36.226  29.054  1.00  0.00    -0.018 S 
ATOM     12  C   UNL A   1      34.042  34.898  29.740  1.00  0.00     0.122 A 
BRANCH  12  13
ATOM     13  N   UNL A   1      34.805  34.025  29.020  1.00  0.00    -0.375 N 
ATOM     14  H   UNL A   1      35.762  34.240  28.934  1.00  0.00     0.161 HD
BRANCH  13  15
ATOM     15  C   UNL A   1      34.346  32.814  28.374  1.00  0.00     0.117 C 
BRANCH  15  16
ATOM     16  C   UNL A   1      35.494  31.869  27.961  1.00  0.00     0.012 C 
ATOM     17  C   UNL A   1      34.977  30.449  27.604  1.00  0.00     0.009 C 
ATOM     18  C   UNL A   1      36.592  31.551  29.014  1.00  0.00    -0.006 C 
ATOM     19  C   UNL A   1      35.892  29.522  28.419  1.00  0.00    -0.011 C 
ATOM     20  C   UNL A   1      37.812  30.956  28.282  1.00  0.00     0.004 C 
ATOM     21  C   UNL A   1      36.042  30.310  29.719  1.00  0.00     0.007 C 
ATOM     22  C   UNL A   1      37.312  29.576  27.837  1.00  0.00     0.004 C 
ENDBRANCH  15  16
ENDBRANCH  13  15
ENDBRANCH  12  13
ENDBRANCH   4   7
ENDBRANCH   2   3
ENDBRANCH   1   2
BRANCH   1  23
ATOM     23  C   UNL A   1      38.402  33.407  33.891  1.00  0.00     0.023 C 
BRANCH  23  24
ATOM     24  C   UNL A   1      39.510  34.141  33.135  1.00  0.00     0.116 C 
BRANCH  24  25
ATOM     25  N   UNL A   1      39.182  34.404  31.737  1.00  0.00    -0.352 N 
ATOM     26  C   UNL A   1      39.706  33.777  30.621  1.00  0.00     0.251 C 
ATOM     27  H   UNL A   1      38.513  35.107  31.570  1.00  0.00     0.163 HD
ATOM     28  O   UNL A   1      39.676  34.298  29.522  1.00  0.00    -0.269 OA
BRANCH  26  29
ATOM     29  C   UNL A   1      40.304  32.443  30.797  1.00  0.00     0.039 A 
ATOM     30  C   UNL A   1      39.526  31.362  31.214  1.00  0.00     0.014 A 
ATOM     31  C   UNL A   1      41.647  32.278  30.460  1.00  0.00     0.014 A 
ATOM     32  C   UNL A   1      40.085  30.086  31.187  1.00  0.00     0.010 A 
ATOM     33  C   UNL A   1      42.168  31.007  30.347  1.00  0.00     0.010 A 
ATOM     34  C   UNL A   1      41.397  29.905  30.717  1.00  0.00    -0.014 A 
BRANCH  34  35
ATOM     35  C   UNL A   1      41.886  28.549  30.444  1.00  0.00     0.031 A 
ATOM     36  C   UNL A   1      42.667  27.934  31.554  1.00  0.00     0.074 A 
ATOM     37  C   UNL A   1      41.495  27.792  29.396  1.00  0.00     0.049 A 
ATOM     38  N   UNL A   1      43.919  27.619  31.554  1.00  0.00    -0.248 NA
ATOM     39  C   UNL A   1      42.003  27.741  32.856  1.00  0.00     0.031 C 
ATOM     40  C   UNL A   1      40.480  28.126  28.391  1.00  0.00     0.029 A 
ATOM     41  N   UNL A   1      41.831  26.507  29.074  1.00  0.00    -0.354 N 
ATOM     42  C   UNL A   1      44.156  26.991  32.775  1.00  0.00     0.074 A 
ATOM     43  C   UNL A   1      43.000  27.247  33.595  1.00  0.00     0.031 C 
ATOM     44  C   UNL A   1      40.103  27.004  27.740  1.00  0.00     0.029 A 
ATOM     45  C   UNL A   1      40.978  25.920  28.147  1.00  0.00     0.049 A 
ATOM     46  H   UNL A   1      42.605  26.040  29.463  1.00  0.00     0.167 HD
ATOM     47  C   UNL A   1      45.147  26.066  32.903  1.00  0.00     0.031 A 
ATOM     48  C   UNL A   1      40.976  24.637  27.721  1.00  0.00     0.031 A 
ATOM     49  C   UNL A   1      46.025  26.073  31.763  1.00  0.00     0.049 A 
ATOM     50  C   UNL A   1      42.314  24.068  27.966  1.00  0.00     0.074 A 
ATOM     51  C   UNL A   1      47.009  26.882  31.245  1.00  0.00     0.029 A 
ATOM     52  N   UNL A   1      45.629  25.218  30.769  1.00  0.00    -0.354 N 
ATOM     53  N   UNL A   1      43.382  24.470  27.337  1.00  0.00    -0.248 NA
ATOM     54  C   UNL A   1      42.556  23.246  29.143  1.00  0.00     0.031 C 
ATOM     55  C   UNL A   1      47.023  26.628  29.839  1.00  0.00     0.029 A 
ATOM     56  C   UNL A   1      46.075  25.646  29.550  1.00  0.00     0.049 A 
ATOM     57  H   UNL A   1      45.094  24.404  30.913  1.00  0.00     0.167 HD
ATOM     58  C   UNL A   1      44.390  24.347  28.272  1.00  0.00     0.074 A 
ATOM     59  C   UNL A   1      43.874  23.417  29.267  1.00  0.00     0.031 C 
ATOM     60  C   UNL A   1      45.403  25.259  28.328  1.00  0.00     0.031 A 
BRANCH  47  61
ATOM     61  C   UNL A   1      45.025  24.807  33.743  1.00  0.00    -0.014 A 
ATOM     62  C   UNL A   1      46.095  24.471  34.599  1.00  0.00     0.009 A 
ATOM     63  C   UNL A   1      44.090  23.790  33.480  1.00  0.00     0.009 A 
ATOM     64  C   UNL A   1      46.257  23.172  35.096  1.00  0.00     0.001 A 
ATOM     65  C   UNL A   1      44.230  22.500  34.004  1.00  0.00     0.001 A 
ATOM     66  C   UNL A   1      45.330  22.184  34.789  1.00  0.00     0.000 A 
ENDBRANCH  47  61
BRANCH  48  67
ATOM     67  C   UNL A   1      39.854  23.819  27.221  1.00  0.00    -0.014 A 
ATOM     68  C   UNL A   1      38.624  24.406  26.885  1.00  0.00     0.009 A 
ATOM     69  C   UNL A   1      40.083  22.490  26.821  1.00  0.00     0.009 A 
ATOM     70  C   UNL A   1      37.675  23.700  26.135  1.00  0.00     0.001 A 
ATOM     71  C   UNL A   1      39.135  21.787  26.073  1.00  0.00     0.001 A 
ATOM     72  C   UNL A   1      37.938  22.398  25.714  1.00  0.00     0.000 A 
ENDBRANCH  48  67
BRANCH  60  73
ATOM     73  C   UNL A   1      45.690  26.056  27.088  1.00  0.00    -0.014 A 
ATOM     74  C   UNL A   1      45.123  27.312  26.820  1.00  0.00     0.009 A 
ATOM     75  C   UNL A   1      46.633  25.540  26.188  1.00  0.00     0.009 A 
ATOM     76  C   UNL A   1      45.469  28.016  25.662  1.00  0.00     0.001 A 
ATOM     77  C   UNL A   1      46.996  26.253  25.045  1.00  0.00     0.001 A 
ATOM     78  C   UNL A   1      46.409  27.487  24.778  1.00  0.00     0.000 A 
ENDBRANCH  60  73
ENDBRANCH  34  35
ENDBRANCH  26  29
ENDBRANCH  24  25
ENDBRANCH  23  24
ENDBRANCH   1  23
TORSDOF 14
ENDMDL
MODEL 3
REMARK VINA RESULT:     -11.4      4.917      9.807
REMARK SMILES Cc1nsc(NC[C@@H]2C[C@H]3CC[C@@H]2C3)c1C(=O)NCCCCNC(=O)c1ccc(-c2c3nc(c(-c4ccccc4)c4ccc([nH]4)c(-c4ccccc4)c4nc(c(-c5ccccc5)c5ccc2[nH]5)C=C4)C=C3)cc1
REMARK SMILES IDX 20 1 19 2 18 3 16 4 17 5 15 7 1 8 2 9 3 10 4 11 5 12 6 13
REMARK SMILES IDX 7 15 8 16 9 17 13 18 10 19 12 20 14 21 11 22 21 23 22 24
REMARK SMILES IDX 23 25 24 26 25 28 26 29 27 30 73 31 28 32 72 33 29 34 30 35
REMARK SMILES IDX 31 36 66 37 32 38 71 39 65 40 67 41 33 42 70 43 64 44 63 45
REMARK SMILES IDX 34 47 56 48 41 49 55 50 42 51 45 52 54 53 68 54 43 55 44 56
REMARK SMILES IDX 53 58 69 59 46 60 35 61 36 62 40 63 37 64 39 65 38 66 57 67
REMARK SMILES IDX 58 68 62 69 59 70 61 71 60 72 47 73 48 74 52 75 49 76 51 77
REMARK SMILES IDX 50 78
REMARK H PARENT 18 6 6 14 23 27 67 46 45 57
REMARK Flexibility Score: inf
ROOT
ATOM      1  C   UNL A   1      37.573  20.893  24.935  1.00  0.00     0.023 C 
ENDROOT
BRANCH   1   2
ATOM      2  C   UNL A   1      36.698  22.093  25.299  1.00  0.00     0.116 C 
BRANCH   2   3
ATOM      3  N   UNL A   1      35.761  21.814  26.357  1.00  0.00    -0.352 N 
ATOM      4  C   UNL A   1      34.441  22.039  26.633  1.00  0.00     0.256 C 
ATOM      5  O   UNL A   1      34.113  21.475  27.690  1.00  0.00    -0.269 OA
ATOM      6  H   UNL A   1      36.195  21.321  27.091  1.00  0.00     0.163 HD
BRANCH   4   7
ATOM      7  C   UNL A   1      33.452  22.842  25.871  1.00  0.00     0.097 A 
ATOM      8  C   UNL A   1      34.258  25.404  25.683  1.00  0.00     0.069 C 
ATOM      9  C   UNL A   1      33.348  24.248  25.475  1.00  0.00     0.066 A 
ATOM     10  N   UNL A   1      32.262  24.591  24.779  1.00  0.00    -0.195 NA
ATOM     11  S   UNL A   1      31.329  23.285  24.517  1.00  0.00    -0.018 S 
ATOM     12  C   UNL A   1      32.325  22.166  25.343  1.00  0.00     0.122 A 
BRANCH  12  13
ATOM     13  N   UNL A   1      32.040  20.836  25.461  1.00  0.00    -0.375 N 
ATOM     14  H   UNL A   1      31.618  20.546  26.302  1.00  0.00     0.161 HD
BRANCH  13  15
ATOM     15  C   UNL A   1      32.294  19.812  24.471  1.00  0.00     0.117 C 
BRANCH  15  16
ATOM     16  C   UNL A   1      33.068  18.600  25.031  1.00  0.00     0.012 C 
ATOM     17  C   UNL A   1      34.563  18.622  24.613  1.00  0.00     0.009 C 
ATOM     18  C   UNL A   1      32.631  17.180  24.576  1.00  0.00    -0.006 C 
ATOM     19  C   UNL A   1      34.799  17.205  24.064  1.00  0.00    -0.011 C 
ATOM     20  C   UNL A   1      33.236  16.147  25.549  1.00  0.00     0.004 C 
ATOM     21  C   UNL A   1      33.486  16.941  23.330  1.00  0.00     0.007 C 
ATOM     22  C   UNL A   1      34.735  16.199  25.223  1.00  0.00     0.004 C 
ENDBRANCH  15  16
ENDBRANCH  13  15
ENDBRANCH  12  13
ENDBRANCH   4   7
ENDBRANCH   2   3
ENDBRANCH   1   2
BRANCH   1  23
ATOM     23  C   UNL A   1      39.055  21.033  25.321  1.00  0.00     0.023 C 
BRANCH  23  24
ATOM     24  C   UNL A   1      39.554  20.040  26.372  1.00  0.00     0.116 C 
BRANCH  24  25
ATOM     25  N   UNL A   1      40.706  19.260  25.933  1.00  0.00    -0.352 N 
ATOM     26  C   UNL A   1      42.001  19.708  25.747  1.00  0.00     0.251 C 
ATOM     27  H   UNL A   1      40.543  18.306  25.748  1.00  0.00     0.163 HD
ATOM     28  O   UNL A   1      42.788  19.114  25.033  1.00  0.00    -0.269 OA
BRANCH  26  29
ATOM     29  C   UNL A   1      42.413  20.937  26.448  1.00  0.00     0.039 A 
ATOM     30  C   UNL A   1      42.742  22.089  25.734  1.00  0.00     0.014 A 
ATOM     31  C   UNL A   1      42.386  20.934  27.842  1.00  0.00     0.014 A 
ATOM     32  C   UNL A   1      42.942  23.276  26.435  1.00  0.00     0.010 A 
ATOM     33  C   UNL A   1      42.494  22.126  28.526  1.00  0.00     0.010 A 
ATOM     34  C   UNL A   1      42.780  23.302  27.831  1.00  0.00    -0.014 A 
BRANCH  34  35
ATOM     35  C   UNL A   1      42.733  24.590  28.529  1.00  0.00     0.031 A 
ATOM     36  C   UNL A   1      41.590  25.466  28.144  1.00  0.00     0.074 A 
ATOM     37  C   UNL A   1      43.494  24.908  29.600  1.00  0.00     0.049 A 
ATOM     38  N   UNL A   1      41.641  26.604  27.537  1.00  0.00    -0.248 NA
ATOM     39  C   UNL A   1      40.220  24.970  28.369  1.00  0.00     0.031 C 
ATOM     40  C   UNL A   1      44.436  24.035  30.308  1.00  0.00     0.029 A 
ATOM     41  N   UNL A   1      43.496  26.042  30.364  1.00  0.00    -0.354 N 
ATOM     42  C   UNL A   1      40.330  27.073  27.492  1.00  0.00     0.074 A 
ATOM     43  C   UNL A   1      39.489  25.963  27.856  1.00  0.00     0.031 C 
ATOM     44  C   UNL A   1      44.720  24.564  31.518  1.00  0.00     0.029 A 
ATOM     45  C   UNL A   1      44.136  25.891  31.588  1.00  0.00     0.049 A 
ATOM     46  H   UNL A   1      43.082  26.886  30.073  1.00  0.00     0.167 HD
ATOM     47  C   UNL A   1      40.067  28.408  27.448  1.00  0.00     0.031 A 
ATOM     48  C   UNL A   1      44.201  26.783  32.602  1.00  0.00     0.031 A 
ATOM     49  C   UNL A   1      41.256  29.170  27.169  1.00  0.00     0.049 A 
ATOM     50  C   UNL A   1      43.960  28.128  32.049  1.00  0.00     0.074 A 
ATOM     51  C   UNL A   1      42.074  29.416  26.091  1.00  0.00     0.029 A 
ATOM     52  N   UNL A   1      41.938  29.543  28.297  1.00  0.00    -0.354 N 
ATOM     53  N   UNL A   1      44.784  28.717  31.230  1.00  0.00    -0.248 NA
ATOM     54  C   UNL A   1      42.639  28.734  32.148  1.00  0.00     0.031 C 
ATOM     55  C   UNL A   1      43.354  29.737  26.638  1.00  0.00     0.029 A 
ATOM     56  C   UNL A   1      43.268  29.713  28.030  1.00  0.00     0.049 A 
ATOM     57  H   UNL A   1      41.526  29.671  29.181  1.00  0.00     0.167 HD
ATOM     58  C   UNL A   1      43.965  29.452  30.398  1.00  0.00     0.074 A 
ATOM     59  C   UNL A   1      42.708  29.586  31.123  1.00  0.00     0.031 C 
ATOM     60  C   UNL A   1      44.263  29.594  29.075  1.00  0.00     0.031 A 
BRANCH  47  61
ATOM     61  C   UNL A   1      38.915  29.068  28.184  1.00  0.00    -0.014 A 
ATOM     62  C   UNL A   1      38.757  28.792  29.558  1.00  0.00     0.009 A 
ATOM     63  C   UNL A   1      37.815  29.653  27.532  1.00  0.00     0.009 A 
ATOM     64  C   UNL A   1      37.541  29.016  30.217  1.00  0.00     0.001 A 
ATOM     65  C   UNL A   1      36.610  29.911  28.196  1.00  0.00     0.001 A 
ATOM     66  C   UNL A   1      36.465  29.566  29.532  1.00  0.00     0.000 A 
ENDBRANCH  47  61
BRANCH  48  67
ATOM     67  C   UNL A   1      44.342  26.543  34.051  1.00  0.00    -0.014 A 
ATOM     68  C   UNL A   1      45.206  27.324  34.834  1.00  0.00     0.009 A 
ATOM     69  C   UNL A   1      43.420  25.712  34.713  1.00  0.00     0.009 A 
ATOM     70  C   UNL A   1      45.118  27.307  36.232  1.00  0.00     0.001 A 
ATOM     71  C   UNL A   1      43.333  25.696  36.109  1.00  0.00     0.001 A 
ATOM     72  C   UNL A   1      44.171  26.507  36.867  1.00  0.00     0.000 A 
ENDBRANCH  48  67
BRANCH  60  73
ATOM     73  C   UNL A   1      45.694  29.404  28.660  1.00  0.00    -0.014 A 
ATOM     74  C   UNL A   1      46.654  30.427  28.682  1.00  0.00     0.009 A 
ATOM     75  C   UNL A   1      46.100  28.110  28.301  1.00  0.00     0.009 A 
ATOM     76  C   UNL A   1      47.980  30.165  28.319  1.00  0.00     0.001 A 
ATOM     77  C   UNL A   1      47.427  27.844  27.963  1.00  0.00     0.001 A 
ATOM     78  C   UNL A   1      48.365  28.873  27.965  1.00  0.00     0.000 A 
ENDBRANCH  60  73
ENDBRANCH  34  35
ENDBRANCH  26  29
ENDBRANCH  24  25
ENDBRANCH  23  24
ENDBRANCH   1  23
TORSDOF 14
ENDMDL
