MODEL 1
REMARK VINA RESULT:     -11.7      0.000      0.000
REMARK SMILES CC[C@H](C)[C@H](NC(=O)CN1C(=O)/C(=C/c2ccc(C)cc2)SC1=S)C(=O)NCCCCNC(=O)c1ccc(-c2c3nc(c(-c4ccccc4)c4ccc([nH]4)c(-c4ccccc4)c4nc(c(-c5ccccc5)c5ccc2[nH]5)C=C4)C=C3)cc1
REMARK SMILES IDX 28 1 27 2 25 3 26 4 5 6 3 7 4 8 2 9 1 10 6 11 7 12 8 14 9 15
REMARK SMILES IDX 10 16 11 17 23 18 12 19 13 20 22 21 24 22 14 23 15 24 16 25
REMARK SMILES IDX 21 26 17 27 20 28 18 29 19 30 29 31 30 32 31 33 32 34 33 35
REMARK SMILES IDX 34 37 35 38 36 39 82 40 37 41 81 42 38 43 39 44 40 45 75 46
REMARK SMILES IDX 41 47 80 48 74 49 76 50 42 51 79 52 73 53 72 54 43 56 65 57
REMARK SMILES IDX 50 58 64 59 51 60 54 61 63 62 77 63 52 64 53 65 62 67 78 68
REMARK SMILES IDX 55 69 44 70 45 71 49 72 46 73 48 74 47 75 66 76 67 77 71 78
REMARK SMILES IDX 68 79 70 80 69 81 56 82 57 83 61 84 58 85 60 86 59 87
REMARK H PARENT 27 5 6 13 32 36 76 55 54 66
REMARK Flexibility Score: inf
ROOT
ATOM      1  C   UNL A   1      36.969  22.078  24.061  1.00  0.00     0.116 C 
ENDROOT
BRANCH   1   2
ATOM      2  N   UNL A   1      36.343  23.314  24.489  1.00  0.00    -0.354 N 
ATOM      3  C   UNL A   1      35.114  23.607  24.984  1.00  0.00     0.242 C 
ATOM      4  O   UNL A   1      34.973  24.732  25.478  1.00  0.00    -0.273 OA
ATOM      5  H   UNL A   1      36.929  24.101  24.403  1.00  0.00     0.163 HD
BRANCH   3   6
ATOM      6  C   UNL A   1      33.920  22.636  24.990  1.00  0.00     0.174 C 
BRANCH   6   7
ATOM      7  C   UNL A   1      34.103  21.347  25.866  1.00  0.00     0.018 C 
ATOM      8  C   UNL A   1      33.983  21.568  27.379  1.00  0.00     0.010 C 
BRANCH   7   9
ATOM      9  C   UNL A   1      33.303  20.082  25.467  1.00  0.00     0.002 C 
ATOM     10  C   UNL A   1      34.000  19.031  24.622  1.00  0.00     0.004 C 
ENDBRANCH   7   9
ENDBRANCH   6   7
BRANCH   6  11
ATOM     11  N   UNL A   1      33.483  22.277  23.631  1.00  0.00    -0.342 N 
ATOM     12  C   UNL A   1      32.282  22.349  22.996  1.00  0.00     0.240 C 
ATOM     13  H   UNL A   1      34.205  21.912  23.068  1.00  0.00     0.164 HD
ATOM     14  O   UNL A   1      32.231  21.765  21.905  1.00  0.00    -0.273 OA
BRANCH  12  15
ATOM     15  C   UNL A   1      31.130  23.285  23.397  1.00  0.00     0.227 C 
BRANCH  15  16
ATOM     16  N   UNL A   1      31.387  24.422  24.263  1.00  0.00    -0.283 N 
ATOM     17  C   UNL A   1      31.691  25.658  23.707  1.00  0.00     0.266 C 
ATOM     18  C   UNL A   1      31.045  24.433  25.599  1.00  0.00     0.148 C 
ATOM     19  O   UNL A   1      31.651  25.952  22.519  1.00  0.00    -0.268 OA
ATOM     20  C   UNL A   1      31.963  26.634  24.791  1.00  0.00     0.081 C 
ATOM     21  S   UNL A   1      31.300  26.033  26.263  1.00  0.00    -0.054 SA
ATOM     22  S   UNL A   1      30.463  23.178  26.528  1.00  0.00    -0.052 S 
ATOM     23  C   UNL A   1      32.669  27.762  24.615  1.00  0.00     0.029 C 
BRANCH  23  24
ATOM     24  C   UNL A   1      32.955  28.681  25.723  1.00  0.00    -0.024 A 
ATOM     25  C   UNL A   1      32.074  29.731  26.014  1.00  0.00     0.008 A 
ATOM     26  C   UNL A   1      34.180  28.607  26.386  1.00  0.00     0.008 A 
ATOM     27  C   UNL A   1      32.471  30.767  26.857  1.00  0.00     0.004 A 
ATOM     28  C   UNL A   1      34.570  29.637  27.246  1.00  0.00     0.004 A 
ATOM     29  C   UNL A   1      33.738  30.748  27.447  1.00  0.00    -0.051 A 
ATOM     30  C   UNL A   1      34.233  31.921  28.237  1.00  0.00     0.044 C 
ENDBRANCH  23  24
ENDBRANCH  15  16
ENDBRANCH  12  15
ENDBRANCH   6  11
ENDBRANCH   3   6
ENDBRANCH   1   2
BRANCH   1  31
ATOM     31  C   UNL A   1      37.413  21.127  25.177  1.00  0.00     0.023 C 
BRANCH  31  32
ATOM     32  C   UNL A   1      38.857  21.243  25.655  1.00  0.00     0.023 C 
BRANCH  32  33
ATOM     33  C   UNL A   1      39.227  22.586  26.250  1.00  0.00     0.116 C 
BRANCH  33  34
ATOM     34  N   UNL A   1      40.656  22.849  26.299  1.00  0.00    -0.352 N 
ATOM     35  C   UNL A   1      41.319  24.044  26.548  1.00  0.00     0.251 C 
ATOM     36  H   UNL A   1      41.235  22.070  26.132  1.00  0.00     0.163 HD
ATOM     37  O   UNL A   1      42.528  24.099  26.488  1.00  0.00    -0.269 OA
BRANCH  35  38
ATOM     38  C   UNL A   1      40.538  25.204  27.057  1.00  0.00     0.039 A 
ATOM     39  C   UNL A   1      40.684  26.410  26.363  1.00  0.00     0.014 A 
ATOM     40  C   UNL A   1      39.940  25.185  28.313  1.00  0.00     0.014 A 
ATOM     41  C   UNL A   1      40.510  27.607  27.047  1.00  0.00     0.010 A 
ATOM     42  C   UNL A   1      39.879  26.362  29.028  1.00  0.00     0.010 A 
ATOM     43  C   UNL A   1      40.243  27.561  28.414  1.00  0.00    -0.014 A 
BRANCH  43  44
ATOM     44  C   UNL A   1      40.411  28.710  29.291  1.00  0.00     0.031 A 
ATOM     45  C   UNL A   1      39.332  29.706  29.394  1.00  0.00     0.074 A 
ATOM     46  C   UNL A   1      41.558  28.883  29.983  1.00  0.00     0.049 A 
ATOM     47  N   UNL A   1      39.521  30.947  29.690  1.00  0.00    -0.248 NA
ATOM     48  C   UNL A   1      37.944  29.394  29.070  1.00  0.00     0.031 C 
ATOM     49  C   UNL A   1      41.820  29.846  31.049  1.00  0.00     0.029 A 
ATOM     50  N   UNL A   1      42.805  28.351  29.709  1.00  0.00    -0.354 N 
ATOM     51  C   UNL A   1      38.286  31.509  29.899  1.00  0.00     0.074 A 
ATOM     52  C   UNL A   1      37.347  30.551  29.366  1.00  0.00     0.031 C 
ATOM     53  C   UNL A   1      43.148  30.010  31.170  1.00  0.00     0.029 A 
ATOM     54  C   UNL A   1      43.783  29.271  30.090  1.00  0.00     0.049 A 
ATOM     55  H   UNL A   1      42.975  27.467  29.312  1.00  0.00     0.167 HD
ATOM     56  C   UNL A   1      38.194  32.646  30.642  1.00  0.00     0.031 A 
ATOM     57  C   UNL A   1      44.639  29.817  29.176  1.00  0.00     0.031 A 
ATOM     58  C   UNL A   1      39.516  33.199  30.946  1.00  0.00     0.049 A 
ATOM     59  C   UNL A   1      44.501  31.321  29.037  1.00  0.00     0.074 A 
ATOM     60  C   UNL A   1      40.302  33.195  32.088  1.00  0.00     0.029 A 
ATOM     61  N   UNL A   1      40.337  33.619  29.905  1.00  0.00    -0.354 N 
ATOM     62  N   UNL A   1      43.469  32.002  29.451  1.00  0.00    -0.248 NA
ATOM     63  C   UNL A   1      45.494  32.168  28.381  1.00  0.00     0.031 C 
ATOM     64  C   UNL A   1      41.623  33.553  31.711  1.00  0.00     0.029 A 
ATOM     65  C   UNL A   1      41.630  33.809  30.351  1.00  0.00     0.049 A 
ATOM     66  H   UNL A   1      40.037  33.761  28.978  1.00  0.00     0.167 HD
ATOM     67  C   UNL A   1      43.627  33.327  29.133  1.00  0.00     0.074 A 
ATOM     68  C   UNL A   1      44.920  33.382  28.475  1.00  0.00     0.031 C 
ATOM     69  C   UNL A   1      42.669  34.254  29.429  1.00  0.00     0.031 A 
BRANCH  56  70
ATOM     70  C   UNL A   1      36.927  33.103  31.338  1.00  0.00    -0.014 A 
ATOM     71  C   UNL A   1      36.618  32.591  32.613  1.00  0.00     0.009 A 
ATOM     72  C   UNL A   1      35.955  33.949  30.777  1.00  0.00     0.009 A 
ATOM     73  C   UNL A   1      35.391  32.844  33.243  1.00  0.00     0.001 A 
ATOM     74  C   UNL A   1      34.721  34.199  31.393  1.00  0.00     0.001 A 
ATOM     75  C   UNL A   1      34.433  33.635  32.624  1.00  0.00     0.000 A 
ENDBRANCH  56  70
BRANCH  57  76
ATOM     76  C   UNL A   1      44.988  28.899  28.056  1.00  0.00    -0.014 A 
ATOM     77  C   UNL A   1      45.837  27.808  28.327  1.00  0.00     0.009 A 
ATOM     78  C   UNL A   1      44.225  28.878  26.880  1.00  0.00     0.009 A 
ATOM     79  C   UNL A   1      45.831  26.675  27.508  1.00  0.00     0.001 A 
ATOM     80  C   UNL A   1      44.231  27.745  26.056  1.00  0.00     0.001 A 
ATOM     81  C   UNL A   1      45.002  26.631  26.390  1.00  0.00     0.000 A 
ENDBRANCH  57  76
BRANCH  69  82
ATOM     82  C   UNL A   1      42.620  35.689  28.947  1.00  0.00    -0.014 A 
ATOM     83  C   UNL A   1      43.262  36.766  29.569  1.00  0.00     0.009 A 
ATOM     84  C   UNL A   1      41.986  35.967  27.712  1.00  0.00     0.009 A 
ATOM     85  C   UNL A   1      43.241  38.053  29.010  1.00  0.00     0.001 A 
ATOM     86  C   UNL A   1      42.001  37.235  27.127  1.00  0.00     0.001 A 
ATOM     87  C   UNL A   1      42.622  38.285  27.785  1.00  0.00     0.000 A 
ENDBRANCH  69  82
ENDBRANCH  43  44
ENDBRANCH  35  38
ENDBRANCH  33  34
ENDBRANCH  32  33
ENDBRANCH  31  32
ENDBRANCH   1  31
TORSDOF 17
ENDMDL
MODEL 2
REMARK VINA RESULT:     -10.6      3.411      9.182
REMARK SMILES CC[C@H](C)[C@H](NC(=O)CN1C(=O)/C(=C/c2ccc(C)cc2)SC1=S)C(=O)NCCCCNC(=O)c1ccc(-c2c3nc(c(-c4ccccc4)c4ccc([nH]4)c(-c4ccccc4)c4nc(c(-c5ccccc5)c5ccc2[nH]5)C=C4)C=C3)cc1
REMARK SMILES IDX 28 1 27 2 25 3 26 4 5 6 3 7 4 8 2 9 1 10 6 11 7 12 8 14 9 15
REMARK SMILES IDX 10 16 11 17 23 18 12 19 13 20 22 21 24 22 14 23 15 24 16 25
REMARK SMILES IDX 21 26 17 27 20 28 18 29 19 30 29 31 30 32 31 33 32 34 33 35
REMARK SMILES IDX 34 37 35 38 36 39 82 40 37 41 81 42 38 43 39 44 40 45 75 46
REMARK SMILES IDX 41 47 80 48 74 49 76 50 42 51 79 52 73 53 72 54 43 56 65 57
REMARK SMILES IDX 50 58 64 59 51 60 54 61 63 62 77 63 52 64 53 65 62 67 78 68
REMARK SMILES IDX 55 69 44 70 45 71 49 72 46 73 48 74 47 75 66 76 67 77 71 78
REMARK SMILES IDX 68 79 70 80 69 81 56 82 57 83 61 84 58 85 60 86 59 87
REMARK H PARENT 27 5 6 13 32 36 76 55 54 66
REMARK Flexibility Score: inf
ROOT
ATOM      1  C   UNL A   1      34.214  29.796  27.080  1.00  0.00     0.116 C 
ENDROOT
BRANCH   1   2
ATOM      2  N   UNL A   1      32.973  29.203  27.542  1.00  0.00    -0.354 N 
ATOM      3  C   UNL A   1      32.183  28.212  27.056  1.00  0.00     0.242 C 
ATOM      4  O   UNL A   1      31.311  27.779  27.818  1.00  0.00    -0.273 OA
ATOM      5  H   UNL A   1      32.636  29.600  28.377  1.00  0.00     0.163 HD
BRANCH   3   6
ATOM      6  C   UNL A   1      32.322  27.592  25.654  1.00  0.00     0.174 C 
BRANCH   6   7
ATOM      7  C   UNL A   1      32.223  28.603  24.457  1.00  0.00     0.018 C 
ATOM      8  C   UNL A   1      33.068  28.240  23.229  1.00  0.00     0.010 C 
BRANCH   7   9
ATOM      9  C   UNL A   1      30.810  29.042  23.997  1.00  0.00     0.002 C 
ATOM     10  C   UNL A   1      30.587  29.301  22.519  1.00  0.00     0.004 C 
ENDBRANCH   7   9
ENDBRANCH   6   7
BRANCH   6  11
ATOM     11  N   UNL A   1      31.405  26.459  25.449  1.00  0.00    -0.342 N 
ATOM     12  C   UNL A   1      31.458  25.359  24.652  1.00  0.00     0.240 C 
ATOM     13  H   UNL A   1      30.589  26.508  25.999  1.00  0.00     0.164 HD
ATOM     14  O   UNL A   1      30.407  24.709  24.584  1.00  0.00    -0.273 OA
BRANCH  12  15
ATOM     15  C   UNL A   1      32.749  24.752  24.076  1.00  0.00     0.227 C 
BRANCH  15  16
ATOM     16  N   UNL A   1      33.069  23.357  24.323  1.00  0.00    -0.283 N 
ATOM     17  C   UNL A   1      32.620  22.380  23.444  1.00  0.00     0.266 C 
ATOM     18  C   UNL A   1      34.054  22.964  25.205  1.00  0.00     0.148 C 
ATOM     19  O   UNL A   1      32.062  22.567  22.371  1.00  0.00    -0.268 OA
ATOM     20  C   UNL A   1      33.027  21.043  23.942  1.00  0.00     0.081 C 
ATOM     21  S   UNL A   1      34.307  21.237  25.080  1.00  0.00    -0.054 SA
ATOM     22  S   UNL A   1      34.931  23.907  26.263  1.00  0.00    -0.052 S 
ATOM     23  C   UNL A   1      32.424  19.900  23.580  1.00  0.00     0.029 C 
BRANCH  23  24
ATOM     24  C   UNL A   1      32.827  18.601  24.129  1.00  0.00    -0.024 A 
ATOM     25  C   UNL A   1      33.442  17.647  23.308  1.00  0.00     0.008 A 
ATOM     26  C   UNL A   1      32.457  18.252  25.429  1.00  0.00     0.008 A 
ATOM     27  C   UNL A   1      33.562  16.325  23.733  1.00  0.00     0.004 A 
ATOM     28  C   UNL A   1      32.594  16.931  25.861  1.00  0.00     0.004 A 
ATOM     29  C   UNL A   1      33.101  15.950  24.998  1.00  0.00    -0.051 A 
ATOM     30  C   UNL A   1      33.090  14.509  25.413  1.00  0.00     0.044 C 
ENDBRANCH  23  24
ENDBRANCH  15  16
ENDBRANCH  12  15
ENDBRANCH   6  11
ENDBRANCH   3   6
ENDBRANCH   1   2
BRANCH   1  31
ATOM     31  C   UNL A   1      34.455  31.254  27.486  1.00  0.00     0.023 C 
BRANCH  31  32
ATOM     32  C   UNL A   1      35.463  31.505  28.604  1.00  0.00     0.023 C 
BRANCH  32  33
ATOM     33  C   UNL A   1      34.861  31.665  29.984  1.00  0.00     0.116 C 
BRANCH  33  34
ATOM     34  N   UNL A   1      34.258  32.964  30.231  1.00  0.00    -0.352 N 
ATOM     35  C   UNL A   1      34.793  34.069  30.881  1.00  0.00     0.251 C 
ATOM     36  H   UNL A   1      33.342  33.077  29.889  1.00  0.00     0.163 HD
ATOM     37  O   UNL A   1      34.122  35.063  31.057  1.00  0.00    -0.269 OA
BRANCH  35  38
ATOM     38  C   UNL A   1      36.247  34.077  31.202  1.00  0.00     0.039 A 
ATOM     39  C   UNL A   1      37.114  34.441  30.166  1.00  0.00     0.014 A 
ATOM     40  C   UNL A   1      36.743  33.475  32.353  1.00  0.00     0.014 A 
ATOM     41  C   UNL A   1      38.406  33.932  30.159  1.00  0.00     0.010 A 
ATOM     42  C   UNL A   1      37.981  32.872  32.297  1.00  0.00     0.010 A 
ATOM     43  C   UNL A   1      38.777  33.038  31.161  1.00  0.00    -0.014 A 
BRANCH  43  44
ATOM     44  C   UNL A   1      39.939  32.169  31.056  1.00  0.00     0.031 A 
ATOM     45  C   UNL A   1      39.833  30.904  30.311  1.00  0.00     0.074 A 
ATOM     46  C   UNL A   1      41.100  32.501  31.662  1.00  0.00     0.049 A 
ATOM     47  N   UNL A   1      40.553  29.862  30.552  1.00  0.00    -0.248 NA
ATOM     48  C   UNL A   1      38.823  30.683  29.283  1.00  0.00     0.031 C 
ATOM     49  C   UNL A   1      42.405  31.868  31.496  1.00  0.00     0.029 A 
ATOM     50  N   UNL A   1      41.287  33.363  32.727  1.00  0.00    -0.354 N 
ATOM     51  C   UNL A   1      40.327  28.966  29.537  1.00  0.00     0.074 A 
ATOM     52  C   UNL A   1      39.150  29.459  28.863  1.00  0.00     0.031 C 
ATOM     53  C   UNL A   1      43.174  32.174  32.555  1.00  0.00     0.029 A 
ATOM     54  C   UNL A   1      42.344  32.893  33.509  1.00  0.00     0.049 A 
ATOM     55  H   UNL A   1      40.762  34.175  32.906  1.00  0.00     0.167 HD
ATOM     56  C   UNL A   1      41.255  28.000  29.288  1.00  0.00     0.031 A 
ATOM     57  C   UNL A   1      42.156  32.518  34.809  1.00  0.00     0.031 A 
ATOM     58  C   UNL A   1      42.294  27.973  30.320  1.00  0.00     0.049 A 
ATOM     59  C   UNL A   1      42.445  31.051  35.066  1.00  0.00     0.074 A 
ATOM     60  C   UNL A   1      43.604  28.425  30.354  1.00  0.00     0.029 A 
ATOM     61  N   UNL A   1      41.944  27.683  31.634  1.00  0.00    -0.354 N 
ATOM     62  N   UNL A   1      42.521  30.146  34.131  1.00  0.00    -0.248 NA
ATOM     63  C   UNL A   1      42.627  30.484  36.400  1.00  0.00     0.031 C 
ATOM     64  C   UNL A   1      44.018  28.466  31.712  1.00  0.00     0.029 A 
ATOM     65  C   UNL A   1      42.974  28.007  32.495  1.00  0.00     0.049 A 
ATOM     66  H   UNL A   1      41.081  27.300  31.913  1.00  0.00     0.167 HD
ATOM     67  C   UNL A   1      42.744  28.914  34.693  1.00  0.00     0.074 A 
ATOM     68  C   UNL A   1      42.817  29.182  36.117  1.00  0.00     0.031 C 
ATOM     69  C   UNL A   1      42.832  27.785  33.931  1.00  0.00     0.031 A 
BRANCH  56  70
ATOM     70  C   UNL A   1      41.385  27.272  27.965  1.00  0.00    -0.014 A 
ATOM     71  C   UNL A   1      40.574  26.148  27.714  1.00  0.00     0.009 A 
ATOM     72  C   UNL A   1      42.332  27.566  26.969  1.00  0.00     0.009 A 
ATOM     73  C   UNL A   1      40.752  25.334  26.586  1.00  0.00     0.001 A 
ATOM     74  C   UNL A   1      42.526  26.753  25.844  1.00  0.00     0.001 A 
ATOM     75  C   UNL A   1      41.743  25.627  25.658  1.00  0.00     0.000 A 
ENDBRANCH  56  70
BRANCH  57  76
ATOM     76  C   UNL A   1      41.104  33.302  35.513  1.00  0.00    -0.014 A 
ATOM     77  C   UNL A   1      39.876  32.670  35.795  1.00  0.00     0.009 A 
ATOM     78  C   UNL A   1      41.426  34.478  36.206  1.00  0.00     0.009 A 
ATOM     79  C   UNL A   1      39.052  33.132  36.826  1.00  0.00     0.001 A 
ATOM     80  C   UNL A   1      40.592  34.943  37.231  1.00  0.00     0.001 A 
ATOM     81  C   UNL A   1      39.428  34.250  37.566  1.00  0.00     0.000 A 
ENDBRANCH  57  76
BRANCH  69  82
ATOM     82  C   UNL A   1      42.857  26.356  34.430  1.00  0.00    -0.014 A 
ATOM     83  C   UNL A   1      41.881  25.776  35.249  1.00  0.00     0.009 A 
ATOM     84  C   UNL A   1      43.866  25.487  33.948  1.00  0.00     0.009 A 
ATOM     85  C   UNL A   1      41.931  24.416  35.598  1.00  0.00     0.001 A 
ATOM     86  C   UNL A   1      43.894  24.124  34.252  1.00  0.00     0.001 A 
ATOM     87  C   UNL A   1      42.928  23.590  35.090  1.00  0.00     0.000 A 
ENDBRANCH  69  82
ENDBRANCH  43  44
ENDBRANCH  35  38
ENDBRANCH  33  34
ENDBRANCH  32  33
ENDBRANCH  31  32
ENDBRANCH   1  31
TORSDOF 17
ENDMDL
MODEL 3
REMARK VINA RESULT:     -10.4      2.193      3.078
REMARK SMILES CC[C@H](C)[C@H](NC(=O)CN1C(=O)/C(=C/c2ccc(C)cc2)SC1=S)C(=O)NCCCCNC(=O)c1ccc(-c2c3nc(c(-c4ccccc4)c4ccc([nH]4)c(-c4ccccc4)c4nc(c(-c5ccccc5)c5ccc2[nH]5)C=C4)C=C3)cc1
REMARK SMILES IDX 28 1 27 2 25 3 26 4 5 6 3 7 4 8 2 9 1 10 6 11 7 12 8 14 9 15
REMARK SMILES IDX 10 16 11 17 23 18 12 19 13 20 22 21 24 22 14 23 15 24 16 25
REMARK SMILES IDX 21 26 17 27 20 28 18 29 19 30 29 31 30 32 31 33 32 34 33 35
REMARK SMILES IDX 34 37 35 38 36 39 82 40 37 41 81 42 38 43 39 44 40 45 75 46
REMARK SMILES IDX 41 47 80 48 74 49 76 50 42 51 79 52 73 53 72 54 43 56 65 57
REMARK SMILES IDX 50 58 64 59 51 60 54 61 63 62 77 63 52 64 53 65 62 67 78 68
REMARK SMILES IDX 55 69 44 70 45 71 49 72 46 73 48 74 47 75 66 76 67 77 71 78
REMARK SMILES IDX 68 79 70 80 69 81 56 82 57 83 61 84 58 85 60 86 59 87
REMARK H PARENT 27 5 6 13 32 36 76 55 54 66
REMARK Flexibility Score: inf
ROOT
ATOM      1  C   UNL A   1      36.160  21.489  24.667  1.00  0.00     0.116 C 
ENDROOT
BRANCH   1   2
ATOM      2  N   UNL A   1      35.240  21.433  25.787  1.00  0.00    -0.354 N 
ATOM      3  C   UNL A   1      33.969  20.974  25.920  1.00  0.00     0.242 C 
ATOM      4  O   UNL A   1      33.546  20.853  27.076  1.00  0.00    -0.273 OA
ATOM      5  H   UNL A   1      35.613  21.803  26.620  1.00  0.00     0.163 HD
BRANCH   3   6
ATOM      6  C   UNL A   1      33.055  20.582  24.747  1.00  0.00     0.174 C 
BRANCH   6   7
ATOM      7  C   UNL A   1      33.020  19.051  24.402  1.00  0.00     0.018 C 
ATOM      8  C   UNL A   1      32.222  18.687  23.144  1.00  0.00     0.010 C 
BRANCH   7   9
ATOM      9  C   UNL A   1      34.364  18.280  24.399  1.00  0.00     0.002 C 
ATOM     10  C   UNL A   1      34.397  16.901  23.766  1.00  0.00     0.004 C 
ENDBRANCH   7   9
ENDBRANCH   6   7
BRANCH   6  11
ATOM     11  N   UNL A   1      33.322  21.376  23.537  1.00  0.00    -0.342 N 
ATOM     12  C   UNL A   1      32.566  22.247  22.816  1.00  0.00     0.240 C 
ATOM     13  H   UNL A   1      34.231  21.252  23.177  1.00  0.00     0.164 HD
ATOM     14  O   UNL A   1      33.049  22.583  21.727  1.00  0.00    -0.273 OA
BRANCH  12  15
ATOM     15  C   UNL A   1      31.345  23.008  23.358  1.00  0.00     0.227 C 
BRANCH  15  16
ATOM     16  N   UNL A   1      31.533  24.164  24.218  1.00  0.00    -0.283 N 
ATOM     17  C   UNL A   1      31.839  25.398  23.657  1.00  0.00     0.266 C 
ATOM     18  C   UNL A   1      31.122  24.188  25.534  1.00  0.00     0.148 C 
ATOM     19  O   UNL A   1      31.853  25.672  22.464  1.00  0.00    -0.268 OA
ATOM     20  C   UNL A   1      32.034  26.396  24.736  1.00  0.00     0.081 C 
ATOM     21  S   UNL A   1      31.309  25.803  26.183  1.00  0.00    -0.054 SA
ATOM     22  S   UNL A   1      30.521  22.935  26.453  1.00  0.00    -0.052 S 
ATOM     23  C   UNL A   1      32.724  27.537  24.578  1.00  0.00     0.029 C 
BRANCH  23  24
ATOM     24  C   UNL A   1      32.933  28.478  25.684  1.00  0.00    -0.024 A 
ATOM     25  C   UNL A   1      32.055  29.554  25.870  1.00  0.00     0.008 A 
ATOM     26  C   UNL A   1      34.093  28.397  26.453  1.00  0.00     0.008 A 
ATOM     27  C   UNL A   1      32.400  30.604  26.719  1.00  0.00     0.004 A 
ATOM     28  C   UNL A   1      34.430  29.442  27.318  1.00  0.00     0.004 A 
ATOM     29  C   UNL A   1      33.610  30.574  27.418  1.00  0.00    -0.051 A 
ATOM     30  C   UNL A   1      34.061  31.757  28.219  1.00  0.00     0.044 C 
ENDBRANCH  23  24
ENDBRANCH  15  16
ENDBRANCH  12  15
ENDBRANCH   6  11
ENDBRANCH   3   6
ENDBRANCH   1   2
BRANCH   1  31
ATOM     31  C   UNL A   1      37.284  22.526  24.771  1.00  0.00     0.023 C 
BRANCH  31  32
ATOM     32  C   UNL A   1      38.229  22.408  25.962  1.00  0.00     0.023 C 
BRANCH  32  33
ATOM     33  C   UNL A   1      38.635  23.726  26.588  1.00  0.00     0.116 C 
BRANCH  33  34
ATOM     34  N   UNL A   1      39.608  24.483  25.819  1.00  0.00    -0.352 N 
ATOM     35  C   UNL A   1      40.390  25.562  26.212  1.00  0.00     0.251 C 
ATOM     36  H   UNL A   1      39.731  24.190  24.887  1.00  0.00     0.163 HD
ATOM     37  O   UNL A   1      41.111  26.121  25.415  1.00  0.00    -0.269 OA
BRANCH  35  38
ATOM     38  C   UNL A   1      40.458  25.907  27.659  1.00  0.00     0.039 A 
ATOM     39  C   UNL A   1      39.301  25.681  28.412  1.00  0.00     0.014 A 
ATOM     40  C   UNL A   1      41.490  26.685  28.174  1.00  0.00     0.014 A 
ATOM     41  C   UNL A   1      39.059  26.469  29.529  1.00  0.00     0.010 A 
ATOM     42  C   UNL A   1      41.205  27.549  29.210  1.00  0.00     0.010 A 
ATOM     43  C   UNL A   1      39.957  27.491  29.832  1.00  0.00    -0.014 A 
BRANCH  43  44
ATOM     44  C   UNL A   1      39.629  28.592  30.724  1.00  0.00     0.031 A 
ATOM     45  C   UNL A   1      38.950  29.783  30.187  1.00  0.00     0.074 A 
ATOM     46  C   UNL A   1      39.971  28.542  32.030  1.00  0.00     0.049 A 
ATOM     47  N   UNL A   1      39.058  30.965  30.692  1.00  0.00    -0.248 NA
ATOM     48  C   UNL A   1      38.162  29.748  28.961  1.00  0.00     0.031 C 
ATOM     49  C   UNL A   1      39.549  29.444  33.098  1.00  0.00     0.029 A 
ATOM     50  N   UNL A   1      40.955  27.771  32.622  1.00  0.00    -0.354 N 
ATOM     51  C   UNL A   1      38.132  31.762  30.066  1.00  0.00     0.074 A 
ATOM     52  C   UNL A   1      37.708  31.003  28.913  1.00  0.00     0.031 C 
ATOM     53  C   UNL A   1      40.416  29.343  34.119  1.00  0.00     0.029 A 
ATOM     54  C   UNL A   1      41.507  28.483  33.688  1.00  0.00     0.049 A 
ATOM     55  H   UNL A   1      41.221  26.867  32.339  1.00  0.00     0.167 HD
ATOM     56  C   UNL A   1      37.715  32.902  30.683  1.00  0.00     0.031 A 
ATOM     57  C   UNL A   1      42.826  28.841  33.697  1.00  0.00     0.031 A 
ATOM     58  C   UNL A   1      38.507  33.185  31.882  1.00  0.00     0.049 A 
ATOM     59  C   UNL A   1      43.049  30.341  33.700  1.00  0.00     0.074 A 
ATOM     60  C   UNL A   1      38.256  33.036  33.237  1.00  0.00     0.029 A 
ATOM     61  N   UNL A   1      39.871  33.425  31.759  1.00  0.00    -0.354 N 
ATOM     62  N   UNL A   1      42.138  31.216  33.376  1.00  0.00    -0.248 NA
ATOM     63  C   UNL A   1      44.326  30.969  34.027  1.00  0.00     0.031 C 
ATOM     64  C   UNL A   1      39.496  33.123  33.924  1.00  0.00     0.029 A 
ATOM     65  C   UNL A   1      40.490  33.359  32.992  1.00  0.00     0.049 A 
ATOM     66  H   UNL A   1      40.332  33.614  30.910  1.00  0.00     0.167 HD
ATOM     67  C   UNL A   1      42.667  32.481  33.433  1.00  0.00     0.074 A 
ATOM     68  C   UNL A   1      44.039  32.273  33.859  1.00  0.00     0.031 C 
ATOM     69  C   UNL A   1      41.928  33.582  33.107  1.00  0.00     0.031 A 
BRANCH  56  70
ATOM     70  C   UNL A   1      36.410  33.607  30.369  1.00  0.00    -0.014 A 
ATOM     71  C   UNL A   1      36.246  34.227  29.115  1.00  0.00     0.009 A 
ATOM     72  C   UNL A   1      35.348  33.784  31.272  1.00  0.00     0.009 A 
ATOM     73  C   UNL A   1      35.136  35.031  28.818  1.00  0.00     0.001 A 
ATOM     74  C   UNL A   1      34.239  34.593  30.989  1.00  0.00     0.001 A 
ATOM     75  C   UNL A   1      34.139  35.229  29.764  1.00  0.00     0.000 A 
ENDBRANCH  56  70
BRANCH  57  76
ATOM     76  C   UNL A   1      43.718  27.861  33.016  1.00  0.00    -0.014 A 
ATOM     77  C   UNL A   1      44.109  28.125  31.688  1.00  0.00     0.009 A 
ATOM     78  C   UNL A   1      44.449  26.920  33.754  1.00  0.00     0.009 A 
ATOM     79  C   UNL A   1      45.270  27.556  31.157  1.00  0.00     0.001 A 
ATOM     80  C   UNL A   1      45.605  26.343  33.214  1.00  0.00     0.001 A 
ATOM     81  C   UNL A   1      46.036  26.690  31.933  1.00  0.00     0.000 A 
ENDBRANCH  57  76
BRANCH  69  82
ATOM     82  C   UNL A   1      42.442  34.993  32.919  1.00  0.00    -0.014 A 
ATOM     83  C   UNL A   1      42.455  35.981  33.910  1.00  0.00     0.009 A 
ATOM     84  C   UNL A   1      43.074  35.326  31.696  1.00  0.00     0.009 A 
ATOM     85  C   UNL A   1      43.032  37.241  33.682  1.00  0.00     0.001 A 
ATOM     86  C   UNL A   1      43.690  36.561  31.479  1.00  0.00     0.001 A 
ATOM     87  C   UNL A   1      43.658  37.525  32.473  1.00  0.00     0.000 A 
ENDBRANCH  69  82
ENDBRANCH  43  44
ENDBRANCH  35  38
ENDBRANCH  33  34
ENDBRANCH  32  33
ENDBRANCH  31  32
ENDBRANCH   1  31
TORSDOF 17
ENDMDL
