MODEL 1
REMARK VINA RESULT:     -10.5      0.000      0.000
REMARK SMILES O=C(NCCCCNC(=O)[C@@H]1Sc2c(sc(=O)n2Cc2ccccc2)[C@H]2c3ccccc3OC(=O)[C@@H]21)c1ccc(-c2c3nc(c(-c4ccccc4)c4ccc([nH]4)c(-c4ccccc4)c4nc(c(-c5ccccc5)c5ccc2[nH]5)C=C4)C=C3)cc1
REMARK SMILES IDX 5 1 4 2 3 3 1 4 2 5 37 7 38 8 84 9 39 10 83 11 40 12 41 13
REMARK SMILES IDX 42 14 77 15 43 16 82 17 76 18 78 19 44 20 81 21 75 22 74 23
REMARK SMILES IDX 45 25 67 26 52 27 66 28 53 29 56 30 65 31 79 32 54 33 55 34
REMARK SMILES IDX 64 36 80 37 57 38 46 39 47 40 51 41 48 42 50 43 49 44 68 45
REMARK SMILES IDX 69 46 73 47 70 48 72 49 71 50 58 51 59 52 63 53 60 54 62 55
REMARK SMILES IDX 61 56 6 57 7 58 8 59 9 60 10 62 11 63 12 64 36 65 13 66
REMARK SMILES IDX 26 67 34 68 14 69 18 70 27 71 33 72 35 73 15 74 16 75 28 76
REMARK SMILES IDX 32 77 17 78 29 79 31 80 30 81 19 82 20 83 21 84 25 85 22 86
REMARK SMILES IDX 24 87 23 88
REMARK H PARENT 3 6 78 24 56 35 8 61
REMARK Flexibility Score: inf
ROOT
ATOM      1  C   UNL A   1      39.647  26.184  28.622  1.00  0.00     0.023 C 
ENDROOT
BRANCH   1   2
ATOM      2  C   UNL A   1      39.033  25.258  27.594  1.00  0.00     0.116 C 
BRANCH   2   3
ATOM      3  N   UNL A   1      39.321  23.828  27.791  1.00  0.00    -0.352 N 
ATOM      4  O   UNL A   1      40.368  21.896  27.125  1.00  0.00    -0.269 OA
ATOM      5  C   UNL A   1      40.388  23.111  27.255  1.00  0.00     0.251 C 
ATOM      6  H   UNL A   1      38.693  23.327  28.361  1.00  0.00     0.163 HD
BRANCH   5   7
ATOM      7  C   UNL A   1      41.587  23.889  26.910  1.00  0.00     0.039 A 
ATOM      8  C   UNL A   1      41.752  24.607  25.724  1.00  0.00     0.014 A 
ATOM      9  C   UNL A   1      42.465  24.033  27.971  1.00  0.00     0.014 A 
ATOM     10  C   UNL A   1      42.782  25.548  25.670  1.00  0.00     0.010 A 
ATOM     11  C   UNL A   1      43.202  25.173  28.021  1.00  0.00     0.010 A 
ATOM     12  C   UNL A   1      43.491  25.840  26.848  1.00  0.00    -0.014 A 
BRANCH  12  13
ATOM     13  C   UNL A   1      44.505  26.876  26.964  1.00  0.00     0.031 A 
ATOM     14  C   UNL A   1      45.860  26.458  26.548  1.00  0.00     0.074 A 
ATOM     15  C   UNL A   1      44.199  28.165  27.242  1.00  0.00     0.049 A 
ATOM     16  N   UNL A   1      46.834  26.152  27.332  1.00  0.00    -0.248 NA
ATOM     17  C   UNL A   1      46.120  26.179  25.129  1.00  0.00     0.031 C 
ATOM     18  C   UNL A   1      42.873  28.797  27.388  1.00  0.00     0.029 A 
ATOM     19  N   UNL A   1      45.032  29.229  27.362  1.00  0.00    -0.354 N 
ATOM     20  C   UNL A   1      47.911  25.865  26.507  1.00  0.00     0.074 A 
ATOM     21  C   UNL A   1      47.362  25.689  25.186  1.00  0.00     0.031 C 
ATOM     22  C   UNL A   1      42.990  30.142  27.341  1.00  0.00     0.029 A 
ATOM     23  C   UNL A   1      44.400  30.467  27.392  1.00  0.00     0.049 A 
ATOM     24  H   UNL A   1      46.010  29.132  27.423  1.00  0.00     0.167 HD
ATOM     25  C   UNL A   1      49.186  26.066  26.941  1.00  0.00     0.031 A 
ATOM     26  C   UNL A   1      44.993  31.677  27.503  1.00  0.00     0.031 A 
ATOM     27  C   UNL A   1      49.211  26.315  28.365  1.00  0.00     0.049 A 
ATOM     28  C   UNL A   1      46.320  31.439  28.109  1.00  0.00     0.074 A 
ATOM     29  C   UNL A   1      48.867  25.585  29.484  1.00  0.00     0.029 A 
ATOM     30  N   UNL A   1      49.210  27.638  28.748  1.00  0.00    -0.354 N 
ATOM     31  N   UNL A   1      46.481  31.002  29.325  1.00  0.00    -0.248 NA
ATOM     32  C   UNL A   1      47.455  31.259  27.222  1.00  0.00     0.031 C 
ATOM     33  C   UNL A   1      48.255  26.524  30.365  1.00  0.00     0.029 A 
ATOM     34  C   UNL A   1      48.337  27.797  29.794  1.00  0.00     0.049 A 
ATOM     35  H   UNL A   1      49.749  28.353  28.338  1.00  0.00     0.167 HD
ATOM     36  C   UNL A   1      47.529  30.098  29.234  1.00  0.00     0.074 A 
ATOM     37  C   UNL A   1      48.168  30.397  27.953  1.00  0.00     0.031 C 
ATOM     38  C   UNL A   1      47.597  29.017  30.065  1.00  0.00     0.031 A 
BRANCH  25  39
ATOM     39  C   UNL A   1      50.336  26.451  26.046  1.00  0.00    -0.014 A 
ATOM     40  C   UNL A   1      51.473  25.648  25.840  1.00  0.00     0.009 A 
ATOM     41  C   UNL A   1      50.175  27.545  25.177  1.00  0.00     0.009 A 
ATOM     42  C   UNL A   1      52.392  25.907  24.818  1.00  0.00     0.001 A 
ATOM     43  C   UNL A   1      51.071  27.786  24.128  1.00  0.00     0.001 A 
ATOM     44  C   UNL A   1      52.177  26.963  23.947  1.00  0.00     0.000 A 
ENDBRANCH  25  39
BRANCH  26  45
ATOM     45  C   UNL A   1      44.657  32.949  26.831  1.00  0.00    -0.014 A 
ATOM     46  C   UNL A   1      44.438  34.109  27.595  1.00  0.00     0.009 A 
ATOM     47  C   UNL A   1      44.218  32.947  25.497  1.00  0.00     0.009 A 
ATOM     48  C   UNL A   1      43.734  35.197  27.068  1.00  0.00     0.001 A 
ATOM     49  C   UNL A   1      43.514  34.037  24.970  1.00  0.00     0.001 A 
ATOM     50  C   UNL A   1      43.252  35.152  25.763  1.00  0.00     0.000 A 
ENDBRANCH  26  45
BRANCH  38  51
ATOM     51  C   UNL A   1      46.664  28.979  31.261  1.00  0.00    -0.014 A 
ATOM     52  C   UNL A   1      47.156  29.442  32.491  1.00  0.00     0.009 A 
ATOM     53  C   UNL A   1      45.400  28.358  31.248  1.00  0.00     0.009 A 
ATOM     54  C   UNL A   1      46.429  29.273  33.672  1.00  0.00     0.001 A 
ATOM     55  C   UNL A   1      44.658  28.214  32.428  1.00  0.00     0.001 A 
ATOM     56  C   UNL A   1      45.178  28.660  33.640  1.00  0.00     0.000 A 
ENDBRANCH  38  51
ENDBRANCH  12  13
ENDBRANCH   5   7
ENDBRANCH   2   3
ENDBRANCH   1   2
BRANCH   1  57
ATOM     57  C   UNL A   1      39.184  27.635  28.602  1.00  0.00     0.023 C 
BRANCH  57  58
ATOM     58  C   UNL A   1      39.088  28.509  29.848  1.00  0.00     0.116 C 
BRANCH  58  59
ATOM     59  N   UNL A   1      39.010  27.772  31.102  1.00  0.00    -0.355 N 
ATOM     60  C   UNL A   1      38.435  28.044  32.310  1.00  0.00     0.234 C 
ATOM     61  H   UNL A   1      39.464  26.898  31.072  1.00  0.00     0.163 HD
ATOM     62  O   UNL A   1      38.128  27.049  32.981  1.00  0.00    -0.274 OA
BRANCH  60  63
ATOM     63  C   UNL A   1      38.200  29.455  32.904  1.00  0.00     0.157 C 
ATOM     64  S   UNL A   1      36.740  30.310  32.055  1.00  0.00    -0.093 SA
ATOM     65  C   UNL A   1      39.452  30.336  33.171  1.00  0.00     0.135 C 
ATOM     66  C   UNL A   1      37.166  31.985  32.235  1.00  0.00     0.094 A 
ATOM     67  C   UNL A   1      39.555  31.396  32.086  1.00  0.00     0.082 C 
ATOM     68  C   UNL A   1      40.714  29.552  33.444  1.00  0.00     0.317 C 
ATOM     69  C   UNL A   1      38.452  32.368  32.306  1.00  0.00     0.049 A 
ATOM     70  N   UNL A   1      36.281  33.042  32.324  1.00  0.00    -0.289 N 
ATOM     71  C   UNL A   1      40.925  31.890  31.751  1.00  0.00     0.004 A 
ATOM     72  O   UNL A   1      41.913  30.216  33.221  1.00  0.00    -0.426 OA
ATOM     73  O   UNL A   1      40.710  28.451  33.982  1.00  0.00    -0.251 OA
ATOM     74  S   UNL A   1      38.628  34.045  32.661  1.00  0.00    -0.077 S 
ATOM     75  C   UNL A   1      36.876  34.272  32.633  1.00  0.00     0.308 A 
ATOM     76  C   UNL A   1      41.123  32.758  30.661  1.00  0.00     0.008 A 
ATOM     77  C   UNL A   1      42.037  31.284  32.316  1.00  0.00     0.134 A 
ATOM     78  O   UNL A   1      36.361  35.339  32.868  1.00  0.00    -0.257 OA
ATOM     79  C   UNL A   1      42.406  33.031  30.189  1.00  0.00     0.001 A 
ATOM     80  C   UNL A   1      43.329  31.571  31.873  1.00  0.00     0.047 A 
ATOM     81  C   UNL A   1      43.510  32.448  30.804  1.00  0.00     0.004 A 
BRANCH  70  82
ATOM     82  C   UNL A   1      34.844  32.990  32.106  1.00  0.00     0.163 C 
BRANCH  82  83
ATOM     83  C   UNL A   1      34.469  33.356  30.679  1.00  0.00    -0.028 A 
ATOM     84  C   UNL A   1      34.708  32.477  29.613  1.00  0.00     0.005 A 
ATOM     85  C   UNL A   1      33.952  34.632  30.392  1.00  0.00     0.005 A 
ATOM     86  C   UNL A   1      34.456  32.878  28.297  1.00  0.00     0.000 A 
ATOM     87  C   UNL A   1      33.718  35.036  29.077  1.00  0.00     0.000 A 
ATOM     88  C   UNL A   1      33.973  34.159  28.029  1.00  0.00     0.000 A 
ENDBRANCH  82  83
ENDBRANCH  70  82
ENDBRANCH  60  63
ENDBRANCH  58  59
ENDBRANCH  57  58
ENDBRANCH   1  57
TORSDOF 13
ENDMDL
MODEL 2
REMARK VINA RESULT:     -10.4      3.695     11.744
REMARK SMILES O=C(NCCCCNC(=O)[C@@H]1Sc2c(sc(=O)n2Cc2ccccc2)[C@H]2c3ccccc3OC(=O)[C@@H]21)c1ccc(-c2c3nc(c(-c4ccccc4)c4ccc([nH]4)c(-c4ccccc4)c4nc(c(-c5ccccc5)c5ccc2[nH]5)C=C4)C=C3)cc1
REMARK SMILES IDX 5 1 4 2 3 3 1 4 2 5 37 7 38 8 84 9 39 10 83 11 40 12 41 13
REMARK SMILES IDX 42 14 77 15 43 16 82 17 76 18 78 19 44 20 81 21 75 22 74 23
REMARK SMILES IDX 45 25 67 26 52 27 66 28 53 29 56 30 65 31 79 32 54 33 55 34
REMARK SMILES IDX 64 36 80 37 57 38 46 39 47 40 51 41 48 42 50 43 49 44 68 45
REMARK SMILES IDX 69 46 73 47 70 48 72 49 71 50 58 51 59 52 63 53 60 54 62 55
REMARK SMILES IDX 61 56 6 57 7 58 8 59 9 60 10 62 11 63 12 64 36 65 13 66
REMARK SMILES IDX 26 67 34 68 14 69 18 70 27 71 33 72 35 73 15 74 16 75 28 76
REMARK SMILES IDX 32 77 17 78 29 79 31 80 30 81 19 82 20 83 21 84 25 85 22 86
REMARK SMILES IDX 24 87 23 88
REMARK H PARENT 3 6 78 24 56 35 8 61
REMARK Flexibility Score: inf
ROOT
ATOM      1  C   UNL A   1      44.770  31.049  27.697  1.00  0.00     0.023 C 
ENDROOT
BRANCH   1   2
ATOM      2  C   UNL A   1      44.520  32.503  27.361  1.00  0.00     0.116 C 
BRANCH   2   3
ATOM      3  N   UNL A   1      45.586  33.430  27.772  1.00  0.00    -0.352 N 
ATOM      4  O   UNL A   1      46.268  35.533  28.393  1.00  0.00    -0.269 OA
ATOM      5  C   UNL A   1      45.424  34.650  28.425  1.00  0.00     0.251 C 
ATOM      6  H   UNL A   1      46.510  33.160  27.563  1.00  0.00     0.163 HD
BRANCH   5   7
ATOM      7  C   UNL A   1      44.200  34.802  29.227  1.00  0.00     0.039 A 
ATOM      8  C   UNL A   1      43.033  35.424  28.780  1.00  0.00     0.014 A 
ATOM      9  C   UNL A   1      44.227  34.071  30.402  1.00  0.00     0.014 A 
ATOM     10  C   UNL A   1      41.862  35.212  29.510  1.00  0.00     0.010 A 
ATOM     11  C   UNL A   1      43.042  33.600  30.870  1.00  0.00     0.010 A 
ATOM     12  C   UNL A   1      41.878  34.267  30.550  1.00  0.00    -0.014 A 
BRANCH  12  13
ATOM     13  C   UNL A   1      40.708  33.863  31.314  1.00  0.00     0.031 A 
ATOM     14  C   UNL A   1      40.910  33.835  32.777  1.00  0.00     0.074 A 
ATOM     15  C   UNL A   1      39.486  33.716  30.749  1.00  0.00     0.049 A 
ATOM     16  N   UNL A   1      41.091  32.783  33.498  1.00  0.00    -0.248 NA
ATOM     17  C   UNL A   1      41.107  35.100  33.499  1.00  0.00     0.031 C 
ATOM     18  C   UNL A   1      39.060  33.997  29.364  1.00  0.00     0.029 A 
ATOM     19  N   UNL A   1      38.316  33.365  31.337  1.00  0.00    -0.354 N 
ATOM     20  C   UNL A   1      41.193  33.232  34.806  1.00  0.00     0.074 A 
ATOM     21  C   UNL A   1      41.410  34.654  34.722  1.00  0.00     0.031 C 
ATOM     22  C   UNL A   1      37.712  34.030  29.288  1.00  0.00     0.029 A 
ATOM     23  C   UNL A   1      37.185  33.554  30.549  1.00  0.00     0.049 A 
ATOM     24  H   UNL A   1      38.269  33.004  32.252  1.00  0.00     0.167 HD
ATOM     25  C   UNL A   1      40.819  32.431  35.842  1.00  0.00     0.031 A 
ATOM     26  C   UNL A   1      35.905  33.287  30.893  1.00  0.00     0.031 A 
ATOM     27  C   UNL A   1      40.610  31.073  35.392  1.00  0.00     0.049 A 
ATOM     28  C   UNL A   1      35.963  32.299  31.990  1.00  0.00     0.074 A 
ATOM     29  C   UNL A   1      41.415  30.101  34.833  1.00  0.00     0.029 A 
ATOM     30  N   UNL A   1      39.314  30.733  35.077  1.00  0.00    -0.354 N 
ATOM     31  N   UNL A   1      36.406  31.084  31.833  1.00  0.00    -0.248 NA
ATOM     32  C   UNL A   1      35.948  32.789  33.356  1.00  0.00     0.031 C 
ATOM     33  C   UNL A   1      40.602  29.468  33.848  1.00  0.00     0.029 A 
ATOM     34  C   UNL A   1      39.315  30.009  33.911  1.00  0.00     0.049 A 
ATOM     35  H   UNL A   1      38.516  30.970  35.602  1.00  0.00     0.167 HD
ATOM     36  C   UNL A   1      37.142  30.832  32.980  1.00  0.00     0.074 A 
ATOM     37  C   UNL A   1      36.716  31.859  33.930  1.00  0.00     0.031 C 
ATOM     38  C   UNL A   1      38.225  30.000  32.951  1.00  0.00     0.031 A 
BRANCH  25  39
ATOM     39  C   UNL A   1      40.244  32.936  37.141  1.00  0.00    -0.014 A 
ATOM     40  C   UNL A   1      41.020  33.271  38.265  1.00  0.00     0.009 A 
ATOM     41  C   UNL A   1      38.894  33.329  37.170  1.00  0.00     0.009 A 
ATOM     42  C   UNL A   1      40.490  33.973  39.353  1.00  0.00     0.001 A 
ATOM     43  C   UNL A   1      38.368  34.065  38.238  1.00  0.00     0.001 A 
ATOM     44  C   UNL A   1      39.169  34.390  39.328  1.00  0.00     0.000 A 
ENDBRANCH  25  39
BRANCH  26  45
ATOM     45  C   UNL A   1      34.677  34.053  30.594  1.00  0.00    -0.014 A 
ATOM     46  C   UNL A   1      34.121  34.011  29.303  1.00  0.00     0.009 A 
ATOM     47  C   UNL A   1      34.258  35.077  31.458  1.00  0.00     0.009 A 
ATOM     48  C   UNL A   1      33.238  35.004  28.866  1.00  0.00     0.001 A 
ATOM     49  C   UNL A   1      33.374  36.071  31.019  1.00  0.00     0.001 A 
ATOM     50  C   UNL A   1      32.883  36.047  29.716  1.00  0.00     0.000 A 
ENDBRANCH  26  45
BRANCH  38  51
ATOM     51  C   UNL A   1      38.435  29.149  31.712  1.00  0.00    -0.014 A 
ATOM     52  C   UNL A   1      38.276  27.760  31.837  1.00  0.00     0.009 A 
ATOM     53  C   UNL A   1      38.937  29.648  30.495  1.00  0.00     0.009 A 
ATOM     54  C   UNL A   1      38.627  26.895  30.798  1.00  0.00     0.001 A 
ATOM     55  C   UNL A   1      39.261  28.783  29.442  1.00  0.00     0.001 A 
ATOM     56  C   UNL A   1      39.118  27.407  29.599  1.00  0.00     0.000 A 
ENDBRANCH  38  51
ENDBRANCH  12  13
ENDBRANCH   5   7
ENDBRANCH   2   3
ENDBRANCH   1   2
BRANCH   1  57
ATOM     57  C   UNL A   1      43.660  30.064  27.351  1.00  0.00     0.023 C 
BRANCH  57  58
ATOM     58  C   UNL A   1      43.722  29.103  26.169  1.00  0.00     0.116 C 
BRANCH  58  59
ATOM     59  N   UNL A   1      45.062  28.859  25.654  1.00  0.00    -0.355 N 
ATOM     60  C   UNL A   1      45.792  27.722  25.451  1.00  0.00     0.234 C 
ATOM     61  H   UNL A   1      45.540  29.682  25.400  1.00  0.00     0.163 HD
ATOM     62  O   UNL A   1      46.664  27.808  24.576  1.00  0.00    -0.274 OA
BRANCH  60  63
ATOM     63  C   UNL A   1      45.650  26.401  26.248  1.00  0.00     0.157 C 
ATOM     64  S   UNL A   1      44.282  25.316  25.517  1.00  0.00    -0.093 SA
ATOM     65  C   UNL A   1      45.702  26.492  27.798  1.00  0.00     0.135 C 
ATOM     66  C   UNL A   1      43.769  24.418  26.913  1.00  0.00     0.094 A 
ATOM     67  C   UNL A   1      44.293  26.350  28.351  1.00  0.00     0.082 C 
ATOM     68  C   UNL A   1      46.498  27.663  28.324  1.00  0.00     0.317 C 
ATOM     69  C   UNL A   1      43.873  24.939  28.147  1.00  0.00     0.049 A 
ATOM     70  N   UNL A   1      43.232  23.145  26.906  1.00  0.00    -0.289 N 
ATOM     71  C   UNL A   1      44.004  27.031  29.651  1.00  0.00     0.004 A 
ATOM     72  O   UNL A   1      46.205  28.078  29.616  1.00  0.00    -0.426 OA
ATOM     73  O   UNL A   1      47.460  28.134  27.728  1.00  0.00    -0.251 OA
ATOM     74  S   UNL A   1      43.471  23.807  29.383  1.00  0.00    -0.077 S 
ATOM     75  C   UNL A   1      43.057  22.583  28.178  1.00  0.00     0.308 A 
ATOM     76  C   UNL A   1      42.693  27.074  30.157  1.00  0.00     0.008 A 
ATOM     77  C   UNL A   1      44.955  27.864  30.221  1.00  0.00     0.134 A 
ATOM     78  O   UNL A   1      42.706  21.469  28.485  1.00  0.00    -0.257 OA
ATOM     79  C   UNL A   1      42.367  27.904  31.229  1.00  0.00     0.001 A 
ATOM     80  C   UNL A   1      44.651  28.677  31.314  1.00  0.00     0.047 A 
ATOM     81  C   UNL A   1      43.350  28.696  31.816  1.00  0.00     0.004 A 
BRANCH  70  82
ATOM     82  C   UNL A   1      42.826  22.381  25.738  1.00  0.00     0.163 C 
BRANCH  82  83
ATOM     83  C   UNL A   1      43.805  21.262  25.418  1.00  0.00    -0.028 A 
ATOM     84  C   UNL A   1      43.420  19.916  25.480  1.00  0.00     0.005 A 
ATOM     85  C   UNL A   1      45.150  21.563  25.141  1.00  0.00     0.005 A 
ATOM     86  C   UNL A   1      44.365  18.902  25.289  1.00  0.00     0.000 A 
ATOM     87  C   UNL A   1      46.094  20.549  24.968  1.00  0.00     0.000 A 
ATOM     88  C   UNL A   1      45.701  19.218  25.046  1.00  0.00     0.000 A 
ENDBRANCH  82  83
ENDBRANCH  70  82
ENDBRANCH  60  63
ENDBRANCH  58  59
ENDBRANCH  57  58
ENDBRANCH   1  57
TORSDOF 13
ENDMDL
MODEL 3
REMARK VINA RESULT:     -10.3      2.723      6.513
REMARK SMILES O=C(NCCCCNC(=O)[C@@H]1Sc2c(sc(=O)n2Cc2ccccc2)[C@H]2c3ccccc3OC(=O)[C@@H]21)c1ccc(-c2c3nc(c(-c4ccccc4)c4ccc([nH]4)c(-c4ccccc4)c4nc(c(-c5ccccc5)c5ccc2[nH]5)C=C4)C=C3)cc1
REMARK SMILES IDX 5 1 4 2 3 3 1 4 2 5 37 7 38 8 84 9 39 10 83 11 40 12 41 13
REMARK SMILES IDX 42 14 77 15 43 16 82 17 76 18 78 19 44 20 81 21 75 22 74 23
REMARK SMILES IDX 45 25 67 26 52 27 66 28 53 29 56 30 65 31 79 32 54 33 55 34
REMARK SMILES IDX 64 36 80 37 57 38 46 39 47 40 51 41 48 42 50 43 49 44 68 45
REMARK SMILES IDX 69 46 73 47 70 48 72 49 71 50 58 51 59 52 63 53 60 54 62 55
REMARK SMILES IDX 61 56 6 57 7 58 8 59 9 60 10 62 11 63 12 64 36 65 13 66
REMARK SMILES IDX 26 67 34 68 14 69 18 70 27 71 33 72 35 73 15 74 16 75 28 76
REMARK SMILES IDX 32 77 17 78 29 79 31 80 30 81 19 82 20 83 21 84 25 85 22 86
REMARK SMILES IDX 24 87 23 88
REMARK H PARENT 3 6 78 24 56 35 8 61
REMARK Flexibility Score: inf
ROOT
ATOM      1  C   UNL A   1      42.506  29.177  33.227  1.00  0.00     0.023 C 
ENDROOT
BRANCH   1   2
ATOM      2  C   UNL A   1      42.233  27.899  33.991  1.00  0.00     0.116 C 
BRANCH   2   3
ATOM      3  N   UNL A   1      43.098  27.673  35.159  1.00  0.00    -0.352 N 
ATOM      4  O   UNL A   1      44.416  26.280  36.423  1.00  0.00    -0.269 OA
ATOM      5  C   UNL A   1      44.023  26.645  35.324  1.00  0.00     0.251 C 
ATOM      6  H   UNL A   1      43.013  28.314  35.901  1.00  0.00     0.163 HD
BRANCH   5   7
ATOM      7  C   UNL A   1      44.568  26.055  34.092  1.00  0.00     0.039 A 
ATOM      8  C   UNL A   1      44.290  24.763  33.642  1.00  0.00     0.014 A 
ATOM      9  C   UNL A   1      45.215  26.978  33.289  1.00  0.00     0.014 A 
ATOM     10  C   UNL A   1      44.605  24.453  32.317  1.00  0.00     0.010 A 
ATOM     11  C   UNL A   1      45.176  26.773  31.947  1.00  0.00     0.010 A 
ATOM     12  C   UNL A   1      45.029  25.488  31.466  1.00  0.00    -0.014 A 
BRANCH  12  13
ATOM     13  C   UNL A   1      45.279  25.333  30.041  1.00  0.00     0.031 A 
ATOM     14  C   UNL A   1      46.536  25.945  29.567  1.00  0.00     0.074 A 
ATOM     15  C   UNL A   1      44.524  24.529  29.255  1.00  0.00     0.049 A 
ATOM     16  N   UNL A   1      46.645  27.059  28.929  1.00  0.00    -0.248 NA
ATOM     17  C   UNL A   1      47.820  25.365  29.988  1.00  0.00     0.031 C 
ATOM     18  C   UNL A   1      43.423  23.622  29.634  1.00  0.00     0.029 A 
ATOM     19  N   UNL A   1      44.650  24.278  27.928  1.00  0.00    -0.354 N 
ATOM     20  C   UNL A   1      47.996  27.211  28.658  1.00  0.00     0.074 A 
ATOM     21  C   UNL A   1      48.680  26.268  29.507  1.00  0.00     0.031 C 
ATOM     22  C   UNL A   1      43.152  22.769  28.622  1.00  0.00     0.029 A 
ATOM     23  C   UNL A   1      43.892  23.211  27.460  1.00  0.00     0.049 A 
ATOM     24  H   UNL A   1      45.235  24.811  27.341  1.00  0.00     0.167 HD
ATOM     25  C   UNL A   1      48.406  27.911  27.564  1.00  0.00     0.031 A 
ATOM     26  C   UNL A   1      43.836  22.753  26.188  1.00  0.00     0.031 A 
ATOM     27  C   UNL A   1      47.304  28.638  26.977  1.00  0.00     0.049 A 
ATOM     28  C   UNL A   1      44.274  23.868  25.322  1.00  0.00     0.074 A 
ATOM     29  C   UNL A   1      46.473  29.653  27.406  1.00  0.00     0.029 A 
ATOM     30  N   UNL A   1      46.651  28.013  25.939  1.00  0.00    -0.354 N 
ATOM     31  N   UNL A   1      43.601  24.974  25.188  1.00  0.00    -0.248 NA
ATOM     32  C   UNL A   1      45.676  23.939  24.954  1.00  0.00     0.031 C 
ATOM     33  C   UNL A   1      45.184  29.316  26.898  1.00  0.00     0.029 A 
ATOM     34  C   UNL A   1      45.298  28.170  26.106  1.00  0.00     0.049 A 
ATOM     35  H   UNL A   1      47.083  27.532  25.197  1.00  0.00     0.167 HD
ATOM     36  C   UNL A   1      44.566  25.969  25.166  1.00  0.00     0.074 A 
ATOM     37  C   UNL A   1      45.820  25.266  24.893  1.00  0.00     0.031 C 
ATOM     38  C   UNL A   1      44.300  27.216  25.653  1.00  0.00     0.031 A 
BRANCH  25  39
ATOM     39  C   UNL A   1      49.666  27.615  26.791  1.00  0.00    -0.014 A 
ATOM     40  C   UNL A   1      49.963  26.361  26.224  1.00  0.00     0.009 A 
ATOM     41  C   UNL A   1      50.481  28.690  26.395  1.00  0.00     0.009 A 
ATOM     42  C   UNL A   1      51.001  26.187  25.304  1.00  0.00     0.001 A 
ATOM     43  C   UNL A   1      51.497  28.530  25.445  1.00  0.00     0.001 A 
ATOM     44  C   UNL A   1      51.753  27.278  24.897  1.00  0.00     0.000 A 
ENDBRANCH  25  39
BRANCH  26  45
ATOM     45  C   UNL A   1      43.767  21.362  25.697  1.00  0.00    -0.014 A 
ATOM     46  C   UNL A   1      42.666  20.553  26.033  1.00  0.00     0.009 A 
ATOM     47  C   UNL A   1      44.920  20.732  25.202  1.00  0.00     0.009 A 
ATOM     48  C   UNL A   1      42.745  19.158  25.952  1.00  0.00     0.001 A 
ATOM     49  C   UNL A   1      44.998  19.336  25.121  1.00  0.00     0.001 A 
ATOM     50  C   UNL A   1      43.919  18.549  25.518  1.00  0.00     0.000 A 
ENDBRANCH  26  45
BRANCH  38  51
ATOM     51  C   UNL A   1      42.855  27.568  25.957  1.00  0.00    -0.014 A 
ATOM     52  C   UNL A   1      42.265  28.607  25.221  1.00  0.00     0.009 A 
ATOM     53  C   UNL A   1      42.130  27.031  27.038  1.00  0.00     0.009 A 
ATOM     54  C   UNL A   1      41.008  29.111  25.561  1.00  0.00     0.001 A 
ATOM     55  C   UNL A   1      40.857  27.518  27.362  1.00  0.00     0.001 A 
ATOM     56  C   UNL A   1      40.303  28.566  26.631  1.00  0.00     0.000 A 
ENDBRANCH  38  51
ENDBRANCH  12  13
ENDBRANCH   5   7
ENDBRANCH   2   3
ENDBRANCH   1   2
BRANCH   1  57
ATOM     57  C   UNL A   1      41.293  29.959  32.740  1.00  0.00     0.023 C 
BRANCH  57  58
ATOM     58  C   UNL A   1      40.702  29.817  31.342  1.00  0.00     0.116 C 
BRANCH  58  59
ATOM     59  N   UNL A   1      40.146  28.503  31.049  1.00  0.00    -0.355 N 
ATOM     60  C   UNL A   1      38.950  28.089  30.534  1.00  0.00     0.234 C 
ATOM     61  H   UNL A   1      40.756  27.762  31.265  1.00  0.00     0.163 HD
ATOM     62  O   UNL A   1      38.975  26.988  29.968  1.00  0.00    -0.274 OA
BRANCH  60  63
ATOM     63  C   UNL A   1      37.603  28.844  30.654  1.00  0.00     0.157 C 
ATOM     64  S   UNL A   1      37.286  29.908  29.120  1.00  0.00    -0.093 SA
ATOM     65  C   UNL A   1      37.268  29.497  32.024  1.00  0.00     0.135 C 
ATOM     66  C   UNL A   1      36.296  31.176  29.776  1.00  0.00     0.094 A 
ATOM     67  C   UNL A   1      37.487  30.998  31.926  1.00  0.00     0.082 C 
ATOM     68  C   UNL A   1      37.913  28.815  33.208  1.00  0.00     0.317 C 
ATOM     69  C   UNL A   1      36.411  31.550  31.061  1.00  0.00     0.049 A 
ATOM     70  N   UNL A   1      35.335  31.892  29.088  1.00  0.00    -0.289 N 
ATOM     71  C   UNL A   1      37.866  31.710  33.185  1.00  0.00     0.004 A 
ATOM     72  O   UNL A   1      38.056  29.581  34.358  1.00  0.00    -0.426 OA
ATOM     73  O   UNL A   1      38.158  27.614  33.233  1.00  0.00    -0.251 OA
ATOM     74  S   UNL A   1      35.212  32.695  31.532  1.00  0.00    -0.077 S 
ATOM     75  C   UNL A   1      34.562  32.743  29.890  1.00  0.00     0.308 A 
ATOM     76  C   UNL A   1      38.230  33.068  33.154  1.00  0.00     0.008 A 
ATOM     77  C   UNL A   1      38.142  30.984  34.335  1.00  0.00     0.134 A 
ATOM     78  O   UNL A   1      33.600  33.412  29.597  1.00  0.00    -0.257 OA
ATOM     79  C   UNL A   1      38.816  33.677  34.263  1.00  0.00     0.001 A 
ATOM     80  C   UNL A   1      38.699  31.587  35.463  1.00  0.00     0.047 A 
ATOM     81  C   UNL A   1      39.039  32.939  35.422  1.00  0.00     0.004 A 
BRANCH  70  82
ATOM     82  C   UNL A   1      35.087  31.858  27.656  1.00  0.00     0.163 C 
BRANCH  82  83
ATOM     83  C   UNL A   1      34.111  30.758  27.271  1.00  0.00    -0.028 A 
ATOM     84  C   UNL A   1      32.735  31.006  27.168  1.00  0.00     0.005 A 
ATOM     85  C   UNL A   1      34.568  29.439  27.099  1.00  0.00     0.005 A 
ATOM     86  C   UNL A   1      31.844  29.956  26.921  1.00  0.00     0.000 A 
ATOM     87  C   UNL A   1      33.677  28.391  26.870  1.00  0.00     0.000 A 
ATOM     88  C   UNL A   1      32.313  28.649  26.784  1.00  0.00     0.000 A 
ENDBRANCH  82  83
ENDBRANCH  70  82
ENDBRANCH  60  63
ENDBRANCH  58  59
ENDBRANCH  57  58
ENDBRANCH   1  57
TORSDOF 13
ENDMDL
