MODEL 1
REMARK VINA RESULT:     -11.2      0.000      0.000
REMARK SMILES CC[C@@](C)(NC(=O)N1CCC[C@H]1C1CCCC1)C(=O)NCCCCNC(=O)c1ccc(-c2c3nc(c(-c4ccccc4)c4ccc([nH]4)c(-c4ccccc4)c4nc(c(-c5ccccc5)c5ccc2[nH]5)C=C4)C=C3)cc1
REMARK SMILES IDX 22 1 21 2 20 3 18 4 19 5 3 7 4 8 2 9 1 10 5 11 6 12 7 14
REMARK SMILES IDX 8 15 9 16 12 17 10 18 11 19 13 20 14 21 17 22 15 23 16 24
REMARK SMILES IDX 23 25 24 26 25 27 26 28 27 30 28 31 29 32 75 33 30 34 74 35
REMARK SMILES IDX 31 36 32 37 33 38 68 39 34 40 73 41 67 42 69 43 35 44 72 45
REMARK SMILES IDX 66 46 65 47 36 49 58 50 43 51 57 52 44 53 47 54 56 55 70 56
REMARK SMILES IDX 45 57 46 58 55 60 71 61 48 62 37 63 38 64 42 65 39 66 41 67
REMARK SMILES IDX 40 68 59 69 60 70 64 71 61 72 63 73 62 74 49 75 50 76 54 77
REMARK SMILES IDX 51 78 53 79 52 80
REMARK H PARENT 20 6 5 13 25 29 69 48 47 59
REMARK Flexibility Score: inf
ROOT
ATOM      1  C   UNL A   1      36.363  19.814  24.994  1.00  0.00     0.023 C 
ENDROOT
BRANCH   1   2
ATOM      2  C   UNL A   1      36.150  21.321  24.906  1.00  0.00     0.116 C 
BRANCH   2   3
ATOM      3  N   UNL A   1      35.551  21.938  26.074  1.00  0.00    -0.354 N 
ATOM      4  C   UNL A   1      34.266  21.958  26.536  1.00  0.00     0.245 C 
ATOM      5  O   UNL A   1      34.139  22.303  27.717  1.00  0.00    -0.272 OA
ATOM      6  H   UNL A   1      36.189  22.431  26.639  1.00  0.00     0.163 HD
BRANCH   4   7
ATOM      7  C   UNL A   1      33.054  21.454  25.694  1.00  0.00     0.117 C 
ATOM      8  C   UNL A   1      33.333  21.912  24.234  1.00  0.00     0.045 C 
BRANCH   7   9
ATOM      9  C   UNL A   1      32.890  19.902  25.659  1.00  0.00     0.035 C 
ATOM     10  C   UNL A   1      32.627  19.241  24.310  1.00  0.00     0.007 C 
ENDBRANCH   7   9
BRANCH   7  11
ATOM     11  N   UNL A   1      31.746  22.028  26.114  1.00  0.00    -0.324 N 
ATOM     12  C   UNL A   1      31.235  23.277  26.198  1.00  0.00     0.318 C 
ATOM     13  H   UNL A   1      31.103  21.338  26.394  1.00  0.00     0.166 HD
ATOM     14  O   UNL A   1      30.542  23.461  27.205  1.00  0.00    -0.249 OA
BRANCH  12  15
ATOM     15  N   UNL A   1      31.411  24.252  25.267  1.00  0.00    -0.322 N 
ATOM     16  C   UNL A   1      30.679  24.505  24.045  1.00  0.00     0.122 C 
ATOM     17  C   UNL A   1      32.567  25.174  25.344  1.00  0.00     0.090 C 
ATOM     18  C   UNL A   1      31.697  25.049  23.068  1.00  0.00     0.024 C 
ATOM     19  C   UNL A   1      32.663  25.820  23.942  1.00  0.00     0.027 C 
BRANCH  17  20
ATOM     20  C   UNL A   1      32.533  26.313  26.402  1.00  0.00     0.012 C 
ATOM     21  C   UNL A   1      33.565  27.427  26.235  1.00  0.00     0.006 C 
ATOM     22  C   UNL A   1      31.245  27.122  26.547  1.00  0.00     0.006 C 
ATOM     23  C   UNL A   1      33.142  28.483  27.252  1.00  0.00     0.000 C 
ATOM     24  C   UNL A   1      31.637  28.296  27.444  1.00  0.00     0.000 C 
ENDBRANCH  17  20
ENDBRANCH  12  15
ENDBRANCH   7  11
ENDBRANCH   4   7
ENDBRANCH   2   3
ENDBRANCH   1   2
BRANCH   1  25
ATOM     25  C   UNL A   1      37.788  19.322  24.775  1.00  0.00     0.023 C 
BRANCH  25  26
ATOM     26  C   UNL A   1      38.860  20.007  25.596  1.00  0.00     0.116 C 
BRANCH  26  27
ATOM     27  N   UNL A   1      40.055  19.196  25.726  1.00  0.00    -0.352 N 
ATOM     28  C   UNL A   1      41.341  19.558  26.055  1.00  0.00     0.251 C 
ATOM     29  H   UNL A   1      39.927  18.236  25.551  1.00  0.00     0.163 HD
ATOM     30  O   UNL A   1      42.253  18.753  25.900  1.00  0.00    -0.269 OA
BRANCH  28  31
ATOM     31  C   UNL A   1      41.640  20.913  26.576  1.00  0.00     0.039 A 
ATOM     32  C   UNL A   1      41.527  21.151  27.949  1.00  0.00     0.014 A 
ATOM     33  C   UNL A   1      41.992  21.962  25.725  1.00  0.00     0.014 A 
ATOM     34  C   UNL A   1      41.810  22.420  28.465  1.00  0.00     0.010 A 
ATOM     35  C   UNL A   1      42.395  23.185  26.250  1.00  0.00     0.010 A 
ATOM     36  C   UNL A   1      42.274  23.442  27.622  1.00  0.00    -0.014 A 
BRANCH  36  37
ATOM     37  C   UNL A   1      42.574  24.806  28.132  1.00  0.00     0.031 A 
ATOM     38  C   UNL A   1      43.984  25.165  28.526  1.00  0.00     0.074 A 
ATOM     39  C   UNL A   1      41.581  25.702  28.299  1.00  0.00     0.049 A 
ATOM     40  N   UNL A   1      44.438  26.263  29.076  1.00  0.00    -0.248 NA
ATOM     41  C   UNL A   1      45.018  24.138  28.309  1.00  0.00     0.031 C 
ATOM     42  C   UNL A   1      40.167  25.473  27.998  1.00  0.00     0.029 A 
ATOM     43  N   UNL A   1      41.614  26.991  28.770  1.00  0.00    -0.354 N 
ATOM     44  C   UNL A   1      45.791  26.042  29.301  1.00  0.00     0.074 A 
ATOM     45  C   UNL A   1      46.075  24.688  28.885  1.00  0.00     0.031 C 
ATOM     46  C   UNL A   1      39.475  26.594  28.257  1.00  0.00     0.029 A 
ATOM     47  C   UNL A   1      40.386  27.605  28.782  1.00  0.00     0.049 A 
ATOM     48  H   UNL A   1      42.441  27.432  29.072  1.00  0.00     0.167 HD
ATOM     49  C   UNL A   1      46.726  26.895  29.784  1.00  0.00     0.031 A 
ATOM     50  C   UNL A   1      40.033  28.844  29.175  1.00  0.00     0.031 A 
ATOM     51  C   UNL A   1      46.456  28.256  30.157  1.00  0.00     0.049 A 
ATOM     52  C   UNL A   1      41.089  29.779  29.694  1.00  0.00     0.074 A 
ATOM     53  C   UNL A   1      47.345  29.224  30.592  1.00  0.00     0.029 A 
ATOM     54  N   UNL A   1      45.201  28.844  30.133  1.00  0.00    -0.354 N 
ATOM     55  N   UNL A   1      42.375  29.572  29.844  1.00  0.00    -0.248 NA
ATOM     56  C   UNL A   1      40.645  31.124  30.087  1.00  0.00     0.031 C 
ATOM     57  C   UNL A   1      46.619  30.386  30.870  1.00  0.00     0.029 A 
ATOM     58  C   UNL A   1      45.289  30.156  30.560  1.00  0.00     0.049 A 
ATOM     59  H   UNL A   1      44.371  28.394  29.852  1.00  0.00     0.167 HD
ATOM     60  C   UNL A   1      42.898  30.768  30.321  1.00  0.00     0.074 A 
ATOM     61  C   UNL A   1      41.793  31.698  30.421  1.00  0.00     0.031 C 
ATOM     62  C   UNL A   1      44.177  31.068  30.649  1.00  0.00     0.031 A 
BRANCH  49  63
ATOM     63  C   UNL A   1      48.130  26.374  29.930  1.00  0.00    -0.014 A 
ATOM     64  C   UNL A   1      48.565  25.773  31.122  1.00  0.00     0.009 A 
ATOM     65  C   UNL A   1      49.023  26.465  28.851  1.00  0.00     0.009 A 
ATOM     66  C   UNL A   1      49.879  25.315  31.245  1.00  0.00     0.001 A 
ATOM     67  C   UNL A   1      50.327  25.977  28.967  1.00  0.00     0.001 A 
ATOM     68  C   UNL A   1      50.756  25.413  30.167  1.00  0.00     0.000 A 
ENDBRANCH  49  63
BRANCH  50  69
ATOM     69  C   UNL A   1      38.617  29.283  29.071  1.00  0.00    -0.014 A 
ATOM     70  C   UNL A   1      37.769  29.222  30.187  1.00  0.00     0.009 A 
ATOM     71  C   UNL A   1      38.102  29.763  27.855  1.00  0.00     0.009 A 
ATOM     72  C   UNL A   1      36.430  29.607  30.083  1.00  0.00     0.001 A 
ATOM     73  C   UNL A   1      36.770  30.173  27.762  1.00  0.00     0.001 A 
ATOM     74  C   UNL A   1      35.933  30.085  28.873  1.00  0.00     0.000 A 
ENDBRANCH  50  69
BRANCH  62  75
ATOM     75  C   UNL A   1      44.459  32.469  31.109  1.00  0.00    -0.014 A 
ATOM     76  C   UNL A   1      44.795  33.482  30.197  1.00  0.00     0.009 A 
ATOM     77  C   UNL A   1      44.340  32.790  32.471  1.00  0.00     0.009 A 
ATOM     78  C   UNL A   1      45.040  34.781  30.646  1.00  0.00     0.001 A 
ATOM     79  C   UNL A   1      44.556  34.095  32.912  1.00  0.00     0.001 A 
ATOM     80  C   UNL A   1      44.915  35.087  32.002  1.00  0.00     0.000 A 
ENDBRANCH  62  75
ENDBRANCH  36  37
ENDBRANCH  28  31
ENDBRANCH  26  27
ENDBRANCH  25  26
ENDBRANCH   1  25
TORSDOF 15
ENDMDL
MODEL 2
REMARK VINA RESULT:     -11.2      2.039      7.630
REMARK SMILES CC[C@@](C)(NC(=O)N1CCC[C@H]1C1CCCC1)C(=O)NCCCCNC(=O)c1ccc(-c2c3nc(c(-c4ccccc4)c4ccc([nH]4)c(-c4ccccc4)c4nc(c(-c5ccccc5)c5ccc2[nH]5)C=C4)C=C3)cc1
REMARK SMILES IDX 22 1 21 2 20 3 18 4 19 5 3 7 4 8 2 9 1 10 5 11 6 12 7 14
REMARK SMILES IDX 8 15 9 16 12 17 10 18 11 19 13 20 14 21 17 22 15 23 16 24
REMARK SMILES IDX 23 25 24 26 25 27 26 28 27 30 28 31 29 32 75 33 30 34 74 35
REMARK SMILES IDX 31 36 32 37 33 38 68 39 34 40 73 41 67 42 69 43 35 44 72 45
REMARK SMILES IDX 66 46 65 47 36 49 58 50 43 51 57 52 44 53 47 54 56 55 70 56
REMARK SMILES IDX 45 57 46 58 55 60 71 61 48 62 37 63 38 64 42 65 39 66 41 67
REMARK SMILES IDX 40 68 59 69 60 70 64 71 61 72 63 73 62 74 49 75 50 76 54 77
REMARK SMILES IDX 51 78 53 79 52 80
REMARK H PARENT 20 6 5 13 25 29 69 48 47 59
REMARK Flexibility Score: inf
ROOT
ATOM      1  C   UNL A   1      31.758  29.009  25.535  1.00  0.00     0.023 C 
ENDROOT
BRANCH   1   2
ATOM      2  C   UNL A   1      31.347  28.213  24.302  1.00  0.00     0.116 C 
BRANCH   2   3
ATOM      3  N   UNL A   1      32.359  28.090  23.270  1.00  0.00    -0.354 N 
ATOM      4  C   UNL A   1      33.109  27.029  22.851  1.00  0.00     0.245 C 
ATOM      5  O   UNL A   1      33.651  27.173  21.749  1.00  0.00    -0.272 OA
ATOM      6  H   UNL A   1      32.536  28.925  22.780  1.00  0.00     0.163 HD
BRANCH   4   7
ATOM      7  C   UNL A   1      33.175  25.678  23.627  1.00  0.00     0.117 C 
ATOM      8  C   UNL A   1      34.104  25.935  24.847  1.00  0.00     0.045 C 
BRANCH   7   9
ATOM      9  C   UNL A   1      31.804  25.190  24.195  1.00  0.00     0.035 C 
ATOM     10  C   UNL A   1      30.880  24.414  23.264  1.00  0.00     0.007 C 
ENDBRANCH   7   9
BRANCH   7  11
ATOM     11  N   UNL A   1      33.752  24.555  22.838  1.00  0.00    -0.324 N 
ATOM     12  C   UNL A   1      34.378  23.397  23.145  1.00  0.00     0.318 C 
ATOM     13  H   UNL A   1      33.653  24.685  21.868  1.00  0.00     0.166 HD
ATOM     14  O   UNL A   1      35.323  23.132  22.394  1.00  0.00    -0.249 OA
BRANCH  12  15
ATOM     15  N   UNL A   1      34.009  22.558  24.149  1.00  0.00    -0.322 N 
ATOM     16  C   UNL A   1      33.088  21.442  24.129  1.00  0.00     0.122 C 
ATOM     17  C   UNL A   1      34.457  22.798  25.541  1.00  0.00     0.090 C 
ATOM     18  C   UNL A   1      32.435  21.432  25.493  1.00  0.00     0.024 C 
ATOM     19  C   UNL A   1      33.522  21.934  26.419  1.00  0.00     0.027 C 
BRANCH  17  20
ATOM     20  C   UNL A   1      35.926  22.455  25.913  1.00  0.00     0.012 C 
ATOM     21  C   UNL A   1      36.597  21.356  25.090  1.00  0.00     0.006 C 
ATOM     22  C   UNL A   1      36.969  23.569  25.826  1.00  0.00     0.006 C 
ATOM     23  C   UNL A   1      38.061  21.409  25.520  1.00  0.00     0.000 C 
ATOM     24  C   UNL A   1      38.306  22.845  25.982  1.00  0.00     0.000 C 
ENDBRANCH  17  20
ENDBRANCH  12  15
ENDBRANCH   7  11
ENDBRANCH   4   7
ENDBRANCH   2   3
ENDBRANCH   1   2
BRANCH   1  25
ATOM     25  C   UNL A   1      32.315  28.203  26.702  1.00  0.00     0.023 C 
BRANCH  25  26
ATOM     26  C   UNL A   1      33.643  28.674  27.259  1.00  0.00     0.116 C 
BRANCH  26  27
ATOM     27  N   UNL A   1      33.615  30.074  27.638  1.00  0.00    -0.352 N 
ATOM     28  C   UNL A   1      34.558  30.834  28.288  1.00  0.00     0.251 C 
ATOM     29  H   UNL A   1      32.792  30.555  27.391  1.00  0.00     0.163 HD
ATOM     30  O   UNL A   1      34.253  31.947  28.705  1.00  0.00    -0.269 OA
BRANCH  28  31
ATOM     31  C   UNL A   1      35.932  30.321  28.506  1.00  0.00     0.039 A 
ATOM     32  C   UNL A   1      36.859  30.402  27.462  1.00  0.00     0.014 A 
ATOM     33  C   UNL A   1      36.306  29.727  29.712  1.00  0.00     0.014 A 
ATOM     34  C   UNL A   1      38.162  29.930  27.647  1.00  0.00     0.010 A 
ATOM     35  C   UNL A   1      37.632  29.374  29.937  1.00  0.00     0.010 A 
ATOM     36  C   UNL A   1      38.569  29.437  28.896  1.00  0.00    -0.014 A 
BRANCH  36  37
ATOM     37  C   UNL A   1      39.942  28.915  29.127  1.00  0.00     0.031 A 
ATOM     38  C   UNL A   1      40.987  29.807  29.748  1.00  0.00     0.074 A 
ATOM     39  C   UNL A   1      40.272  27.671  28.729  1.00  0.00     0.049 A 
ATOM     40  N   UNL A   1      42.261  29.578  29.949  1.00  0.00    -0.248 NA
ATOM     41  C   UNL A   1      40.552  31.152  30.164  1.00  0.00     0.031 C 
ATOM     42  C   UNL A   1      39.371  26.718  28.077  1.00  0.00     0.029 A 
ATOM     43  N   UNL A   1      41.464  26.995  28.812  1.00  0.00    -0.354 N 
ATOM     44  C   UNL A   1      42.778  30.756  30.476  1.00  0.00     0.074 A 
ATOM     45  C   UNL A   1      41.699  31.716  30.510  1.00  0.00     0.031 C 
ATOM     46  C   UNL A   1      40.033  25.570  27.854  1.00  0.00     0.029 A 
ATOM     47  C   UNL A   1      41.412  25.720  28.305  1.00  0.00     0.049 A 
ATOM     48  H   UNL A   1      42.280  27.389  29.199  1.00  0.00     0.167 HD
ATOM     49  C   UNL A   1      44.031  31.011  30.921  1.00  0.00     0.031 A 
ATOM     50  C   UNL A   1      42.369  24.777  28.212  1.00  0.00     0.031 A 
ATOM     51  C   UNL A   1      45.095  30.045  30.930  1.00  0.00     0.049 A 
ATOM     52  C   UNL A   1      43.750  25.079  28.726  1.00  0.00     0.074 A 
ATOM     53  C   UNL A   1      46.381  30.183  31.423  1.00  0.00     0.029 A 
ATOM     54  N   UNL A   1      44.991  28.758  30.427  1.00  0.00    -0.354 N 
ATOM     55  N   UNL A   1      44.205  26.178  29.276  1.00  0.00    -0.248 NA
ATOM     56  C   UNL A   1      44.744  24.002  28.616  1.00  0.00     0.031 C 
ATOM     57  C   UNL A   1      47.069  28.990  31.179  1.00  0.00     0.029 A 
ATOM     58  C   UNL A   1      46.195  28.095  30.582  1.00  0.00     0.049 A 
ATOM     59  H   UNL A   1      44.181  28.373  30.021  1.00  0.00     0.167 HD
ATOM     60  C   UNL A   1      45.530  25.916  29.603  1.00  0.00     0.074 A 
ATOM     61  C   UNL A   1      45.799  24.551  29.204  1.00  0.00     0.031 C 
ATOM     62  C   UNL A   1      46.443  26.734  30.181  1.00  0.00     0.031 A 
BRANCH  49  63
ATOM     63  C   UNL A   1      44.313  32.395  31.439  1.00  0.00    -0.014 A 
ATOM     64  C   UNL A   1      44.135  32.718  32.795  1.00  0.00     0.009 A 
ATOM     65  C   UNL A   1      44.786  33.386  30.564  1.00  0.00     0.009 A 
ATOM     66  C   UNL A   1      44.381  34.014  33.253  1.00  0.00     0.001 A 
ATOM     67  C   UNL A   1      45.062  34.672  31.032  1.00  0.00     0.001 A 
ATOM     68  C   UNL A   1      44.849  34.988  32.373  1.00  0.00     0.000 A 
ENDBRANCH  49  63
BRANCH  50  69
ATOM     69  C   UNL A   1      42.051  23.447  27.630  1.00  0.00    -0.014 A 
ATOM     70  C   UNL A   1      42.317  23.182  26.278  1.00  0.00     0.009 A 
ATOM     71  C   UNL A   1      41.476  22.438  28.418  1.00  0.00     0.009 A 
ATOM     72  C   UNL A   1      41.991  21.942  25.722  1.00  0.00     0.001 A 
ATOM     73  C   UNL A   1      41.177  21.190  27.866  1.00  0.00     0.001 A 
ATOM     74  C   UNL A   1      41.426  20.947  26.516  1.00  0.00     0.000 A 
ENDBRANCH  50  69
BRANCH  62  75
ATOM     75  C   UNL A   1      47.804  26.163  30.450  1.00  0.00    -0.014 A 
ATOM     76  C   UNL A   1      48.782  26.105  29.445  1.00  0.00     0.009 A 
ATOM     77  C   UNL A   1      48.127  25.718  31.742  1.00  0.00     0.009 A 
ATOM     78  C   UNL A   1      50.047  25.582  29.721  1.00  0.00     0.001 A 
ATOM     79  C   UNL A   1      49.401  25.223  32.022  1.00  0.00     0.001 A 
ATOM     80  C   UNL A   1      50.356  25.146  31.010  1.00  0.00     0.000 A 
ENDBRANCH  62  75
ENDBRANCH  36  37
ENDBRANCH  28  31
ENDBRANCH  26  27
ENDBRANCH  25  26
ENDBRANCH   1  25
TORSDOF 15
ENDMDL
MODEL 3
REMARK VINA RESULT:     -11.2      1.102      6.098
REMARK SMILES CC[C@@](C)(NC(=O)N1CCC[C@H]1C1CCCC1)C(=O)NCCCCNC(=O)c1ccc(-c2c3nc(c(-c4ccccc4)c4ccc([nH]4)c(-c4ccccc4)c4nc(c(-c5ccccc5)c5ccc2[nH]5)C=C4)C=C3)cc1
REMARK SMILES IDX 22 1 21 2 20 3 18 4 19 5 3 7 4 8 2 9 1 10 5 11 6 12 7 14
REMARK SMILES IDX 8 15 9 16 12 17 10 18 11 19 13 20 14 21 17 22 15 23 16 24
REMARK SMILES IDX 23 25 24 26 25 27 26 28 27 30 28 31 29 32 75 33 30 34 74 35
REMARK SMILES IDX 31 36 32 37 33 38 68 39 34 40 73 41 67 42 69 43 35 44 72 45
REMARK SMILES IDX 66 46 65 47 36 49 58 50 43 51 57 52 44 53 47 54 56 55 70 56
REMARK SMILES IDX 45 57 46 58 55 60 71 61 48 62 37 63 38 64 42 65 39 66 41 67
REMARK SMILES IDX 40 68 59 69 60 70 64 71 61 72 63 73 62 74 49 75 50 76 54 77
REMARK SMILES IDX 51 78 53 79 52 80
REMARK H PARENT 20 6 5 13 25 29 69 48 47 59
REMARK Flexibility Score: inf
ROOT
ATOM      1  C   UNL A   1      36.216  20.378  25.001  1.00  0.00     0.023 C 
ENDROOT
BRANCH   1   2
ATOM      2  C   UNL A   1      36.260  21.670  25.808  1.00  0.00     0.116 C 
BRANCH   2   3
ATOM      3  N   UNL A   1      35.267  21.786  26.859  1.00  0.00    -0.354 N 
ATOM      4  C   UNL A   1      34.073  22.446  26.916  1.00  0.00     0.245 C 
ATOM      5  O   UNL A   1      33.322  22.093  27.833  1.00  0.00    -0.272 OA
ATOM      6  H   UNL A   1      35.495  21.297  27.683  1.00  0.00     0.163 HD
BRANCH   4   7
ATOM      7  C   UNL A   1      33.619  23.471  25.832  1.00  0.00     0.117 C 
ATOM      8  C   UNL A   1      34.789  24.485  25.691  1.00  0.00     0.045 C 
BRANCH   7   9
ATOM      9  C   UNL A   1      33.379  22.855  24.418  1.00  0.00     0.035 C 
ATOM     10  C   UNL A   1      34.271  23.324  23.273  1.00  0.00     0.007 C 
ENDBRANCH   7   9
BRANCH   7  11
ATOM     11  N   UNL A   1      32.392  24.233  26.197  1.00  0.00    -0.324 N 
ATOM     12  C   UNL A   1      31.910  25.461  25.905  1.00  0.00     0.318 C 
ATOM     13  H   UNL A   1      31.792  23.722  26.786  1.00  0.00     0.166 HD
ATOM     14  O   UNL A   1      31.375  26.024  26.866  1.00  0.00    -0.249 OA
BRANCH  12  15
ATOM     15  N   UNL A   1      31.955  26.041  24.675  1.00  0.00    -0.322 N 
ATOM     16  C   UNL A   1      31.128  25.803  23.512  1.00  0.00     0.122 C 
ATOM     17  C   UNL A   1      33.045  26.978  24.318  1.00  0.00     0.090 C 
ATOM     18  C   UNL A   1      32.039  26.001  22.321  1.00  0.00     0.024 C 
ATOM     19  C   UNL A   1      33.002  27.076  22.775  1.00  0.00     0.027 C 
BRANCH  17  20
ATOM     20  C   UNL A   1      32.998  28.419  24.898  1.00  0.00     0.012 C 
ATOM     21  C   UNL A   1      31.612  29.035  25.077  1.00  0.00     0.006 C 
ATOM     22  C   UNL A   1      33.610  28.659  26.278  1.00  0.00     0.006 C 
ATOM     23  C   UNL A   1      31.872  30.320  25.860  1.00  0.00     0.000 C 
ATOM     24  C   UNL A   1      33.158  30.072  26.649  1.00  0.00     0.000 C 
ENDBRANCH  17  20
ENDBRANCH  12  15
ENDBRANCH   7  11
ENDBRANCH   4   7
ENDBRANCH   2   3
ENDBRANCH   1   2
BRANCH   1  25
ATOM     25  C   UNL A   1      37.511  19.578  24.940  1.00  0.00     0.023 C 
BRANCH  25  26
ATOM     26  C   UNL A   1      38.730  20.241  25.548  1.00  0.00     0.116 C 
BRANCH  26  27
ATOM     27  N   UNL A   1      39.817  19.304  25.760  1.00  0.00    -0.352 N 
ATOM     28  C   UNL A   1      41.123  19.531  26.125  1.00  0.00     0.251 C 
ATOM     29  H   UNL A   1      39.583  18.358  25.620  1.00  0.00     0.163 HD
ATOM     30  O   UNL A   1      41.940  18.619  26.041  1.00  0.00    -0.269 OA
BRANCH  28  31
ATOM     31  C   UNL A   1      41.560  20.865  26.600  1.00  0.00     0.039 A 
ATOM     32  C   UNL A   1      41.957  21.823  25.662  1.00  0.00     0.014 A 
ATOM     33  C   UNL A   1      41.620  21.172  27.961  1.00  0.00     0.014 A 
ATOM     34  C   UNL A   1      42.367  23.090  26.086  1.00  0.00     0.010 A 
ATOM     35  C   UNL A   1      41.905  22.468  28.374  1.00  0.00     0.010 A 
ATOM     36  C   UNL A   1      42.318  23.434  27.446  1.00  0.00    -0.014 A 
BRANCH  36  37
ATOM     37  C   UNL A   1      42.757  24.767  27.937  1.00  0.00     0.031 A 
ATOM     38  C   UNL A   1      41.730  25.833  28.227  1.00  0.00     0.074 A 
ATOM     39  C   UNL A   1      44.069  25.045  28.065  1.00  0.00     0.049 A 
ATOM     40  N   UNL A   1      41.908  27.084  28.573  1.00  0.00    -0.248 NA
ATOM     41  C   UNL A   1      40.315  25.455  28.071  1.00  0.00     0.031 C 
ATOM     42  C   UNL A   1      45.168  24.122  27.777  1.00  0.00     0.029 A 
ATOM     43  N   UNL A   1      44.701  26.196  28.468  1.00  0.00    -0.354 N 
ATOM     44  C   UNL A   1      40.637  27.642  28.637  1.00  0.00     0.074 A 
ATOM     45  C   UNL A   1      39.701  26.616  28.239  1.00  0.00     0.031 C 
ATOM     46  C   UNL A   1      46.335  24.729  28.049  1.00  0.00     0.029 A 
ATOM     47  C   UNL A   1      46.070  26.095  28.486  1.00  0.00     0.049 A 
ATOM     48  H   UNL A   1      44.216  27.016  28.720  1.00  0.00     0.167 HD
ATOM     49  C   UNL A   1      40.272  28.888  29.021  1.00  0.00     0.031 A 
ATOM     50  C   UNL A   1      47.008  27.004  28.815  1.00  0.00     0.031 A 
ATOM     51  C   UNL A   1      41.196  29.898  29.459  1.00  0.00     0.049 A 
ATOM     52  C   UNL A   1      46.579  28.377  29.252  1.00  0.00     0.074 A 
ATOM     53  C   UNL A   1      40.924  31.169  29.934  1.00  0.00     0.029 A 
ATOM     54  N   UNL A   1      42.574  29.746  29.482  1.00  0.00    -0.354 N 
ATOM     55  N   UNL A   1      45.370  28.869  29.364  1.00  0.00    -0.248 NA
ATOM     56  C   UNL A   1      47.649  29.317  29.620  1.00  0.00     0.031 C 
ATOM     57  C   UNL A   1      42.141  31.801  30.205  1.00  0.00     0.029 A 
ATOM     58  C   UNL A   1      43.166  30.905  29.948  1.00  0.00     0.049 A 
ATOM     59  H   UNL A   1      43.058  28.933  29.209  1.00  0.00     0.167 HD
ATOM     60  C   UNL A   1      45.530  30.164  29.841  1.00  0.00     0.074 A 
ATOM     61  C   UNL A   1      46.952  30.375  30.011  1.00  0.00     0.031 C 
ATOM     62  C   UNL A   1      44.584  31.096  30.113  1.00  0.00     0.031 A 
BRANCH  49  63
ATOM     63  C   UNL A   1      38.806  29.223  28.985  1.00  0.00    -0.014 A 
ATOM     64  C   UNL A   1      38.195  29.703  27.814  1.00  0.00     0.009 A 
ATOM     65  C   UNL A   1      38.018  29.034  30.131  1.00  0.00     0.009 A 
ATOM     66  C   UNL A   1      36.837  30.028  27.806  1.00  0.00     0.001 A 
ATOM     67  C   UNL A   1      36.654  29.330  30.110  1.00  0.00     0.001 A 
ATOM     68  C   UNL A   1      36.067  29.836  28.952  1.00  0.00     0.000 A 
ENDBRANCH  49  63
BRANCH  50  69
ATOM     69  C   UNL A   1      48.448  26.638  28.769  1.00  0.00    -0.014 A 
ATOM     70  C   UNL A   1      49.208  26.890  27.617  1.00  0.00     0.009 A 
ATOM     71  C   UNL A   1      49.070  26.034  29.873  1.00  0.00     0.009 A 
ATOM     72  C   UNL A   1      50.554  26.520  27.561  1.00  0.00     0.001 A 
ATOM     73  C   UNL A   1      50.424  25.691  29.824  1.00  0.00     0.001 A 
ATOM     74  C   UNL A   1      51.162  25.925  28.665  1.00  0.00     0.000 A 
ENDBRANCH  50  69
BRANCH  62  75
ATOM     75  C   UNL A   1      45.054  32.413  30.658  1.00  0.00    -0.014 A 
ATOM     76  C   UNL A   1      45.329  33.497  29.808  1.00  0.00     0.009 A 
ATOM     77  C   UNL A   1      45.179  32.586  32.045  1.00  0.00     0.009 A 
ATOM     78  C   UNL A   1      45.752  34.717  30.337  1.00  0.00     0.001 A 
ATOM     79  C   UNL A   1      45.574  33.815  32.572  1.00  0.00     0.001 A 
ATOM     80  C   UNL A   1      45.869  34.877  31.718  1.00  0.00     0.000 A 
ENDBRANCH  62  75
ENDBRANCH  36  37
ENDBRANCH  28  31
ENDBRANCH  26  27
ENDBRANCH  25  26
ENDBRANCH   1  25
TORSDOF 15
ENDMDL
