MODEL 1
REMARK VINA RESULT:     -12.4      0.000      0.000
REMARK SMILES CCOc1ccc(C(=O)N2CCC(C(=O)NCCCCNC(=O)c3ccc(-c4c5nc(c(-c6ccccc6)c6ccc([nH]6)c(-c6ccccc6)c6nc(c(-c7ccccc7)c7ccc4[nH]7)C=C6)C=C5)cc3)(c3ccccc3)CC2)cc1OC
REMARK SMILES IDX 18 1 17 2 16 3 14 4 15 5 13 7 8 8 9 9 10 10 11 11 79 12
REMARK SMILES IDX 12 13 78 14 7 15 4 16 5 17 81 18 6 19 80 20 3 21 2 22 1 23
REMARK SMILES IDX 82 24 83 25 72 26 73 27 77 28 74 29 76 30 75 31 19 32 20 33
REMARK SMILES IDX 21 34 22 35 23 37 24 38 25 39 71 40 26 41 70 42 27 43 28 44
REMARK SMILES IDX 29 45 64 46 30 47 69 48 63 49 65 50 31 51 68 52 62 53 61 54
REMARK SMILES IDX 32 56 54 57 39 58 53 59 40 60 43 61 52 62 66 63 41 64 42 65
REMARK SMILES IDX 51 67 67 68 44 69 33 70 34 71 38 72 35 73 37 74 36 75 55 76
REMARK SMILES IDX 56 77 60 78 57 79 59 80 58 81 45 82 46 83 50 84 47 85 49 86
REMARK SMILES IDX 48 87
REMARK H PARENT 16 6 21 36 65 55 43 66
REMARK Flexibility Score: inf
ROOT
ATOM      1  C   UNL A   1      36.607  20.173  24.962  1.00  0.00     0.023 C 
ENDROOT
BRANCH   1   2
ATOM      2  C   UNL A   1      36.244  21.633  25.222  1.00  0.00     0.116 C 
BRANCH   2   3
ATOM      3  N   UNL A   1      35.654  21.816  26.541  1.00  0.00    -0.355 N 
ATOM      4  C   UNL A   1      34.455  22.335  26.957  1.00  0.00     0.230 C 
ATOM      5  O   UNL A   1      34.362  22.427  28.182  1.00  0.00    -0.274 OA
ATOM      6  H   UNL A   1      36.229  21.507  27.277  1.00  0.00     0.163 HD
BRANCH   4   7
ATOM      7  C   UNL A   1      33.342  22.761  25.935  1.00  0.00     0.077 C 
ATOM      8  C   UNL A   1      31.229  26.568  25.851  1.00  0.00     0.253 C 
ATOM      9  O   UNL A   1      30.811  26.954  26.944  1.00  0.00    -0.269 OA
ATOM     10  N   UNL A   1      31.879  25.328  25.723  1.00  0.00    -0.339 N 
ATOM     11  C   UNL A   1      31.204  24.217  26.369  1.00  0.00     0.121 C 
ATOM     12  C   UNL A   1      32.911  25.022  24.733  1.00  0.00     0.121 C 
ATOM     13  C   UNL A   1      32.087  23.059  26.802  1.00  0.00     0.043 C 
ATOM     14  C   UNL A   1      33.929  23.988  25.176  1.00  0.00     0.043 C 
BRANCH   8  15
ATOM     15  C   UNL A   1      30.883  27.386  24.642  1.00  0.00     0.043 A 
ATOM     16  C   UNL A   1      30.178  29.104  22.508  1.00  0.00     0.161 A 
ATOM     17  C   UNL A   1      31.490  29.085  23.011  1.00  0.00     0.051 A 
ATOM     18  C   UNL A   1      29.226  28.245  23.048  1.00  0.00     0.161 A 
ATOM     19  C   UNL A   1      31.843  28.222  24.062  1.00  0.00     0.018 A 
ATOM     20  C   UNL A   1      29.582  27.466  24.150  1.00  0.00     0.064 A 
BRANCH  16  21
ATOM     21  O   UNL A   1      29.872  29.923  21.460  1.00  0.00    -0.490 OA
BRANCH  21  22
ATOM     22  C   UNL A   1      29.128  31.085  21.849  1.00  0.00     0.226 C 
ATOM     23  C   UNL A   1      28.016  31.310  20.836  1.00  0.00     0.049 C 
ENDBRANCH  21  22
ENDBRANCH  16  21
BRANCH  18  24
ATOM     24  O   UNL A   1      27.932  28.009  22.691  1.00  0.00    -0.493 OA
ATOM     25  C   UNL A   1      26.870  28.541  23.452  1.00  0.00     0.278 C 
ENDBRANCH  18  24
ENDBRANCH   8  15
BRANCH   7  26
ATOM     26  C   UNL A   1      32.930  21.697  24.851  1.00  0.00    -0.032 A 
ATOM     27  C   UNL A   1      32.548  22.011  23.537  1.00  0.00     0.005 A 
ATOM     28  C   UNL A   1      32.907  20.320  25.177  1.00  0.00     0.005 A 
ATOM     29  C   UNL A   1      32.179  21.021  22.612  1.00  0.00     0.000 A 
ATOM     30  C   UNL A   1      32.522  19.331  24.264  1.00  0.00     0.000 A 
ATOM     31  C   UNL A   1      32.160  19.682  22.975  1.00  0.00     0.000 A 
ENDBRANCH   7  26
ENDBRANCH   4   7
ENDBRANCH   2   3
ENDBRANCH   1   2
BRANCH   1  32
ATOM     32  C   UNL A   1      38.080  19.934  24.643  1.00  0.00     0.023 C 
BRANCH  32  33
ATOM     33  C   UNL A   1      39.026  20.095  25.826  1.00  0.00     0.116 C 
BRANCH  33  34
ATOM     34  N   UNL A   1      40.061  19.074  25.865  1.00  0.00    -0.352 N 
ATOM     35  C   UNL A   1      41.411  19.214  26.087  1.00  0.00     0.251 C 
ATOM     36  H   UNL A   1      39.751  18.152  25.711  1.00  0.00     0.163 HD
ATOM     37  O   UNL A   1      42.167  18.267  25.947  1.00  0.00    -0.269 OA
BRANCH  35  38
ATOM     38  C   UNL A   1      41.944  20.540  26.465  1.00  0.00     0.039 A 
ATOM     39  C   UNL A   1      42.387  21.399  25.458  1.00  0.00     0.014 A 
ATOM     40  C   UNL A   1      41.978  20.941  27.804  1.00  0.00     0.014 A 
ATOM     41  C   UNL A   1      42.801  22.690  25.788  1.00  0.00     0.010 A 
ATOM     42  C   UNL A   1      42.311  22.253  28.120  1.00  0.00     0.010 A 
ATOM     43  C   UNL A   1      42.729  23.140  27.117  1.00  0.00    -0.014 A 
BRANCH  43  44
ATOM     44  C   UNL A   1      43.082  24.536  27.475  1.00  0.00     0.031 A 
ATOM     45  C   UNL A   1      44.520  24.975  27.475  1.00  0.00     0.074 A 
ATOM     46  C   UNL A   1      42.115  25.388  27.866  1.00  0.00     0.049 A 
ATOM     47  N   UNL A   1      45.028  26.133  27.811  1.00  0.00    -0.248 NA
ATOM     48  C   UNL A   1      45.520  23.974  27.070  1.00  0.00     0.031 C 
ATOM     49  C   UNL A   1      40.688  25.071  27.955  1.00  0.00     0.029 A 
ATOM     50  N   UNL A   1      42.190  26.697  28.272  1.00  0.00    -0.354 N 
ATOM     51  C   UNL A   1      46.404  25.993  27.678  1.00  0.00     0.074 A 
ATOM     52  C   UNL A   1      46.654  24.626  27.281  1.00  0.00     0.031 C 
ATOM     53  C   UNL A   1      40.020  26.162  28.363  1.00  0.00     0.029 A 
ATOM     54  C   UNL A   1      40.972  27.241  28.604  1.00  0.00     0.049 A 
ATOM     55  H   UNL A   1      43.035  27.199  28.321  1.00  0.00     0.167 HD
ATOM     56  C   UNL A   1      47.371  26.924  27.852  1.00  0.00     0.031 A 
ATOM     57  C   UNL A   1      40.658  28.467  29.060  1.00  0.00     0.031 A 
ATOM     58  C   UNL A   1      47.122  28.287  28.237  1.00  0.00     0.049 A 
ATOM     59  C   UNL A   1      41.751  29.481  29.253  1.00  0.00     0.074 A 
ATOM     60  C   UNL A   1      48.028  29.323  28.377  1.00  0.00     0.029 A 
ATOM     61  N   UNL A   1      45.873  28.801  28.552  1.00  0.00    -0.354 N 
ATOM     62  N   UNL A   1      43.039  29.356  29.046  1.00  0.00    -0.248 NA
ATOM     63  C   UNL A   1      41.343  30.810  29.731  1.00  0.00     0.031 C 
ATOM     64  C   UNL A   1      47.336  30.450  28.832  1.00  0.00     0.029 A 
ATOM     65  C   UNL A   1      45.989  30.133  28.914  1.00  0.00     0.049 A 
ATOM     66  H   UNL A   1      45.029  28.295  28.523  1.00  0.00     0.167 HD
ATOM     67  C   UNL A   1      43.592  30.596  29.341  1.00  0.00     0.074 A 
ATOM     68  C   UNL A   1      42.497  31.462  29.725  1.00  0.00     0.031 C 
ATOM     69  C   UNL A   1      44.891  30.982  29.297  1.00  0.00     0.031 A 
BRANCH  56  70
ATOM     70  C   UNL A   1      48.796  26.490  27.638  1.00  0.00    -0.014 A 
ATOM     71  C   UNL A   1      49.583  26.015  28.699  1.00  0.00     0.009 A 
ATOM     72  C   UNL A   1      49.350  26.528  26.348  1.00  0.00     0.009 A 
ATOM     73  C   UNL A   1      50.906  25.627  28.482  1.00  0.00     0.001 A 
ATOM     74  C   UNL A   1      50.663  26.109  26.128  1.00  0.00     0.001 A 
ATOM     75  C   UNL A   1      51.443  25.670  27.196  1.00  0.00     0.000 A 
ENDBRANCH  56  70
BRANCH  57  76
ATOM     76  C   UNL A   1      39.241  28.810  29.356  1.00  0.00    -0.014 A 
ATOM     77  C   UNL A   1      38.409  29.336  28.356  1.00  0.00     0.009 A 
ATOM     78  C   UNL A   1      38.715  28.615  30.643  1.00  0.00     0.009 A 
ATOM     79  C   UNL A   1      37.088  29.684  28.644  1.00  0.00     0.001 A 
ATOM     80  C   UNL A   1      37.384  28.935  30.921  1.00  0.00     0.001 A 
ATOM     81  C   UNL A   1      36.574  29.479  29.924  1.00  0.00     0.000 A 
ENDBRANCH  57  76
BRANCH  69  82
ATOM     82  C   UNL A   1      45.196  32.414  29.638  1.00  0.00    -0.014 A 
ATOM     83  C   UNL A   1      45.525  32.800  30.947  1.00  0.00     0.009 A 
ATOM     84  C   UNL A   1      45.195  33.384  28.623  1.00  0.00     0.009 A 
ATOM     85  C   UNL A   1      45.814  34.134  31.237  1.00  0.00     0.001 A 
ATOM     86  C   UNL A   1      45.516  34.710  28.910  1.00  0.00     0.001 A 
ATOM     87  C   UNL A   1      45.815  35.087  30.218  1.00  0.00     0.000 A 
ENDBRANCH  69  82
ENDBRANCH  43  44
ENDBRANCH  35  38
ENDBRANCH  33  34
ENDBRANCH  32  33
ENDBRANCH   1  32
TORSDOF 16
ENDMDL
MODEL 2
REMARK VINA RESULT:     -12.4      1.044      5.730
REMARK SMILES CCOc1ccc(C(=O)N2CCC(C(=O)NCCCCNC(=O)c3ccc(-c4c5nc(c(-c6ccccc6)c6ccc([nH]6)c(-c6ccccc6)c6nc(c(-c7ccccc7)c7ccc4[nH]7)C=C6)C=C5)cc3)(c3ccccc3)CC2)cc1OC
REMARK SMILES IDX 18 1 17 2 16 3 14 4 15 5 13 7 8 8 9 9 10 10 11 11 79 12
REMARK SMILES IDX 12 13 78 14 7 15 4 16 5 17 81 18 6 19 80 20 3 21 2 22 1 23
REMARK SMILES IDX 82 24 83 25 72 26 73 27 77 28 74 29 76 30 75 31 19 32 20 33
REMARK SMILES IDX 21 34 22 35 23 37 24 38 25 39 71 40 26 41 70 42 27 43 28 44
REMARK SMILES IDX 29 45 64 46 30 47 69 48 63 49 65 50 31 51 68 52 62 53 61 54
REMARK SMILES IDX 32 56 54 57 39 58 53 59 40 60 43 61 52 62 66 63 41 64 42 65
REMARK SMILES IDX 51 67 67 68 44 69 33 70 34 71 38 72 35 73 37 74 36 75 55 76
REMARK SMILES IDX 56 77 60 78 57 79 59 80 58 81 45 82 46 83 50 84 47 85 49 86
REMARK SMILES IDX 48 87
REMARK H PARENT 16 6 21 36 65 55 43 66
REMARK Flexibility Score: inf
ROOT
ATOM      1  C   UNL A   1      36.570  20.039  24.779  1.00  0.00     0.023 C 
ENDROOT
BRANCH   1   2
ATOM      2  C   UNL A   1      36.350  21.460  25.292  1.00  0.00     0.116 C 
BRANCH   2   3
ATOM      3  N   UNL A   1      35.676  21.469  26.584  1.00  0.00    -0.355 N 
ATOM      4  C   UNL A   1      34.450  21.929  26.988  1.00  0.00     0.230 C 
ATOM      5  O   UNL A   1      34.279  21.860  28.205  1.00  0.00    -0.274 OA
ATOM      6  H   UNL A   1      36.207  21.067  27.308  1.00  0.00     0.163 HD
BRANCH   4   7
ATOM      7  C   UNL A   1      33.400  22.485  25.961  1.00  0.00     0.077 C 
ATOM      8  C   UNL A   1      31.542  26.424  26.041  1.00  0.00     0.253 C 
ATOM      9  O   UNL A   1      31.115  26.774  27.143  1.00  0.00    -0.269 OA
ATOM     10  N   UNL A   1      32.114  25.152  25.858  1.00  0.00    -0.339 N 
ATOM     11  C   UNL A   1      31.347  24.054  26.420  1.00  0.00     0.121 C 
ATOM     12  C   UNL A   1      33.154  24.834  24.882  1.00  0.00     0.121 C 
ATOM     13  C   UNL A   1      32.140  22.817  26.808  1.00  0.00     0.043 C 
ATOM     14  C   UNL A   1      34.088  23.711  25.292  1.00  0.00     0.043 C 
BRANCH   8  15
ATOM     15  C   UNL A   1      31.288  27.329  24.872  1.00  0.00     0.043 A 
ATOM     16  C   UNL A   1      30.579  28.995  22.699  1.00  0.00     0.161 A 
ATOM     17  C   UNL A   1      30.650  29.509  24.005  1.00  0.00     0.051 A 
ATOM     18  C   UNL A   1      30.892  27.659  22.473  1.00  0.00     0.161 A 
ATOM     19  C   UNL A   1      31.015  28.686  25.082  1.00  0.00     0.018 A 
ATOM     20  C   UNL A   1      31.162  26.843  23.573  1.00  0.00     0.064 A 
BRANCH  16  21
ATOM     21  O   UNL A   1      30.261  29.827  21.665  1.00  0.00    -0.490 OA
BRANCH  21  22
ATOM     22  C   UNL A   1      29.256  30.791  22.002  1.00  0.00     0.226 C 
ATOM     23  C   UNL A   1      28.040  30.553  21.121  1.00  0.00     0.049 C 
ENDBRANCH  21  22
ENDBRANCH  16  21
BRANCH  18  24
ATOM     24  O   UNL A   1      30.983  26.947  21.314  1.00  0.00    -0.493 OA
ATOM     25  C   UNL A   1      31.916  25.896  21.189  1.00  0.00     0.278 C 
ENDBRANCH  18  24
ENDBRANCH   8  15
BRANCH   7  26
ATOM     26  C   UNL A   1      32.955  21.515  24.806  1.00  0.00    -0.032 A 
ATOM     27  C   UNL A   1      32.591  21.931  23.515  1.00  0.00     0.005 A 
ATOM     28  C   UNL A   1      32.877  20.120  25.036  1.00  0.00     0.005 A 
ATOM     29  C   UNL A   1      32.191  21.021  22.523  1.00  0.00     0.000 A 
ATOM     30  C   UNL A   1      32.461  19.210  24.057  1.00  0.00     0.000 A 
ATOM     31  C   UNL A   1      32.120  19.663  22.794  1.00  0.00     0.000 A 
ENDBRANCH   7  26
ENDBRANCH   4   7
ENDBRANCH   2   3
ENDBRANCH   1   2
BRANCH   1  32
ATOM     32  C   UNL A   1      38.036  19.642  24.626  1.00  0.00     0.023 C 
BRANCH  32  33
ATOM     33  C   UNL A   1      38.899  19.889  25.857  1.00  0.00     0.116 C 
BRANCH  33  34
ATOM     34  N   UNL A   1      40.137  19.127  25.841  1.00  0.00    -0.352 N 
ATOM     35  C   UNL A   1      41.419  19.547  26.108  1.00  0.00     0.251 C 
ATOM     36  H   UNL A   1      40.044  18.174  25.607  1.00  0.00     0.163 HD
ATOM     37  O   UNL A   1      42.370  18.808  25.913  1.00  0.00    -0.269 OA
BRANCH  35  38
ATOM     38  C   UNL A   1      41.637  20.922  26.603  1.00  0.00     0.039 A 
ATOM     39  C   UNL A   1      41.498  21.175  27.970  1.00  0.00     0.014 A 
ATOM     40  C   UNL A   1      42.005  21.947  25.728  1.00  0.00     0.014 A 
ATOM     41  C   UNL A   1      41.796  22.443  28.468  1.00  0.00     0.010 A 
ATOM     42  C   UNL A   1      42.381  23.185  26.236  1.00  0.00     0.010 A 
ATOM     43  C   UNL A   1      42.277  23.447  27.611  1.00  0.00    -0.014 A 
BRANCH  43  44
ATOM     44  C   UNL A   1      42.683  24.775  28.135  1.00  0.00     0.031 A 
ATOM     45  C   UNL A   1      41.650  25.843  28.365  1.00  0.00     0.074 A 
ATOM     46  C   UNL A   1      43.987  25.041  28.339  1.00  0.00     0.049 A 
ATOM     47  N   UNL A   1      41.816  27.079  28.764  1.00  0.00    -0.248 NA
ATOM     48  C   UNL A   1      40.250  25.485  28.084  1.00  0.00     0.031 C 
ATOM     49  C   UNL A   1      45.091  24.107  28.109  1.00  0.00     0.029 A 
ATOM     50  N   UNL A   1      44.607  26.185  28.778  1.00  0.00    -0.354 N 
ATOM     51  C   UNL A   1      40.549  27.648  28.762  1.00  0.00     0.074 A 
ATOM     52  C   UNL A   1      39.633  26.642  28.274  1.00  0.00     0.031 C 
ATOM     53  C   UNL A   1      46.248  24.705  28.433  1.00  0.00     0.029 A 
ATOM     54  C   UNL A   1      45.975  26.075  28.854  1.00  0.00     0.049 A 
ATOM     55  H   UNL A   1      44.117  27.005  29.017  1.00  0.00     0.167 HD
ATOM     56  C   UNL A   1      40.178  28.891  29.149  1.00  0.00     0.031 A 
ATOM     57  C   UNL A   1      46.905  26.979  29.212  1.00  0.00     0.031 A 
ATOM     58  C   UNL A   1      41.088  29.889  29.643  1.00  0.00     0.049 A 
ATOM     59  C   UNL A   1      46.469  28.356  29.630  1.00  0.00     0.074 A 
ATOM     60  C   UNL A   1      40.802  31.156  30.122  1.00  0.00     0.029 A 
ATOM     61  N   UNL A   1      42.464  29.735  29.716  1.00  0.00    -0.354 N 
ATOM     62  N   UNL A   1      45.258  28.853  29.699  1.00  0.00    -0.248 NA
ATOM     63  C   UNL A   1      47.528  29.291  30.032  1.00  0.00     0.031 C 
ATOM     64  C   UNL A   1      42.009  31.789  30.430  1.00  0.00     0.029 A 
ATOM     65  C   UNL A   1      43.044  30.894  30.204  1.00  0.00     0.049 A 
ATOM     66  H   UNL A   1      42.957  28.922  29.459  1.00  0.00     0.167 HD
ATOM     67  C   UNL A   1      45.407  30.148  30.178  1.00  0.00     0.074 A 
ATOM     68  C   UNL A   1      46.824  30.353  30.398  1.00  0.00     0.031 C 
ATOM     69  C   UNL A   1      44.456  31.084  30.415  1.00  0.00     0.031 A 
BRANCH  56  70
ATOM     70  C   UNL A   1      38.719  29.244  29.039  1.00  0.00    -0.014 A 
ATOM     71  C   UNL A   1      37.843  29.077  30.124  1.00  0.00     0.009 A 
ATOM     72  C   UNL A   1      38.220  29.781  27.842  1.00  0.00     0.009 A 
ATOM     73  C   UNL A   1      36.491  29.401  29.998  1.00  0.00     0.001 A 
ATOM     74  C   UNL A   1      36.875  30.135  27.730  1.00  0.00     0.001 A 
ATOM     75  C   UNL A   1      36.010  29.934  28.804  1.00  0.00     0.000 A 
ENDBRANCH  56  70
BRANCH  57  76
ATOM     76  C   UNL A   1      48.345  26.608  29.202  1.00  0.00    -0.014 A 
ATOM     77  C   UNL A   1      49.131  26.825  28.060  1.00  0.00     0.009 A 
ATOM     78  C   UNL A   1      48.940  26.033  30.336  1.00  0.00     0.009 A 
ATOM     79  C   UNL A   1      50.476  26.449  28.044  1.00  0.00     0.001 A 
ATOM     80  C   UNL A   1      50.294  25.686  30.328  1.00  0.00     0.001 A 
ATOM     81  C   UNL A   1      51.058  25.885  29.179  1.00  0.00     0.000 A 
ENDBRANCH  57  76
BRANCH  69  82
ATOM     82  C   UNL A   1      44.911  32.403  30.974  1.00  0.00    -0.014 A 
ATOM     83  C   UNL A   1      45.269  33.470  30.134  1.00  0.00     0.009 A 
ATOM     84  C   UNL A   1      44.939  32.593  32.365  1.00  0.00     0.009 A 
ATOM     85  C   UNL A   1      45.679  34.688  30.678  1.00  0.00     0.001 A 
ATOM     86  C   UNL A   1      45.319  33.822  32.904  1.00  0.00     0.001 A 
ATOM     87  C   UNL A   1      45.698  34.865  32.062  1.00  0.00     0.000 A 
ENDBRANCH  69  82
ENDBRANCH  43  44
ENDBRANCH  35  38
ENDBRANCH  33  34
ENDBRANCH  32  33
ENDBRANCH   1  32
TORSDOF 16
ENDMDL
MODEL 3
REMARK VINA RESULT:     -11.8      3.633      9.433
REMARK SMILES CCOc1ccc(C(=O)N2CCC(C(=O)NCCCCNC(=O)c3ccc(-c4c5nc(c(-c6ccccc6)c6ccc([nH]6)c(-c6ccccc6)c6nc(c(-c7ccccc7)c7ccc4[nH]7)C=C6)C=C5)cc3)(c3ccccc3)CC2)cc1OC
REMARK SMILES IDX 18 1 17 2 16 3 14 4 15 5 13 7 8 8 9 9 10 10 11 11 79 12
REMARK SMILES IDX 12 13 78 14 7 15 4 16 5 17 81 18 6 19 80 20 3 21 2 22 1 23
REMARK SMILES IDX 82 24 83 25 72 26 73 27 77 28 74 29 76 30 75 31 19 32 20 33
REMARK SMILES IDX 21 34 22 35 23 37 24 38 25 39 71 40 26 41 70 42 27 43 28 44
REMARK SMILES IDX 29 45 64 46 30 47 69 48 63 49 65 50 31 51 68 52 62 53 61 54
REMARK SMILES IDX 32 56 54 57 39 58 53 59 40 60 43 61 52 62 66 63 41 64 42 65
REMARK SMILES IDX 51 67 67 68 44 69 33 70 34 71 38 72 35 73 37 74 36 75 55 76
REMARK SMILES IDX 56 77 60 78 57 79 59 80 58 81 45 82 46 83 50 84 47 85 49 86
REMARK SMILES IDX 48 87
REMARK H PARENT 16 6 21 36 65 55 43 66
REMARK Flexibility Score: inf
ROOT
ATOM      1  C   UNL A   1      34.386  30.806  27.321  1.00  0.00     0.023 C 
ENDROOT
BRANCH   1   2
ATOM      2  C   UNL A   1      34.007  29.378  26.936  1.00  0.00     0.116 C 
BRANCH   2   3
ATOM      3  N   UNL A   1      32.844  28.910  27.678  1.00  0.00    -0.355 N 
ATOM      4  C   UNL A   1      31.922  27.926  27.433  1.00  0.00     0.230 C 
ATOM      5  O   UNL A   1      31.001  27.904  28.251  1.00  0.00    -0.274 OA
ATOM      6  H   UNL A   1      32.690  29.397  28.519  1.00  0.00     0.163 HD
BRANCH   4   7
ATOM      7  C   UNL A   1      32.064  26.949  26.212  1.00  0.00     0.077 C 
ATOM      8  C   UNL A   1      33.782  22.947  26.291  1.00  0.00     0.253 C 
ATOM      9  O   UNL A   1      34.855  22.855  26.891  1.00  0.00    -0.269 OA
ATOM     10  N   UNL A   1      33.144  24.191  26.138  1.00  0.00    -0.339 N 
ATOM     11  C   UNL A   1      34.010  25.268  25.691  1.00  0.00     0.121 C 
ATOM     12  C   UNL A   1      31.699  24.384  26.033  1.00  0.00     0.121 C 
ATOM     13  C   UNL A   1      33.589  26.672  26.089  1.00  0.00     0.043 C 
ATOM     14  C   UNL A   1      31.194  25.709  26.574  1.00  0.00     0.043 C 
BRANCH   8  15
ATOM     15  C   UNL A   1      33.262  21.724  25.596  1.00  0.00     0.043 A 
ATOM     16  C   UNL A   1      32.502  19.373  24.219  1.00  0.00     0.161 A 
ATOM     17  C   UNL A   1      32.901  19.320  25.564  1.00  0.00     0.051 A 
ATOM     18  C   UNL A   1      32.451  20.603  23.569  1.00  0.00     0.161 A 
ATOM     19  C   UNL A   1      33.266  20.489  26.253  1.00  0.00     0.018 A 
ATOM     20  C   UNL A   1      32.906  21.734  24.248  1.00  0.00     0.064 A 
BRANCH  16  21
ATOM     21  O   UNL A   1      32.115  18.228  23.586  1.00  0.00    -0.490 OA
BRANCH  21  22
ATOM     22  C   UNL A   1      33.091  17.735  22.659  1.00  0.00     0.226 C 
ATOM     23  C   UNL A   1      34.150  16.967  23.434  1.00  0.00     0.049 C 
ENDBRANCH  21  22
ENDBRANCH  16  21
BRANCH  18  24
ATOM     24  O   UNL A   1      32.025  20.934  22.317  1.00  0.00    -0.493 OA
ATOM     25  C   UNL A   1      32.269  22.221  21.794  1.00  0.00     0.278 C 
ENDBRANCH  18  24
ENDBRANCH   8  15
BRANCH   7  26
ATOM     26  C   UNL A   1      31.562  27.478  24.818  1.00  0.00    -0.032 A 
ATOM     27  C   UNL A   1      32.273  28.377  24.008  1.00  0.00     0.005 A 
ATOM     28  C   UNL A   1      30.307  27.067  24.309  1.00  0.00     0.005 A 
ATOM     29  C   UNL A   1      31.774  28.825  22.775  1.00  0.00     0.000 A 
ATOM     30  C   UNL A   1      29.795  27.525  23.089  1.00  0.00     0.000 A 
ATOM     31  C   UNL A   1      30.533  28.405  22.317  1.00  0.00     0.000 A 
ENDBRANCH   7  26
ENDBRANCH   4   7
ENDBRANCH   2   3
ENDBRANCH   1   2
BRANCH   1  32
ATOM     32  C   UNL A   1      33.203  31.695  27.697  1.00  0.00     0.023 C 
BRANCH  32  33
ATOM     33  C   UNL A   1      33.284  33.124  27.175  1.00  0.00     0.116 C 
BRANCH  33  34
ATOM     34  N   UNL A   1      32.757  34.099  28.115  1.00  0.00    -0.352 N 
ATOM     35  C   UNL A   1      33.266  34.496  29.330  1.00  0.00     0.251 C 
ATOM     36  H   UNL A   1      31.918  34.538  27.844  1.00  0.00     0.163 HD
ATOM     37  O   UNL A   1      32.625  35.229  30.065  1.00  0.00    -0.269 OA
BRANCH  35  38
ATOM     38  C   UNL A   1      34.592  33.997  29.753  1.00  0.00     0.039 A 
ATOM     39  C   UNL A   1      34.669  33.153  30.862  1.00  0.00     0.014 A 
ATOM     40  C   UNL A   1      35.744  34.338  29.039  1.00  0.00     0.014 A 
ATOM     41  C   UNL A   1      35.898  32.593  31.215  1.00  0.00     0.010 A 
ATOM     42  C   UNL A   1      36.950  33.715  29.342  1.00  0.00     0.010 A 
ATOM     43  C   UNL A   1      37.040  32.839  30.435  1.00  0.00    -0.014 A 
BRANCH  43  44
ATOM     44  C   UNL A   1      38.335  32.185  30.743  1.00  0.00     0.031 A 
ATOM     45  C   UNL A   1      39.316  32.849  31.669  1.00  0.00     0.074 A 
ATOM     46  C   UNL A   1      38.659  31.027  30.135  1.00  0.00     0.049 A 
ATOM     47  N   UNL A   1      40.517  32.462  32.015  1.00  0.00    -0.248 NA
ATOM     48  C   UNL A   1      38.903  34.130  32.265  1.00  0.00     0.031 C 
ATOM     49  C   UNL A   1      37.817  30.305  29.179  1.00  0.00     0.029 A 
ATOM     50  N   UNL A   1      39.792  30.257  30.226  1.00  0.00    -0.354 N 
ATOM     51  C   UNL A   1      41.009  33.458  32.849  1.00  0.00     0.074 A 
ATOM     52  C   UNL A   1      39.999  34.491  32.917  1.00  0.00     0.031 C 
ATOM     53  C   UNL A   1      38.449  29.187  28.793  1.00  0.00     0.029 A 
ATOM     54  C   UNL A   1      39.757  29.131  29.438  1.00  0.00     0.049 A 
ATOM     55  H   UNL A   1      40.556  30.489  30.801  1.00  0.00     0.167 HD
ATOM     56  C   UNL A   1      42.187  33.502  33.514  1.00  0.00     0.031 A 
ATOM     57  C   UNL A   1      40.677  28.168  29.249  1.00  0.00     0.031 A 
ATOM     58  C   UNL A   1      43.187  32.470  33.455  1.00  0.00     0.049 A 
ATOM     59  C   UNL A   1      41.982  28.243  29.993  1.00  0.00     0.074 A 
ATOM     60  C   UNL A   1      44.385  32.390  34.142  1.00  0.00     0.029 A 
ATOM     61  N   UNL A   1      43.108  31.340  32.655  1.00  0.00    -0.354 N 
ATOM     62  N   UNL A   1      42.398  29.152  30.840  1.00  0.00    -0.248 NA
ATOM     63  C   UNL A   1      42.937  27.151  29.763  1.00  0.00     0.031 C 
ATOM     64  C   UNL A   1      45.058  31.242  33.716  1.00  0.00     0.029 A 
ATOM     65  C   UNL A   1      44.250  30.572  32.810  1.00  0.00     0.049 A 
ATOM     66  H   UNL A   1      42.353  31.117  32.064  1.00  0.00     0.167 HD
ATOM     67  C   UNL A   1      43.651  28.729  31.266  1.00  0.00     0.074 A 
ATOM     68  C   UNL A   1      43.917  27.473  30.595  1.00  0.00     0.031 C 
ATOM     69  C   UNL A   1      44.503  29.326  32.134  1.00  0.00     0.031 A 
BRANCH  56  70
ATOM     70  C   UNL A   1      42.462  34.718  34.357  1.00  0.00    -0.014 A 
ATOM     71  C   UNL A   1      42.091  34.768  35.710  1.00  0.00     0.009 A 
ATOM     72  C   UNL A   1      43.129  35.818  33.796  1.00  0.00     0.009 A 
ATOM     73  C   UNL A   1      42.346  35.910  36.472  1.00  0.00     0.001 A 
ATOM     74  C   UNL A   1      43.411  36.945  34.569  1.00  0.00     0.001 A 
ATOM     75  C   UNL A   1      43.010  36.995  35.902  1.00  0.00     0.000 A 
ENDBRANCH  56  70
BRANCH  57  76
ATOM     76  C   UNL A   1      40.394  27.040  28.322  1.00  0.00    -0.014 A 
ATOM     77  C   UNL A   1      40.886  27.055  27.008  1.00  0.00     0.009 A 
ATOM     78  C   UNL A   1      39.629  25.943  28.748  1.00  0.00     0.009 A 
ATOM     79  C   UNL A   1      40.594  26.008  26.131  1.00  0.00     0.001 A 
ATOM     80  C   UNL A   1      39.364  24.883  27.878  1.00  0.00     0.001 A 
ATOM     81  C   UNL A   1      39.838  24.921  26.567  1.00  0.00     0.000 A 
ENDBRANCH  57  76
BRANCH  69  82
ATOM     82  C   UNL A   1      45.790  28.610  32.438  1.00  0.00    -0.014 A 
ATOM     83  C   UNL A   1      45.874  27.662  33.470  1.00  0.00     0.009 A 
ATOM     84  C   UNL A   1      46.924  28.860  31.649  1.00  0.00     0.009 A 
ATOM     85  C   UNL A   1      47.078  27.005  33.727  1.00  0.00     0.001 A 
ATOM     86  C   UNL A   1      48.117  28.176  31.887  1.00  0.00     0.001 A 
ATOM     87  C   UNL A   1      48.196  27.258  32.931  1.00  0.00     0.000 A 
ENDBRANCH  69  82
ENDBRANCH  43  44
ENDBRANCH  35  38
ENDBRANCH  33  34
ENDBRANCH  32  33
ENDBRANCH   1  32
TORSDOF 16
ENDMDL
