MODEL 1
REMARK VINA RESULT:     -12.4      0.000      0.000
REMARK SMILES C[C@@]1(C(=O)NCCCCNC(=O)c2ccc(-c3c4nc(c(-c5ccccc5)c5ccc([nH]5)c(-c5ccccc5)c5nc(c(-c6ccccc6)c6ccc3[nH]6)C=C5)C=C4)cc2)[C@@H]2C=C[C@@]3(CN(c4ccccc4)C(=O)[C@H]13)O2
REMARK SMILES IDX 8 1 7 2 6 3 5 4 3 5 4 6 2 8 1 9 61 10 75 11 62 12 76 13
REMARK SMILES IDX 64 14 73 15 63 16 65 17 66 18 74 19 67 20 68 21 72 22 69 23
REMARK SMILES IDX 71 24 70 25 9 26 10 27 11 28 12 30 13 31 14 32 60 33 15 34
REMARK SMILES IDX 59 35 16 36 17 37 18 38 53 39 19 40 58 41 52 42 54 43 20 44
REMARK SMILES IDX 57 45 51 46 50 47 21 49 43 50 28 51 42 52 29 53 32 54 41 55
REMARK SMILES IDX 55 56 30 57 31 58 40 60 56 61 33 62 22 63 23 64 27 65 24 66
REMARK SMILES IDX 26 67 25 68 44 69 45 70 49 71 46 72 48 73 47 74 34 75 35 76
REMARK SMILES IDX 39 77 36 78 38 79 37 80
REMARK H PARENT 5 7 10 29 54 48 32 59
REMARK Flexibility Score: inf
ROOT
ATOM      1  C   UNL A   1      33.004  29.363  25.770  1.00  0.00     0.023 C 
ENDROOT
BRANCH   1   2
ATOM      2  C   UNL A   1      33.746  28.364  24.904  1.00  0.00     0.023 C 
BRANCH   2   3
ATOM      3  C   UNL A   1      33.079  27.953  23.599  1.00  0.00     0.116 C 
BRANCH   3   4
ATOM      4  N   UNL A   1      33.541  26.702  23.043  1.00  0.00    -0.356 N 
ATOM      5  C   UNL A   1      33.097  25.422  23.092  1.00  0.00     0.229 C 
ATOM      6  O   UNL A   1      33.681  24.677  22.288  1.00  0.00    -0.274 OA
ATOM      7  H   UNL A   1      34.362  26.801  22.510  1.00  0.00     0.163 HD
BRANCH   5   8
ATOM      8  C   UNL A   1      31.963  24.839  23.972  1.00  0.00     0.091 C 
ATOM      9  C   UNL A   1      30.637  25.462  23.433  1.00  0.00     0.026 C 
ATOM     10  C   UNL A   1      32.002  25.167  25.500  1.00  0.00     0.158 C 
ATOM     11  C   UNL A   1      31.752  23.330  24.058  1.00  0.00     0.135 C 
ATOM     12  C   UNL A   1      33.303  24.795  26.128  1.00  0.00     0.004 C 
ATOM     13  O   UNL A   1      31.176  24.036  26.063  1.00  0.00    -0.360 OA
ATOM     14  C   UNL A   1      32.017  23.003  25.536  1.00  0.00     0.118 C 
ATOM     15  C   UNL A   1      32.408  22.203  23.342  1.00  0.00     0.234 C 
ATOM     16  C   UNL A   1      33.315  23.458  26.157  1.00  0.00     0.009 C 
ATOM     17  C   UNL A   1      31.781  21.504  25.536  1.00  0.00     0.166 C 
ATOM     18  N   UNL A   1      32.390  21.117  24.251  1.00  0.00    -0.309 N 
ATOM     19  O   UNL A   1      32.719  22.226  22.165  1.00  0.00    -0.274 OA
BRANCH  18  20
ATOM     20  C   UNL A   1      32.885  19.818  23.975  1.00  0.00     0.044 A 
ATOM     21  C   UNL A   1      32.243  18.985  23.052  1.00  0.00     0.026 A 
ATOM     22  C   UNL A   1      34.025  19.324  24.627  1.00  0.00     0.026 A 
ATOM     23  C   UNL A   1      32.737  17.703  22.781  1.00  0.00     0.002 A 
ATOM     24  C   UNL A   1      34.498  18.031  24.385  1.00  0.00     0.002 A 
ATOM     25  C   UNL A   1      33.857  17.222  23.455  1.00  0.00     0.000 A 
ENDBRANCH  18  20
ENDBRANCH   5   8
ENDBRANCH   3   4
ENDBRANCH   2   3
ENDBRANCH   1   2
BRANCH   1  26
ATOM     26  C   UNL A   1      33.331  29.321  27.253  1.00  0.00     0.116 C 
BRANCH  26  27
ATOM     27  N   UNL A   1      33.596  30.622  27.859  1.00  0.00    -0.352 N 
ATOM     28  C   UNL A   1      34.757  31.105  28.422  1.00  0.00     0.251 C 
ATOM     29  H   UNL A   1      32.834  31.245  27.866  1.00  0.00     0.163 HD
ATOM     30  O   UNL A   1      34.795  32.228  28.913  1.00  0.00    -0.269 OA
BRANCH  28  31
ATOM     31  C   UNL A   1      35.939  30.225  28.486  1.00  0.00     0.039 A 
ATOM     32  C   UNL A   1      36.779  30.142  27.374  1.00  0.00     0.014 A 
ATOM     33  C   UNL A   1      36.282  29.597  29.683  1.00  0.00     0.014 A 
ATOM     34  C   UNL A   1      38.031  29.540  27.505  1.00  0.00     0.010 A 
ATOM     35  C   UNL A   1      37.568  29.100  29.842  1.00  0.00     0.010 A 
ATOM     36  C   UNL A   1      38.463  29.082  28.760  1.00  0.00    -0.014 A 
BRANCH  36  37
ATOM     37  C   UNL A   1      39.851  28.605  28.986  1.00  0.00     0.031 A 
ATOM     38  C   UNL A   1      40.895  29.558  29.496  1.00  0.00     0.074 A 
ATOM     39  C   UNL A   1      40.202  27.356  28.617  1.00  0.00     0.049 A 
ATOM     40  N   UNL A   1      42.187  29.383  29.614  1.00  0.00    -0.248 NA
ATOM     41  C   UNL A   1      40.434  30.904  29.878  1.00  0.00     0.031 C 
ATOM     42  C   UNL A   1      39.307  26.351  28.037  1.00  0.00     0.029 A 
ATOM     43  N   UNL A   1      41.419  26.722  28.663  1.00  0.00    -0.354 N 
ATOM     44  C   UNL A   1      42.694  30.608  30.028  1.00  0.00     0.074 A 
ATOM     45  C   UNL A   1      41.580  31.526  30.107  1.00  0.00     0.031 C 
ATOM     46  C   UNL A   1      39.998  25.222  27.809  1.00  0.00     0.029 A 
ATOM     47  C   UNL A   1      41.389  25.433  28.188  1.00  0.00     0.049 A 
ATOM     48  H   UNL A   1      42.237  27.152  29.004  1.00  0.00     0.167 HD
ATOM     49  C   UNL A   1      43.970  30.936  30.337  1.00  0.00     0.031 A 
ATOM     50  C   UNL A   1      42.375  24.525  28.066  1.00  0.00     0.031 A 
ATOM     51  C   UNL A   1      45.068  30.010  30.325  1.00  0.00     0.049 A 
ATOM     52  C   UNL A   1      43.769  24.889  28.489  1.00  0.00     0.074 A 
ATOM     53  C   UNL A   1      46.376  30.219  30.722  1.00  0.00     0.029 A 
ATOM     54  N   UNL A   1      44.978  28.692  29.905  1.00  0.00    -0.354 N 
ATOM     55  N   UNL A   1      44.217  26.030  28.952  1.00  0.00    -0.248 NA
ATOM     56  C   UNL A   1      44.790  23.837  28.379  1.00  0.00     0.031 C 
ATOM     57  C   UNL A   1      47.088  29.031  30.519  1.00  0.00     0.029 A 
ATOM     58  C   UNL A   1      46.213  28.077  30.025  1.00  0.00     0.049 A 
ATOM     59  H   UNL A   1      44.160  28.258  29.571  1.00  0.00     0.167 HD
ATOM     60  C   UNL A   1      45.567  25.829  29.207  1.00  0.00     0.074 A 
ATOM     61  C   UNL A   1      45.861  24.454  28.862  1.00  0.00     0.031 C 
ATOM     62  C   UNL A   1      46.481  26.707  29.683  1.00  0.00     0.031 A 
BRANCH  49  63
ATOM     63  C   UNL A   1      44.240  32.361  30.720  1.00  0.00    -0.014 A 
ATOM     64  C   UNL A   1      44.557  33.326  29.750  1.00  0.00     0.009 A 
ATOM     65  C   UNL A   1      44.160  32.747  32.066  1.00  0.00     0.009 A 
ATOM     66  C   UNL A   1      44.828  34.643  30.127  1.00  0.00     0.001 A 
ATOM     67  C   UNL A   1      44.407  34.070  32.437  1.00  0.00     0.001 A 
ATOM     68  C   UNL A   1      44.750  35.014  31.469  1.00  0.00     0.000 A 
ENDBRANCH  49  63
BRANCH  50  69
ATOM     69  C   UNL A   1      42.077  23.167  27.543  1.00  0.00    -0.014 A 
ATOM     70  C   UNL A   1      42.331  22.858  26.197  1.00  0.00     0.009 A 
ATOM     71  C   UNL A   1      41.532  22.180  28.376  1.00  0.00     0.009 A 
ATOM     72  C   UNL A   1      42.020  21.594  25.691  1.00  0.00     0.001 A 
ATOM     73  C   UNL A   1      41.243  20.909  27.872  1.00  0.00     0.001 A 
ATOM     74  C   UNL A   1      41.480  20.620  26.528  1.00  0.00     0.000 A 
ENDBRANCH  50  69
BRANCH  62  75
ATOM     75  C   UNL A   1      47.877  26.198  29.887  1.00  0.00    -0.014 A 
ATOM     76  C   UNL A   1      48.802  26.187  28.832  1.00  0.00     0.009 A 
ATOM     77  C   UNL A   1      48.284  25.771  31.160  1.00  0.00     0.009 A 
ATOM     78  C   UNL A   1      50.105  25.737  29.046  1.00  0.00     0.001 A 
ATOM     79  C   UNL A   1      49.593  25.341  31.375  1.00  0.00     0.001 A 
ATOM     80  C   UNL A   1      50.501  25.318  30.316  1.00  0.00     0.000 A 
ENDBRANCH  62  75
ENDBRANCH  36  37
ENDBRANCH  28  31
ENDBRANCH  26  27
ENDBRANCH   1  26
TORSDOF 12
ENDMDL
MODEL 2
REMARK VINA RESULT:     -12.4      1.739      4.078
REMARK SMILES C[C@@]1(C(=O)NCCCCNC(=O)c2ccc(-c3c4nc(c(-c5ccccc5)c5ccc([nH]5)c(-c5ccccc5)c5nc(c(-c6ccccc6)c6ccc3[nH]6)C=C5)C=C4)cc2)[C@@H]2C=C[C@@]3(CN(c4ccccc4)C(=O)[C@H]13)O2
REMARK SMILES IDX 8 1 7 2 6 3 5 4 3 5 4 6 2 8 1 9 61 10 75 11 62 12 76 13
REMARK SMILES IDX 64 14 73 15 63 16 65 17 66 18 74 19 67 20 68 21 72 22 69 23
REMARK SMILES IDX 71 24 70 25 9 26 10 27 11 28 12 30 13 31 14 32 60 33 15 34
REMARK SMILES IDX 59 35 16 36 17 37 18 38 53 39 19 40 58 41 52 42 54 43 20 44
REMARK SMILES IDX 57 45 51 46 50 47 21 49 43 50 28 51 42 52 29 53 32 54 41 55
REMARK SMILES IDX 55 56 30 57 31 58 40 60 56 61 33 62 22 63 23 64 27 65 24 66
REMARK SMILES IDX 26 67 25 68 44 69 45 70 49 71 46 72 48 73 47 74 34 75 35 76
REMARK SMILES IDX 39 77 36 78 38 79 37 80
REMARK H PARENT 5 7 10 29 54 48 32 59
REMARK Flexibility Score: inf
ROOT
ATOM      1  C   UNL A   1      31.966  29.196  27.066  1.00  0.00     0.023 C 
ENDROOT
BRANCH   1   2
ATOM      2  C   UNL A   1      31.668  27.717  27.211  1.00  0.00     0.023 C 
BRANCH   2   3
ATOM      3  C   UNL A   1      32.519  26.759  26.388  1.00  0.00     0.116 C 
BRANCH   3   4
ATOM      4  N   UNL A   1      32.205  25.359  26.561  1.00  0.00    -0.356 N 
ATOM      5  C   UNL A   1      32.025  24.316  25.714  1.00  0.00     0.229 C 
ATOM      6  O   UNL A   1      31.977  23.222  26.299  1.00  0.00    -0.274 OA
ATOM      7  H   UNL A   1      32.097  25.106  27.506  1.00  0.00     0.163 HD
BRANCH   5   8
ATOM      8  C   UNL A   1      31.926  24.350  24.168  1.00  0.00     0.091 C 
ATOM      9  C   UNL A   1      31.393  22.948  23.740  1.00  0.00     0.026 C 
ATOM     10  C   UNL A   1      33.253  24.567  23.372  1.00  0.00     0.158 C 
ATOM     11  C   UNL A   1      31.058  25.396  23.474  1.00  0.00     0.135 C 
ATOM     12  C   UNL A   1      33.985  25.791  23.809  1.00  0.00     0.004 C 
ATOM     13  O   UNL A   1      32.724  25.105  22.064  1.00  0.00    -0.360 OA
ATOM     14  C   UNL A   1      32.061  26.227  22.658  1.00  0.00     0.118 C 
ATOM     15  C   UNL A   1      30.133  26.426  24.019  1.00  0.00     0.234 C 
ATOM     16  C   UNL A   1      33.253  26.821  23.366  1.00  0.00     0.009 C 
ATOM     17  C   UNL A   1      31.125  27.225  22.001  1.00  0.00     0.166 C 
ATOM     18  N   UNL A   1      30.183  27.502  23.099  1.00  0.00    -0.309 N 
ATOM     19  O   UNL A   1      29.392  26.249  24.969  1.00  0.00    -0.274 OA
BRANCH  18  20
ATOM     20  C   UNL A   1      29.426  28.696  23.205  1.00  0.00     0.044 A 
ATOM     21  C   UNL A   1      30.007  29.875  23.686  1.00  0.00     0.026 A 
ATOM     22  C   UNL A   1      28.071  28.728  22.844  1.00  0.00     0.026 A 
ATOM     23  C   UNL A   1      29.256  31.052  23.787  1.00  0.00     0.002 A 
ATOM     24  C   UNL A   1      27.310  29.893  22.980  1.00  0.00     0.002 A 
ATOM     25  C   UNL A   1      27.905  31.059  23.444  1.00  0.00     0.000 A 
ENDBRANCH  18  20
ENDBRANCH   5   8
ENDBRANCH   3   4
ENDBRANCH   2   3
ENDBRANCH   1   2
BRANCH   1  26
ATOM     26  C   UNL A   1      33.425  29.592  27.207  1.00  0.00     0.116 C 
BRANCH  26  27
ATOM     27  N   UNL A   1      33.654  30.840  27.930  1.00  0.00    -0.352 N 
ATOM     28  C   UNL A   1      34.782  31.274  28.591  1.00  0.00     0.251 C 
ATOM     29  H   UNL A   1      32.890  31.461  27.948  1.00  0.00     0.163 HD
ATOM     30  O   UNL A   1      34.791  32.354  29.173  1.00  0.00    -0.269 OA
BRANCH  28  31
ATOM     31  C   UNL A   1      35.962  30.391  28.645  1.00  0.00     0.039 A 
ATOM     32  C   UNL A   1      36.838  30.368  27.558  1.00  0.00     0.014 A 
ATOM     33  C   UNL A   1      36.267  29.699  29.817  1.00  0.00     0.014 A 
ATOM     34  C   UNL A   1      38.086  29.758  27.697  1.00  0.00     0.010 A 
ATOM     35  C   UNL A   1      37.548  29.193  29.990  1.00  0.00     0.010 A 
ATOM     36  C   UNL A   1      38.477  29.233  28.938  1.00  0.00    -0.014 A 
BRANCH  36  37
ATOM     37  C   UNL A   1      39.858  28.743  29.182  1.00  0.00     0.031 A 
ATOM     38  C   UNL A   1      40.888  29.670  29.763  1.00  0.00     0.074 A 
ATOM     39  C   UNL A   1      40.218  27.510  28.770  1.00  0.00     0.049 A 
ATOM     40  N   UNL A   1      42.176  29.487  29.909  1.00  0.00    -0.248 NA
ATOM     41  C   UNL A   1      40.418  30.999  30.190  1.00  0.00     0.031 C 
ATOM     42  C   UNL A   1      39.337  26.534  28.122  1.00  0.00     0.029 A 
ATOM     43  N   UNL A   1      41.432  26.872  28.823  1.00  0.00    -0.354 N 
ATOM     44  C   UNL A   1      42.672  30.691  30.391  1.00  0.00     0.074 A 
ATOM     45  C   UNL A   1      41.557  31.608  30.478  1.00  0.00     0.031 C 
ATOM     46  C   UNL A   1      40.034  25.414  27.864  1.00  0.00     0.029 A 
ATOM     47  C   UNL A   1      41.414  25.605  28.292  1.00  0.00     0.049 A 
ATOM     48  H   UNL A   1      42.241  27.284  29.205  1.00  0.00     0.167 HD
ATOM     49  C   UNL A   1      43.939  31.002  30.750  1.00  0.00     0.031 A 
ATOM     50  C   UNL A   1      42.401  24.700  28.158  1.00  0.00     0.031 A 
ATOM     51  C   UNL A   1      45.036  30.075  30.728  1.00  0.00     0.049 A 
ATOM     52  C   UNL A   1      43.784  25.042  28.635  1.00  0.00     0.074 A 
ATOM     53  C   UNL A   1      46.332  30.263  31.171  1.00  0.00     0.029 A 
ATOM     54  N   UNL A   1      44.957  28.777  30.250  1.00  0.00    -0.354 N 
ATOM     55  N   UNL A   1      44.220  26.161  29.160  1.00  0.00    -0.248 NA
ATOM     56  C   UNL A   1      44.806  23.993  28.509  1.00  0.00     0.031 C 
ATOM     57  C   UNL A   1      47.049  29.084  30.937  1.00  0.00     0.029 A 
ATOM     58  C   UNL A   1      46.187  28.155  30.378  1.00  0.00     0.049 A 
ATOM     59  H   UNL A   1      44.148  28.360  29.874  1.00  0.00     0.167 HD
ATOM     60  C   UNL A   1      45.562  25.945  29.445  1.00  0.00     0.074 A 
ATOM     61  C   UNL A   1      45.863  24.586  29.048  1.00  0.00     0.031 C 
ATOM     62  C   UNL A   1      46.463  26.799  29.984  1.00  0.00     0.031 A 
BRANCH  49  63
ATOM     63  C   UNL A   1      44.200  32.409  31.202  1.00  0.00    -0.014 A 
ATOM     64  C   UNL A   1      44.508  33.423  30.280  1.00  0.00     0.009 A 
ATOM     65  C   UNL A   1      44.121  32.728  32.565  1.00  0.00     0.009 A 
ATOM     66  C   UNL A   1      44.771  34.721  30.721  1.00  0.00     0.001 A 
ATOM     67  C   UNL A   1      44.359  34.033  33.000  1.00  0.00     0.001 A 
ATOM     68  C   UNL A   1      44.693  35.026  32.080  1.00  0.00     0.000 A 
ENDBRANCH  49  63
BRANCH  50  69
ATOM     69  C   UNL A   1      42.117  23.367  27.568  1.00  0.00    -0.014 A 
ATOM     70  C   UNL A   1      42.411  23.115  26.218  1.00  0.00     0.009 A 
ATOM     71  C   UNL A   1      41.544  22.347  28.341  1.00  0.00     0.009 A 
ATOM     72  C   UNL A   1      42.113  21.875  25.649  1.00  0.00     0.001 A 
ATOM     73  C   UNL A   1      41.269  21.099  27.774  1.00  0.00     0.001 A 
ATOM     74  C   UNL A   1      41.546  20.868  26.427  1.00  0.00     0.000 A 
ENDBRANCH  50  69
BRANCH  62  75
ATOM     75  C   UNL A   1      47.852  26.278  30.205  1.00  0.00    -0.014 A 
ATOM     76  C   UNL A   1      48.805  26.308  29.176  1.00  0.00     0.009 A 
ATOM     77  C   UNL A   1      48.223  25.801  31.470  1.00  0.00     0.009 A 
ATOM     78  C   UNL A   1      50.101  25.845  29.407  1.00  0.00     0.001 A 
ATOM     79  C   UNL A   1      49.525  25.357  31.704  1.00  0.00     0.001 A 
ATOM     80  C   UNL A   1      50.461  25.375  30.670  1.00  0.00     0.000 A 
ENDBRANCH  62  75
ENDBRANCH  36  37
ENDBRANCH  28  31
ENDBRANCH  26  27
ENDBRANCH   1  26
TORSDOF 12
ENDMDL
MODEL 3
REMARK VINA RESULT:     -12.3      2.483      7.242
REMARK SMILES C[C@@]1(C(=O)NCCCCNC(=O)c2ccc(-c3c4nc(c(-c5ccccc5)c5ccc([nH]5)c(-c5ccccc5)c5nc(c(-c6ccccc6)c6ccc3[nH]6)C=C5)C=C4)cc2)[C@@H]2C=C[C@@]3(CN(c4ccccc4)C(=O)[C@H]13)O2
REMARK SMILES IDX 8 1 7 2 6 3 5 4 3 5 4 6 2 8 1 9 61 10 75 11 62 12 76 13
REMARK SMILES IDX 64 14 73 15 63 16 65 17 66 18 74 19 67 20 68 21 72 22 69 23
REMARK SMILES IDX 71 24 70 25 9 26 10 27 11 28 12 30 13 31 14 32 60 33 15 34
REMARK SMILES IDX 59 35 16 36 17 37 18 38 53 39 19 40 58 41 52 42 54 43 20 44
REMARK SMILES IDX 57 45 51 46 50 47 21 49 43 50 28 51 42 52 29 53 32 54 41 55
REMARK SMILES IDX 55 56 30 57 31 58 40 60 56 61 33 62 22 63 23 64 27 65 24 66
REMARK SMILES IDX 26 67 25 68 44 69 45 70 49 71 46 72 48 73 47 74 34 75 35 76
REMARK SMILES IDX 39 77 36 78 38 79 37 80
REMARK H PARENT 5 7 10 29 54 48 32 59
REMARK Flexibility Score: inf
ROOT
ATOM      1  C   UNL A   1      36.723  22.240  24.123  1.00  0.00     0.023 C 
ENDROOT
BRANCH   1   2
ATOM      2  C   UNL A   1      35.844  23.169  23.308  1.00  0.00     0.023 C 
BRANCH   2   3
ATOM      3  C   UNL A   1      34.950  24.129  24.082  1.00  0.00     0.116 C 
BRANCH   3   4
ATOM      4  N   UNL A   1      34.111  24.976  23.266  1.00  0.00    -0.356 N 
ATOM      5  C   UNL A   1      32.787  25.266  23.252  1.00  0.00     0.229 C 
ATOM      6  O   UNL A   1      32.510  26.221  22.507  1.00  0.00    -0.274 OA
ATOM      7  H   UNL A   1      34.614  25.447  22.563  1.00  0.00     0.163 HD
BRANCH   5   8
ATOM      8  C   UNL A   1      31.654  24.591  24.064  1.00  0.00     0.091 C 
ATOM      9  C   UNL A   1      30.317  25.123  23.462  1.00  0.00     0.026 C 
ATOM     10  C   UNL A   1      31.590  24.900  25.595  1.00  0.00     0.158 C 
ATOM     11  C   UNL A   1      31.550  23.069  24.124  1.00  0.00     0.135 C 
ATOM     12  C   UNL A   1      32.881  24.614  26.287  1.00  0.00     0.004 C 
ATOM     13  O   UNL A   1      30.821  23.704  26.102  1.00  0.00    -0.360 OA
ATOM     14  C   UNL A   1      31.761  22.741  25.610  1.00  0.00     0.118 C 
ATOM     15  C   UNL A   1      32.323  22.002  23.432  1.00  0.00     0.234 C 
ATOM     16  C   UNL A   1      32.988  23.280  26.303  1.00  0.00     0.009 C 
ATOM     17  C   UNL A   1      31.635  21.229  25.583  1.00  0.00     0.166 C 
ATOM     18  N   UNL A   1      32.337  20.905  24.328  1.00  0.00    -0.309 N 
ATOM     19  O   UNL A   1      32.692  22.064  22.274  1.00  0.00    -0.274 OA
BRANCH  18  20
ATOM     20  C   UNL A   1      32.939  19.649  24.066  1.00  0.00     0.044 A 
ATOM     21  C   UNL A   1      34.151  19.294  24.668  1.00  0.00     0.026 A 
ATOM     22  C   UNL A   1      32.347  18.733  23.184  1.00  0.00     0.026 A 
ATOM     23  C   UNL A   1      34.742  18.052  24.406  1.00  0.00     0.002 A 
ATOM     24  C   UNL A   1      32.953  17.508  22.893  1.00  0.00     0.002 A 
ATOM     25  C   UNL A   1      34.149  17.163  23.511  1.00  0.00     0.000 A 
ENDBRANCH  18  20
ENDBRANCH   5   8
ENDBRANCH   3   4
ENDBRANCH   2   3
ENDBRANCH   1   2
BRANCH   1  26
ATOM     26  C   UNL A   1      37.471  22.885  25.277  1.00  0.00     0.116 C 
BRANCH  26  27
ATOM     27  N   UNL A   1      38.765  22.281  25.580  1.00  0.00    -0.352 N 
ATOM     28  C   UNL A   1      39.833  22.802  26.278  1.00  0.00     0.251 C 
ATOM     29  H   UNL A   1      38.894  21.368  25.235  1.00  0.00     0.163 HD
ATOM     30  O   UNL A   1      40.866  22.157  26.418  1.00  0.00    -0.269 OA
BRANCH  28  31
ATOM     31  C   UNL A   1      39.740  24.179  26.800  1.00  0.00     0.039 A 
ATOM     32  C   UNL A   1      39.190  24.385  28.067  1.00  0.00     0.014 A 
ATOM     33  C   UNL A   1      40.317  25.236  26.097  1.00  0.00     0.014 A 
ATOM     34  C   UNL A   1      39.341  25.626  28.685  1.00  0.00     0.010 A 
ATOM     35  C   UNL A   1      40.564  26.433  26.756  1.00  0.00     0.010 A 
ATOM     36  C   UNL A   1      40.094  26.634  28.064  1.00  0.00    -0.014 A 
BRANCH  36  37
ATOM     37  C   UNL A   1      40.436  27.901  28.760  1.00  0.00     0.031 A 
ATOM     38  C   UNL A   1      41.757  28.035  29.463  1.00  0.00     0.074 A 
ATOM     39  C   UNL A   1      39.514  28.881  28.867  1.00  0.00     0.049 A 
ATOM     40  N   UNL A   1      42.181  28.990  30.251  1.00  0.00    -0.248 NA
ATOM     41  C   UNL A   1      42.710  26.924  29.298  1.00  0.00     0.031 C 
ATOM     42  C   UNL A   1      38.163  28.850  28.299  1.00  0.00     0.029 A 
ATOM     43  N   UNL A   1      39.572  30.092  29.510  1.00  0.00    -0.354 N 
ATOM     44  C   UNL A   1      43.420  28.569  30.716  1.00  0.00     0.074 A 
ATOM     45  C   UNL A   1      43.665  27.259  30.153  1.00  0.00     0.031 C 
ATOM     46  C   UNL A   1      37.534  30.000  28.594  1.00  0.00     0.029 A 
ATOM     47  C   UNL A   1      38.418  30.831  29.402  1.00  0.00     0.049 A 
ATOM     48  H   UNL A   1      40.366  30.403  30.002  1.00  0.00     0.167 HD
ATOM     49  C   UNL A   1      44.289  29.221  31.523  1.00  0.00     0.031 A 
ATOM     50  C   UNL A   1      38.105  32.039  29.904  1.00  0.00     0.031 A 
ATOM     51  C   UNL A   1      44.080  30.548  32.030  1.00  0.00     0.049 A 
ATOM     52  C   UNL A   1      39.117  32.776  30.734  1.00  0.00     0.074 A 
ATOM     53  C   UNL A   1      44.945  31.335  32.767  1.00  0.00     0.029 A 
ATOM     54  N   UNL A   1      42.925  31.289  31.836  1.00  0.00    -0.354 N 
ATOM     55  N   UNL A   1      40.315  32.396  31.101  1.00  0.00    -0.248 NA
ATOM     56  C   UNL A   1      38.734  34.114  31.211  1.00  0.00     0.031 C 
ATOM     57  C   UNL A   1      44.304  32.548  33.043  1.00  0.00     0.029 A 
ATOM     58  C   UNL A   1      43.052  32.524  32.450  1.00  0.00     0.049 A 
ATOM     59  H   UNL A   1      42.133  30.984  31.338  1.00  0.00     0.167 HD
ATOM     60  C   UNL A   1      40.838  33.452  31.835  1.00  0.00     0.074 A 
ATOM     61  C   UNL A   1      39.833  34.494  31.849  1.00  0.00     0.031 C 
ATOM     62  C   UNL A   1      42.043  33.548  32.444  1.00  0.00     0.031 A 
BRANCH  49  63
ATOM     63  C   UNL A   1      45.550  28.501  31.900  1.00  0.00    -0.014 A 
ATOM     64  C   UNL A   1      46.704  28.593  31.105  1.00  0.00     0.009 A 
ATOM     65  C   UNL A   1      45.590  27.734  33.074  1.00  0.00     0.009 A 
ATOM     66  C   UNL A   1      47.861  27.897  31.459  1.00  0.00     0.001 A 
ATOM     67  C   UNL A   1      46.757  27.060  33.438  1.00  0.00     0.001 A 
ATOM     68  C   UNL A   1      47.888  27.135  32.626  1.00  0.00     0.000 A 
ENDBRANCH  49  63
BRANCH  50  69
ATOM     69  C   UNL A   1      36.780  32.646  29.618  1.00  0.00    -0.014 A 
ATOM     70  C   UNL A   1      36.565  33.339  28.416  1.00  0.00     0.009 A 
ATOM     71  C   UNL A   1      35.730  32.545  30.541  1.00  0.00     0.009 A 
ATOM     72  C   UNL A   1      35.333  33.941  28.157  1.00  0.00     0.001 A 
ATOM     73  C   UNL A   1      34.490  33.129  30.269  1.00  0.00     0.001 A 
ATOM     74  C   UNL A   1      34.296  33.834  29.081  1.00  0.00     0.000 A 
ENDBRANCH  50  69
BRANCH  62  75
ATOM     75  C   UNL A   1      42.352  34.835  33.151  1.00  0.00    -0.014 A 
ATOM     76  C   UNL A   1      43.087  35.848  32.517  1.00  0.00     0.009 A 
ATOM     77  C   UNL A   1      41.859  35.053  34.446  1.00  0.00     0.009 A 
ATOM     78  C   UNL A   1      43.341  37.049  33.179  1.00  0.00     0.001 A 
ATOM     79  C   UNL A   1      42.097  36.263  35.097  1.00  0.00     0.001 A 
ATOM     80  C   UNL A   1      42.843  37.258  34.465  1.00  0.00     0.000 A 
ENDBRANCH  62  75
ENDBRANCH  36  37
ENDBRANCH  28  31
ENDBRANCH  26  27
ENDBRANCH   1  26
TORSDOF 12
ENDMDL
