MODEL 1
REMARK VINA RESULT:     -12.6      0.000      0.000
REMARK SMILES CCOc1ccc(C(=O)NC(=S)Nc2cccc(C(=O)NCCCCNC(=O)c3ccc(-c4c5nc(c(-c6ccccc6)c6ccc([nH]6)c(-c6ccccc6)c6nc(c(-c7ccccc7)c7ccc4[nH]7)C=C6)C=C5)cc3)c2C)cc1Br
REMARK SMILES IDX 19 1 20 2 21 3 18 5 14 6 15 7 77 8 16 9 78 10 17 11 13 12
REMARK SMILES IDX 11 14 12 15 10 16 8 17 9 18 7 20 4 21 5 22 80 23 6 24 79 25
REMARK SMILES IDX 81 26 3 27 2 28 1 29 22 30 23 31 24 32 25 33 26 34 27 35
REMARK SMILES IDX 28 37 29 38 30 39 76 40 31 41 75 42 32 43 33 44 34 45 69 46
REMARK SMILES IDX 35 47 74 48 68 49 70 50 36 51 73 52 67 53 66 54 37 56 59 57
REMARK SMILES IDX 44 58 58 59 45 60 48 61 57 62 71 63 46 64 47 65 56 67 72 68
REMARK SMILES IDX 49 69 38 70 39 71 43 72 40 73 42 74 41 75 60 76 61 77 65 78
REMARK SMILES IDX 62 79 64 80 63 81 50 82 51 83 55 84 52 85 54 86 53 87
REMARK H PARENT 21 4 13 13 10 19 26 36 70 55 48 66
REMARK Flexibility Score: inf
ROOT
ATOM      1  C   UNL A   1      35.098  33.516  28.878  1.00  0.00     0.251 C 
ATOM      2  O   UNL A   1      36.210  33.101  29.203  1.00  0.00    -0.269 OA
ATOM      3  N   UNL A   1      34.678  34.732  29.459  1.00  0.00    -0.352 N 
ATOM      4  H   UNL A   1      35.270  34.962  30.211  1.00  0.00     0.163 HD
ENDROOT
BRANCH   1   5
ATOM      5  C   UNL A   1      34.271  32.637  27.982  1.00  0.00     0.044 A 
ATOM      6  C   UNL A   1      33.191  29.915  26.706  1.00  0.00     0.044 A 
ATOM      7  C   UNL A   1      31.573  30.535  26.343  1.00  0.00     0.026 A 
ATOM      8  C   UNL A   1      34.447  30.881  27.629  1.00  0.00    -0.015 A 
ATOM      9  C   UNL A   1      31.285  32.230  26.690  1.00  0.00     0.003 A 
ATOM     10  C   UNL A   1      35.705  30.168  28.024  1.00  0.00     0.047 C 
ATOM     11  C   UNL A   1      32.767  33.363  27.439  1.00  0.00     0.014 A 
BRANCH   6  12
ATOM     12  N   UNL A   1      33.662  29.359  25.471  1.00  0.00    -0.332 N 
ATOM     13  H   UNL A   1      34.257  29.932  24.936  1.00  0.00     0.169 HD
BRANCH  12  14
ATOM     14  C   UNL A   1      33.376  28.109  24.939  1.00  0.00     0.177 C 
ATOM     15  S   UNL A   1      33.861  27.841  23.354  1.00  0.00    -0.040 S 
BRANCH  14  16
ATOM     16  N   UNL A   1      32.641  27.029  25.590  1.00  0.00    -0.299 N 
ATOM     17  C   UNL A   1      32.440  25.619  26.141  1.00  0.00     0.257 C 
ATOM     18  O   UNL A   1      31.367  25.331  26.669  1.00  0.00    -0.269 OA
ATOM     19  H   UNL A   1      31.775  27.455  25.787  1.00  0.00     0.172 HD
BRANCH  17  20
ATOM     20  C   UNL A   1      33.500  24.555  25.999  1.00  0.00     0.041 A 
ATOM     21  C   UNL A   1      33.989  20.959  24.955  1.00  0.00     0.133 A 
ATOM     22  C   UNL A   1      34.268  21.540  26.634  1.00  0.00     0.048 A 
ATOM     23  C   UNL A   1      33.421  22.159  23.769  1.00  0.00     0.060 A 
ATOM     24  C   UNL A   1      33.994  23.276  27.146  1.00  0.00     0.018 A 
ATOM     25  C   UNL A   1      33.320  24.078  24.361  1.00  0.00     0.033 A 
ATOM     26  Br  UNL A   1      32.089  20.955  22.523  1.00  0.00    -0.047 Br
BRANCH  21  27
ATOM     27  O   UNL A   1      34.402  19.751  24.421  1.00  0.00    -0.493 OA
BRANCH  27  28
ATOM     28  C   UNL A   1      33.523  18.602  24.700  1.00  0.00     0.226 C 
ATOM     29  C   UNL A   1      33.843  17.155  24.321  1.00  0.00     0.049 C 
ENDBRANCH  27  28
ENDBRANCH  21  27
ENDBRANCH  17  20
ENDBRANCH  14  16
ENDBRANCH  12  14
ENDBRANCH   6  12
ENDBRANCH   1   5
BRANCH   3  30
ATOM     30  C   UNL A   1      33.624  35.789  29.304  1.00  0.00     0.116 C 
BRANCH  30  31
ATOM     31  C   UNL A   1      32.585  36.068  30.426  1.00  0.00     0.023 C 
BRANCH  31  32
ATOM     32  C   UNL A   1      32.964  37.073  31.500  1.00  0.00     0.023 C 
BRANCH  32  33
ATOM     33  C   UNL A   1      33.129  36.419  32.850  1.00  0.00     0.116 C 
BRANCH  33  34
ATOM     34  N   UNL A   1      32.971  34.977  32.909  1.00  0.00    -0.352 N 
ATOM     35  C   UNL A   1      33.972  34.014  32.964  1.00  0.00     0.251 C 
ATOM     36  H   UNL A   1      32.045  34.642  32.911  1.00  0.00     0.163 HD
ATOM     37  O   UNL A   1      33.683  32.836  32.769  1.00  0.00    -0.269 OA
BRANCH  35  38
ATOM     38  C   UNL A   1      35.343  34.366  33.467  1.00  0.00     0.039 A 
ATOM     39  C   UNL A   1      36.198  34.939  32.515  1.00  0.00     0.014 A 
ATOM     40  C   UNL A   1      35.901  33.638  34.502  1.00  0.00     0.014 A 
ATOM     41  C   UNL A   1      37.471  34.409  32.355  1.00  0.00     0.010 A 
ATOM     42  C   UNL A   1      37.021  32.921  34.210  1.00  0.00     0.010 A 
ATOM     43  C   UNL A   1      37.769  33.275  33.094  1.00  0.00    -0.014 A 
BRANCH  43  44
ATOM     44  C   UNL A   1      38.951  32.460  32.977  1.00  0.00     0.031 A 
ATOM     45  C   UNL A   1      38.676  31.161  32.335  1.00  0.00     0.074 A 
ATOM     46  C   UNL A   1      40.123  33.108  33.199  1.00  0.00     0.049 A 
ATOM     47  N   UNL A   1      39.335  30.084  32.527  1.00  0.00    -0.248 NA
ATOM     48  C   UNL A   1      37.506  30.933  31.459  1.00  0.00     0.031 C 
ATOM     49  C   UNL A   1      41.499  32.791  32.840  1.00  0.00     0.029 A 
ATOM     50  N   UNL A   1      40.273  34.232  34.025  1.00  0.00    -0.354 N 
ATOM     51  C   UNL A   1      39.006  29.251  31.473  1.00  0.00     0.074 A 
ATOM     52  C   UNL A   1      37.734  29.704  30.992  1.00  0.00     0.031 C 
ATOM     53  C   UNL A   1      42.335  33.423  33.694  1.00  0.00     0.029 A 
ATOM     54  C   UNL A   1      41.513  34.107  34.683  1.00  0.00     0.049 A 
ATOM     55  H   UNL A   1      39.632  34.972  34.124  1.00  0.00     0.167 HD
ATOM     56  C   UNL A   1      39.987  28.462  30.959  1.00  0.00     0.031 A 
ATOM     57  C   UNL A   1      41.516  33.850  36.029  1.00  0.00     0.031 A 
ATOM     58  C   UNL A   1      41.220  28.703  31.707  1.00  0.00     0.049 A 
ATOM     59  C   UNL A   1      41.901  32.408  36.274  1.00  0.00     0.074 A 
ATOM     60  C   UNL A   1      42.289  29.544  31.452  1.00  0.00     0.029 A 
ATOM     61  N   UNL A   1      41.230  28.440  33.069  1.00  0.00    -0.354 N 
ATOM     62  N   UNL A   1      41.666  31.442  35.424  1.00  0.00    -0.248 NA
ATOM     63  C   UNL A   1      42.652  31.965  37.445  1.00  0.00     0.031 C 
ATOM     64  C   UNL A   1      42.888  29.860  32.704  1.00  0.00     0.029 A 
ATOM     65  C   UNL A   1      42.179  29.218  33.706  1.00  0.00     0.049 A 
ATOM     66  H   UNL A   1      40.645  27.789  33.520  1.00  0.00     0.167 HD
ATOM     67  C   UNL A   1      42.280  30.303  35.861  1.00  0.00     0.074 A 
ATOM     68  C   UNL A   1      42.862  30.673  37.141  1.00  0.00     0.031 C 
ATOM     69  C   UNL A   1      42.319  29.141  35.151  1.00  0.00     0.031 A 
BRANCH  56  70
ATOM     70  C   UNL A   1      39.970  27.740  29.638  1.00  0.00    -0.014 A 
ATOM     71  C   UNL A   1      39.416  26.444  29.608  1.00  0.00     0.009 A 
ATOM     72  C   UNL A   1      40.460  28.228  28.415  1.00  0.00     0.009 A 
ATOM     73  C   UNL A   1      39.371  25.670  28.445  1.00  0.00     0.001 A 
ATOM     74  C   UNL A   1      40.421  27.456  27.242  1.00  0.00     0.001 A 
ATOM     75  C   UNL A   1      39.876  26.177  27.257  1.00  0.00     0.000 A 
ENDBRANCH  56  70
BRANCH  57  76
ATOM     76  C   UNL A   1      40.398  34.582  36.714  1.00  0.00    -0.014 A 
ATOM     77  C   UNL A   1      39.412  33.787  37.346  1.00  0.00     0.009 A 
ATOM     78  C   UNL A   1      40.593  35.892  37.173  1.00  0.00     0.009 A 
ATOM     79  C   UNL A   1      38.834  34.197  38.551  1.00  0.00     0.001 A 
ATOM     80  C   UNL A   1      39.961  36.315  38.350  1.00  0.00     0.001 A 
ATOM     81  C   UNL A   1      39.147  35.445  39.076  1.00  0.00     0.000 A 
ENDBRANCH  57  76
BRANCH  69  82
ATOM     82  C   UNL A   1      42.594  27.801  35.775  1.00  0.00    -0.014 A 
ATOM     83  C   UNL A   1      41.661  27.116  36.561  1.00  0.00     0.009 A 
ATOM     84  C   UNL A   1      43.786  27.113  35.459  1.00  0.00     0.009 A 
ATOM     85  C   UNL A   1      41.957  25.871  37.114  1.00  0.00     0.001 A 
ATOM     86  C   UNL A   1      44.047  25.831  35.933  1.00  0.00     0.001 A 
ATOM     87  C   UNL A   1      43.147  25.227  36.797  1.00  0.00     0.000 A 
ENDBRANCH  69  82
ENDBRANCH  43  44
ENDBRANCH  35  38
ENDBRANCH  33  34
ENDBRANCH  32  33
ENDBRANCH  31  32
ENDBRANCH  30  31
ENDBRANCH   3  30
TORSDOF 17
ENDMDL
MODEL 2
REMARK VINA RESULT:     -11.6      4.875     11.002
REMARK SMILES CCOc1ccc(C(=O)NC(=S)Nc2cccc(C(=O)NCCCCNC(=O)c3ccc(-c4c5nc(c(-c6ccccc6)c6ccc([nH]6)c(-c6ccccc6)c6nc(c(-c7ccccc7)c7ccc4[nH]7)C=C6)C=C5)cc3)c2C)cc1Br
REMARK SMILES IDX 19 1 20 2 21 3 18 5 14 6 15 7 77 8 16 9 78 10 17 11 13 12
REMARK SMILES IDX 11 14 12 15 10 16 8 17 9 18 7 20 4 21 5 22 80 23 6 24 79 25
REMARK SMILES IDX 81 26 3 27 2 28 1 29 22 30 23 31 24 32 25 33 26 34 27 35
REMARK SMILES IDX 28 37 29 38 30 39 76 40 31 41 75 42 32 43 33 44 34 45 69 46
REMARK SMILES IDX 35 47 74 48 68 49 70 50 36 51 73 52 67 53 66 54 37 56 59 57
REMARK SMILES IDX 44 58 58 59 45 60 48 61 57 62 71 63 46 64 47 65 56 67 72 68
REMARK SMILES IDX 49 69 38 70 39 71 43 72 40 73 42 74 41 75 60 76 61 77 65 78
REMARK SMILES IDX 62 79 64 80 63 81 50 82 51 83 55 84 52 85 54 86 53 87
REMARK H PARENT 21 4 13 13 10 19 26 36 70 55 48 66
REMARK Flexibility Score: inf
ROOT
ATOM      1  C   UNL A   1      36.147  21.932  25.610  1.00  0.00     0.251 C 
ATOM      2  O   UNL A   1      36.285  20.737  25.352  1.00  0.00    -0.269 OA
ATOM      3  N   UNL A   1      37.310  22.641  25.981  1.00  0.00    -0.352 N 
ATOM      4  H   UNL A   1      38.035  22.007  26.180  1.00  0.00     0.163 HD
ENDROOT
BRANCH   1   5
ATOM      5  C   UNL A   1      34.747  22.480  25.601  1.00  0.00     0.044 A 
ATOM      6  C   UNL A   1      31.904  23.280  24.387  1.00  0.00     0.044 A 
ATOM      7  C   UNL A   1      31.013  23.068  25.902  1.00  0.00     0.026 A 
ATOM      8  C   UNL A   1      33.678  22.857  24.204  1.00  0.00    -0.015 A 
ATOM      9  C   UNL A   1      31.961  22.657  27.320  1.00  0.00     0.003 A 
ATOM     10  C   UNL A   1      34.257  22.914  22.823  1.00  0.00     0.047 C 
ATOM     11  C   UNL A   1      33.956  22.476  27.170  1.00  0.00     0.014 A 
BRANCH   6  12
ATOM     12  N   UNL A   1      31.560  24.597  23.935  1.00  0.00    -0.332 N 
ATOM     13  H   UNL A   1      30.876  24.649  23.229  1.00  0.00     0.169 HD
BRANCH  12  14
ATOM     14  C   UNL A   1      32.078  25.808  24.375  1.00  0.00     0.177 C 
ATOM     15  S   UNL A   1      33.231  26.531  23.391  1.00  0.00    -0.040 S 
BRANCH  14  16
ATOM     16  N   UNL A   1      31.776  26.483  25.633  1.00  0.00    -0.299 N 
ATOM     17  C   UNL A   1      31.756  27.656  26.612  1.00  0.00     0.257 C 
ATOM     18  O   UNL A   1      31.233  27.505  27.714  1.00  0.00    -0.269 OA
ATOM     19  H   UNL A   1      31.324  25.775  26.147  1.00  0.00     0.172 HD
BRANCH  17  20
ATOM     20  C   UNL A   1      32.416  28.972  26.284  1.00  0.00     0.041 A 
ATOM     21  C   UNL A   1      34.786  31.550  27.698  1.00  0.00     0.133 A 
ATOM     22  C   UNL A   1      33.059  31.899  27.335  1.00  0.00     0.048 A 
ATOM     23  C   UNL A   1      35.355  29.890  27.398  1.00  0.00     0.060 A 
ATOM     24  C   UNL A   1      31.903  30.637  26.684  1.00  0.00     0.018 A 
ATOM     25  C   UNL A   1      34.078  28.613  26.513  1.00  0.00     0.033 A 
ATOM     26  Br  UNL A   1      36.788  29.612  29.024  1.00  0.00    -0.047 Br
BRANCH  21  27
ATOM     27  O   UNL A   1      35.780  32.480  27.946  1.00  0.00    -0.493 OA
BRANCH  27  28
ATOM     28  C   UNL A   1      35.393  33.605  28.814  1.00  0.00     0.226 C 
ATOM     29  C   UNL A   1      34.618  34.836  28.340  1.00  0.00     0.049 C 
ENDBRANCH  27  28
ENDBRANCH  21  27
ENDBRANCH  17  20
ENDBRANCH  14  16
ENDBRANCH  12  14
ENDBRANCH   6  12
ENDBRANCH   1   5
BRANCH   3  30
ATOM     30  C   UNL A   1      37.800  24.046  26.173  1.00  0.00     0.116 C 
BRANCH  30  31
ATOM     31  C   UNL A   1      39.019  24.363  27.083  1.00  0.00     0.023 C 
BRANCH  31  32
ATOM     32  C   UNL A   1      40.071  23.280  27.251  1.00  0.00     0.023 C 
BRANCH  32  33
ATOM     33  C   UNL A   1      41.368  23.647  26.573  1.00  0.00     0.116 C 
BRANCH  33  34
ATOM     34  N   UNL A   1      41.969  22.647  25.709  1.00  0.00    -0.352 N 
ATOM     35  C   UNL A   1      43.305  22.536  25.339  1.00  0.00     0.251 C 
ATOM     36  H   UNL A   1      41.359  21.966  25.343  1.00  0.00     0.163 HD
ATOM     37  O   UNL A   1      43.611  21.784  24.416  1.00  0.00    -0.269 OA
BRANCH  35  38
ATOM     38  C   UNL A   1      44.385  23.150  26.183  1.00  0.00     0.039 A 
ATOM     39  C   UNL A   1      44.252  22.946  27.563  1.00  0.00     0.014 A 
ATOM     40  C   UNL A   1      45.032  24.291  25.743  1.00  0.00     0.014 A 
ATOM     41  C   UNL A   1      44.334  24.041  28.411  1.00  0.00     0.010 A 
ATOM     42  C   UNL A   1      44.860  25.416  26.491  1.00  0.00     0.010 A 
ATOM     43  C   UNL A   1      44.448  25.284  27.811  1.00  0.00    -0.014 A 
BRANCH  43  44
ATOM     44  C   UNL A   1      44.387  26.565  28.469  1.00  0.00     0.031 A 
ATOM     45  C   UNL A   1      43.002  27.044  28.637  1.00  0.00     0.074 A 
ATOM     46  C   UNL A   1      45.541  26.965  29.061  1.00  0.00     0.049 A 
ATOM     47  N   UNL A   1      42.643  28.267  28.707  1.00  0.00    -0.248 NA
ATOM     48  C   UNL A   1      41.835  26.135  28.633  1.00  0.00     0.031 C 
ATOM     49  C   UNL A   1      45.817  27.951  30.098  1.00  0.00     0.029 A 
ATOM     50  N   UNL A   1      46.827  26.586  28.648  1.00  0.00    -0.354 N 
ATOM     51  C   UNL A   1      41.368  28.254  29.242  1.00  0.00     0.074 A 
ATOM     52  C   UNL A   1      40.834  26.955  28.961  1.00  0.00     0.031 C 
ATOM     53  C   UNL A   1      47.100  28.361  29.987  1.00  0.00     0.029 A 
ATOM     54  C   UNL A   1      47.668  27.704  28.817  1.00  0.00     0.049 A 
ATOM     55  H   UNL A   1      47.092  25.703  28.306  1.00  0.00     0.167 HD
ATOM     56  C   UNL A   1      41.034  29.248  30.107  1.00  0.00     0.031 A 
ATOM     57  C   UNL A   1      48.138  28.345  27.700  1.00  0.00     0.031 A 
ATOM     58  C   UNL A   1      42.179  30.145  30.253  1.00  0.00     0.049 A 
ATOM     59  C   UNL A   1      47.406  29.655  27.516  1.00  0.00     0.074 A 
ATOM     60  C   UNL A   1      43.190  30.184  31.198  1.00  0.00     0.029 A 
ATOM     61  N   UNL A   1      42.656  30.800  29.126  1.00  0.00    -0.354 N 
ATOM     62  N   UNL A   1      46.180  29.863  27.922  1.00  0.00    -0.248 NA
ATOM     63  C   UNL A   1      48.025  30.847  26.944  1.00  0.00     0.031 C 
ATOM     64  C   UNL A   1      44.322  30.791  30.583  1.00  0.00     0.029 A 
ATOM     65  C   UNL A   1      43.995  31.109  29.276  1.00  0.00     0.049 A 
ATOM     66  H   UNL A   1      42.116  31.016  28.332  1.00  0.00     0.167 HD
ATOM     67  C   UNL A   1      45.874  31.184  27.760  1.00  0.00     0.074 A 
ATOM     68  C   UNL A   1      47.049  31.754  27.121  1.00  0.00     0.031 C 
ATOM     69  C   UNL A   1      44.710  31.752  28.184  1.00  0.00     0.031 A 
BRANCH  56  70
ATOM     70  C   UNL A   1      39.864  29.271  31.054  1.00  0.00    -0.014 A 
ATOM     71  C   UNL A   1      39.424  30.527  31.521  1.00  0.00     0.009 A 
ATOM     72  C   UNL A   1      39.156  28.155  31.530  1.00  0.00     0.009 A 
ATOM     73  C   UNL A   1      38.365  30.667  32.422  1.00  0.00     0.001 A 
ATOM     74  C   UNL A   1      38.091  28.288  32.438  1.00  0.00     0.001 A 
ATOM     75  C   UNL A   1      37.696  29.544  32.883  1.00  0.00     0.000 A 
ENDBRANCH  56  70
BRANCH  57  76
ATOM     76  C   UNL A   1      48.447  27.358  26.611  1.00  0.00    -0.014 A 
ATOM     77  C   UNL A   1      47.672  27.453  25.429  1.00  0.00     0.009 A 
ATOM     78  C   UNL A   1      49.719  26.778  26.527  1.00  0.00     0.009 A 
ATOM     79  C   UNL A   1      48.252  27.220  24.179  1.00  0.00     0.001 A 
ATOM     80  C   UNL A   1      50.269  26.490  25.272  1.00  0.00     0.001 A 
ATOM     81  C   UNL A   1      49.569  26.782  24.101  1.00  0.00     0.000 A 
ENDBRANCH  57  76
BRANCH  69  82
ATOM     82  C   UNL A   1      44.181  33.053  27.647  1.00  0.00    -0.014 A 
ATOM     83  C   UNL A   1      43.986  33.294  26.283  1.00  0.00     0.009 A 
ATOM     84  C   UNL A   1      43.724  34.044  28.542  1.00  0.00     0.009 A 
ATOM     85  C   UNL A   1      43.485  34.515  25.830  1.00  0.00     0.001 A 
ATOM     86  C   UNL A   1      43.139  35.227  28.097  1.00  0.00     0.001 A 
ATOM     87  C   UNL A   1      43.058  35.479  26.736  1.00  0.00     0.000 A 
ENDBRANCH  69  82
ENDBRANCH  43  44
ENDBRANCH  35  38
ENDBRANCH  33  34
ENDBRANCH  32  33
ENDBRANCH  31  32
ENDBRANCH  30  31
ENDBRANCH   3  30
TORSDOF 17
ENDMDL
MODEL 3
REMARK VINA RESULT:     -11.3      3.708     10.452
REMARK SMILES CCOc1ccc(C(=O)NC(=S)Nc2cccc(C(=O)NCCCCNC(=O)c3ccc(-c4c5nc(c(-c6ccccc6)c6ccc([nH]6)c(-c6ccccc6)c6nc(c(-c7ccccc7)c7ccc4[nH]7)C=C6)C=C5)cc3)c2C)cc1Br
REMARK SMILES IDX 19 1 20 2 21 3 18 5 14 6 15 7 77 8 16 9 78 10 17 11 13 12
REMARK SMILES IDX 11 14 12 15 10 16 8 17 9 18 7 20 4 21 5 22 80 23 6 24 79 25
REMARK SMILES IDX 81 26 3 27 2 28 1 29 22 30 23 31 24 32 25 33 26 34 27 35
REMARK SMILES IDX 28 37 29 38 30 39 76 40 31 41 75 42 32 43 33 44 34 45 69 46
REMARK SMILES IDX 35 47 74 48 68 49 70 50 36 51 73 52 67 53 66 54 37 56 59 57
REMARK SMILES IDX 44 58 58 59 45 60 48 61 57 62 71 63 46 64 47 65 56 67 72 68
REMARK SMILES IDX 49 69 38 70 39 71 43 72 40 73 42 74 41 75 60 76 61 77 65 78
REMARK SMILES IDX 62 79 64 80 63 81 50 82 51 83 55 84 52 85 54 86 53 87
REMARK H PARENT 21 4 13 13 10 19 26 36 70 55 48 66
REMARK Flexibility Score: inf
ROOT
ATOM      1  C   UNL A   1      36.570  22.567  23.713  1.00  0.00     0.251 C 
ATOM      2  O   UNL A   1      36.748  22.912  22.545  1.00  0.00    -0.269 OA
ATOM      3  N   UNL A   1      37.706  22.123  24.424  1.00  0.00    -0.352 N 
ATOM      4  H   UNL A   1      38.446  21.960  23.798  1.00  0.00     0.163 HD
ENDROOT
BRANCH   1   5
ATOM      5  C   UNL A   1      35.155  22.559  24.219  1.00  0.00     0.044 A 
ATOM      6  C   UNL A   1      32.138  23.554  24.550  1.00  0.00     0.044 A 
ATOM      7  C   UNL A   1      31.468  21.945  24.858  1.00  0.00     0.026 A 
ATOM      8  C   UNL A   1      33.892  23.835  24.097  1.00  0.00    -0.015 A 
ATOM      9  C   UNL A   1      32.615  20.621  24.955  1.00  0.00     0.003 A 
ATOM     10  C   UNL A   1      34.279  25.223  23.687  1.00  0.00     0.047 C 
ATOM     11  C   UNL A   1      34.579  20.984  24.742  1.00  0.00     0.014 A 
BRANCH   6  12
ATOM     12  N   UNL A   1      31.670  24.366  25.635  1.00  0.00    -0.332 N 
ATOM     13  H   UNL A   1      31.713  23.960  26.531  1.00  0.00     0.169 HD
BRANCH  12  14
ATOM     14  C   UNL A   1      31.161  25.656  25.573  1.00  0.00     0.177 C 
ATOM     15  S   UNL A   1      30.686  26.202  24.057  1.00  0.00    -0.040 S 
BRANCH  14  16
ATOM     16  N   UNL A   1      31.058  26.609  26.673  1.00  0.00    -0.299 N 
ATOM     17  C   UNL A   1      31.318  27.928  27.400  1.00  0.00     0.257 C 
ATOM     18  O   UNL A   1      30.828  28.103  28.513  1.00  0.00    -0.269 OA
ATOM     19  H   UNL A   1      30.499  26.122  27.321  1.00  0.00     0.172 HD
BRANCH  17  20
ATOM     20  C   UNL A   1      32.210  28.993  26.811  1.00  0.00     0.041 A 
ATOM     21  C   UNL A   1      34.987  31.388  27.718  1.00  0.00     0.133 A 
ATOM     22  C   UNL A   1      33.357  31.931  27.184  1.00  0.00     0.048 A 
ATOM     23  C   UNL A   1      35.250  29.631  27.846  1.00  0.00     0.060 A 
ATOM     24  C   UNL A   1      32.001  30.768  26.782  1.00  0.00     0.018 A 
ATOM     25  C   UNL A   1      33.776  28.419  27.213  1.00  0.00     0.033 A 
ATOM     26  Br  UNL A   1      36.586  29.509  29.572  1.00  0.00    -0.047 Br
BRANCH  21  27
ATOM     27  O   UNL A   1      36.129  32.163  27.798  1.00  0.00    -0.493 OA
BRANCH  27  28
ATOM     28  C   UNL A   1      36.129  33.182  28.862  1.00  0.00     0.226 C 
ATOM     29  C   UNL A   1      37.377  33.915  29.359  1.00  0.00     0.049 C 
ENDBRANCH  27  28
ENDBRANCH  21  27
ENDBRANCH  17  20
ENDBRANCH  14  16
ENDBRANCH  12  14
ENDBRANCH   6  12
ENDBRANCH   1   5
BRANCH   3  30
ATOM     30  C   UNL A   1      38.151  21.819  25.825  1.00  0.00     0.116 C 
BRANCH  30  31
ATOM     31  C   UNL A   1      39.657  21.739  26.197  1.00  0.00     0.023 C 
BRANCH  31  32
ATOM     32  C   UNL A   1      40.298  20.362  26.246  1.00  0.00     0.023 C 
BRANCH  32  33
ATOM     33  C   UNL A   1      41.801  20.445  26.348  1.00  0.00     0.116 C 
BRANCH  33  34
ATOM     34  N   UNL A   1      42.457  21.503  25.601  1.00  0.00    -0.352 N 
ATOM     35  C   UNL A   1      42.986  22.690  26.097  1.00  0.00     0.251 C 
ATOM     36  H   UNL A   1      42.537  21.364  24.630  1.00  0.00     0.163 HD
ATOM     37  O   UNL A   1      43.291  23.585  25.312  1.00  0.00    -0.269 OA
BRANCH  35  38
ATOM     38  C   UNL A   1      43.385  22.804  27.540  1.00  0.00     0.039 A 
ATOM     39  C   UNL A   1      42.331  23.040  28.434  1.00  0.00     0.014 A 
ATOM     40  C   UNL A   1      44.645  23.271  27.868  1.00  0.00     0.014 A 
ATOM     41  C   UNL A   1      42.447  24.082  29.343  1.00  0.00     0.010 A 
ATOM     42  C   UNL A   1      44.702  24.450  28.547  1.00  0.00     0.010 A 
ATOM     43  C   UNL A   1      43.573  24.881  29.233  1.00  0.00    -0.014 A 
BRANCH  43  44
ATOM     44  C   UNL A   1      43.832  26.105  29.948  1.00  0.00     0.031 A 
ATOM     45  C   UNL A   1      44.271  25.862  31.335  1.00  0.00     0.074 A 
ATOM     46  C   UNL A   1      43.911  27.218  29.176  1.00  0.00     0.049 A 
ATOM     47  N   UNL A   1      44.101  26.660  32.318  1.00  0.00    -0.248 NA
ATOM     48  C   UNL A   1      44.874  24.584  31.772  1.00  0.00     0.031 C 
ATOM     49  C   UNL A   1      44.498  28.532  29.411  1.00  0.00     0.029 A 
ATOM     50  N   UNL A   1      43.252  27.392  27.950  1.00  0.00    -0.354 N 
ATOM     51  C   UNL A   1      44.978  26.237  33.299  1.00  0.00     0.074 A 
ATOM     52  C   UNL A   1      45.246  24.856  33.024  1.00  0.00     0.031 C 
ATOM     53  C   UNL A   1      43.893  29.435  28.607  1.00  0.00     0.029 A 
ATOM     54  C   UNL A   1      42.839  28.738  27.883  1.00  0.00     0.049 A 
ATOM     55  H   UNL A   1      43.107  26.702  27.264  1.00  0.00     0.167 HD
ATOM     56  C   UNL A   1      45.589  27.188  34.055  1.00  0.00     0.031 A 
ATOM     57  C   UNL A   1      41.500  29.017  27.972  1.00  0.00     0.031 A 
ATOM     58  C   UNL A   1      45.125  28.503  33.616  1.00  0.00     0.049 A 
ATOM     59  C   UNL A   1      41.188  29.597  29.333  1.00  0.00     0.074 A 
ATOM     60  C   UNL A   1      45.670  29.408  32.721  1.00  0.00     0.029 A 
ATOM     61  N   UNL A   1      43.771  28.793  33.707  1.00  0.00    -0.354 N 
ATOM     62  N   UNL A   1      41.871  29.318  30.412  1.00  0.00    -0.248 NA
ATOM     63  C   UNL A   1      40.146  30.595  29.560  1.00  0.00     0.031 C 
ATOM     64  C   UNL A   1      44.598  30.188  32.201  1.00  0.00     0.029 A 
ATOM     65  C   UNL A   1      43.416  29.750  32.776  1.00  0.00     0.049 A 
ATOM     66  H   UNL A   1      43.151  28.376  34.348  1.00  0.00     0.167 HD
ATOM     67  C   UNL A   1      41.446  30.124  31.430  1.00  0.00     0.074 A 
ATOM     68  C   UNL A   1      40.349  30.887  30.856  1.00  0.00     0.031 C 
ATOM     69  C   UNL A   1      42.026  30.161  32.663  1.00  0.00     0.031 A 
BRANCH  56  70
ATOM     70  C   UNL A   1      46.800  27.009  34.932  1.00  0.00    -0.014 A 
ATOM     71  C   UNL A   1      46.590  26.571  36.256  1.00  0.00     0.009 A 
ATOM     72  C   UNL A   1      48.136  27.240  34.566  1.00  0.00     0.009 A 
ATOM     73  C   UNL A   1      47.635  26.395  37.166  1.00  0.00     0.001 A 
ATOM     74  C   UNL A   1      49.192  27.068  35.477  1.00  0.00     0.001 A 
ATOM     75  C   UNL A   1      48.941  26.646  36.776  1.00  0.00     0.000 A 
ENDBRANCH  56  70
BRANCH  57  76
ATOM     76  C   UNL A   1      40.690  27.970  27.263  1.00  0.00    -0.014 A 
ATOM     77  C   UNL A   1      41.213  27.483  26.041  1.00  0.00     0.009 A 
ATOM     78  C   UNL A   1      39.813  27.150  27.986  1.00  0.00     0.009 A 
ATOM     79  C   UNL A   1      41.071  26.136  25.694  1.00  0.00     0.001 A 
ATOM     80  C   UNL A   1      39.629  25.817  27.596  1.00  0.00     0.001 A 
ATOM     81  C   UNL A   1      40.315  25.292  26.500  1.00  0.00     0.000 A 
ENDBRANCH  57  76
BRANCH  69  82
ATOM     82  C   UNL A   1      41.333  30.692  33.886  1.00  0.00    -0.014 A 
ATOM     83  C   UNL A   1      40.160  30.133  34.405  1.00  0.00     0.009 A 
ATOM     84  C   UNL A   1      41.942  31.713  34.647  1.00  0.00     0.009 A 
ATOM     85  C   UNL A   1      39.555  30.654  35.548  1.00  0.00     0.001 A 
ATOM     86  C   UNL A   1      41.390  32.175  35.839  1.00  0.00     0.001 A 
ATOM     87  C   UNL A   1      40.172  31.672  36.267  1.00  0.00     0.000 A 
ENDBRANCH  69  82
ENDBRANCH  43  44
ENDBRANCH  35  38
ENDBRANCH  33  34
ENDBRANCH  32  33
ENDBRANCH  31  32
ENDBRANCH  30  31
ENDBRANCH   3  30
TORSDOF 17
ENDMDL
