MODEL 1
REMARK VINA RESULT:     -12.6      0.000      0.000
REMARK SMILES O=C(NCCCCNC(=O)c1ccc(-c2c3nc(c(-c4ccccc4)c4ccc([nH]4)c(-c4ccccc4)c4nc(c(-c5ccccc5)c5ccc2[nH]5)C=C4)C=C3)cc1)C1=Cc2cc(Cl)cc(-c3ccccc3)c2O[C@@H]1C(F)(F)F
REMARK SMILES IDX 6 1 5 2 4 3 3 4 1 5 2 6 59 8 60 9 75 10 61 11 74 12 62 13
REMARK SMILES IDX 73 14 63 15 66 16 64 17 65 18 76 19 77 20 78 21 79 22 67 23
REMARK SMILES IDX 68 24 72 25 69 26 71 27 70 28 7 29 8 30 9 31 10 33 11 34
REMARK SMILES IDX 12 35 58 36 13 37 57 38 14 39 15 40 16 41 51 42 17 43 56 44
REMARK SMILES IDX 50 45 52 46 18 47 55 48 49 49 48 50 19 52 41 53 26 54 40 55
REMARK SMILES IDX 27 56 30 57 39 58 53 59 28 60 29 61 38 63 54 64 31 65 20 66
REMARK SMILES IDX 21 67 25 68 22 69 24 70 23 71 42 72 43 73 47 74 44 75 46 76
REMARK SMILES IDX 45 77 32 78 33 79 37 80 34 81 36 82 35 83
REMARK H PARENT 3 7 8 32 52 51 30 62
REMARK Flexibility Score: inf
ROOT
ATOM      1  C   UNL A   1      33.129  28.245  27.267  1.00  0.00     0.023 C 
ENDROOT
BRANCH   1   2
ATOM      2  C   UNL A   1      31.626  28.010  27.052  1.00  0.00     0.023 C 
BRANCH   2   3
ATOM      3  C   UNL A   1      31.293  26.798  26.172  1.00  0.00     0.116 C 
BRANCH   3   4
ATOM      4  N   UNL A   1      31.201  25.539  26.920  1.00  0.00    -0.352 N 
ATOM      5  O   UNL A   1      31.859  23.521  27.680  1.00  0.00    -0.270 OA
ATOM      6  C   UNL A   1      31.824  24.325  26.757  1.00  0.00     0.251 C 
ATOM      7  H   UNL A   1      30.577  25.570  27.681  1.00  0.00     0.163 HD
BRANCH   6   8
ATOM      8  C   UNL A   1      32.565  24.072  25.507  1.00  0.00     0.067 C 
ATOM      9  C   UNL A   1      33.813  24.509  25.286  1.00  0.00     0.025 C 
ATOM     10  C   UNL A   1      31.986  23.074  24.554  1.00  0.00     0.314 C 
ATOM     11  C   UNL A   1      34.712  23.366  25.006  1.00  0.00     0.019 A 
ATOM     12  O   UNL A   1      32.815  21.893  24.505  1.00  0.00    -0.475 OA
ATOM     13  C   UNL A   1      36.064  23.474  25.357  1.00  0.00     0.032 A 
ATOM     14  C   UNL A   1      34.161  22.084  24.751  1.00  0.00     0.135 A 
ATOM     15  C   UNL A   1      36.844  22.324  25.484  1.00  0.00     0.042 A 
ATOM     16  C   UNL A   1      34.936  20.920  24.931  1.00  0.00     0.026 A 
ATOM     17  Cl  UNL A   1      38.469  22.456  26.032  1.00  0.00    -0.084 Cl
ATOM     18  C   UNL A   1      36.288  21.062  25.282  1.00  0.00     0.033 A 
BRANCH  10  19
ATOM     19  C   UNL A   1      31.776  23.698  23.154  1.00  0.00     0.429 C 
ATOM     20  F   UNL A   1      30.581  23.341  22.628  1.00  0.00    -0.167 F 
ATOM     21  F   UNL A   1      31.792  25.052  23.202  1.00  0.00    -0.167 F 
ATOM     22  F   UNL A   1      32.726  23.325  22.262  1.00  0.00    -0.167 F 
ENDBRANCH  10  19
BRANCH  16  23
ATOM     23  C   UNL A   1      34.334  19.580  24.966  1.00  0.00    -0.015 A 
ATOM     24  C   UNL A   1      35.002  18.500  24.359  1.00  0.00     0.009 A 
ATOM     25  C   UNL A   1      33.079  19.352  25.538  1.00  0.00     0.009 A 
ATOM     26  C   UNL A   1      34.418  17.235  24.291  1.00  0.00     0.001 A 
ATOM     27  C   UNL A   1      32.494  18.083  25.473  1.00  0.00     0.001 A 
ATOM     28  C   UNL A   1      33.157  17.031  24.841  1.00  0.00     0.000 A 
ENDBRANCH  16  23
ENDBRANCH   6   8
ENDBRANCH   3   4
ENDBRANCH   2   3
ENDBRANCH   1   2
BRANCH   1  29
ATOM     29  C   UNL A   1      33.715  29.539  26.703  1.00  0.00     0.116 C 
BRANCH  29  30
ATOM     30  N   UNL A   1      33.685  30.672  27.608  1.00  0.00    -0.352 N 
ATOM     31  C   UNL A   1      34.667  31.049  28.506  1.00  0.00     0.251 C 
ATOM     32  H   UNL A   1      32.878  31.235  27.580  1.00  0.00     0.163 HD
ATOM     33  O   UNL A   1      34.497  31.999  29.267  1.00  0.00    -0.269 OA
BRANCH  31  34
ATOM     34  C   UNL A   1      35.915  30.255  28.584  1.00  0.00     0.039 A 
ATOM     35  C   UNL A   1      36.799  30.270  27.502  1.00  0.00     0.014 A 
ATOM     36  C   UNL A   1      36.250  29.571  29.755  1.00  0.00     0.014 A 
ATOM     37  C   UNL A   1      38.066  29.692  27.636  1.00  0.00     0.010 A 
ATOM     38  C   UNL A   1      37.532  29.044  29.908  1.00  0.00     0.010 A 
ATOM     39  C   UNL A   1      38.463  29.127  28.860  1.00  0.00    -0.014 A 
BRANCH  39  40
ATOM     40  C   UNL A   1      39.870  28.698  29.087  1.00  0.00     0.031 A 
ATOM     41  C   UNL A   1      40.885  29.643  29.668  1.00  0.00     0.074 A 
ATOM     42  C   UNL A   1      40.257  27.469  28.687  1.00  0.00     0.049 A 
ATOM     43  N   UNL A   1      42.159  29.443  29.896  1.00  0.00    -0.248 NA
ATOM     44  C   UNL A   1      40.414  30.991  30.017  1.00  0.00     0.031 C 
ATOM     45  C   UNL A   1      39.390  26.471  28.056  1.00  0.00     0.029 A 
ATOM     46  N   UNL A   1      41.483  26.852  28.744  1.00  0.00    -0.354 N 
ATOM     47  C   UNL A   1      42.644  30.640  30.407  1.00  0.00     0.074 A 
ATOM     48  C   UNL A   1      41.538  31.574  30.414  1.00  0.00     0.031 C 
ATOM     49  C   UNL A   1      40.105  25.362  27.805  1.00  0.00     0.029 A 
ATOM     50  C   UNL A   1      41.485  25.579  28.226  1.00  0.00     0.049 A 
ATOM     51  H   UNL A   1      42.285  27.282  29.119  1.00  0.00     0.167 HD
ATOM     52  C   UNL A   1      43.892  30.931  30.848  1.00  0.00     0.031 A 
ATOM     53  C   UNL A   1      42.483  24.683  28.102  1.00  0.00     0.031 A 
ATOM     54  C   UNL A   1      44.995  30.005  30.850  1.00  0.00     0.049 A 
ATOM     55  C   UNL A   1      43.859  25.032  28.599  1.00  0.00     0.074 A 
ATOM     56  C   UNL A   1      46.278  30.196  31.335  1.00  0.00     0.029 A 
ATOM     57  N   UNL A   1      44.948  28.719  30.339  1.00  0.00    -0.354 N 
ATOM     58  N   UNL A   1      44.276  26.140  29.160  1.00  0.00    -0.248 NA
ATOM     59  C   UNL A   1      44.896  24.000  28.457  1.00  0.00     0.031 C 
ATOM     60  C   UNL A   1      47.020  29.039  31.078  1.00  0.00     0.029 A 
ATOM     61  C   UNL A   1      46.184  28.111  30.480  1.00  0.00     0.049 A 
ATOM     62  H   UNL A   1      44.154  28.298  29.937  1.00  0.00     0.167 HD
ATOM     63  C   UNL A   1      45.612  25.925  29.470  1.00  0.00     0.074 A 
ATOM     64  C   UNL A   1      45.933  24.580  29.044  1.00  0.00     0.031 C 
ATOM     65  C   UNL A   1      46.492  26.769  30.061  1.00  0.00     0.031 A 
BRANCH  52  66
ATOM     66  C   UNL A   1      44.136  32.318  31.370  1.00  0.00    -0.014 A 
ATOM     67  C   UNL A   1      43.967  32.619  32.731  1.00  0.00     0.009 A 
ATOM     68  C   UNL A   1      44.597  33.322  30.504  1.00  0.00     0.009 A 
ATOM     69  C   UNL A   1      44.223  33.906  33.208  1.00  0.00     0.001 A 
ATOM     70  C   UNL A   1      44.876  34.602  30.988  1.00  0.00     0.001 A 
ATOM     71  C   UNL A   1      44.682  34.895  32.338  1.00  0.00     0.000 A 
ENDBRANCH  52  66
BRANCH  53  72
ATOM     72  C   UNL A   1      42.219  23.350  27.501  1.00  0.00    -0.014 A 
ATOM     73  C   UNL A   1      41.652  22.323  28.271  1.00  0.00     0.009 A 
ATOM     74  C   UNL A   1      42.545  23.092  26.161  1.00  0.00     0.009 A 
ATOM     75  C   UNL A   1      41.447  21.056  27.720  1.00  0.00     0.001 A 
ATOM     76  C   UNL A   1      42.313  21.832  25.605  1.00  0.00     0.001 A 
ATOM     77  C   UNL A   1      41.774  20.813  26.387  1.00  0.00     0.000 A 
ENDBRANCH  53  72
BRANCH  65  78
ATOM     78  C   UNL A   1      47.876  26.248  30.326  1.00  0.00    -0.014 A 
ATOM     79  C   UNL A   1      48.871  26.280  29.337  1.00  0.00     0.009 A 
ATOM     80  C   UNL A   1      48.199  25.760  31.603  1.00  0.00     0.009 A 
ATOM     81  C   UNL A   1      50.155  25.807  29.614  1.00  0.00     0.001 A 
ATOM     82  C   UNL A   1      49.490  25.312  31.883  1.00  0.00     0.001 A 
ATOM     83  C   UNL A   1      50.465  25.329  30.887  1.00  0.00     0.000 A 
ENDBRANCH  65  78
ENDBRANCH  39  40
ENDBRANCH  31  34
ENDBRANCH  29  30
ENDBRANCH   1  29
TORSDOF 13
ENDMDL
MODEL 2
REMARK VINA RESULT:     -12.4      0.441      5.779
REMARK SMILES O=C(NCCCCNC(=O)c1ccc(-c2c3nc(c(-c4ccccc4)c4ccc([nH]4)c(-c4ccccc4)c4nc(c(-c5ccccc5)c5ccc2[nH]5)C=C4)C=C3)cc1)C1=Cc2cc(Cl)cc(-c3ccccc3)c2O[C@@H]1C(F)(F)F
REMARK SMILES IDX 6 1 5 2 4 3 3 4 1 5 2 6 59 8 60 9 75 10 61 11 74 12 62 13
REMARK SMILES IDX 73 14 63 15 66 16 64 17 65 18 76 19 77 20 78 21 79 22 67 23
REMARK SMILES IDX 68 24 72 25 69 26 71 27 70 28 7 29 8 30 9 31 10 33 11 34
REMARK SMILES IDX 12 35 58 36 13 37 57 38 14 39 15 40 16 41 51 42 17 43 56 44
REMARK SMILES IDX 50 45 52 46 18 47 55 48 49 49 48 50 19 52 41 53 26 54 40 55
REMARK SMILES IDX 27 56 30 57 39 58 53 59 28 60 29 61 38 63 54 64 31 65 20 66
REMARK SMILES IDX 21 67 25 68 22 69 24 70 23 71 42 72 43 73 47 74 44 75 46 76
REMARK SMILES IDX 45 77 32 78 33 79 37 80 34 81 36 82 35 83
REMARK H PARENT 3 7 8 32 52 51 30 62
REMARK Flexibility Score: inf
ROOT
ATOM      1  C   UNL A   1      32.415  28.735  26.405  1.00  0.00     0.023 C 
ENDROOT
BRANCH   1   2
ATOM      2  C   UNL A   1      31.433  27.693  26.965  1.00  0.00     0.023 C 
BRANCH   2   3
ATOM      3  C   UNL A   1      31.291  26.430  26.107  1.00  0.00     0.116 C 
BRANCH   3   4
ATOM      4  N   UNL A   1      31.266  25.189  26.889  1.00  0.00    -0.352 N 
ATOM      5  O   UNL A   1      32.015  23.214  27.679  1.00  0.00    -0.270 OA
ATOM      6  C   UNL A   1      31.922  23.991  26.736  1.00  0.00     0.251 C 
ATOM      7  H   UNL A   1      30.668  25.221  27.671  1.00  0.00     0.163 HD
BRANCH   6   8
ATOM      8  C   UNL A   1      32.628  23.728  25.468  1.00  0.00     0.067 C 
ATOM      9  C   UNL A   1      33.879  24.139  25.219  1.00  0.00     0.025 C 
ATOM     10  C   UNL A   1      32.004  22.747  24.526  1.00  0.00     0.314 C 
ATOM     11  C   UNL A   1      34.746  22.977  24.913  1.00  0.00     0.019 A 
ATOM     12  O   UNL A   1      32.806  21.548  24.451  1.00  0.00    -0.475 OA
ATOM     13  C   UNL A   1      36.108  23.054  25.232  1.00  0.00     0.032 A 
ATOM     14  C   UNL A   1      34.161  21.708  24.666  1.00  0.00     0.135 A 
ATOM     15  C   UNL A   1      36.865  21.887  25.335  1.00  0.00     0.042 A 
ATOM     16  C   UNL A   1      34.914  20.527  24.823  1.00  0.00     0.026 A 
ATOM     17  Cl  UNL A   1      38.506  21.980  25.845  1.00  0.00    -0.084 Cl
ATOM     18  C   UNL A   1      36.277  20.637  25.142  1.00  0.00     0.033 A 
BRANCH  10  19
ATOM     19  C   UNL A   1      31.774  23.381  23.133  1.00  0.00     0.429 C 
ATOM     20  F   UNL A   1      30.462  23.387  22.803  1.00  0.00    -0.167 F 
ATOM     21  F   UNL A   1      32.192  24.671  23.095  1.00  0.00    -0.167 F 
ATOM     22  F   UNL A   1      32.428  22.728  22.141  1.00  0.00    -0.167 F 
ENDBRANCH  10  19
BRANCH  16  23
ATOM     23  C   UNL A   1      34.283  19.201  24.867  1.00  0.00    -0.015 A 
ATOM     24  C   UNL A   1      34.943  18.096  24.296  1.00  0.00     0.009 A 
ATOM     25  C   UNL A   1      33.011  19.008  25.413  1.00  0.00     0.009 A 
ATOM     26  C   UNL A   1      34.335  16.843  24.236  1.00  0.00     0.001 A 
ATOM     27  C   UNL A   1      32.401  17.751  25.356  1.00  0.00     0.001 A 
ATOM     28  C   UNL A   1      33.058  16.675  24.758  1.00  0.00     0.000 A 
ENDBRANCH  16  23
ENDBRANCH   6   8
ENDBRANCH   3   4
ENDBRANCH   2   3
ENDBRANCH   1   2
BRANCH   1  29
ATOM     29  C   UNL A   1      33.683  28.996  27.217  1.00  0.00     0.116 C 
BRANCH  29  30
ATOM     30  N   UNL A   1      33.721  30.276  27.900  1.00  0.00    -0.352 N 
ATOM     31  C   UNL A   1      34.800  30.836  28.562  1.00  0.00     0.251 C 
ATOM     32  H   UNL A   1      32.890  30.803  27.892  1.00  0.00     0.163 HD
ATOM     33  O   UNL A   1      34.689  31.905  29.158  1.00  0.00    -0.269 OA
BRANCH  31  34
ATOM     34  C   UNL A   1      36.085  30.102  28.594  1.00  0.00     0.039 A 
ATOM     35  C   UNL A   1      36.934  30.167  27.487  1.00  0.00     0.014 A 
ATOM     36  C   UNL A   1      36.487  29.425  29.749  1.00  0.00     0.014 A 
ATOM     37  C   UNL A   1      38.231  29.650  27.578  1.00  0.00     0.010 A 
ATOM     38  C   UNL A   1      37.797  28.958  29.858  1.00  0.00     0.010 A 
ATOM     39  C   UNL A   1      38.691  29.094  28.784  1.00  0.00    -0.014 A 
BRANCH  39  40
ATOM     40  C   UNL A   1      40.123  28.730  28.965  1.00  0.00     0.031 A 
ATOM     41  C   UNL A   1      40.635  27.375  28.564  1.00  0.00     0.074 A 
ATOM     42  C   UNL A   1      40.953  29.603  29.573  1.00  0.00     0.049 A 
ATOM     43  N   UNL A   1      41.843  26.883  28.686  1.00  0.00    -0.248 NA
ATOM     44  C   UNL A   1      39.663  26.445  27.971  1.00  0.00     0.031 C 
ATOM     45  C   UNL A   1      40.575  30.930  30.064  1.00  0.00     0.029 A 
ATOM     46  N   UNL A   1      42.285  29.500  29.891  1.00  0.00    -0.354 N 
ATOM     47  C   UNL A   1      41.776  25.586  28.194  1.00  0.00     0.074 A 
ATOM     48  C   UNL A   1      40.398  25.353  27.812  1.00  0.00     0.031 C 
ATOM     49  C   UNL A   1      41.653  31.525  30.600  1.00  0.00     0.029 A 
ATOM     50  C   UNL A   1      42.790  30.613  30.521  1.00  0.00     0.049 A 
ATOM     51  H   UNL A   1      42.827  28.704  29.688  1.00  0.00     0.167 HD
ATOM     52  C   UNL A   1      42.771  24.678  28.055  1.00  0.00     0.031 A 
ATOM     53  C   UNL A   1      44.027  30.875  30.984  1.00  0.00     0.031 A 
ATOM     54  C   UNL A   1      44.143  24.906  28.426  1.00  0.00     0.049 A 
ATOM     55  C   UNL A   1      45.113  29.849  30.817  1.00  0.00     0.074 A 
ATOM     56  C   UNL A   1      45.231  24.064  28.263  1.00  0.00     0.029 A 
ATOM     57  N   UNL A   1      44.616  26.055  29.038  1.00  0.00    -0.354 N 
ATOM     58  N   UNL A   1      45.048  28.661  30.268  1.00  0.00    -0.248 NA
ATOM     59  C   UNL A   1      46.447  30.208  31.320  1.00  0.00     0.031 C 
ATOM     60  C   UNL A   1      46.354  24.686  28.816  1.00  0.00     0.029 A 
ATOM     61  C   UNL A   1      45.975  25.936  29.276  1.00  0.00     0.049 A 
ATOM     62  H   UNL A   1      44.069  26.840  29.267  1.00  0.00     0.167 HD
ATOM     63  C   UNL A   1      46.337  28.146  30.328  1.00  0.00     0.074 A 
ATOM     64  C   UNL A   1      47.164  29.154  30.958  1.00  0.00     0.031 C 
ATOM     65  C   UNL A   1      46.792  26.947  29.895  1.00  0.00     0.031 A 
BRANCH  52  66
ATOM     66  C   UNL A   1      42.412  23.340  27.471  1.00  0.00    -0.014 A 
ATOM     67  C   UNL A   1      42.654  23.053  26.119  1.00  0.00     0.009 A 
ATOM     68  C   UNL A   1      41.880  22.336  28.294  1.00  0.00     0.009 A 
ATOM     69  C   UNL A   1      42.341  21.797  25.595  1.00  0.00     0.001 A 
ATOM     70  C   UNL A   1      41.591  21.073  27.775  1.00  0.00     0.001 A 
ATOM     71  C   UNL A   1      41.814  20.807  26.424  1.00  0.00     0.000 A 
ENDBRANCH  52  66
BRANCH  53  72
ATOM     72  C   UNL A   1      44.321  32.179  31.632  1.00  0.00    -0.014 A 
ATOM     73  C   UNL A   1      44.044  32.373  32.995  1.00  0.00     0.009 A 
ATOM     74  C   UNL A   1      44.863  33.241  30.892  1.00  0.00     0.009 A 
ATOM     75  C   UNL A   1      44.276  33.613  33.595  1.00  0.00     0.001 A 
ATOM     76  C   UNL A   1      45.119  34.471  31.502  1.00  0.00     0.001 A 
ATOM     77  C   UNL A   1      44.816  34.659  32.848  1.00  0.00     0.000 A 
ENDBRANCH  53  72
BRANCH  65  78
ATOM     78  C   UNL A   1      48.261  26.672  30.042  1.00  0.00    -0.014 A 
ATOM     79  C   UNL A   1      48.773  26.017  31.173  1.00  0.00     0.009 A 
ATOM     80  C   UNL A   1      49.141  27.036  29.009  1.00  0.00     0.009 A 
ATOM     81  C   UNL A   1      50.141  25.756  31.278  1.00  0.00     0.001 A 
ATOM     82  C   UNL A   1      50.503  26.751  29.106  1.00  0.00     0.001 A 
ATOM     83  C   UNL A   1      51.003  26.119  30.243  1.00  0.00     0.000 A 
ENDBRANCH  65  78
ENDBRANCH  39  40
ENDBRANCH  31  34
ENDBRANCH  29  30
ENDBRANCH   1  29
TORSDOF 13
ENDMDL
MODEL 3
REMARK VINA RESULT:     -12.1      1.743      2.677
REMARK SMILES O=C(NCCCCNC(=O)c1ccc(-c2c3nc(c(-c4ccccc4)c4ccc([nH]4)c(-c4ccccc4)c4nc(c(-c5ccccc5)c5ccc2[nH]5)C=C4)C=C3)cc1)C1=Cc2cc(Cl)cc(-c3ccccc3)c2O[C@@H]1C(F)(F)F
REMARK SMILES IDX 6 1 5 2 4 3 3 4 1 5 2 6 59 8 60 9 75 10 61 11 74 12 62 13
REMARK SMILES IDX 73 14 63 15 66 16 64 17 65 18 76 19 77 20 78 21 79 22 67 23
REMARK SMILES IDX 68 24 72 25 69 26 71 27 70 28 7 29 8 30 9 31 10 33 11 34
REMARK SMILES IDX 12 35 58 36 13 37 57 38 14 39 15 40 16 41 51 42 17 43 56 44
REMARK SMILES IDX 50 45 52 46 18 47 55 48 49 49 48 50 19 52 41 53 26 54 40 55
REMARK SMILES IDX 27 56 30 57 39 58 53 59 28 60 29 61 38 63 54 64 31 65 20 66
REMARK SMILES IDX 21 67 25 68 22 69 24 70 23 71 42 72 43 73 47 74 44 75 46 76
REMARK SMILES IDX 45 77 32 78 33 79 37 80 34 81 36 82 35 83
REMARK H PARENT 3 7 8 32 52 51 30 62
REMARK Flexibility Score: inf
ROOT
ATOM      1  C   UNL A   1      32.708  29.738  25.631  1.00  0.00     0.023 C 
ENDROOT
BRANCH   1   2
ATOM      2  C   UNL A   1      33.288  29.290  24.280  1.00  0.00     0.023 C 
BRANCH   2   3
ATOM      3  C   UNL A   1      32.298  28.538  23.382  1.00  0.00     0.116 C 
BRANCH   3   4
ATOM      4  N   UNL A   1      32.945  27.640  22.419  1.00  0.00    -0.352 N 
ATOM      5  O   UNL A   1      33.308  25.728  21.279  1.00  0.00    -0.270 OA
ATOM      6  C   UNL A   1      33.004  26.269  22.336  1.00  0.00     0.251 C 
ATOM      7  H   UNL A   1      33.426  28.106  21.698  1.00  0.00     0.163 HD
BRANCH   6   8
ATOM      8  C   UNL A   1      32.560  25.470  23.493  1.00  0.00     0.067 C 
ATOM      9  C   UNL A   1      31.684  24.459  23.401  1.00  0.00     0.025 C 
ATOM     10  C   UNL A   1      33.312  25.641  24.776  1.00  0.00     0.314 C 
ATOM     11  C   UNL A   1      32.298  23.207  23.900  1.00  0.00     0.019 A 
ATOM     12  O   UNL A   1      34.059  24.443  25.078  1.00  0.00    -0.475 OA
ATOM     13  C   UNL A   1      31.871  21.988  23.357  1.00  0.00     0.032 A 
ATOM     14  C   UNL A   1      33.525  23.258  24.609  1.00  0.00     0.135 A 
ATOM     15  C   UNL A   1      32.666  20.849  23.491  1.00  0.00     0.042 A 
ATOM     16  C   UNL A   1      34.353  22.121  24.698  1.00  0.00     0.026 A 
ATOM     17  Cl  UNL A   1      32.193  19.386  22.719  1.00  0.00    -0.084 Cl
ATOM     18  C   UNL A   1      33.896  20.913  24.145  1.00  0.00     0.033 A 
BRANCH  10  19
ATOM     19  C   UNL A   1      32.361  26.042  25.929  1.00  0.00     0.429 C 
ATOM     20  F   UNL A   1      31.890  24.954  26.583  1.00  0.00    -0.167 F 
ATOM     21  F   UNL A   1      32.990  26.810  26.852  1.00  0.00    -0.167 F 
ATOM     22  F   UNL A   1      31.282  26.744  25.503  1.00  0.00    -0.167 F 
ENDBRANCH  10  19
BRANCH  16  23
ATOM     23  C   UNL A   1      35.745  22.203  25.159  1.00  0.00    -0.015 A 
ATOM     24  C   UNL A   1      36.216  23.393  25.745  1.00  0.00     0.009 A 
ATOM     25  C   UNL A   1      36.643  21.147  24.983  1.00  0.00     0.009 A 
ATOM     26  C   UNL A   1      37.554  23.540  26.109  1.00  0.00     0.001 A 
ATOM     27  C   UNL A   1      37.985  21.291  25.351  1.00  0.00     0.001 A 
ATOM     28  C   UNL A   1      38.440  22.489  25.901  1.00  0.00     0.000 A 
ENDBRANCH  16  23
ENDBRANCH   6   8
ENDBRANCH   3   4
ENDBRANCH   2   3
ENDBRANCH   1   2
BRANCH   1  29
ATOM     29  C   UNL A   1      33.628  29.636  26.847  1.00  0.00     0.116 C 
BRANCH  29  30
ATOM     30  N   UNL A   1      33.642  30.806  27.705  1.00  0.00    -0.352 N 
ATOM     31  C   UNL A   1      34.657  31.202  28.559  1.00  0.00     0.251 C 
ATOM     32  H   UNL A   1      32.844  31.382  27.677  1.00  0.00     0.163 HD
ATOM     33  O   UNL A   1      34.524  32.185  29.285  1.00  0.00    -0.269 OA
BRANCH  31  34
ATOM     34  C   UNL A   1      35.892  30.390  28.634  1.00  0.00     0.039 A 
ATOM     35  C   UNL A   1      36.780  30.400  27.555  1.00  0.00     0.014 A 
ATOM     36  C   UNL A   1      36.214  29.692  29.801  1.00  0.00     0.014 A 
ATOM     37  C   UNL A   1      38.039  29.803  27.689  1.00  0.00     0.010 A 
ATOM     38  C   UNL A   1      37.487  29.145  29.953  1.00  0.00     0.010 A 
ATOM     39  C   UNL A   1      38.423  29.223  28.909  1.00  0.00    -0.014 A 
BRANCH  39  40
ATOM     40  C   UNL A   1      39.823  28.772  29.137  1.00  0.00     0.031 A 
ATOM     41  C   UNL A   1      40.851  29.700  29.724  1.00  0.00     0.074 A 
ATOM     42  C   UNL A   1      40.192  27.539  28.734  1.00  0.00     0.049 A 
ATOM     43  N   UNL A   1      42.122  29.480  29.954  1.00  0.00    -0.248 NA
ATOM     44  C   UNL A   1      40.400  31.053  30.077  1.00  0.00     0.031 C 
ATOM     45  C   UNL A   1      39.312  26.556  28.097  1.00  0.00     0.029 A 
ATOM     46  N   UNL A   1      41.409  26.904  28.790  1.00  0.00    -0.354 N 
ATOM     47  C   UNL A   1      42.624  30.667  30.470  1.00  0.00     0.074 A 
ATOM     48  C   UNL A   1      41.531  31.618  30.478  1.00  0.00     0.031 C 
ATOM     49  C   UNL A   1      40.010  25.438  27.844  1.00  0.00     0.029 A 
ATOM     50  C   UNL A   1      41.393  25.633  28.268  1.00  0.00     0.049 A 
ATOM     51  H   UNL A   1      42.217  27.320  29.169  1.00  0.00     0.167 HD
ATOM     52  C   UNL A   1      43.875  30.938  30.914  1.00  0.00     0.031 A 
ATOM     53  C   UNL A   1      42.378  24.722  28.142  1.00  0.00     0.031 A 
ATOM     54  C   UNL A   1      44.963  29.996  30.915  1.00  0.00     0.049 A 
ATOM     55  C   UNL A   1      43.758  25.049  28.643  1.00  0.00     0.074 A 
ATOM     56  C   UNL A   1      46.248  30.166  31.403  1.00  0.00     0.029 A 
ATOM     57  N   UNL A   1      44.898  28.712  30.399  1.00  0.00    -0.354 N 
ATOM     58  N   UNL A   1      44.191  26.148  29.209  1.00  0.00    -0.248 NA
ATOM     59  C   UNL A   1      44.779  24.001  28.500  1.00  0.00     0.031 C 
ATOM     60  C   UNL A   1      46.973  28.999  31.144  1.00  0.00     0.029 A 
ATOM     61  C   UNL A   1      46.125  28.086  30.540  1.00  0.00     0.049 A 
ATOM     62  H   UNL A   1      44.099  28.305  29.994  1.00  0.00     0.167 HD
ATOM     63  C   UNL A   1      45.523  25.912  29.521  1.00  0.00     0.074 A 
ATOM     64  C   UNL A   1      45.824  24.564  29.091  1.00  0.00     0.031 C 
ATOM     65  C   UNL A   1      46.414  26.741  30.117  1.00  0.00     0.031 A 
BRANCH  52  66
ATOM     66  C   UNL A   1      44.139  32.320  31.442  1.00  0.00    -0.014 A 
ATOM     67  C   UNL A   1      43.994  32.613  32.807  1.00  0.00     0.009 A 
ATOM     68  C   UNL A   1      44.593  33.326  30.576  1.00  0.00     0.009 A 
ATOM     69  C   UNL A   1      44.268  33.894  33.289  1.00  0.00     0.001 A 
ATOM     70  C   UNL A   1      44.891  34.600  31.064  1.00  0.00     0.001 A 
ATOM     71  C   UNL A   1      44.721  34.885  32.419  1.00  0.00     0.000 A 
ENDBRANCH  52  66
BRANCH  53  72
ATOM     72  C   UNL A   1      42.095  23.395  27.536  1.00  0.00    -0.014 A 
ATOM     73  C   UNL A   1      41.535  22.366  28.308  1.00  0.00     0.009 A 
ATOM     74  C   UNL A   1      42.398  23.145  26.189  1.00  0.00     0.009 A 
ATOM     75  C   UNL A   1      41.312  21.105  27.751  1.00  0.00     0.001 A 
ATOM     76  C   UNL A   1      42.147  21.891  25.628  1.00  0.00     0.001 A 
ATOM     77  C   UNL A   1      41.615  20.869  26.411  1.00  0.00     0.000 A 
ENDBRANCH  53  72
BRANCH  65  78
ATOM     78  C   UNL A   1      47.789  26.199  30.383  1.00  0.00    -0.014 A 
ATOM     79  C   UNL A   1      48.775  26.185  29.384  1.00  0.00     0.009 A 
ATOM     80  C   UNL A   1      48.115  25.735  31.668  1.00  0.00     0.009 A 
ATOM     81  C   UNL A   1      50.052  25.693  29.662  1.00  0.00     0.001 A 
ATOM     82  C   UNL A   1      49.399  25.269  31.948  1.00  0.00     0.001 A 
ATOM     83  C   UNL A   1      50.364  25.240  30.944  1.00  0.00     0.000 A 
ENDBRANCH  65  78
ENDBRANCH  39  40
ENDBRANCH  31  34
ENDBRANCH  29  30
ENDBRANCH   1  29
TORSDOF 13
ENDMDL
