MODEL 1
REMARK VINA RESULT:     -11.8      0.000      0.000
REMARK SMILES Cc1ccc(Nc2c(Cl)cccc2Cl)c(CC(=O)NCCCCNC(=O)c2ccc(-c3c4nc(c(-c5ccccc5)c5ccc([nH]5)c(-c5ccccc5)c5nc(c(-c6ccccc6)c6ccc3[nH]6)C=C5)C=C4)cc2)c1
REMARK SMILES IDX 21 1 20 2 19 3 17 4 18 5 16 7 15 8 1 9 2 10 3 11 75 12 4 13
REMARK SMILES IDX 5 14 6 15 7 17 8 18 13 19 9 20 10 21 12 22 14 23 11 24 22 25
REMARK SMILES IDX 23 26 24 27 25 28 26 30 27 31 28 32 74 33 29 34 73 35 30 36
REMARK SMILES IDX 31 37 32 38 67 39 33 40 72 41 66 42 68 43 34 44 71 45 65 46
REMARK SMILES IDX 64 47 35 49 57 50 42 51 56 52 43 53 46 54 55 55 69 56 44 57
REMARK SMILES IDX 45 58 54 60 70 61 47 62 36 63 37 64 41 65 38 66 40 67 39 68
REMARK SMILES IDX 58 69 59 70 63 71 60 72 62 73 61 74 48 75 49 76 53 77 50 78
REMARK SMILES IDX 52 79 51 80
REMARK H PARENT 19 6 6 16 24 29 68 48 46 59
REMARK Flexibility Score: inf
ROOT
ATOM      1  C   UNL A   1      31.899  28.959  27.293  1.00  0.00     0.023 C 
ENDROOT
BRANCH   1   2
ATOM      2  C   UNL A   1      31.699  27.917  26.181  1.00  0.00     0.116 C 
BRANCH   2   3
ATOM      3  N   UNL A   1      31.594  26.553  26.674  1.00  0.00    -0.356 N 
ATOM      4  C   UNL A   1      32.388  25.472  26.435  1.00  0.00     0.224 C 
ATOM      5  O   UNL A   1      32.036  24.378  26.883  1.00  0.00    -0.275 OA
ATOM      6  H   UNL A   1      30.832  26.386  27.273  1.00  0.00     0.163 HD
BRANCH   4   7
ATOM      7  C   UNL A   1      33.663  25.589  25.619  1.00  0.00     0.137 C 
BRANCH   7   8
ATOM      8  C   UNL A   1      33.570  24.927  24.262  1.00  0.00    -0.015 A 
ATOM      9  C   UNL A   1      32.165  25.942  20.855  1.00  0.00     0.044 C 
ATOM     10  C   UNL A   1      32.802  25.139  21.948  1.00  0.00    -0.051 A 
ATOM     11  C   UNL A   1      33.095  23.792  21.749  1.00  0.00     0.005 A 
ATOM     12  C   UNL A   1      33.073  25.706  23.193  1.00  0.00     0.009 A 
ATOM     13  C   UNL A   1      33.644  23.027  22.781  1.00  0.00     0.026 A 
ATOM     14  C   UNL A   1      33.888  23.566  24.056  1.00  0.00     0.042 A 
BRANCH  14  15
ATOM     15  N   UNL A   1      34.463  22.783  25.082  1.00  0.00    -0.353 N 
ATOM     16  H   UNL A   1      34.082  22.916  25.980  1.00  0.00     0.167 HD
BRANCH  15  17
ATOM     17  C   UNL A   1      35.513  21.832  25.001  1.00  0.00     0.076 A 
ATOM     18  C   UNL A   1      35.288  20.450  24.851  1.00  0.00     0.066 A 
ATOM     19  C   UNL A   1      36.850  22.259  25.159  1.00  0.00     0.066 A 
ATOM     20  Cl  UNL A   1      33.713  19.801  24.536  1.00  0.00    -0.082 Cl
ATOM     21  C   UNL A   1      36.351  19.537  24.888  1.00  0.00     0.023 A 
ATOM     22  C   UNL A   1      37.910  21.346  25.187  1.00  0.00     0.023 A 
ATOM     23  Cl  UNL A   1      37.233  23.936  25.361  1.00  0.00    -0.082 Cl
ATOM     24  C   UNL A   1      37.659  19.983  25.063  1.00  0.00     0.003 A 
ENDBRANCH  15  17
ENDBRANCH  14  15
ENDBRANCH   7   8
ENDBRANCH   4   7
ENDBRANCH   2   3
ENDBRANCH   1   2
BRANCH   1  25
ATOM     25  C   UNL A   1      33.349  29.328  27.611  1.00  0.00     0.023 C 
BRANCH  25  26
ATOM     26  C   UNL A   1      33.774  30.678  27.056  1.00  0.00     0.116 C 
BRANCH  26  27
ATOM     27  N   UNL A   1      34.388  31.571  28.031  1.00  0.00    -0.352 N 
ATOM     28  C   UNL A   1      35.489  31.355  28.846  1.00  0.00     0.251 C 
ATOM     29  H   UNL A   1      33.959  32.452  28.126  1.00  0.00     0.163 HD
ATOM     30  O   UNL A   1      35.835  32.201  29.656  1.00  0.00    -0.269 OA
BRANCH  28  31
ATOM     31  C   UNL A   1      36.334  30.154  28.619  1.00  0.00     0.039 A 
ATOM     32  C   UNL A   1      36.526  29.292  29.704  1.00  0.00     0.014 A 
ATOM     33  C   UNL A   1      37.118  30.029  27.475  1.00  0.00     0.014 A 
ATOM     34  C   UNL A   1      37.679  28.515  29.754  1.00  0.00     0.010 A 
ATOM     35  C   UNL A   1      38.313  29.344  27.568  1.00  0.00     0.010 A 
ATOM     36  C   UNL A   1      38.628  28.660  28.746  1.00  0.00    -0.014 A 
BRANCH  36  37
ATOM     37  C   UNL A   1      40.023  28.277  28.915  1.00  0.00     0.031 A 
ATOM     38  C   UNL A   1      40.504  26.962  28.464  1.00  0.00     0.074 A 
ATOM     39  C   UNL A   1      40.894  29.160  29.452  1.00  0.00     0.049 A 
ATOM     40  N   UNL A   1      41.597  26.422  28.884  1.00  0.00    -0.248 NA
ATOM     41  C   UNL A   1      39.741  26.098  27.568  1.00  0.00     0.031 C 
ATOM     42  C   UNL A   1      42.354  29.099  29.450  1.00  0.00     0.029 A 
ATOM     43  N   UNL A   1      40.595  30.190  30.345  1.00  0.00    -0.354 N 
ATOM     44  C   UNL A   1      41.841  25.331  28.092  1.00  0.00     0.074 A 
ATOM     45  C   UNL A   1      40.595  25.081  27.409  1.00  0.00     0.031 C 
ATOM     46  C   UNL A   1      42.820  29.845  30.464  1.00  0.00     0.029 A 
ATOM     47  C   UNL A   1      41.675  30.278  31.245  1.00  0.00     0.049 A 
ATOM     48  H   UNL A   1      39.784  30.749  30.347  1.00  0.00     0.167 HD
ATOM     49  C   UNL A   1      43.115  24.866  27.992  1.00  0.00     0.031 A 
ATOM     50  C   UNL A   1      41.495  30.022  32.574  1.00  0.00     0.031 A 
ATOM     51  C   UNL A   1      43.993  25.434  29.019  1.00  0.00     0.049 A 
ATOM     52  C   UNL A   1      42.293  28.845  33.108  1.00  0.00     0.074 A 
ATOM     53  C   UNL A   1      45.079  26.294  29.015  1.00  0.00     0.029 A 
ATOM     54  N   UNL A   1      43.627  25.293  30.351  1.00  0.00    -0.354 N 
ATOM     55  N   UNL A   1      43.036  28.055  32.385  1.00  0.00    -0.248 NA
ATOM     56  C   UNL A   1      42.219  28.408  34.502  1.00  0.00     0.031 C 
ATOM     57  C   UNL A   1      45.346  26.680  30.364  1.00  0.00     0.029 A 
ATOM     58  C   UNL A   1      44.443  26.030  31.185  1.00  0.00     0.049 A 
ATOM     59  H   UNL A   1      42.877  24.735  30.663  1.00  0.00     0.167 HD
ATOM     60  C   UNL A   1      43.477  27.004  33.150  1.00  0.00     0.074 A 
ATOM     61  C   UNL A   1      42.935  27.272  34.471  1.00  0.00     0.031 C 
ATOM     62  C   UNL A   1      44.204  25.972  32.623  1.00  0.00     0.031 A 
BRANCH  49  63
ATOM     63  C   UNL A   1      43.616  24.029  26.832  1.00  0.00    -0.014 A 
ATOM     64  C   UNL A   1      44.265  24.654  25.753  1.00  0.00     0.009 A 
ATOM     65  C   UNL A   1      43.384  22.647  26.682  1.00  0.00     0.009 A 
ATOM     66  C   UNL A   1      44.635  23.949  24.596  1.00  0.00     0.001 A 
ATOM     67  C   UNL A   1      43.777  21.929  25.545  1.00  0.00     0.001 A 
ATOM     68  C   UNL A   1      44.393  22.585  24.493  1.00  0.00     0.000 A 
ENDBRANCH  49  63
BRANCH  50  69
ATOM     69  C   UNL A   1      40.150  30.426  33.076  1.00  0.00    -0.014 A 
ATOM     70  C   UNL A   1      39.900  31.796  33.300  1.00  0.00     0.009 A 
ATOM     71  C   UNL A   1      39.057  29.552  33.000  1.00  0.00     0.009 A 
ATOM     72  C   UNL A   1      38.592  32.291  33.327  1.00  0.00     0.001 A 
ATOM     73  C   UNL A   1      37.749  30.050  33.046  1.00  0.00     0.001 A 
ATOM     74  C   UNL A   1      37.518  31.420  33.172  1.00  0.00     0.000 A 
ENDBRANCH  50  69
BRANCH  62  75
ATOM     75  C   UNL A   1      44.707  24.763  33.386  1.00  0.00    -0.014 A 
ATOM     76  C   UNL A   1      46.037  24.571  33.780  1.00  0.00     0.009 A 
ATOM     77  C   UNL A   1      43.817  23.700  33.663  1.00  0.00     0.009 A 
ATOM     78  C   UNL A   1      46.433  23.427  34.491  1.00  0.00     0.001 A 
ATOM     79  C   UNL A   1      44.208  22.547  34.348  1.00  0.00     0.001 A 
ATOM     80  C   UNL A   1      45.518  22.420  34.782  1.00  0.00     0.000 A 
ENDBRANCH  62  75
ENDBRANCH  36  37
ENDBRANCH  28  31
ENDBRANCH  26  27
ENDBRANCH  25  26
ENDBRANCH   1  25
TORSDOF 14
ENDMDL
MODEL 2
REMARK VINA RESULT:     -11.8      3.416      8.892
REMARK SMILES Cc1ccc(Nc2c(Cl)cccc2Cl)c(CC(=O)NCCCCNC(=O)c2ccc(-c3c4nc(c(-c5ccccc5)c5ccc([nH]5)c(-c5ccccc5)c5nc(c(-c6ccccc6)c6ccc3[nH]6)C=C5)C=C4)cc2)c1
REMARK SMILES IDX 21 1 20 2 19 3 17 4 18 5 16 7 15 8 1 9 2 10 3 11 75 12 4 13
REMARK SMILES IDX 5 14 6 15 7 17 8 18 13 19 9 20 10 21 12 22 14 23 11 24 22 25
REMARK SMILES IDX 23 26 24 27 25 28 26 30 27 31 28 32 74 33 29 34 73 35 30 36
REMARK SMILES IDX 31 37 32 38 67 39 33 40 72 41 66 42 68 43 34 44 71 45 65 46
REMARK SMILES IDX 64 47 35 49 57 50 42 51 56 52 43 53 46 54 55 55 69 56 44 57
REMARK SMILES IDX 45 58 54 60 70 61 47 62 36 63 37 64 41 65 38 66 40 67 39 68
REMARK SMILES IDX 58 69 59 70 63 71 60 72 62 73 61 74 48 75 49 76 53 77 50 78
REMARK SMILES IDX 52 79 51 80
REMARK H PARENT 19 6 6 16 24 29 68 48 46 59
REMARK Flexibility Score: inf
ROOT
ATOM      1  C   UNL A   1      36.316  21.192  24.950  1.00  0.00     0.023 C 
ENDROOT
BRANCH   1   2
ATOM      2  C   UNL A   1      35.577  22.512  25.223  1.00  0.00     0.116 C 
BRANCH   2   3
ATOM      3  N   UNL A   1      35.149  23.199  24.016  1.00  0.00    -0.356 N 
ATOM      4  C   UNL A   1      34.540  24.409  23.865  1.00  0.00     0.224 C 
ATOM      5  O   UNL A   1      34.169  24.740  22.736  1.00  0.00    -0.275 OA
ATOM      6  H   UNL A   1      35.326  22.715  23.178  1.00  0.00     0.163 HD
BRANCH   4   7
ATOM      7  C   UNL A   1      34.295  25.327  25.050  1.00  0.00     0.137 C 
BRANCH   7   8
ATOM      8  C   UNL A   1      32.851  25.352  25.500  1.00  0.00    -0.015 A 
ATOM      9  C   UNL A   1      30.364  22.728  26.742  1.00  0.00     0.044 C 
ATOM     10  C   UNL A   1      30.952  24.036  26.307  1.00  0.00    -0.051 A 
ATOM     11  C   UNL A   1      30.135  25.152  26.143  1.00  0.00     0.005 A 
ATOM     12  C   UNL A   1      32.311  24.153  26.016  1.00  0.00     0.009 A 
ATOM     13  C   UNL A   1      30.670  26.361  25.691  1.00  0.00     0.026 A 
ATOM     14  C   UNL A   1      32.028  26.491  25.354  1.00  0.00     0.042 A 
BRANCH  14  15
ATOM     15  N   UNL A   1      32.556  27.728  24.918  1.00  0.00    -0.353 N 
ATOM     16  H   UNL A   1      33.121  27.686  24.112  1.00  0.00     0.167 HD
BRANCH  15  17
ATOM     17  C   UNL A   1      32.390  29.020  25.478  1.00  0.00     0.076 A 
ATOM     18  C   UNL A   1      33.191  29.513  26.527  1.00  0.00     0.066 A 
ATOM     19  C   UNL A   1      31.326  29.837  25.035  1.00  0.00     0.066 A 
ATOM     20  Cl  UNL A   1      34.595  28.667  27.089  1.00  0.00    -0.082 Cl
ATOM     21  C   UNL A   1      32.919  30.751  27.124  1.00  0.00     0.023 A 
ATOM     22  C   UNL A   1      31.061  31.077  25.627  1.00  0.00     0.023 A 
ATOM     23  Cl  UNL A   1      30.276  29.320  23.758  1.00  0.00    -0.082 Cl
ATOM     24  C   UNL A   1      31.851  31.529  26.680  1.00  0.00     0.003 A 
ENDBRANCH  15  17
ENDBRANCH  14  15
ENDBRANCH   7   8
ENDBRANCH   4   7
ENDBRANCH   2   3
ENDBRANCH   1   2
BRANCH   1  25
ATOM     25  C   UNL A   1      37.836  21.233  25.107  1.00  0.00     0.023 C 
BRANCH  25  26
ATOM     26  C   UNL A   1      38.352  22.505  25.761  1.00  0.00     0.116 C 
BRANCH  26  27
ATOM     27  N   UNL A   1      39.733  22.434  26.224  1.00  0.00    -0.352 N 
ATOM     28  C   UNL A   1      40.544  23.446  26.715  1.00  0.00     0.251 C 
ATOM     29  H   UNL A   1      40.148  21.543  26.181  1.00  0.00     0.163 HD
ATOM     30  O   UNL A   1      41.708  23.219  27.007  1.00  0.00    -0.269 OA
BRANCH  28  31
ATOM     31  C   UNL A   1      39.945  24.769  27.028  1.00  0.00     0.039 A 
ATOM     32  C   UNL A   1      40.411  25.871  26.304  1.00  0.00     0.014 A 
ATOM     33  C   UNL A   1      39.161  24.956  28.164  1.00  0.00     0.014 A 
ATOM     34  C   UNL A   1      40.340  27.136  26.877  1.00  0.00     0.010 A 
ATOM     35  C   UNL A   1      39.185  26.189  28.784  1.00  0.00     0.010 A 
ATOM     36  C   UNL A   1      39.853  27.256  28.176  1.00  0.00    -0.014 A 
BRANCH  36  37
ATOM     37  C   UNL A   1      40.151  28.399  29.028  1.00  0.00     0.031 A 
ATOM     38  C   UNL A   1      39.177  29.488  29.196  1.00  0.00     0.074 A 
ATOM     39  C   UNL A   1      41.320  28.435  29.708  1.00  0.00     0.049 A 
ATOM     40  N   UNL A   1      39.490  30.663  29.626  1.00  0.00    -0.248 NA
ATOM     41  C   UNL A   1      37.776  29.374  28.800  1.00  0.00     0.031 C 
ATOM     42  C   UNL A   1      41.691  29.318  30.811  1.00  0.00     0.029 A 
ATOM     43  N   UNL A   1      42.517  27.817  29.344  1.00  0.00    -0.354 N 
ATOM     44  C   UNL A   1      38.319  31.330  29.872  1.00  0.00     0.074 A 
ATOM     45  C   UNL A   1      37.303  30.560  29.198  1.00  0.00     0.031 C 
ATOM     46  C   UNL A   1      43.031  29.390  30.874  1.00  0.00     0.029 A 
ATOM     47  C   UNL A   1      43.557  28.688  29.718  1.00  0.00     0.049 A 
ATOM     48  H   UNL A   1      42.615  26.939  28.908  1.00  0.00     0.167 HD
ATOM     49  C   UNL A   1      38.329  32.371  30.749  1.00  0.00     0.031 A 
ATOM     50  C   UNL A   1      44.373  29.242  28.774  1.00  0.00     0.031 A 
ATOM     51  C   UNL A   1      39.691  32.816  31.062  1.00  0.00     0.049 A 
ATOM     52  C   UNL A   1      44.321  30.759  28.699  1.00  0.00     0.074 A 
ATOM     53  C   UNL A   1      40.493  32.802  32.191  1.00  0.00     0.029 A 
ATOM     54  N   UNL A   1      40.523  33.179  30.011  1.00  0.00    -0.354 N 
ATOM     55  N   UNL A   1      43.517  31.515  29.394  1.00  0.00    -0.248 NA
ATOM     56  C   UNL A   1      45.110  31.530  27.739  1.00  0.00     0.031 C 
ATOM     57  C   UNL A   1      41.822  33.145  31.798  1.00  0.00     0.029 A 
ATOM     58  C   UNL A   1      41.818  33.397  30.438  1.00  0.00     0.049 A 
ATOM     59  H   UNL A   1      40.227  33.272  29.077  1.00  0.00     0.167 HD
ATOM     60  C   UNL A   1      43.614  32.814  28.962  1.00  0.00     0.074 A 
ATOM     61  C   UNL A   1      44.626  32.770  27.922  1.00  0.00     0.031 C 
ATOM     62  C   UNL A   1      42.815  33.808  29.457  1.00  0.00     0.031 A 
BRANCH  49  63
ATOM     63  C   UNL A   1      37.098  32.868  31.478  1.00  0.00    -0.014 A 
ATOM     64  C   UNL A   1      36.768  32.328  32.734  1.00  0.00     0.009 A 
ATOM     65  C   UNL A   1      36.162  33.775  30.942  1.00  0.00     0.009 A 
ATOM     66  C   UNL A   1      35.573  32.657  33.395  1.00  0.00     0.001 A 
ATOM     67  C   UNL A   1      34.982  34.132  31.608  1.00  0.00     0.001 A 
ATOM     68  C   UNL A   1      34.681  33.562  32.833  1.00  0.00     0.000 A 
ENDBRANCH  49  63
BRANCH  50  69
ATOM     69  C   UNL A   1      44.614  28.348  27.604  1.00  0.00    -0.014 A 
ATOM     70  C   UNL A   1      45.421  27.206  27.786  1.00  0.00     0.009 A 
ATOM     71  C   UNL A   1      43.806  28.420  26.461  1.00  0.00     0.009 A 
ATOM     72  C   UNL A   1      45.331  26.118  26.913  1.00  0.00     0.001 A 
ATOM     73  C   UNL A   1      43.733  27.335  25.578  1.00  0.00     0.001 A 
ATOM     74  C   UNL A   1      44.465  26.173  25.824  1.00  0.00     0.000 A 
ENDBRANCH  50  69
BRANCH  62  75
ATOM     75  C   UNL A   1      42.835  35.259  29.021  1.00  0.00    -0.014 A 
ATOM     76  C   UNL A   1      43.532  36.277  29.684  1.00  0.00     0.009 A 
ATOM     77  C   UNL A   1      42.043  35.664  27.922  1.00  0.00     0.009 A 
ATOM     78  C   UNL A   1      43.512  37.602  29.220  1.00  0.00     0.001 A 
ATOM     79  C   UNL A   1      41.998  36.984  27.469  1.00  0.00     0.001 A 
ATOM     80  C   UNL A   1      42.752  37.954  28.109  1.00  0.00     0.000 A 
ENDBRANCH  62  75
ENDBRANCH  36  37
ENDBRANCH  28  31
ENDBRANCH  26  27
ENDBRANCH  25  26
ENDBRANCH   1  25
TORSDOF 14
ENDMDL
MODEL 3
REMARK VINA RESULT:     -11.5      1.679      2.116
REMARK SMILES Cc1ccc(Nc2c(Cl)cccc2Cl)c(CC(=O)NCCCCNC(=O)c2ccc(-c3c4nc(c(-c5ccccc5)c5ccc([nH]5)c(-c5ccccc5)c5nc(c(-c6ccccc6)c6ccc3[nH]6)C=C5)C=C4)cc2)c1
REMARK SMILES IDX 21 1 20 2 19 3 17 4 18 5 16 7 15 8 1 9 2 10 3 11 75 12 4 13
REMARK SMILES IDX 5 14 6 15 7 17 8 18 13 19 9 20 10 21 12 22 14 23 11 24 22 25
REMARK SMILES IDX 23 26 24 27 25 28 26 30 27 31 28 32 74 33 29 34 73 35 30 36
REMARK SMILES IDX 31 37 32 38 67 39 33 40 72 41 66 42 68 43 34 44 71 45 65 46
REMARK SMILES IDX 64 47 35 49 57 50 42 51 56 52 43 53 46 54 55 55 69 56 44 57
REMARK SMILES IDX 45 58 54 60 70 61 47 62 36 63 37 64 41 65 38 66 40 67 39 68
REMARK SMILES IDX 58 69 59 70 63 71 60 72 62 73 61 74 48 75 49 76 53 77 50 78
REMARK SMILES IDX 52 79 51 80
REMARK H PARENT 19 6 6 16 24 29 68 48 46 59
REMARK Flexibility Score: inf
ROOT
ATOM      1  C   UNL A   1      32.251  30.003  25.655  1.00  0.00     0.023 C 
ENDROOT
BRANCH   1   2
ATOM      2  C   UNL A   1      33.444  29.132  25.230  1.00  0.00     0.116 C 
BRANCH   2   3
ATOM      3  N   UNL A   1      33.670  29.116  23.794  1.00  0.00    -0.356 N 
ATOM      4  C   UNL A   1      33.888  28.066  22.953  1.00  0.00     0.224 C 
ATOM      5  O   UNL A   1      34.164  28.309  21.775  1.00  0.00    -0.275 OA
ATOM      6  H   UNL A   1      33.664  30.001  23.363  1.00  0.00     0.163 HD
BRANCH   4   7
ATOM      7  C   UNL A   1      33.821  26.630  23.442  1.00  0.00     0.137 C 
BRANCH   7   8
ATOM      8  C   UNL A   1      32.417  26.070  23.467  1.00  0.00    -0.015 A 
ATOM      9  C   UNL A   1      28.906  27.585  23.476  1.00  0.00     0.044 C 
ATOM     10  C   UNL A   1      30.024  26.587  23.503  1.00  0.00    -0.051 A 
ATOM     11  C   UNL A   1      29.758  25.241  23.744  1.00  0.00     0.005 A 
ATOM     12  C   UNL A   1      31.350  26.987  23.333  1.00  0.00     0.009 A 
ATOM     13  C   UNL A   1      30.802  24.315  23.819  1.00  0.00     0.026 A 
ATOM     14  C   UNL A   1      32.147  24.701  23.691  1.00  0.00     0.042 A 
BRANCH  14  15
ATOM     15  N   UNL A   1      33.189  23.748  23.749  1.00  0.00    -0.353 N 
ATOM     16  H   UNL A   1      34.041  24.028  23.344  1.00  0.00     0.167 HD
BRANCH  15  17
ATOM     17  C   UNL A   1      33.179  22.444  24.306  1.00  0.00     0.076 A 
ATOM     18  C   UNL A   1      32.619  21.331  23.647  1.00  0.00     0.066 A 
ATOM     19  C   UNL A   1      33.673  22.243  25.613  1.00  0.00     0.066 A 
ATOM     20  Cl  UNL A   1      32.080  21.408  22.002  1.00  0.00    -0.082 Cl
ATOM     21  C   UNL A   1      32.532  20.084  24.282  1.00  0.00     0.023 A 
ATOM     22  C   UNL A   1      33.592  20.995  26.242  1.00  0.00     0.023 A 
ATOM     23  Cl  UNL A   1      34.371  23.548  26.513  1.00  0.00    -0.082 Cl
ATOM     24  C   UNL A   1      33.010  19.918  25.579  1.00  0.00     0.003 A 
ENDBRANCH  15  17
ENDBRANCH  14  15
ENDBRANCH   7   8
ENDBRANCH   4   7
ENDBRANCH   2   3
ENDBRANCH   1   2
BRANCH   1  25
ATOM     25  C   UNL A   1      32.471  30.884  26.885  1.00  0.00     0.023 C 
BRANCH  25  26
ATOM     26  C   UNL A   1      33.625  30.431  27.766  1.00  0.00     0.116 C 
BRANCH  26  27
ATOM     27  N   UNL A   1      34.432  31.514  28.316  1.00  0.00    -0.352 N 
ATOM     28  C   UNL A   1      35.728  31.478  28.806  1.00  0.00     0.251 C 
ATOM     29  H   UNL A   1      33.993  32.395  28.345  1.00  0.00     0.163 HD
ATOM     30  O   UNL A   1      36.236  32.478  29.289  1.00  0.00    -0.269 OA
BRANCH  28  31
ATOM     31  C   UNL A   1      36.547  30.255  28.601  1.00  0.00     0.039 A 
ATOM     32  C   UNL A   1      36.719  29.406  29.699  1.00  0.00     0.014 A 
ATOM     33  C   UNL A   1      37.330  30.095  27.460  1.00  0.00     0.014 A 
ATOM     34  C   UNL A   1      37.854  28.605  29.764  1.00  0.00     0.010 A 
ATOM     35  C   UNL A   1      38.510  29.386  27.566  1.00  0.00     0.010 A 
ATOM     36  C   UNL A   1      38.808  28.714  28.755  1.00  0.00    -0.014 A 
BRANCH  36  37
ATOM     37  C   UNL A   1      40.194  28.304  28.934  1.00  0.00     0.031 A 
ATOM     38  C   UNL A   1      40.666  27.004  28.432  1.00  0.00     0.074 A 
ATOM     39  C   UNL A   1      41.067  29.149  29.527  1.00  0.00     0.049 A 
ATOM     40  N   UNL A   1      41.743  26.429  28.848  1.00  0.00    -0.248 NA
ATOM     41  C   UNL A   1      39.909  26.192  27.483  1.00  0.00     0.031 C 
ATOM     42  C   UNL A   1      42.526  29.066  29.550  1.00  0.00     0.029 A 
ATOM     43  N   UNL A   1      40.764  30.142  30.460  1.00  0.00    -0.354 N 
ATOM     44  C   UNL A   1      41.988  25.372  28.012  1.00  0.00     0.074 A 
ATOM     45  C   UNL A   1      40.752  25.171  27.295  1.00  0.00     0.031 C 
ATOM     46  C   UNL A   1      42.981  29.760  30.606  1.00  0.00     0.029 A 
ATOM     47  C   UNL A   1      41.827  30.174  31.383  1.00  0.00     0.049 A 
ATOM     48  H   UNL A   1      39.961  30.711  30.472  1.00  0.00     0.167 HD
ATOM     49  C   UNL A   1      43.258  24.893  27.915  1.00  0.00     0.031 A 
ATOM     50  C   UNL A   1      41.618  29.860  32.696  1.00  0.00     0.031 A 
ATOM     51  C   UNL A   1      44.123  25.402  28.984  1.00  0.00     0.049 A 
ATOM     52  C   UNL A   1      42.388  28.649  33.191  1.00  0.00     0.074 A 
ATOM     53  C   UNL A   1      45.220  26.245  29.040  1.00  0.00     0.029 A 
ATOM     54  N   UNL A   1      43.728  25.206  30.301  1.00  0.00    -0.354 N 
ATOM     55  N   UNL A   1      43.135  27.881  32.447  1.00  0.00    -0.248 NA
ATOM     56  C   UNL A   1      42.281  28.150  34.562  1.00  0.00     0.031 C 
ATOM     57  C   UNL A   1      45.465  26.566  30.410  1.00  0.00     0.029 A 
ATOM     58  C   UNL A   1      44.538  25.893  31.183  1.00  0.00     0.049 A 
ATOM     59  H   UNL A   1      42.965  24.645  30.573  1.00  0.00     0.167 HD
ATOM     60  C   UNL A   1      43.546  26.791  33.171  1.00  0.00     0.074 A 
ATOM     61  C   UNL A   1      42.982  27.007  34.492  1.00  0.00     0.031 C 
ATOM     62  C   UNL A   1      44.269  25.773  32.612  1.00  0.00     0.031 A 
BRANCH  49  63
ATOM     63  C   UNL A   1      43.770  24.102  26.728  1.00  0.00    -0.014 A 
ATOM     64  C   UNL A   1      43.368  22.766  26.558  1.00  0.00     0.009 A 
ATOM     65  C   UNL A   1      44.732  24.569  25.811  1.00  0.00     0.009 A 
ATOM     66  C   UNL A   1      43.909  21.948  25.553  1.00  0.00     0.001 A 
ATOM     67  C   UNL A   1      45.255  23.769  24.786  1.00  0.00     0.001 A 
ATOM     68  C   UNL A   1      44.851  22.451  24.664  1.00  0.00     0.000 A 
ENDBRANCH  49  63
BRANCH  50  69
ATOM     69  C   UNL A   1      40.268  30.261  33.190  1.00  0.00    -0.014 A 
ATOM     70  C   UNL A   1      39.985  31.635  33.332  1.00  0.00     0.009 A 
ATOM     71  C   UNL A   1      39.197  29.356  33.183  1.00  0.00     0.009 A 
ATOM     72  C   UNL A   1      38.666  32.097  33.346  1.00  0.00     0.001 A 
ATOM     73  C   UNL A   1      37.878  29.822  33.216  1.00  0.00     0.001 A 
ATOM     74  C   UNL A   1      37.612  31.191  33.259  1.00  0.00     0.000 A 
ENDBRANCH  50  69
BRANCH  62  75
ATOM     75  C   UNL A   1      44.741  24.524  33.328  1.00  0.00    -0.014 A 
ATOM     76  C   UNL A   1      43.921  23.431  33.640  1.00  0.00     0.009 A 
ATOM     77  C   UNL A   1      46.071  24.457  33.802  1.00  0.00     0.009 A 
ATOM     78  C   UNL A   1      44.427  22.301  34.301  1.00  0.00     0.001 A 
ATOM     79  C   UNL A   1      46.575  23.347  34.483  1.00  0.00     0.001 A 
ATOM     80  C   UNL A   1      45.755  22.255  34.715  1.00  0.00     0.000 A 
ENDBRANCH  62  75
ENDBRANCH  36  37
ENDBRANCH  28  31
ENDBRANCH  26  27
ENDBRANCH  25  26
ENDBRANCH   1  25
TORSDOF 14
ENDMDL
