MODEL 1
REMARK VINA RESULT:     -12.4      0.000      0.000
REMARK SMILES O=C(NCCCCNC(=O)c1cccnc1C(=O)Nc1ccc([N+](=O)[O-])cc1)c1ccc(-c2c3nc(c(-c4ccccc4)c4ccc([nH]4)c(-c4ccccc4)c4nc(c(-c5ccccc5)c5ccc2[nH]5)C=C4)C=C3)cc1
REMARK SMILES IDX 6 1 5 2 4 3 3 4 1 5 2 6 29 8 30 9 76 10 31 11 75 12 32 13
REMARK SMILES IDX 33 14 34 15 69 16 35 17 74 18 68 19 70 20 36 21 73 22 67 23
REMARK SMILES IDX 66 24 37 26 59 27 44 28 58 29 45 30 48 31 57 32 71 33 46 34
REMARK SMILES IDX 47 35 56 37 72 38 49 39 38 40 39 41 43 42 40 43 42 44 41 45
REMARK SMILES IDX 60 46 61 47 65 48 62 49 64 50 63 51 50 52 51 53 55 54 52 55
REMARK SMILES IDX 54 56 53 57 7 58 8 59 9 60 10 62 11 63 12 64 16 65 13 66
REMARK SMILES IDX 15 67 14 68 17 69 18 70 19 71 20 73 21 74 28 75 22 76 27 77
REMARK SMILES IDX 23 78 24 79 25 80 26 81
REMARK H PARENT 3 7 70 25 48 36 8 61 19 72
REMARK Flexibility Score: inf
ROOT
ATOM      1  C   UNL A   1      31.380  27.157  26.432  1.00  0.00     0.023 C 
ENDROOT
BRANCH   1   2
ATOM      2  C   UNL A   1      32.059  27.955  27.554  1.00  0.00     0.023 C 
BRANCH   2   3
ATOM      3  C   UNL A   1      33.416  28.591  27.277  1.00  0.00     0.116 C 
BRANCH   3   4
ATOM      4  N   UNL A   1      33.417  30.016  27.547  1.00  0.00    -0.352 N 
ATOM      5  O   UNL A   1      34.152  31.930  28.478  1.00  0.00    -0.269 OA
ATOM      6  C   UNL A   1      34.402  30.780  28.134  1.00  0.00     0.251 C 
ATOM      7  H   UNL A   1      32.606  30.503  27.276  1.00  0.00     0.163 HD
BRANCH   6   8
ATOM      8  C   UNL A   1      35.758  30.223  28.367  1.00  0.00     0.039 A 
ATOM      9  C   UNL A   1      36.744  30.266  27.377  1.00  0.00     0.014 A 
ATOM     10  C   UNL A   1      36.068  29.708  29.631  1.00  0.00     0.014 A 
ATOM     11  C   UNL A   1      38.006  29.725  27.623  1.00  0.00     0.010 A 
ATOM     12  C   UNL A   1      37.353  29.222  29.897  1.00  0.00     0.010 A 
ATOM     13  C   UNL A   1      38.334  29.219  28.892  1.00  0.00    -0.014 A 
BRANCH  13  14
ATOM     14  C   UNL A   1      39.725  28.783  29.186  1.00  0.00     0.031 A 
ATOM     15  C   UNL A   1      40.701  29.686  29.889  1.00  0.00     0.074 A 
ATOM     16  C   UNL A   1      40.118  27.556  28.792  1.00  0.00     0.049 A 
ATOM     17  N   UNL A   1      41.952  29.460  30.205  1.00  0.00    -0.248 NA
ATOM     18  C   UNL A   1      40.214  31.017  30.280  1.00  0.00     0.031 C 
ATOM     19  C   UNL A   1      39.274  26.586  28.088  1.00  0.00     0.029 A 
ATOM     20  N   UNL A   1      41.321  26.909  28.930  1.00  0.00    -0.354 N 
ATOM     21  C   UNL A   1      42.407  30.621  30.820  1.00  0.00     0.074 A 
ATOM     22  C   UNL A   1      41.304  31.560  30.807  1.00  0.00     0.031 C 
ATOM     23  C   UNL A   1      39.974  25.460  27.886  1.00  0.00     0.029 A 
ATOM     24  C   UNL A   1      41.329  25.646  28.392  1.00  0.00     0.049 A 
ATOM     25  H   UNL A   1      42.103  27.314  29.371  1.00  0.00     0.167 HD
ATOM     26  C   UNL A   1      43.628  30.877  31.350  1.00  0.00     0.031 A 
ATOM     27  C   UNL A   1      42.319  24.738  28.298  1.00  0.00     0.031 A 
ATOM     28  C   UNL A   1      44.728  29.947  31.355  1.00  0.00     0.049 A 
ATOM     29  C   UNL A   1      43.674  25.066  28.856  1.00  0.00     0.074 A 
ATOM     30  C   UNL A   1      45.990  30.107  31.902  1.00  0.00     0.029 A 
ATOM     31  N   UNL A   1      44.703  28.687  30.777  1.00  0.00    -0.354 N 
ATOM     32  N   UNL A   1      44.070  26.150  29.477  1.00  0.00    -0.248 NA
ATOM     33  C   UNL A   1      44.716  24.042  28.701  1.00  0.00     0.031 C 
ATOM     34  C   UNL A   1      46.746  28.968  31.605  1.00  0.00     0.029 A 
ATOM     35  C   UNL A   1      45.936  28.072  30.927  1.00  0.00     0.049 A 
ATOM     36  H   UNL A   1      43.924  28.288  30.324  1.00  0.00     0.167 HD
ATOM     37  C   UNL A   1      45.400  25.929  29.808  1.00  0.00     0.074 A 
ATOM     38  C   UNL A   1      45.736  24.601  29.335  1.00  0.00     0.031 C 
ATOM     39  C   UNL A   1      46.263  26.754  30.448  1.00  0.00     0.031 A 
BRANCH  26  40
ATOM     40  C   UNL A   1      43.853  32.237  31.955  1.00  0.00    -0.014 A 
ATOM     41  C   UNL A   1      43.565  32.492  33.305  1.00  0.00     0.009 A 
ATOM     42  C   UNL A   1      44.412  33.263  31.177  1.00  0.00     0.009 A 
ATOM     43  C   UNL A   1      43.802  33.755  33.853  1.00  0.00     0.001 A 
ATOM     44  C   UNL A   1      44.676  34.515  31.734  1.00  0.00     0.001 A 
ATOM     45  C   UNL A   1      44.362  34.765  33.069  1.00  0.00     0.000 A 
ENDBRANCH  26  40
BRANCH  27  46
ATOM     46  C   UNL A   1      42.064  23.432  27.637  1.00  0.00    -0.014 A 
ATOM     47  C   UNL A   1      41.501  22.366  28.354  1.00  0.00     0.009 A 
ATOM     48  C   UNL A   1      42.379  23.248  26.281  1.00  0.00     0.009 A 
ATOM     49  C   UNL A   1      41.280  21.134  27.732  1.00  0.00     0.001 A 
ATOM     50  C   UNL A   1      42.127  22.025  25.654  1.00  0.00     0.001 A 
ATOM     51  C   UNL A   1      41.587  20.968  26.382  1.00  0.00     0.000 A 
ENDBRANCH  27  46
BRANCH  39  52
ATOM     52  C   UNL A   1      47.648  26.229  30.704  1.00  0.00    -0.014 A 
ATOM     53  C   UNL A   1      48.636  26.255  29.706  1.00  0.00     0.009 A 
ATOM     54  C   UNL A   1      47.976  25.725  31.972  1.00  0.00     0.009 A 
ATOM     55  C   UNL A   1      49.914  25.754  29.964  1.00  0.00     0.001 A 
ATOM     56  C   UNL A   1      49.263  25.252  32.236  1.00  0.00     0.001 A 
ATOM     57  C   UNL A   1      50.226  25.257  31.229  1.00  0.00     0.000 A 
ENDBRANCH  39  52
ENDBRANCH  13  14
ENDBRANCH   6   8
ENDBRANCH   3   4
ENDBRANCH   2   3
ENDBRANCH   1   2
BRANCH   1  58
ATOM     58  C   UNL A   1      31.810  25.715  26.162  1.00  0.00     0.116 C 
BRANCH  58  59
ATOM     59  N   UNL A   1      30.840  24.677  26.498  1.00  0.00    -0.352 N 
ATOM     60  C   UNL A   1      31.020  23.329  26.775  1.00  0.00     0.253 C 
ATOM     61  H   UNL A   1      29.905  24.983  26.536  1.00  0.00     0.163 HD
ATOM     62  O   UNL A   1      30.119  22.669  27.274  1.00  0.00    -0.269 OA
BRANCH  60  63
ATOM     63  C   UNL A   1      32.340  22.724  26.596  1.00  0.00     0.071 A 
ATOM     64  C   UNL A   1      33.119  22.749  27.776  1.00  0.00     0.018 A 
ATOM     65  C   UNL A   1      32.855  22.099  25.462  1.00  0.00     0.141 A 
ATOM     66  C   UNL A   1      34.415  22.263  27.788  1.00  0.00     0.021 A 
ATOM     67  N   UNL A   1      34.165  21.670  25.485  1.00  0.00    -0.250 NA
ATOM     68  C   UNL A   1      34.901  21.752  26.613  1.00  0.00     0.112 A 
BRANCH  65  69
ATOM     69  C   UNL A   1      32.205  21.607  24.164  1.00  0.00     0.275 C 
ATOM     70  O   UNL A   1      31.555  22.426  23.495  1.00  0.00    -0.267 OA
ATOM     71  N   UNL A   1      32.416  20.415  23.514  1.00  0.00    -0.321 N 
ATOM     72  H   UNL A   1      32.475  20.514  22.537  1.00  0.00     0.170 HD
BRANCH  71  73
ATOM     73  C   UNL A   1      32.564  19.103  23.940  1.00  0.00     0.042 A 
ATOM     74  C   UNL A   1      32.930  18.154  22.974  1.00  0.00     0.033 A 
ATOM     75  C   UNL A   1      32.365  18.722  25.262  1.00  0.00     0.033 A 
ATOM     76  C   UNL A   1      33.344  16.882  23.368  1.00  0.00     0.088 A 
ATOM     77  C   UNL A   1      32.732  17.435  25.653  1.00  0.00     0.088 A 
ATOM     78  C   UNL A   1      33.307  16.564  24.724  1.00  0.00     0.269 A 
BRANCH  78  79
ATOM     79  N   UNL A   1      33.999  15.378  25.214  1.00  0.00     0.062 N 
ATOM     80  O   UNL A   1      33.316  14.398  25.529  1.00  0.00    -0.258 OA
ATOM     81  O   UNL A   1      35.241  15.434  25.261  1.00  0.00    -0.258 OA
ENDBRANCH  78  79
ENDBRANCH  71  73
ENDBRANCH  65  69
ENDBRANCH  60  63
ENDBRANCH  58  59
ENDBRANCH   1  58
TORSDOF 14
ENDMDL
MODEL 2
REMARK VINA RESULT:     -12.2      2.570      7.088
REMARK SMILES O=C(NCCCCNC(=O)c1cccnc1C(=O)Nc1ccc([N+](=O)[O-])cc1)c1ccc(-c2c3nc(c(-c4ccccc4)c4ccc([nH]4)c(-c4ccccc4)c4nc(c(-c5ccccc5)c5ccc2[nH]5)C=C4)C=C3)cc1
REMARK SMILES IDX 6 1 5 2 4 3 3 4 1 5 2 6 29 8 30 9 76 10 31 11 75 12 32 13
REMARK SMILES IDX 33 14 34 15 69 16 35 17 74 18 68 19 70 20 36 21 73 22 67 23
REMARK SMILES IDX 66 24 37 26 59 27 44 28 58 29 45 30 48 31 57 32 71 33 46 34
REMARK SMILES IDX 47 35 56 37 72 38 49 39 38 40 39 41 43 42 40 43 42 44 41 45
REMARK SMILES IDX 60 46 61 47 65 48 62 49 64 50 63 51 50 52 51 53 55 54 52 55
REMARK SMILES IDX 54 56 53 57 7 58 8 59 9 60 10 62 11 63 12 64 16 65 13 66
REMARK SMILES IDX 15 67 14 68 17 69 18 70 19 71 20 73 21 74 28 75 22 76 27 77
REMARK SMILES IDX 23 78 24 79 25 80 26 81
REMARK H PARENT 3 7 70 25 48 36 8 61 19 72
REMARK Flexibility Score: inf
ROOT
ATOM      1  C   UNL A   1      37.000  20.431  24.756  1.00  0.00     0.023 C 
ENDROOT
BRANCH   1   2
ATOM      2  C   UNL A   1      38.165  19.464  25.012  1.00  0.00     0.023 C 
BRANCH   2   3
ATOM      3  C   UNL A   1      39.296  19.913  25.931  1.00  0.00     0.116 C 
BRANCH   3   4
ATOM      4  N   UNL A   1      40.376  18.946  25.979  1.00  0.00    -0.352 N 
ATOM      5  O   UNL A   1      42.518  18.254  25.927  1.00  0.00    -0.269 OA
ATOM      6  C   UNL A   1      41.727  19.172  26.119  1.00  0.00     0.251 C 
ATOM      7  H   UNL A   1      40.108  18.002  25.901  1.00  0.00     0.163 HD
BRANCH   6   8
ATOM      8  C   UNL A   1      42.239  20.516  26.486  1.00  0.00     0.039 A 
ATOM      9  C   UNL A   1      42.704  21.409  25.517  1.00  0.00     0.014 A 
ATOM     10  C   UNL A   1      42.185  20.916  27.827  1.00  0.00     0.014 A 
ATOM     11  C   UNL A   1      43.188  22.662  25.894  1.00  0.00     0.010 A 
ATOM     12  C   UNL A   1      42.614  22.196  28.197  1.00  0.00     0.010 A 
ATOM     13  C   UNL A   1      43.126  23.080  27.234  1.00  0.00    -0.014 A 
BRANCH  13  14
ATOM     14  C   UNL A   1      43.506  24.470  27.601  1.00  0.00     0.031 A 
ATOM     15  C   UNL A   1      42.471  25.499  27.963  1.00  0.00     0.074 A 
ATOM     16  C   UNL A   1      44.810  24.812  27.588  1.00  0.00     0.049 A 
ATOM     17  N   UNL A   1      42.639  26.757  28.292  1.00  0.00    -0.248 NA
ATOM     18  C   UNL A   1      41.066  25.066  27.945  1.00  0.00     0.031 C 
ATOM     19  C   UNL A   1      45.914  23.913  27.241  1.00  0.00     0.029 A 
ATOM     20  N   UNL A   1      45.430  26.002  27.876  1.00  0.00    -0.354 N 
ATOM     21  C   UNL A   1      41.365  27.268  28.508  1.00  0.00     0.074 A 
ATOM     22  C   UNL A   1      40.432  26.192  28.246  1.00  0.00     0.031 C 
ATOM     23  C   UNL A   1      47.075  24.573  27.368  1.00  0.00     0.029 A 
ATOM     24  C   UNL A   1      46.796  25.953  27.749  1.00  0.00     0.049 A 
ATOM     25  H   UNL A   1      44.941  26.813  28.147  1.00  0.00     0.167 HD
ATOM     26  C   UNL A   1      41.007  28.517  28.895  1.00  0.00     0.031 A 
ATOM     27  C   UNL A   1      47.728  26.913  27.904  1.00  0.00     0.031 A 
ATOM     28  C   UNL A   1      41.934  29.591  29.148  1.00  0.00     0.049 A 
ATOM     29  C   UNL A   1      47.299  28.299  28.290  1.00  0.00     0.074 A 
ATOM     30  C   UNL A   1      41.665  30.879  29.578  1.00  0.00     0.029 A 
ATOM     31  N   UNL A   1      43.308  29.507  28.982  1.00  0.00    -0.354 N 
ATOM     32  N   UNL A   1      46.094  28.751  28.539  1.00  0.00    -0.248 NA
ATOM     33  C   UNL A   1      48.361  29.305  28.422  1.00  0.00     0.031 C 
ATOM     34  C   UNL A   1      42.868  31.591  29.618  1.00  0.00     0.029 A 
ATOM     35  C   UNL A   1      43.895  30.729  29.272  1.00  0.00     0.049 A 
ATOM     36  H   UNL A   1      43.795  28.699  28.698  1.00  0.00     0.167 HD
ATOM     37  C   UNL A   1      46.254  30.087  28.878  1.00  0.00     0.074 A 
ATOM     38  C   UNL A   1      47.675  30.366  28.821  1.00  0.00     0.031 C 
ATOM     39  C   UNL A   1      45.309  30.999  29.207  1.00  0.00     0.031 A 
BRANCH  26  40
ATOM     40  C   UNL A   1      39.538  28.804  29.049  1.00  0.00    -0.014 A 
ATOM     41  C   UNL A   1      38.876  28.592  30.269  1.00  0.00     0.009 A 
ATOM     42  C   UNL A   1      38.817  29.347  27.974  1.00  0.00     0.009 A 
ATOM     43  C   UNL A   1      37.517  28.887  30.397  1.00  0.00     0.001 A 
ATOM     44  C   UNL A   1      37.465  29.668  28.113  1.00  0.00     0.001 A 
ATOM     45  C   UNL A   1      36.813  29.429  29.321  1.00  0.00     0.000 A 
ENDBRANCH  26  40
BRANCH  27  46
ATOM     46  C   UNL A   1      49.162  26.595  27.681  1.00  0.00    -0.014 A 
ATOM     47  C   UNL A   1      49.720  26.676  26.398  1.00  0.00     0.009 A 
ATOM     48  C   UNL A   1      49.981  26.212  28.756  1.00  0.00     0.009 A 
ATOM     49  C   UNL A   1      51.066  26.359  26.190  1.00  0.00     0.001 A 
ATOM     50  C   UNL A   1      51.333  25.926  28.551  1.00  0.00     0.001 A 
ATOM     51  C   UNL A   1      51.871  25.991  27.267  1.00  0.00     0.000 A 
ENDBRANCH  27  46
BRANCH  39  52
ATOM     52  C   UNL A   1      45.784  32.379  29.565  1.00  0.00    -0.014 A 
ATOM     53  C   UNL A   1      46.121  32.716  30.886  1.00  0.00     0.009 A 
ATOM     54  C   UNL A   1      45.922  33.350  28.560  1.00  0.00     0.009 A 
ATOM     55  C   UNL A   1      46.552  34.007  31.197  1.00  0.00     0.001 A 
ATOM     56  C   UNL A   1      46.382  34.631  28.869  1.00  0.00     0.001 A 
ATOM     57  C   UNL A   1      46.686  34.961  30.189  1.00  0.00     0.000 A 
ENDBRANCH  39  52
ENDBRANCH  13  14
ENDBRANCH   6   8
ENDBRANCH   3   4
ENDBRANCH   2   3
ENDBRANCH   1   2
BRANCH   1  58
ATOM     58  C   UNL A   1      37.279  21.926  24.600  1.00  0.00     0.116 C 
BRANCH  58  59
ATOM     59  N   UNL A   1      36.502  22.625  23.579  1.00  0.00    -0.352 N 
ATOM     60  C   UNL A   1      35.200  23.102  23.606  1.00  0.00     0.253 C 
ATOM     61  H   UNL A   1      36.980  22.784  22.734  1.00  0.00     0.163 HD
ATOM     62  O   UNL A   1      34.800  23.875  22.746  1.00  0.00    -0.269 OA
BRANCH  60  63
ATOM     63  C   UNL A   1      34.337  22.786  24.745  1.00  0.00     0.071 A 
ATOM     64  C   UNL A   1      34.723  23.459  25.927  1.00  0.00     0.018 A 
ATOM     65  C   UNL A   1      33.196  21.986  24.767  1.00  0.00     0.141 A 
ATOM     66  C   UNL A   1      34.052  23.251  27.121  1.00  0.00     0.021 A 
ATOM     67  N   UNL A   1      32.578  21.755  25.977  1.00  0.00    -0.250 NA
ATOM     68  C   UNL A   1      32.999  22.373  27.100  1.00  0.00     0.112 A 
BRANCH  65  69
ATOM     69  C   UNL A   1      32.324  21.395  23.654  1.00  0.00     0.275 C 
ATOM     70  O   UNL A   1      31.595  22.170  23.016  1.00  0.00    -0.267 OA
ATOM     71  N   UNL A   1      32.389  20.134  23.111  1.00  0.00    -0.321 N 
ATOM     72  H   UNL A   1      32.285  20.130  22.132  1.00  0.00     0.170 HD
BRANCH  71  73
ATOM     73  C   UNL A   1      32.568  18.867  23.647  1.00  0.00     0.042 A 
ATOM     74  C   UNL A   1      32.961  17.849  22.764  1.00  0.00     0.033 A 
ATOM     75  C   UNL A   1      32.375  18.594  24.996  1.00  0.00     0.033 A 
ATOM     76  C   UNL A   1      33.406  16.626  23.265  1.00  0.00     0.088 A 
ATOM     77  C   UNL A   1      32.773  17.355  25.494  1.00  0.00     0.088 A 
ATOM     78  C   UNL A   1      33.373  16.423  24.643  1.00  0.00     0.269 A 
BRANCH  78  79
ATOM     79  N   UNL A   1      34.093  15.301  25.232  1.00  0.00     0.062 N 
ATOM     80  O   UNL A   1      33.446  14.293  25.536  1.00  0.00    -0.258 OA
ATOM     81  O   UNL A   1      35.322  15.435  25.370  1.00  0.00    -0.258 OA
ENDBRANCH  78  79
ENDBRANCH  71  73
ENDBRANCH  65  69
ENDBRANCH  60  63
ENDBRANCH  58  59
ENDBRANCH   1  58
TORSDOF 14
ENDMDL
MODEL 3
REMARK VINA RESULT:     -12.2      2.094      7.136
REMARK SMILES O=C(NCCCCNC(=O)c1cccnc1C(=O)Nc1ccc([N+](=O)[O-])cc1)c1ccc(-c2c3nc(c(-c4ccccc4)c4ccc([nH]4)c(-c4ccccc4)c4nc(c(-c5ccccc5)c5ccc2[nH]5)C=C4)C=C3)cc1
REMARK SMILES IDX 6 1 5 2 4 3 3 4 1 5 2 6 29 8 30 9 76 10 31 11 75 12 32 13
REMARK SMILES IDX 33 14 34 15 69 16 35 17 74 18 68 19 70 20 36 21 73 22 67 23
REMARK SMILES IDX 66 24 37 26 59 27 44 28 58 29 45 30 48 31 57 32 71 33 46 34
REMARK SMILES IDX 47 35 56 37 72 38 49 39 38 40 39 41 43 42 40 43 42 44 41 45
REMARK SMILES IDX 60 46 61 47 65 48 62 49 64 50 63 51 50 52 51 53 55 54 52 55
REMARK SMILES IDX 54 56 53 57 7 58 8 59 9 60 10 62 11 63 12 64 16 65 13 66
REMARK SMILES IDX 15 67 14 68 17 69 18 70 19 71 20 73 21 74 28 75 22 76 27 77
REMARK SMILES IDX 23 78 24 79 25 80 26 81
REMARK H PARENT 3 7 70 25 48 36 8 61 19 72
REMARK Flexibility Score: inf
ROOT
ATOM      1  C   UNL A   1      37.171  20.196  24.675  1.00  0.00     0.023 C 
ENDROOT
BRANCH   1   2
ATOM      2  C   UNL A   1      38.311  19.229  25.023  1.00  0.00     0.023 C 
BRANCH   2   3
ATOM      3  C   UNL A   1      39.334  19.656  26.070  1.00  0.00     0.116 C 
BRANCH   3   4
ATOM      4  N   UNL A   1      40.628  19.039  25.853  1.00  0.00    -0.352 N 
ATOM      5  O   UNL A   1      42.852  18.999  25.499  1.00  0.00    -0.269 OA
ATOM      6  C   UNL A   1      41.878  19.615  25.919  1.00  0.00     0.251 C 
ATOM      7  H   UNL A   1      40.612  18.081  25.627  1.00  0.00     0.163 HD
BRANCH   6   8
ATOM      8  C   UNL A   1      42.058  20.977  26.480  1.00  0.00     0.039 A 
ATOM      9  C   UNL A   1      42.030  21.208  27.859  1.00  0.00     0.014 A 
ATOM     10  C   UNL A   1      42.330  22.037  25.607  1.00  0.00     0.014 A 
ATOM     11  C   UNL A   1      42.193  22.501  28.355  1.00  0.00     0.010 A 
ATOM     12  C   UNL A   1      42.554  23.323  26.110  1.00  0.00     0.010 A 
ATOM     13  C   UNL A   1      42.481  23.570  27.489  1.00  0.00    -0.014 A 
BRANCH  13  14
ATOM     14  C   UNL A   1      42.799  24.914  28.042  1.00  0.00     0.031 A 
ATOM     15  C   UNL A   1      44.203  25.293  28.427  1.00  0.00     0.074 A 
ATOM     16  C   UNL A   1      41.798  25.798  28.216  1.00  0.00     0.049 A 
ATOM     17  N   UNL A   1      44.641  26.419  28.936  1.00  0.00    -0.248 NA
ATOM     18  C   UNL A   1      45.247  24.279  28.225  1.00  0.00     0.031 C 
ATOM     19  C   UNL A   1      40.389  25.551  27.896  1.00  0.00     0.029 A 
ATOM     20  N   UNL A   1      41.807  27.083  28.699  1.00  0.00    -0.354 N 
ATOM     21  C   UNL A   1      46.007  26.245  29.125  1.00  0.00     0.074 A 
ATOM     22  C   UNL A   1      46.320  24.896  28.704  1.00  0.00     0.031 C 
ATOM     23  C   UNL A   1      39.678  26.657  28.160  1.00  0.00     0.029 A 
ATOM     24  C   UNL A   1      40.566  27.670  28.719  1.00  0.00     0.049 A 
ATOM     25  H   UNL A   1      42.625  27.539  29.001  1.00  0.00     0.167 HD
ATOM     26  C   UNL A   1      46.916  27.131  29.602  1.00  0.00     0.031 A 
ATOM     27  C   UNL A   1      40.174  28.883  29.154  1.00  0.00     0.031 A 
ATOM     28  C   UNL A   1      46.605  28.471  30.031  1.00  0.00     0.049 A 
ATOM     29  C   UNL A   1      41.197  29.827  29.718  1.00  0.00     0.074 A 
ATOM     30  C   UNL A   1      47.467  29.450  30.493  1.00  0.00     0.029 A 
ATOM     31  N   UNL A   1      45.331  29.017  30.060  1.00  0.00    -0.354 N 
ATOM     32  N   UNL A   1      42.491  29.663  29.843  1.00  0.00    -0.248 NA
ATOM     33  C   UNL A   1      40.702  31.125  30.195  1.00  0.00     0.031 C 
ATOM     34  C   UNL A   1      46.709  30.569  30.856  1.00  0.00     0.029 A 
ATOM     35  C   UNL A   1      45.381  30.308  30.561  1.00  0.00     0.049 A 
ATOM     36  H   UNL A   1      44.511  28.555  29.769  1.00  0.00     0.167 HD
ATOM     37  C   UNL A   1      42.969  30.845  30.392  1.00  0.00     0.074 A 
ATOM     38  C   UNL A   1      41.828  31.722  30.558  1.00  0.00     0.031 C 
ATOM     39  C   UNL A   1      44.240  31.172  30.729  1.00  0.00     0.031 A 
BRANCH  26  40
ATOM     40  C   UNL A   1      48.345  26.672  29.710  1.00  0.00    -0.014 A 
ATOM     41  C   UNL A   1      49.286  26.969  28.711  1.00  0.00     0.009 A 
ATOM     42  C   UNL A   1      48.771  25.978  30.855  1.00  0.00     0.009 A 
ATOM     43  C   UNL A   1      50.613  26.552  28.842  1.00  0.00     0.001 A 
ATOM     44  C   UNL A   1      50.103  25.589  30.997  1.00  0.00     0.001 A 
ATOM     45  C   UNL A   1      51.022  25.867  29.986  1.00  0.00     0.000 A 
ENDBRANCH  26  40
BRANCH  27  46
ATOM     46  C   UNL A   1      38.741  29.267  29.082  1.00  0.00    -0.014 A 
ATOM     47  C   UNL A   1      38.208  29.822  27.909  1.00  0.00     0.009 A 
ATOM     48  C   UNL A   1      37.897  29.076  30.188  1.00  0.00     0.009 A 
ATOM     49  C   UNL A   1      36.863  30.198  27.853  1.00  0.00     0.001 A 
ATOM     50  C   UNL A   1      36.547  29.424  30.118  1.00  0.00     0.001 A 
ATOM     51  C   UNL A   1      36.033  29.992  28.954  1.00  0.00     0.000 A 
ENDBRANCH  27  46
BRANCH  39  52
ATOM     52  C   UNL A   1      44.469  32.552  31.278  1.00  0.00    -0.014 A 
ATOM     53  C   UNL A   1      44.730  33.642  30.431  1.00  0.00     0.009 A 
ATOM     54  C   UNL A   1      44.396  32.769  32.663  1.00  0.00     0.009 A 
ATOM     55  C   UNL A   1      44.948  34.913  30.965  1.00  0.00     0.001 A 
ATOM     56  C   UNL A   1      44.585  34.047  33.191  1.00  0.00     0.001 A 
ATOM     57  C   UNL A   1      44.872  35.115  32.342  1.00  0.00     0.000 A 
ENDBRANCH  39  52
ENDBRANCH  13  14
ENDBRANCH   6   8
ENDBRANCH   3   4
ENDBRANCH   2   3
ENDBRANCH   1   2
BRANCH   1  58
ATOM     58  C   UNL A   1      37.448  21.697  24.598  1.00  0.00     0.116 C 
BRANCH  58  59
ATOM     59  N   UNL A   1      36.648  22.453  23.638  1.00  0.00    -0.352 N 
ATOM     60  C   UNL A   1      35.359  22.957  23.737  1.00  0.00     0.253 C 
ATOM     61  H   UNL A   1      37.095  22.636  22.780  1.00  0.00     0.163 HD
ATOM     62  O   UNL A   1      34.943  23.773  22.926  1.00  0.00    -0.269 OA
BRANCH  60  63
ATOM     63  C   UNL A   1      34.535  22.615  24.897  1.00  0.00     0.071 A 
ATOM     64  C   UNL A   1      34.992  23.221  26.090  1.00  0.00     0.018 A 
ATOM     65  C   UNL A   1      33.372  21.849  24.933  1.00  0.00     0.141 A 
ATOM     66  C   UNL A   1      34.366  22.978  27.302  1.00  0.00     0.021 A 
ATOM     67  N   UNL A   1      32.798  21.580  26.158  1.00  0.00    -0.250 NA
ATOM     68  C   UNL A   1      33.286  22.133  27.287  1.00  0.00     0.112 A 
BRANCH  65  69
ATOM     69  C   UNL A   1      32.435  21.336  23.834  1.00  0.00     0.275 C 
ATOM     70  O   UNL A   1      31.691  22.157  23.277  1.00  0.00    -0.267 OA
ATOM     71  N   UNL A   1      32.450  20.107  23.219  1.00  0.00    -0.321 N 
ATOM     72  H   UNL A   1      32.299  20.159  22.248  1.00  0.00     0.170 HD
BRANCH  71  73
ATOM     73  C   UNL A   1      32.631  18.808  23.673  1.00  0.00     0.042 A 
ATOM     74  C   UNL A   1      33.225  17.897  22.787  1.00  0.00     0.033 A 
ATOM     75  C   UNL A   1      32.252  18.406  24.949  1.00  0.00     0.033 A 
ATOM     76  C   UNL A   1      33.670  16.661  23.253  1.00  0.00     0.088 A 
ATOM     77  C   UNL A   1      32.653  17.150  25.404  1.00  0.00     0.088 A 
ATOM     78  C   UNL A   1      33.439  16.334  24.587  1.00  0.00     0.269 A 
BRANCH  78  79
ATOM     79  N   UNL A   1      34.136  15.205  25.192  1.00  0.00     0.062 N 
ATOM     80  O   UNL A   1      33.456  14.259  25.606  1.00  0.00    -0.258 OA
ATOM     81  O   UNL A   1      35.377  15.269  25.232  1.00  0.00    -0.258 OA
ENDBRANCH  78  79
ENDBRANCH  71  73
ENDBRANCH  65  69
ENDBRANCH  60  63
ENDBRANCH  58  59
ENDBRANCH   1  58
TORSDOF 14
ENDMDL
