MODEL 1
REMARK VINA RESULT:     -12.1      0.000      0.000
REMARK SMILES Cc1ccc2c(CC(=O)N3CCC(C(=O)NCCCCNC(=O)c4ccc(-c5c6nc(c(-c7ccccc7)c7ccc([nH]7)c(-c7ccccc7)c7nc(c(-c8ccccc8)c8ccc5[nH]8)C=C7)C=C6)cc4)CC3)coc2c1
REMARK SMILES IDX 18 1 17 2 16 3 14 4 15 5 13 7 8 8 9 9 10 10 11 11 73 12
REMARK SMILES IDX 12 13 72 14 7 15 6 16 1 17 2 18 3 19 77 20 4 21 76 22 5 23
REMARK SMILES IDX 75 24 74 25 19 26 20 27 21 28 22 29 23 31 24 32 25 33 71 34
REMARK SMILES IDX 26 35 70 36 27 37 28 38 29 39 64 40 30 41 69 42 63 43 65 44
REMARK SMILES IDX 31 45 68 46 62 47 61 48 32 50 54 51 39 52 53 53 40 54 43 55
REMARK SMILES IDX 52 56 66 57 41 58 42 59 51 61 67 62 44 63 33 64 34 65 38 66
REMARK SMILES IDX 35 67 37 68 36 69 55 70 56 71 60 72 57 73 59 74 58 75 45 76
REMARK SMILES IDX 46 77 50 78 47 79 49 80 48 81
REMARK H PARENT 16 6 21 30 65 49 43 60
REMARK Flexibility Score: inf
ROOT
ATOM      1  C   UNL A   1      33.165  30.057  27.380  1.00  0.00     0.023 C 
ENDROOT
BRANCH   1   2
ATOM      2  C   UNL A   1      32.427  30.442  26.101  1.00  0.00     0.116 C 
BRANCH   2   3
ATOM      3  N   UNL A   1      32.971  29.765  24.937  1.00  0.00    -0.356 N 
ATOM      4  C   UNL A   1      32.717  28.529  24.420  1.00  0.00     0.223 C 
ATOM      5  O   UNL A   1      33.311  28.201  23.398  1.00  0.00    -0.275 OA
ATOM      6  H   UNL A   1      33.639  30.287  24.436  1.00  0.00     0.163 HD
BRANCH   4   7
ATOM      7  C   UNL A   1      31.709  27.586  25.064  1.00  0.00     0.082 C 
ATOM      8  C   UNL A   1      30.995  23.677  24.622  1.00  0.00     0.227 C 
ATOM      9  O   UNL A   1      30.925  23.581  23.391  1.00  0.00    -0.275 OA
ATOM     10  N   UNL A   1      30.732  24.888  25.253  1.00  0.00    -0.342 N 
ATOM     11  C   UNL A   1      29.891  25.869  24.582  1.00  0.00     0.120 C 
ATOM     12  C   UNL A   1      31.471  25.427  26.386  1.00  0.00     0.120 C 
ATOM     13  C   UNL A   1      30.694  27.043  24.047  1.00  0.00     0.035 C 
ATOM     14  C   UNL A   1      32.420  26.524  25.917  1.00  0.00     0.035 C 
BRANCH   8  15
ATOM     15  C   UNL A   1      31.120  22.406  25.463  1.00  0.00     0.139 C 
BRANCH  15  16
ATOM     16  C   UNL A   1      32.342  21.584  25.267  1.00  0.00     0.008 A 
ATOM     17  C   UNL A   1      37.984  22.275  25.639  1.00  0.00     0.044 C 
ATOM     18  C   UNL A   1      36.487  22.148  25.647  1.00  0.00    -0.047 A 
ATOM     19  C   UNL A   1      35.693  23.178  26.172  1.00  0.00     0.004 A 
ATOM     20  C   UNL A   1      35.889  20.987  25.127  1.00  0.00     0.051 A 
ATOM     21  C   UNL A   1      34.294  23.103  26.150  1.00  0.00     0.012 A 
ATOM     22  C   UNL A   1      34.496  20.945  25.113  1.00  0.00     0.134 A 
ATOM     23  C   UNL A   1      33.684  21.967  25.586  1.00  0.00     0.024 A 
ATOM     24  O   UNL A   1      33.734  19.933  24.614  1.00  0.00    -0.464 OA
ATOM     25  C   UNL A   1      32.435  20.318  24.723  1.00  0.00     0.200 A 
ENDBRANCH  15  16
ENDBRANCH   8  15
ENDBRANCH   4   7
ENDBRANCH   2   3
ENDBRANCH   1   2
BRANCH   1  26
ATOM     26  C   UNL A   1      34.531  30.726  27.559  1.00  0.00     0.023 C 
BRANCH  26  27
ATOM     27  C   UNL A   1      34.479  32.166  28.075  1.00  0.00     0.116 C 
BRANCH  27  28
ATOM     28  N   UNL A   1      34.506  32.278  29.520  1.00  0.00    -0.352 N 
ATOM     29  C   UNL A   1      35.365  31.870  30.501  1.00  0.00     0.251 C 
ATOM     30  H   UNL A   1      33.724  32.758  29.876  1.00  0.00     0.163 HD
ATOM     31  O   UNL A   1      35.120  32.274  31.639  1.00  0.00    -0.269 OA
BRANCH  29  32
ATOM     32  C   UNL A   1      36.516  30.946  30.304  1.00  0.00     0.039 A 
ATOM     33  C   UNL A   1      36.480  29.562  30.464  1.00  0.00     0.014 A 
ATOM     34  C   UNL A   1      37.748  31.553  29.991  1.00  0.00     0.014 A 
ATOM     35  C   UNL A   1      37.650  28.816  30.420  1.00  0.00     0.010 A 
ATOM     36  C   UNL A   1      38.922  30.808  29.922  1.00  0.00     0.010 A 
ATOM     37  C   UNL A   1      38.875  29.444  30.187  1.00  0.00    -0.014 A 
BRANCH  37  38
ATOM     38  C   UNL A   1      40.061  28.596  30.165  1.00  0.00     0.031 A 
ATOM     39  C   UNL A   1      40.769  28.440  31.469  1.00  0.00     0.074 A 
ATOM     40  C   UNL A   1      40.468  27.914  29.078  1.00  0.00     0.049 A 
ATOM     41  N   UNL A   1      42.001  28.711  31.753  1.00  0.00    -0.248 NA
ATOM     42  C   UNL A   1      39.973  27.983  32.619  1.00  0.00     0.031 C 
ATOM     43  C   UNL A   1      39.746  27.692  27.824  1.00  0.00     0.029 A 
ATOM     44  N   UNL A   1      41.592  27.158  28.927  1.00  0.00    -0.354 N 
ATOM     45  C   UNL A   1      42.185  28.336  33.083  1.00  0.00     0.074 A 
ATOM     46  C   UNL A   1      40.882  27.989  33.593  1.00  0.00     0.031 C 
ATOM     47  C   UNL A   1      40.321  26.661  27.164  1.00  0.00     0.029 A 
ATOM     48  C   UNL A   1      41.523  26.259  27.874  1.00  0.00     0.049 A 
ATOM     49  H   UNL A   1      42.380  27.243  29.512  1.00  0.00     0.167 HD
ATOM     50  C   UNL A   1      43.420  28.181  33.638  1.00  0.00     0.031 A 
ATOM     51  C   UNL A   1      42.338  25.193  27.680  1.00  0.00     0.031 A 
ATOM     52  C   UNL A   1      44.444  28.850  32.883  1.00  0.00     0.049 A 
ATOM     53  C   UNL A   1      43.578  25.416  28.460  1.00  0.00     0.074 A 
ATOM     54  C   UNL A   1      44.672  30.162  32.518  1.00  0.00     0.029 A 
ATOM     55  N   UNL A   1      45.267  28.094  32.085  1.00  0.00    -0.354 N 
ATOM     56  N   UNL A   1      44.464  26.327  28.185  1.00  0.00    -0.248 NA
ATOM     57  C   UNL A   1      43.640  24.868  29.806  1.00  0.00     0.031 C 
ATOM     58  C   UNL A   1      45.209  30.085  31.201  1.00  0.00     0.029 A 
ATOM     59  C   UNL A   1      45.329  28.733  30.873  1.00  0.00     0.049 A 
ATOM     60  H   UNL A   1      45.723  27.257  32.332  1.00  0.00     0.167 HD
ATOM     61  C   UNL A   1      44.904  26.776  29.420  1.00  0.00     0.074 A 
ATOM     62  C   UNL A   1      44.437  25.775  30.376  1.00  0.00     0.031 C 
ATOM     63  C   UNL A   1      45.362  28.052  29.598  1.00  0.00     0.031 A 
BRANCH  50  64
ATOM     64  C   UNL A   1      43.740  27.156  34.698  1.00  0.00    -0.014 A 
ATOM     65  C   UNL A   1      43.692  27.434  36.077  1.00  0.00     0.009 A 
ATOM     66  C   UNL A   1      43.837  25.800  34.333  1.00  0.00     0.009 A 
ATOM     67  C   UNL A   1      43.721  26.423  37.041  1.00  0.00     0.001 A 
ATOM     68  C   UNL A   1      43.820  24.781  35.294  1.00  0.00     0.001 A 
ATOM     69  C   UNL A   1      43.758  25.093  36.649  1.00  0.00     0.000 A 
ENDBRANCH  50  64
BRANCH  51  70
ATOM     70  C   UNL A   1      41.937  23.839  27.230  1.00  0.00    -0.014 A 
ATOM     71  C   UNL A   1      41.020  23.078  27.978  1.00  0.00     0.009 A 
ATOM     72  C   UNL A   1      42.681  23.176  26.241  1.00  0.00     0.009 A 
ATOM     73  C   UNL A   1      40.886  21.701  27.783  1.00  0.00     0.001 A 
ATOM     74  C   UNL A   1      42.553  21.794  26.051  1.00  0.00     0.001 A 
ATOM     75  C   UNL A   1      41.668  21.055  26.834  1.00  0.00     0.000 A 
ENDBRANCH  51  70
BRANCH  63  76
ATOM     76  C   UNL A   1      45.627  28.917  28.387  1.00  0.00    -0.014 A 
ATOM     77  C   UNL A   1      46.945  28.999  27.907  1.00  0.00     0.009 A 
ATOM     78  C   UNL A   1      44.669  29.786  27.837  1.00  0.00     0.009 A 
ATOM     79  C   UNL A   1      47.297  29.922  26.919  1.00  0.00     0.001 A 
ATOM     80  C   UNL A   1      45.015  30.691  26.827  1.00  0.00     0.001 A 
ATOM     81  C   UNL A   1      46.331  30.766  26.377  1.00  0.00     0.000 A 
ENDBRANCH  63  76
ENDBRANCH  37  38
ENDBRANCH  29  32
ENDBRANCH  27  28
ENDBRANCH  26  27
ENDBRANCH   1  26
TORSDOF 13
ENDMDL
MODEL 2
REMARK VINA RESULT:     -11.9      1.326      1.966
REMARK SMILES Cc1ccc2c(CC(=O)N3CCC(C(=O)NCCCCNC(=O)c4ccc(-c5c6nc(c(-c7ccccc7)c7ccc([nH]7)c(-c7ccccc7)c7nc(c(-c8ccccc8)c8ccc5[nH]8)C=C7)C=C6)cc4)CC3)coc2c1
REMARK SMILES IDX 18 1 17 2 16 3 14 4 15 5 13 7 8 8 9 9 10 10 11 11 73 12
REMARK SMILES IDX 12 13 72 14 7 15 6 16 1 17 2 18 3 19 77 20 4 21 76 22 5 23
REMARK SMILES IDX 75 24 74 25 19 26 20 27 21 28 22 29 23 31 24 32 25 33 71 34
REMARK SMILES IDX 26 35 70 36 27 37 28 38 29 39 64 40 30 41 69 42 63 43 65 44
REMARK SMILES IDX 31 45 68 46 62 47 61 48 32 50 54 51 39 52 53 53 40 54 43 55
REMARK SMILES IDX 52 56 66 57 41 58 42 59 51 61 67 62 44 63 33 64 34 65 38 66
REMARK SMILES IDX 35 67 37 68 36 69 55 70 56 71 60 72 57 73 59 74 58 75 45 76
REMARK SMILES IDX 46 77 50 78 47 79 49 80 48 81
REMARK H PARENT 16 6 21 30 65 49 43 60
REMARK Flexibility Score: inf
ROOT
ATOM      1  C   UNL A   1      33.006  29.493  27.202  1.00  0.00     0.023 C 
ENDROOT
BRANCH   1   2
ATOM      2  C   UNL A   1      32.357  29.900  25.882  1.00  0.00     0.116 C 
BRANCH   2   3
ATOM      3  N   UNL A   1      33.238  29.667  24.752  1.00  0.00    -0.356 N 
ATOM      4  C   UNL A   1      33.588  28.515  24.112  1.00  0.00     0.223 C 
ATOM      5  O   UNL A   1      34.351  28.599  23.155  1.00  0.00    -0.275 OA
ATOM      6  H   UNL A   1      33.653  30.480  24.384  1.00  0.00     0.163 HD
BRANCH   4   7
ATOM      7  C   UNL A   1      33.038  27.162  24.546  1.00  0.00     0.082 C 
ATOM      8  C   UNL A   1      33.969  23.410  23.527  1.00  0.00     0.227 C 
ATOM      9  O   UNL A   1      33.963  23.485  22.293  1.00  0.00    -0.275 OA
ATOM     10  N   UNL A   1      33.231  24.304  24.294  1.00  0.00    -0.342 N 
ATOM     11  C   UNL A   1      32.075  24.961  23.700  1.00  0.00     0.120 C 
ATOM     12  C   UNL A   1      33.672  24.911  25.542  1.00  0.00     0.120 C 
ATOM     13  C   UNL A   1      32.344  26.425  23.390  1.00  0.00     0.035 C 
ATOM     14  C   UNL A   1      34.105  26.352  25.299  1.00  0.00     0.035 C 
BRANCH   8  15
ATOM     15  C   UNL A   1      34.584  22.180  24.195  1.00  0.00     0.139 C 
BRANCH  15  16
ATOM     16  C   UNL A   1      33.659  21.078  24.566  1.00  0.00     0.008 A 
ATOM     17  C   UNL A   1      33.811  15.395  24.915  1.00  0.00     0.044 C 
ATOM     18  C   UNL A   1      33.876  16.895  24.881  1.00  0.00    -0.047 A 
ATOM     19  C   UNL A   1      35.106  17.545  24.706  1.00  0.00     0.004 A 
ATOM     20  C   UNL A   1      32.694  17.642  25.030  1.00  0.00     0.051 A 
ATOM     21  C   UNL A   1      35.186  18.942  24.626  1.00  0.00     0.012 A 
ATOM     22  C   UNL A   1      32.806  19.027  24.939  1.00  0.00     0.134 A 
ATOM     23  C   UNL A   1      34.003  19.697  24.724  1.00  0.00     0.024 A 
ATOM     24  O   UNL A   1      31.778  19.917  25.013  1.00  0.00    -0.464 OA
ATOM     25  C   UNL A   1      32.301  21.153  24.801  1.00  0.00     0.200 A 
ENDBRANCH  15  16
ENDBRANCH   8  15
ENDBRANCH   4   7
ENDBRANCH   2   3
ENDBRANCH   1   2
BRANCH   1  26
ATOM     26  C   UNL A   1      34.417  30.047  27.422  1.00  0.00     0.023 C 
BRANCH  26  27
ATOM     27  C   UNL A   1      34.487  31.563  27.628  1.00  0.00     0.116 C 
BRANCH  27  28
ATOM     28  N   UNL A   1      34.628  31.964  29.014  1.00  0.00    -0.352 N 
ATOM     29  C   UNL A   1      35.553  31.737  29.993  1.00  0.00     0.251 C 
ATOM     30  H   UNL A   1      33.884  32.533  29.320  1.00  0.00     0.163 HD
ATOM     31  O   UNL A   1      35.404  32.371  31.039  1.00  0.00    -0.269 OA
BRANCH  29  32
ATOM     32  C   UNL A   1      36.668  30.754  29.908  1.00  0.00     0.039 A 
ATOM     33  C   UNL A   1      36.589  29.407  30.254  1.00  0.00     0.014 A 
ATOM     34  C   UNL A   1      37.914  31.268  29.498  1.00  0.00     0.014 A 
ATOM     35  C   UNL A   1      37.732  28.620  30.295  1.00  0.00     0.010 A 
ATOM     36  C   UNL A   1      39.060  30.480  29.515  1.00  0.00     0.010 A 
ATOM     37  C   UNL A   1      38.972  29.166  29.963  1.00  0.00    -0.014 A 
BRANCH  37  38
ATOM     38  C   UNL A   1      40.129  28.281  30.040  1.00  0.00     0.031 A 
ATOM     39  C   UNL A   1      40.785  28.189  31.377  1.00  0.00     0.074 A 
ATOM     40  C   UNL A   1      40.550  27.516  29.015  1.00  0.00     0.049 A 
ATOM     41  N   UNL A   1      42.016  28.440  31.688  1.00  0.00    -0.248 NA
ATOM     42  C   UNL A   1      39.935  27.836  32.524  1.00  0.00     0.031 C 
ATOM     43  C   UNL A   1      39.865  27.234  27.753  1.00  0.00     0.029 A 
ATOM     44  N   UNL A   1      41.652  26.716  28.956  1.00  0.00    -0.354 N 
ATOM     45  C   UNL A   1      42.141  28.147  33.046  1.00  0.00     0.074 A 
ATOM     46  C   UNL A   1      40.810  27.878  33.528  1.00  0.00     0.031 C 
ATOM     47  C   UNL A   1      40.426  26.145  27.183  1.00  0.00     0.029 A 
ATOM     48  C   UNL A   1      41.588  25.752  27.962  1.00  0.00     0.049 A 
ATOM     49  H   UNL A   1      42.422  26.815  29.562  1.00  0.00     0.167 HD
ATOM     50  C   UNL A   1      43.350  27.990  33.655  1.00  0.00     0.031 A 
ATOM     51  C   UNL A   1      42.372  24.650  27.868  1.00  0.00     0.031 A 
ATOM     52  C   UNL A   1      44.421  28.575  32.896  1.00  0.00     0.049 A 
ATOM     53  C   UNL A   1      43.592  24.884  28.677  1.00  0.00     0.074 A 
ATOM     54  C   UNL A   1      44.707  29.852  32.455  1.00  0.00     0.029 A 
ATOM     55  N   UNL A   1      45.245  27.741  32.179  1.00  0.00    -0.354 N 
ATOM     56  N   UNL A   1      44.517  25.747  28.375  1.00  0.00    -0.248 NA
ATOM     57  C   UNL A   1      43.588  24.426  30.057  1.00  0.00     0.031 C 
ATOM     58  C   UNL A   1      45.286  29.670  31.166  1.00  0.00     0.029 A 
ATOM     59  C   UNL A   1      45.370  28.297  30.932  1.00  0.00     0.049 A 
ATOM     60  H   UNL A   1      45.663  26.909  32.497  1.00  0.00     0.167 HD
ATOM     61  C   UNL A   1      44.930  26.262  29.595  1.00  0.00     0.074 A 
ATOM     62  C   UNL A   1      44.395  25.343  30.596  1.00  0.00     0.031 C 
ATOM     63  C   UNL A   1      45.424  27.532  29.706  1.00  0.00     0.031 A 
BRANCH  50  64
ATOM     64  C   UNL A   1      43.597  27.028  34.790  1.00  0.00    -0.014 A 
ATOM     65  C   UNL A   1      43.640  27.425  36.139  1.00  0.00     0.009 A 
ATOM     66  C   UNL A   1      43.525  25.644  34.544  1.00  0.00     0.009 A 
ATOM     67  C   UNL A   1      43.596  26.502  37.188  1.00  0.00     0.001 A 
ATOM     68  C   UNL A   1      43.435  24.718  35.591  1.00  0.00     0.001 A 
ATOM     69  C   UNL A   1      43.466  25.149  36.914  1.00  0.00     0.000 A 
ENDBRANCH  50  64
BRANCH  51  70
ATOM     70  C   UNL A   1      41.942  23.283  27.492  1.00  0.00    -0.014 A 
ATOM     71  C   UNL A   1      42.818  22.420  26.807  1.00  0.00     0.009 A 
ATOM     72  C   UNL A   1      40.583  22.935  27.531  1.00  0.00     0.009 A 
ATOM     73  C   UNL A   1      42.350  21.282  26.145  1.00  0.00     0.001 A 
ATOM     74  C   UNL A   1      40.111  21.800  26.859  1.00  0.00     0.001 A 
ATOM     75  C   UNL A   1      40.993  20.984  26.153  1.00  0.00     0.000 A 
ENDBRANCH  51  70
BRANCH  63  76
ATOM     76  C   UNL A   1      45.761  28.306  28.451  1.00  0.00    -0.014 A 
ATOM     77  C   UNL A   1      47.113  28.416  28.084  1.00  0.00     0.009 A 
ATOM     78  C   UNL A   1      44.820  29.075  27.746  1.00  0.00     0.009 A 
ATOM     79  C   UNL A   1      47.512  29.271  27.054  1.00  0.00     0.001 A 
ATOM     80  C   UNL A   1      45.216  29.909  26.694  1.00  0.00     0.001 A 
ATOM     81  C   UNL A   1      46.564  30.015  26.357  1.00  0.00     0.000 A 
ENDBRANCH  63  76
ENDBRANCH  37  38
ENDBRANCH  29  32
ENDBRANCH  27  28
ENDBRANCH  26  27
ENDBRANCH   1  26
TORSDOF 13
ENDMDL
MODEL 3
REMARK VINA RESULT:     -11.9      2.098      3.562
REMARK SMILES Cc1ccc2c(CC(=O)N3CCC(C(=O)NCCCCNC(=O)c4ccc(-c5c6nc(c(-c7ccccc7)c7ccc([nH]7)c(-c7ccccc7)c7nc(c(-c8ccccc8)c8ccc5[nH]8)C=C7)C=C6)cc4)CC3)coc2c1
REMARK SMILES IDX 18 1 17 2 16 3 14 4 15 5 13 7 8 8 9 9 10 10 11 11 73 12
REMARK SMILES IDX 12 13 72 14 7 15 6 16 1 17 2 18 3 19 77 20 4 21 76 22 5 23
REMARK SMILES IDX 75 24 74 25 19 26 20 27 21 28 22 29 23 31 24 32 25 33 71 34
REMARK SMILES IDX 26 35 70 36 27 37 28 38 29 39 64 40 30 41 69 42 63 43 65 44
REMARK SMILES IDX 31 45 68 46 62 47 61 48 32 50 54 51 39 52 53 53 40 54 43 55
REMARK SMILES IDX 52 56 66 57 41 58 42 59 51 61 67 62 44 63 33 64 34 65 38 66
REMARK SMILES IDX 35 67 37 68 36 69 55 70 56 71 60 72 57 73 59 74 58 75 45 76
REMARK SMILES IDX 46 77 50 78 47 79 49 80 48 81
REMARK H PARENT 16 6 21 30 65 49 43 60
REMARK Flexibility Score: inf
ROOT
ATOM      1  C   UNL A   1      31.626  27.717  26.353  1.00  0.00     0.023 C 
ENDROOT
BRANCH   1   2
ATOM      2  C   UNL A   1      31.096  27.216  25.012  1.00  0.00     0.116 C 
BRANCH   2   3
ATOM      3  N   UNL A   1      32.047  27.438  23.937  1.00  0.00    -0.356 N 
ATOM      4  C   UNL A   1      32.979  26.613  23.381  1.00  0.00     0.223 C 
ATOM      5  O   UNL A   1      33.654  27.051  22.456  1.00  0.00    -0.275 OA
ATOM      6  H   UNL A   1      32.012  28.339  23.542  1.00  0.00     0.163 HD
BRANCH   4   7
ATOM      7  C   UNL A   1      33.168  25.181  23.867  1.00  0.00     0.082 C 
ATOM      8  C   UNL A   1      36.353  22.769  24.001  1.00  0.00     0.227 C 
ATOM      9  O   UNL A   1      36.789  22.878  22.848  1.00  0.00    -0.275 OA
ATOM     10  N   UNL A   1      35.013  23.014  24.276  1.00  0.00    -0.342 N 
ATOM     11  C   UNL A   1      34.033  22.879  23.207  1.00  0.00     0.120 C 
ATOM     12  C   UNL A   1      34.505  23.709  25.450  1.00  0.00     0.120 C 
ATOM     13  C   UNL A   1      33.528  24.226  22.718  1.00  0.00     0.035 C 
ATOM     14  C   UNL A   1      34.106  25.134  25.082  1.00  0.00     0.035 C 
BRANCH   8  15
ATOM     15  C   UNL A   1      37.231  22.119  25.070  1.00  0.00     0.139 C 
BRANCH  15  16
ATOM     16  C   UNL A   1      38.079  23.024  25.890  1.00  0.00     0.008 A 
ATOM     17  C   UNL A   1      42.878  22.676  28.939  1.00  0.00     0.044 C 
ATOM     18  C   UNL A   1      41.669  22.708  28.048  1.00  0.00    -0.047 A 
ATOM     19  C   UNL A   1      41.368  21.612  27.226  1.00  0.00     0.004 A 
ATOM     20  C   UNL A   1      40.844  23.846  28.042  1.00  0.00     0.051 A 
ATOM     21  C   UNL A   1      40.222  21.600  26.419  1.00  0.00     0.012 A 
ATOM     22  C   UNL A   1      39.710  23.801  27.235  1.00  0.00     0.134 A 
ATOM     23  C   UNL A   1      39.363  22.714  26.444  1.00  0.00     0.024 A 
ATOM     24  O   UNL A   1      38.769  24.780  27.126  1.00  0.00    -0.464 OA
ATOM     25  C   UNL A   1      37.796  24.310  26.302  1.00  0.00     0.200 A 
ENDBRANCH  15  16
ENDBRANCH   8  15
ENDBRANCH   4   7
ENDBRANCH   2   3
ENDBRANCH   1   2
BRANCH   1  26
ATOM     26  C   UNL A   1      31.878  29.226  26.420  1.00  0.00     0.023 C 
BRANCH  26  27
ATOM     27  C   UNL A   1      33.340  29.624  26.642  1.00  0.00     0.116 C 
BRANCH  27  28
ATOM     28  N   UNL A   1      33.509  30.856  27.387  1.00  0.00    -0.352 N 
ATOM     29  C   UNL A   1      34.571  31.493  27.966  1.00  0.00     0.251 C 
ATOM     30  H   UNL A   1      32.664  31.347  27.503  1.00  0.00     0.163 HD
ATOM     31  O   UNL A   1      34.351  32.622  28.409  1.00  0.00    -0.269 OA
BRANCH  29  32
ATOM     32  C   UNL A   1      35.928  30.907  28.146  1.00  0.00     0.039 A 
ATOM     33  C   UNL A   1      36.300  29.607  27.810  1.00  0.00     0.014 A 
ATOM     34  C   UNL A   1      36.881  31.737  28.768  1.00  0.00     0.014 A 
ATOM     35  C   UNL A   1      37.544  29.112  28.176  1.00  0.00     0.010 A 
ATOM     36  C   UNL A   1      38.139  31.255  29.117  1.00  0.00     0.010 A 
ATOM     37  C   UNL A   1      38.448  29.923  28.863  1.00  0.00    -0.014 A 
BRANCH  37  38
ATOM     38  C   UNL A   1      39.731  29.330  29.222  1.00  0.00     0.031 A 
ATOM     39  C   UNL A   1      39.924  29.035  30.672  1.00  0.00     0.074 A 
ATOM     40  C   UNL A   1      40.667  28.978  28.320  1.00  0.00     0.049 A 
ATOM     41  N   UNL A   1      40.855  29.462  31.463  1.00  0.00    -0.248 NA
ATOM     42  C   UNL A   1      38.902  28.210  31.335  1.00  0.00     0.031 C 
ATOM     43  C   UNL A   1      40.538  28.896  26.865  1.00  0.00     0.029 A 
ATOM     44  N   UNL A   1      41.918  28.489  28.549  1.00  0.00    -0.354 N 
ATOM     45  C   UNL A   1      40.624  28.855  32.697  1.00  0.00     0.074 A 
ATOM     46  C   UNL A   1      39.357  28.177  32.587  1.00  0.00     0.031 C 
ATOM     47  C   UNL A   1      41.554  28.150  26.376  1.00  0.00     0.029 A 
ATOM     48  C   UNL A   1      42.469  27.834  27.459  1.00  0.00     0.049 A 
ATOM     49  H   UNL A   1      42.387  28.591  29.409  1.00  0.00     0.167 HD
ATOM     50  C   UNL A   1      41.564  28.815  33.683  1.00  0.00     0.031 A 
ATOM     51  C   UNL A   1      43.537  26.999  27.485  1.00  0.00     0.031 A 
ATOM     52  C   UNL A   1      42.591  29.803  33.496  1.00  0.00     0.049 A 
ATOM     53  C   UNL A   1      44.305  27.276  28.723  1.00  0.00     0.074 A 
ATOM     54  C   UNL A   1      42.601  31.182  33.416  1.00  0.00     0.029 A 
ATOM     55  N   UNL A   1      43.811  29.395  33.015  1.00  0.00    -0.354 N 
ATOM     56  N   UNL A   1      44.971  28.371  28.943  1.00  0.00    -0.248 NA
ATOM     57  C   UNL A   1      44.002  26.479  29.901  1.00  0.00     0.031 C 
ATOM     58  C   UNL A   1      43.586  31.483  32.432  1.00  0.00     0.029 A 
ATOM     59  C   UNL A   1      44.152  30.275  32.020  1.00  0.00     0.049 A 
ATOM     60  H   UNL A   1      44.338  28.623  33.324  1.00  0.00     0.167 HD
ATOM     61  C   UNL A   1      44.798  28.623  30.296  1.00  0.00     0.074 A 
ATOM     62  C   UNL A   1      44.278  27.376  30.850  1.00  0.00     0.031 C 
ATOM     63  C   UNL A   1      44.822  29.894  30.796  1.00  0.00     0.031 A 
BRANCH  50  64
ATOM     64  C   UNL A   1      41.717  27.666  34.648  1.00  0.00    -0.014 A 
ATOM     65  C   UNL A   1      42.014  26.353  34.240  1.00  0.00     0.009 A 
ATOM     66  C   UNL A   1      41.831  27.938  36.025  1.00  0.00     0.009 A 
ATOM     67  C   UNL A   1      42.419  25.367  35.144  1.00  0.00     0.001 A 
ATOM     68  C   UNL A   1      42.281  26.966  36.928  1.00  0.00     0.001 A 
ATOM     69  C   UNL A   1      42.579  25.681  36.486  1.00  0.00     0.000 A 
ENDBRANCH  50  64
BRANCH  51  70
ATOM     70  C   UNL A   1      43.685  25.721  26.751  1.00  0.00    -0.014 A 
ATOM     71  C   UNL A   1      44.894  25.002  26.801  1.00  0.00     0.009 A 
ATOM     72  C   UNL A   1      42.754  25.363  25.763  1.00  0.00     0.009 A 
ATOM     73  C   UNL A   1      45.185  24.001  25.870  1.00  0.00     0.001 A 
ATOM     74  C   UNL A   1      43.049  24.366  24.824  1.00  0.00     0.001 A 
ATOM     75  C   UNL A   1      44.272  23.698  24.869  1.00  0.00     0.000 A 
ENDBRANCH  51  70
BRANCH  63  76
ATOM     76  C   UNL A   1      45.289  31.028  29.912  1.00  0.00    -0.014 A 
ATOM     77  C   UNL A   1      44.414  31.495  28.917  1.00  0.00     0.009 A 
ATOM     78  C   UNL A   1      46.610  31.507  29.907  1.00  0.00     0.009 A 
ATOM     79  C   UNL A   1      44.844  32.402  27.945  1.00  0.00     0.001 A 
ATOM     80  C   UNL A   1      47.034  32.438  28.951  1.00  0.00     0.001 A 
ATOM     81  C   UNL A   1      46.154  32.875  27.964  1.00  0.00     0.000 A 
ENDBRANCH  63  76
ENDBRANCH  37  38
ENDBRANCH  29  32
ENDBRANCH  27  28
ENDBRANCH  26  27
ENDBRANCH   1  26
TORSDOF 13
ENDMDL
