MODEL 1
REMARK VINA RESULT:     -11.7      0.000      0.000
REMARK SMILES Cc1n[nH]c(C)c1C(=O)N1CC(n2cc(C(=O)NCCCCNC(=O)c3ccc(-c4c5nc(c(-c6ccccc6)c6ccc([nH]6)c(-c6ccccc6)c6nc(c(-c7ccccc7)c7ccc4[nH]7)C=C6)C=C5)cc3)nn2)C1
REMARK SMILES IDX 20 1 19 2 18 3 16 4 17 5 15 7 13 8 14 9 75 10 74 11 12 12
REMARK SMILES IDX 8 13 9 14 10 15 11 16 76 17 7 18 1 19 2 20 3 21 4 22 5 23
REMARK SMILES IDX 6 25 21 26 22 27 23 28 24 29 25 31 26 32 27 33 73 34 28 35
REMARK SMILES IDX 72 36 29 37 30 38 31 39 66 40 32 41 71 42 65 43 67 44 33 45
REMARK SMILES IDX 70 46 64 47 63 48 34 50 56 51 41 52 55 53 42 54 45 55 54 56
REMARK SMILES IDX 68 57 43 58 44 59 53 61 69 62 46 63 35 64 36 65 40 66 37 67
REMARK SMILES IDX 39 68 38 69 57 70 58 71 62 72 59 73 61 74 60 75 47 76 48 77
REMARK SMILES IDX 52 78 49 79 51 80 50 81
REMARK H PARENT 18 6 4 24 23 30 67 49 45 60
REMARK Flexibility Score: inf
ROOT
ATOM      1  C   UNL A   1      40.106  21.186  26.603  1.00  0.00     0.023 C 
ENDROOT
BRANCH   1   2
ATOM      2  C   UNL A   1      38.923  21.595  25.725  1.00  0.00     0.116 C 
BRANCH   2   3
ATOM      3  N   UNL A   1      38.072  20.471  25.393  1.00  0.00    -0.351 N 
ATOM      4  C   UNL A   1      36.756  20.408  25.002  1.00  0.00     0.273 C 
ATOM      5  O   UNL A   1      36.348  19.303  24.629  1.00  0.00    -0.267 OA
ATOM      6  H   UNL A   1      38.516  19.595  25.460  1.00  0.00     0.163 HD
BRANCH   4   7
ATOM      7  C   UNL A   1      35.898  21.587  24.987  1.00  0.00     0.170 A 
ATOM      8  N   UNL A   1      34.478  23.197  25.337  1.00  0.00    -0.245 N 
ATOM      9  C   UNL A   1      34.838  21.957  25.794  1.00  0.00     0.145 A 
ATOM     10  N   UNL A   1      35.217  23.556  24.280  1.00  0.00    -0.066 NA
ATOM     11  N   UNL A   1      36.065  22.569  24.032  1.00  0.00    -0.125 NA
BRANCH   8  12
ATOM     12  C   UNL A   1      33.526  24.046  25.991  1.00  0.00     0.148 C 
ATOM     13  C   UNL A   1      31.457  26.489  25.938  1.00  0.00     0.257 C 
ATOM     14  O   UNL A   1      30.728  26.134  26.869  1.00  0.00    -0.269 OA
ATOM     15  N   UNL A   1      32.308  25.600  25.317  1.00  0.00    -0.334 N 
ATOM     16  C   UNL A   1      32.150  24.139  25.328  1.00  0.00     0.149 C 
ATOM     17  C   UNL A   1      33.747  25.511  25.577  1.00  0.00     0.149 C 
BRANCH  13  18
ATOM     18  C   UNL A   1      31.419  27.847  25.397  1.00  0.00     0.083 A 
ATOM     19  C   UNL A   1      32.786  29.098  27.258  1.00  0.00     0.069 C 
ATOM     20  C   UNL A   1      32.005  29.007  25.996  1.00  0.00     0.072 A 
ATOM     21  N   UNL A   1      31.767  30.118  25.290  1.00  0.00    -0.180 NA
ATOM     22  N   UNL A   1      31.022  29.698  24.267  1.00  0.00    -0.282 N 
ATOM     23  C   UNL A   1      30.786  28.350  24.263  1.00  0.00     0.045 A 
ATOM     24  H   UNL A   1      30.672  30.305  23.575  1.00  0.00     0.190 HD
ATOM     25  C   UNL A   1      29.968  27.745  23.186  1.00  0.00     0.067 C 
ENDBRANCH  13  18
ENDBRANCH   8  12
ENDBRANCH   4   7
ENDBRANCH   2   3
ENDBRANCH   1   2
BRANCH   1  26
ATOM     26  C   UNL A   1      40.849  19.915  26.161  1.00  0.00     0.023 C 
BRANCH  26  27
ATOM     27  C   UNL A   1      42.199  19.674  26.836  1.00  0.00     0.116 C 
BRANCH  27  28
ATOM     28  N   UNL A   1      43.289  19.465  25.885  1.00  0.00    -0.352 N 
ATOM     29  C   UNL A   1      43.958  20.406  25.127  1.00  0.00     0.251 C 
ATOM     30  H   UNL A   1      43.585  18.534  25.770  1.00  0.00     0.163 HD
ATOM     31  O   UNL A   1      44.583  20.078  24.122  1.00  0.00    -0.269 OA
BRANCH  29  32
ATOM     32  C   UNL A   1      43.917  21.817  25.543  1.00  0.00     0.039 A 
ATOM     33  C   UNL A   1      43.006  22.716  24.983  1.00  0.00     0.014 A 
ATOM     34  C   UNL A   1      44.788  22.223  26.550  1.00  0.00     0.014 A 
ATOM     35  C   UNL A   1      42.908  23.999  25.520  1.00  0.00     0.010 A 
ATOM     36  C   UNL A   1      44.602  23.441  27.161  1.00  0.00     0.010 A 
ATOM     37  C   UNL A   1      43.689  24.352  26.633  1.00  0.00    -0.014 A 
BRANCH  37  38
ATOM     38  C   UNL A   1      43.481  25.631  27.313  1.00  0.00     0.031 A 
ATOM     39  C   UNL A   1      44.410  26.738  26.938  1.00  0.00     0.074 A 
ATOM     40  C   UNL A   1      42.385  25.911  28.051  1.00  0.00     0.049 A 
ATOM     41  N   UNL A   1      45.237  27.372  27.702  1.00  0.00    -0.248 NA
ATOM     42  C   UNL A   1      44.465  27.150  25.527  1.00  0.00     0.031 C 
ATOM     43  C   UNL A   1      41.195  25.079  28.270  1.00  0.00     0.029 A 
ATOM     44  N   UNL A   1      42.046  27.082  28.659  1.00  0.00    -0.354 N 
ATOM     45  C   UNL A   1      45.801  28.379  26.920  1.00  0.00     0.074 A 
ATOM     46  C   UNL A   1      45.391  28.111  25.563  1.00  0.00     0.031 C 
ATOM     47  C   UNL A   1      40.184  25.850  28.725  1.00  0.00     0.029 A 
ATOM     48  C   UNL A   1      40.706  27.174  29.007  1.00  0.00     0.049 A 
ATOM     49  H   UNL A   1      42.696  27.800  28.835  1.00  0.00     0.167 HD
ATOM     50  C   UNL A   1      46.386  29.479  27.473  1.00  0.00     0.031 A 
ATOM     51  C   UNL A   1      40.060  28.266  29.475  1.00  0.00     0.031 A 
ATOM     52  C   UNL A   1      46.659  29.299  28.875  1.00  0.00     0.049 A 
ATOM     53  C   UNL A   1      41.078  29.197  30.005  1.00  0.00     0.074 A 
ATOM     54  C   UNL A   1      47.394  28.402  29.625  1.00  0.00     0.029 A 
ATOM     55  N   UNL A   1      45.820  29.923  29.767  1.00  0.00    -0.354 N 
ATOM     56  N   UNL A   1      41.785  28.956  31.070  1.00  0.00    -0.248 NA
ATOM     57  C   UNL A   1      41.604  30.227  29.125  1.00  0.00     0.031 C 
ATOM     58  C   UNL A   1      46.610  28.176  30.797  1.00  0.00     0.029 A 
ATOM     59  C   UNL A   1      45.481  28.993  30.714  1.00  0.00     0.049 A 
ATOM     60  H   UNL A   1      45.521  30.861  29.734  1.00  0.00     0.167 HD
ATOM     61  C   UNL A   1      43.042  29.460  30.777  1.00  0.00     0.074 A 
ATOM     62  C   UNL A   1      42.835  30.342  29.630  1.00  0.00     0.031 C 
ATOM     63  C   UNL A   1      44.166  28.895  31.308  1.00  0.00     0.031 A 
BRANCH  50  64
ATOM     64  C   UNL A   1      46.353  30.857  26.849  1.00  0.00    -0.014 A 
ATOM     65  C   UNL A   1      47.522  31.643  26.875  1.00  0.00     0.009 A 
ATOM     66  C   UNL A   1      45.160  31.517  26.502  1.00  0.00     0.009 A 
ATOM     67  C   UNL A   1      47.480  33.025  26.648  1.00  0.00     0.001 A 
ATOM     68  C   UNL A   1      45.122  32.889  26.232  1.00  0.00     0.001 A 
ATOM     69  C   UNL A   1      46.278  33.648  26.335  1.00  0.00     0.000 A 
ENDBRANCH  50  64
BRANCH  51  70
ATOM     70  C   UNL A   1      38.646  28.657  29.321  1.00  0.00    -0.014 A 
ATOM     71  C   UNL A   1      37.863  28.946  30.448  1.00  0.00     0.009 A 
ATOM     72  C   UNL A   1      38.146  29.021  28.058  1.00  0.00     0.009 A 
ATOM     73  C   UNL A   1      36.646  29.628  30.320  1.00  0.00     0.001 A 
ATOM     74  C   UNL A   1      36.928  29.696  27.930  1.00  0.00     0.001 A 
ATOM     75  C   UNL A   1      36.189  30.018  29.064  1.00  0.00     0.000 A 
ENDBRANCH  51  70
BRANCH  63  76
ATOM     76  C   UNL A   1      43.991  27.881  32.415  1.00  0.00    -0.014 A 
ATOM     77  C   UNL A   1      43.914  26.495  32.183  1.00  0.00     0.009 A 
ATOM     78  C   UNL A   1      44.026  28.326  33.744  1.00  0.00     0.009 A 
ATOM     79  C   UNL A   1      43.821  25.590  33.245  1.00  0.00     0.001 A 
ATOM     80  C   UNL A   1      43.959  27.422  34.806  1.00  0.00     0.001 A 
ATOM     81  C   UNL A   1      43.845  26.055  34.556  1.00  0.00     0.000 A 
ENDBRANCH  63  76
ENDBRANCH  37  38
ENDBRANCH  29  32
ENDBRANCH  27  28
ENDBRANCH  26  27
ENDBRANCH   1  26
TORSDOF 13
ENDMDL
MODEL 2
REMARK VINA RESULT:     -11.6      2.057      5.463
REMARK SMILES Cc1n[nH]c(C)c1C(=O)N1CC(n2cc(C(=O)NCCCCNC(=O)c3ccc(-c4c5nc(c(-c6ccccc6)c6ccc([nH]6)c(-c6ccccc6)c6nc(c(-c7ccccc7)c7ccc4[nH]7)C=C6)C=C5)cc3)nn2)C1
REMARK SMILES IDX 20 1 19 2 18 3 16 4 17 5 15 7 13 8 14 9 75 10 74 11 12 12
REMARK SMILES IDX 8 13 9 14 10 15 11 16 76 17 7 18 1 19 2 20 3 21 4 22 5 23
REMARK SMILES IDX 6 25 21 26 22 27 23 28 24 29 25 31 26 32 27 33 73 34 28 35
REMARK SMILES IDX 72 36 29 37 30 38 31 39 66 40 32 41 71 42 65 43 67 44 33 45
REMARK SMILES IDX 70 46 64 47 63 48 34 50 56 51 41 52 55 53 42 54 45 55 54 56
REMARK SMILES IDX 68 57 43 58 44 59 53 61 69 62 46 63 35 64 36 65 40 66 37 67
REMARK SMILES IDX 39 68 38 69 57 70 58 71 62 72 59 73 61 74 60 75 47 76 48 77
REMARK SMILES IDX 52 78 49 79 51 80 50 81
REMARK H PARENT 18 6 4 24 23 30 67 49 45 60
REMARK Flexibility Score: inf
ROOT
ATOM      1  C   UNL A   1      36.634  19.218  24.926  1.00  0.00     0.023 C 
ENDROOT
BRANCH   1   2
ATOM      2  C   UNL A   1      35.338  20.028  24.946  1.00  0.00     0.116 C 
BRANCH   2   3
ATOM      3  N   UNL A   1      34.193  19.221  25.312  1.00  0.00    -0.351 N 
ATOM      4  C   UNL A   1      32.844  19.417  25.131  1.00  0.00     0.273 C 
ATOM      5  O   UNL A   1      32.110  18.463  25.412  1.00  0.00    -0.267 OA
ATOM      6  H   UNL A   1      34.421  18.381  25.773  1.00  0.00     0.163 HD
BRANCH   4   7
ATOM      7  C   UNL A   1      32.310  20.666  24.599  1.00  0.00     0.170 A 
ATOM      8  N   UNL A   1      31.459  22.630  24.215  1.00  0.00    -0.245 N 
ATOM      9  C   UNL A   1      31.647  21.712  25.214  1.00  0.00     0.145 A 
ATOM     10  N   UNL A   1      31.915  22.169  23.043  1.00  0.00    -0.066 NA
ATOM     11  N   UNL A   1      32.406  20.957  23.255  1.00  0.00    -0.125 NA
BRANCH   8  12
ATOM     12  C   UNL A   1      30.961  23.957  24.430  1.00  0.00     0.148 C 
ATOM     13  C   UNL A   1      31.408  27.125  24.566  1.00  0.00     0.257 C 
ATOM     14  O   UNL A   1      30.252  27.485  24.323  1.00  0.00    -0.269 OA
ATOM     15  N   UNL A   1      31.834  25.845  24.277  1.00  0.00    -0.334 N 
ATOM     16  C   UNL A   1      31.204  24.952  23.294  1.00  0.00     0.149 C 
ATOM     17  C   UNL A   1      31.962  24.772  25.266  1.00  0.00     0.149 C 
BRANCH  13  18
ATOM     18  C   UNL A   1      32.408  28.041  25.112  1.00  0.00     0.083 A 
ATOM     19  C   UNL A   1      31.548  28.201  27.589  1.00  0.00     0.069 C 
ATOM     20  C   UNL A   1      32.458  28.525  26.458  1.00  0.00     0.072 A 
ATOM     21  N   UNL A   1      33.463  29.387  26.651  1.00  0.00    -0.180 NA
ATOM     22  N   UNL A   1      34.040  29.483  25.452  1.00  0.00    -0.282 N 
ATOM     23  C   UNL A   1      33.467  28.697  24.490  1.00  0.00     0.045 A 
ATOM     24  H   UNL A   1      34.811  30.069  25.275  1.00  0.00     0.190 HD
ATOM     25  C   UNL A   1      34.004  28.706  23.109  1.00  0.00     0.067 C 
ENDBRANCH  13  18
ENDBRANCH   8  12
ENDBRANCH   4   7
ENDBRANCH   2   3
ENDBRANCH   1   2
BRANCH   1  26
ATOM     26  C   UNL A   1      37.907  20.015  24.595  1.00  0.00     0.023 C 
BRANCH  26  27
ATOM     27  C   UNL A   1      38.888  20.197  25.753  1.00  0.00     0.116 C 
BRANCH  27  28
ATOM     28  N   UNL A   1      39.965  19.209  25.756  1.00  0.00    -0.352 N 
ATOM     29  C   UNL A   1      41.320  19.417  25.923  1.00  0.00     0.251 C 
ATOM     30  H   UNL A   1      39.689  18.274  25.621  1.00  0.00     0.163 HD
ATOM     31  O   UNL A   1      42.138  18.582  25.547  1.00  0.00    -0.269 OA
BRANCH  29  32
ATOM     32  C   UNL A   1      41.776  20.659  26.566  1.00  0.00     0.039 A 
ATOM     33  C   UNL A   1      42.397  21.674  25.834  1.00  0.00     0.014 A 
ATOM     34  C   UNL A   1      41.530  20.815  27.927  1.00  0.00     0.014 A 
ATOM     35  C   UNL A   1      42.671  22.889  26.462  1.00  0.00     0.010 A 
ATOM     36  C   UNL A   1      41.681  22.052  28.509  1.00  0.00     0.010 A 
ATOM     37  C   UNL A   1      42.284  23.086  27.797  1.00  0.00    -0.014 A 
BRANCH  37  38
ATOM     38  C   UNL A   1      42.410  24.405  28.421  1.00  0.00     0.031 A 
ATOM     39  C   UNL A   1      41.316  25.379  28.132  1.00  0.00     0.074 A 
ATOM     40  C   UNL A   1      43.303  24.685  29.394  1.00  0.00     0.049 A 
ATOM     41  N   UNL A   1      41.412  26.527  27.544  1.00  0.00    -0.248 NA
ATOM     42  C   UNL A   1      39.940  25.005  28.490  1.00  0.00     0.031 C 
ATOM     43  C   UNL A   1      44.245  23.775  30.058  1.00  0.00     0.029 A 
ATOM     44  N   UNL A   1      43.458  25.840  30.099  1.00  0.00    -0.354 N 
ATOM     45  C   UNL A   1      40.144  27.105  27.603  1.00  0.00     0.074 A 
ATOM     46  C   UNL A   1      39.254  26.072  28.074  1.00  0.00     0.031 C 
ATOM     47  C   UNL A   1      44.669  24.330  31.213  1.00  0.00     0.029 A 
ATOM     48  C   UNL A   1      44.185  25.697  31.272  1.00  0.00     0.049 A 
ATOM     49  H   UNL A   1      43.085  26.702  29.801  1.00  0.00     0.167 HD
ATOM     50  C   UNL A   1      39.957  28.448  27.467  1.00  0.00     0.031 A 
ATOM     51  C   UNL A   1      44.362  26.626  32.239  1.00  0.00     0.031 A 
ATOM     52  C   UNL A   1      41.116  29.103  26.918  1.00  0.00     0.049 A 
ATOM     53  C   UNL A   1      44.072  27.949  31.648  1.00  0.00     0.074 A 
ATOM     54  C   UNL A   1      41.855  28.981  25.758  1.00  0.00     0.029 A 
ATOM     55  N   UNL A   1      41.909  29.815  27.786  1.00  0.00    -0.354 N 
ATOM     56  N   UNL A   1      44.819  28.510  30.743  1.00  0.00    -0.248 NA
ATOM     57  C   UNL A   1      42.726  28.484  31.767  1.00  0.00     0.031 C 
ATOM     58  C   UNL A   1      43.211  29.167  26.167  1.00  0.00     0.029 A 
ATOM     59  C   UNL A   1      43.205  29.450  27.534  1.00  0.00     0.049 A 
ATOM     60  H   UNL A   1      41.604  30.465  28.460  1.00  0.00     0.167 HD
ATOM     61  C   UNL A   1      43.926  29.138  29.891  1.00  0.00     0.074 A 
ATOM     62  C   UNL A   1      42.672  29.199  30.640  1.00  0.00     0.031 C 
ATOM     63  C   UNL A   1      44.208  29.287  28.562  1.00  0.00     0.031 A 
BRANCH  50  64
ATOM     64  C   UNL A   1      38.881  29.229  28.189  1.00  0.00    -0.014 A 
ATOM     65  C   UNL A   1      38.850  29.200  29.597  1.00  0.00     0.009 A 
ATOM     66  C   UNL A   1      37.741  29.744  27.547  1.00  0.00     0.009 A 
ATOM     67  C   UNL A   1      37.710  29.589  30.313  1.00  0.00     0.001 A 
ATOM     68  C   UNL A   1      36.617  30.175  28.259  1.00  0.00     0.001 A 
ATOM     69  C   UNL A   1      36.591  30.067  29.642  1.00  0.00     0.000 A 
ENDBRANCH  50  64
BRANCH  51  70
ATOM     70  C   UNL A   1      44.570  26.444  33.687  1.00  0.00    -0.014 A 
ATOM     71  C   UNL A   1      43.513  26.023  34.509  1.00  0.00     0.009 A 
ATOM     72  C   UNL A   1      45.872  26.412  34.217  1.00  0.00     0.009 A 
ATOM     73  C   UNL A   1      43.759  25.531  35.797  1.00  0.00     0.001 A 
ATOM     74  C   UNL A   1      46.115  25.926  35.505  1.00  0.00     0.001 A 
ATOM     75  C   UNL A   1      45.061  25.466  36.288  1.00  0.00     0.000 A 
ENDBRANCH  51  70
BRANCH  63  76
ATOM     76  C   UNL A   1      45.615  28.985  28.102  1.00  0.00    -0.014 A 
ATOM     77  C   UNL A   1      46.596  29.977  27.921  1.00  0.00     0.009 A 
ATOM     78  C   UNL A   1      46.000  27.644  27.961  1.00  0.00     0.009 A 
ATOM     79  C   UNL A   1      47.905  29.641  27.560  1.00  0.00     0.001 A 
ATOM     80  C   UNL A   1      47.313  27.305  27.626  1.00  0.00     0.001 A 
ATOM     81  C   UNL A   1      48.261  28.304  27.414  1.00  0.00     0.000 A 
ENDBRANCH  63  76
ENDBRANCH  37  38
ENDBRANCH  29  32
ENDBRANCH  27  28
ENDBRANCH  26  27
ENDBRANCH   1  26
TORSDOF 13
ENDMDL
MODEL 3
REMARK VINA RESULT:     -11.5      3.323      8.446
REMARK SMILES Cc1n[nH]c(C)c1C(=O)N1CC(n2cc(C(=O)NCCCCNC(=O)c3ccc(-c4c5nc(c(-c6ccccc6)c6ccc([nH]6)c(-c6ccccc6)c6nc(c(-c7ccccc7)c7ccc4[nH]7)C=C6)C=C5)cc3)nn2)C1
REMARK SMILES IDX 20 1 19 2 18 3 16 4 17 5 15 7 13 8 14 9 75 10 74 11 12 12
REMARK SMILES IDX 8 13 9 14 10 15 11 16 76 17 7 18 1 19 2 20 3 21 4 22 5 23
REMARK SMILES IDX 6 25 21 26 22 27 23 28 24 29 25 31 26 32 27 33 73 34 28 35
REMARK SMILES IDX 72 36 29 37 30 38 31 39 66 40 32 41 71 42 65 43 67 44 33 45
REMARK SMILES IDX 70 46 64 47 63 48 34 50 56 51 41 52 55 53 42 54 45 55 54 56
REMARK SMILES IDX 68 57 43 58 44 59 53 61 69 62 46 63 35 64 36 65 40 66 37 67
REMARK SMILES IDX 39 68 38 69 57 70 58 71 62 72 59 73 61 74 60 75 47 76 48 77
REMARK SMILES IDX 52 78 49 79 51 80 50 81
REMARK H PARENT 18 6 4 24 23 30 67 49 45 60
REMARK Flexibility Score: inf
ROOT
ATOM      1  C   UNL A   1      35.764  31.708  31.390  1.00  0.00     0.023 C 
ENDROOT
BRANCH   1   2
ATOM      2  C   UNL A   1      34.706  32.641  30.798  1.00  0.00     0.116 C 
BRANCH   2   3
ATOM      3  N   UNL A   1      35.173  33.311  29.602  1.00  0.00    -0.351 N 
ATOM      4  C   UNL A   1      35.226  32.903  28.291  1.00  0.00     0.273 C 
ATOM      5  O   UNL A   1      35.531  33.767  27.461  1.00  0.00    -0.267 OA
ATOM      6  H   UNL A   1      35.515  34.222  29.757  1.00  0.00     0.163 HD
BRANCH   4   7
ATOM      7  C   UNL A   1      34.900  31.538  27.893  1.00  0.00     0.170 A 
ATOM      8  N   UNL A   1      34.019  29.654  27.257  1.00  0.00    -0.245 N 
ATOM      9  C   UNL A   1      33.685  30.912  27.682  1.00  0.00     0.145 A 
ATOM     10  N   UNL A   1      35.347  29.480  27.259  1.00  0.00    -0.066 NA
ATOM     11  N   UNL A   1      35.897  30.610  27.678  1.00  0.00    -0.125 NA
BRANCH   8  12
ATOM     12  C   UNL A   1      33.073  28.702  26.754  1.00  0.00     0.148 C 
ATOM     13  C   UNL A   1      32.226  26.452  24.639  1.00  0.00     0.257 C 
ATOM     14  O   UNL A   1      31.411  25.840  25.336  1.00  0.00    -0.269 OA
ATOM     15  N   UNL A   1      33.147  27.310  25.201  1.00  0.00    -0.334 N 
ATOM     16  C   UNL A   1      33.587  27.269  26.603  1.00  0.00     0.149 C 
ATOM     17  C   UNL A   1      33.016  28.770  25.218  1.00  0.00     0.149 C 
BRANCH  13  18
ATOM     18  C   UNL A   1      32.307  26.260  23.192  1.00  0.00     0.083 A 
ATOM     19  C   UNL A   1      34.260  24.507  23.092  1.00  0.00     0.069 C 
ATOM     20  C   UNL A   1      33.224  25.399  22.508  1.00  0.00     0.072 A 
ATOM     21  N   UNL A   1      33.090  25.468  21.179  1.00  0.00    -0.180 NA
ATOM     22  N   UNL A   1      32.125  26.372  20.997  1.00  0.00    -0.282 N 
ATOM     23  C   UNL A   1      31.606  26.877  22.158  1.00  0.00     0.045 A 
ATOM     24  H   UNL A   1      31.815  26.651  20.105  1.00  0.00     0.190 HD
ATOM     25  C   UNL A   1      30.530  27.893  22.107  1.00  0.00     0.067 C 
ENDBRANCH  13  18
ENDBRANCH   8  12
ENDBRANCH   4   7
ENDBRANCH   2   3
ENDBRANCH   1   2
BRANCH   1  26
ATOM     26  C   UNL A   1      36.403  32.183  32.704  1.00  0.00     0.023 C 
BRANCH  26  27
ATOM     27  C   UNL A   1      37.857  32.642  32.600  1.00  0.00     0.116 C 
BRANCH  27  28
ATOM     28  N   UNL A   1      38.063  33.676  31.588  1.00  0.00    -0.352 N 
ATOM     29  C   UNL A   1      39.046  33.745  30.620  1.00  0.00     0.251 C 
ATOM     30  H   UNL A   1      37.418  34.419  31.596  1.00  0.00     0.163 HD
ATOM     31  O   UNL A   1      39.329  34.813  30.083  1.00  0.00    -0.269 OA
BRANCH  29  32
ATOM     32  C   UNL A   1      39.753  32.514  30.232  1.00  0.00     0.039 A 
ATOM     33  C   UNL A   1      41.136  32.389  30.384  1.00  0.00     0.014 A 
ATOM     34  C   UNL A   1      38.993  31.453  29.749  1.00  0.00     0.014 A 
ATOM     35  C   UNL A   1      41.732  31.151  30.144  1.00  0.00     0.010 A 
ATOM     36  C   UNL A   1      39.559  30.205  29.638  1.00  0.00     0.010 A 
ATOM     37  C   UNL A   1      40.934  30.048  29.799  1.00  0.00    -0.014 A 
BRANCH  37  38
ATOM     38  C   UNL A   1      41.517  28.709  29.708  1.00  0.00     0.031 A 
ATOM     39  C   UNL A   1      42.234  28.216  30.921  1.00  0.00     0.074 A 
ATOM     40  C   UNL A   1      41.239  27.843  28.709  1.00  0.00     0.049 A 
ATOM     41  N   UNL A   1      43.479  27.885  31.027  1.00  0.00    -0.248 NA
ATOM     42  C   UNL A   1      41.486  28.136  32.186  1.00  0.00     0.031 C 
ATOM     43  C   UNL A   1      40.297  28.008  27.595  1.00  0.00     0.029 A 
ATOM     44  N   UNL A   1      41.653  26.554  28.562  1.00  0.00    -0.354 N 
ATOM     45  C   UNL A   1      43.646  27.394  32.321  1.00  0.00     0.074 A 
ATOM     46  C   UNL A   1      42.424  27.695  33.026  1.00  0.00     0.031 C 
ATOM     47  C   UNL A   1      40.022  26.800  27.056  1.00  0.00     0.029 A 
ATOM     48  C   UNL A   1      40.905  25.817  27.656  1.00  0.00     0.049 A 
ATOM     49  H   UNL A   1      42.417  26.178  29.057  1.00  0.00     0.167 HD
ATOM     50  C   UNL A   1      44.691  26.585  32.656  1.00  0.00     0.031 A 
ATOM     51  C   UNL A   1      40.984  24.486  27.425  1.00  0.00     0.031 A 
ATOM     52  C   UNL A   1      45.732  26.607  31.661  1.00  0.00     0.049 A 
ATOM     53  C   UNL A   1      42.294  24.022  27.928  1.00  0.00     0.074 A 
ATOM     54  C   UNL A   1      46.530  27.582  31.097  1.00  0.00     0.029 A 
ATOM     55  N   UNL A   1      45.824  25.525  30.819  1.00  0.00    -0.354 N 
ATOM     56  N   UNL A   1      43.429  24.351  27.383  1.00  0.00    -0.248 NA
ATOM     57  C   UNL A   1      42.377  23.511  29.285  1.00  0.00     0.031 C 
ATOM     58  C   UNL A   1      46.634  27.219  29.720  1.00  0.00     0.029 A 
ATOM     59  C   UNL A   1      45.945  26.018  29.546  1.00  0.00     0.049 A 
ATOM     60  H   UNL A   1      45.808  24.575  31.080  1.00  0.00     0.167 HD
ATOM     61  C   UNL A   1      44.295  24.518  28.452  1.00  0.00     0.074 A 
ATOM     62  C   UNL A   1      43.632  23.862  29.578  1.00  0.00     0.031 C 
ATOM     63  C   UNL A   1      45.324  25.414  28.389  1.00  0.00     0.031 A 
BRANCH  50  64
ATOM     64  C   UNL A   1      44.606  25.475  33.680  1.00  0.00    -0.014 A 
ATOM     65  C   UNL A   1      44.007  24.254  33.312  1.00  0.00     0.009 A 
ATOM     66  C   UNL A   1      44.822  25.678  35.055  1.00  0.00     0.009 A 
ATOM     67  C   UNL A   1      43.576  23.330  34.273  1.00  0.00     0.001 A 
ATOM     68  C   UNL A   1      44.434  24.738  36.015  1.00  0.00     0.001 A 
ATOM     69  C   UNL A   1      43.782  23.578  35.625  1.00  0.00     0.000 A 
ENDBRANCH  50  64
BRANCH  51  70
ATOM     70  C   UNL A   1      39.937  23.546  26.985  1.00  0.00    -0.014 A 
ATOM     71  C   UNL A   1      38.676  24.020  26.595  1.00  0.00     0.009 A 
ATOM     72  C   UNL A   1      40.266  22.214  26.678  1.00  0.00     0.009 A 
ATOM     73  C   UNL A   1      37.796  23.205  25.871  1.00  0.00     0.001 A 
ATOM     74  C   UNL A   1      39.385  21.399  25.961  1.00  0.00     0.001 A 
ATOM     75  C   UNL A   1      38.158  21.902  25.540  1.00  0.00     0.000 A 
ENDBRANCH  51  70
BRANCH  63  76
ATOM     76  C   UNL A   1      45.647  26.025  27.045  1.00  0.00    -0.014 A 
ATOM     77  C   UNL A   1      44.972  27.147  26.528  1.00  0.00     0.009 A 
ATOM     78  C   UNL A   1      46.745  25.528  26.329  1.00  0.00     0.009 A 
ATOM     79  C   UNL A   1      45.353  27.718  25.309  1.00  0.00     0.001 A 
ATOM     80  C   UNL A   1      47.143  26.114  25.125  1.00  0.00     0.001 A 
ATOM     81  C   UNL A   1      46.439  27.201  24.610  1.00  0.00     0.000 A 
ENDBRANCH  63  76
ENDBRANCH  37  38
ENDBRANCH  29  32
ENDBRANCH  27  28
ENDBRANCH  26  27
ENDBRANCH   1  26
TORSDOF 13
ENDMDL
