MODEL 1
REMARK VINA RESULT:     -11.3      0.000      0.000
REMARK SMILES O=C(/C=C/C(=O)N1CCn2c1nc1ccccc12)NCCCCNC(=O)c1ccc(-c2c3nc(c(-c4ccccc4)c4ccc([nH]4)c(-c4ccccc4)c4nc(c(-c5ccccc5)c5ccc2[nH]5)C=C4)C=C3)cc1
REMARK SMILES IDX 21 1 20 2 19 3 1 4 2 5 3 7 4 8 5 9 6 10 7 11 8 12 11 13 9 14
REMARK SMILES IDX 10 15 12 16 18 17 13 18 17 19 14 20 16 21 15 22 22 23 23 24
REMARK SMILES IDX 24 25 25 26 26 28 27 29 28 30 74 31 29 32 73 33 30 34 31 35
REMARK SMILES IDX 32 36 67 37 33 38 72 39 66 40 68 41 34 42 71 43 65 44 64 45
REMARK SMILES IDX 35 47 57 48 42 49 56 50 43 51 46 52 55 53 69 54 44 55 45 56
REMARK SMILES IDX 54 58 70 59 47 60 36 61 37 62 41 63 38 64 40 65 39 66 58 67
REMARK SMILES IDX 59 68 63 69 60 70 62 71 61 72 48 73 49 74 53 75 50 76 52 77
REMARK SMILES IDX 51 78
REMARK H PARENT 19 6 24 27 68 46 46 57
REMARK Flexibility Score: inf
ROOT
ATOM      1  C   UNL A   1      41.867  27.230  34.584  1.00  0.00     0.023 C 
ENDROOT
BRANCH   1   2
ATOM      2  C   UNL A   1      41.985  28.699  35.002  1.00  0.00     0.116 C 
BRANCH   2   3
ATOM      3  N   UNL A   1      40.697  29.334  35.217  1.00  0.00    -0.353 N 
ATOM      4  O   UNL A   1      40.435  30.035  33.046  1.00  0.00    -0.270 OA
ATOM      5  C   UNL A   1      40.020  29.951  34.194  1.00  0.00     0.244 C 
ATOM      6  H   UNL A   1      40.300  29.322  36.118  1.00  0.00     0.163 HD
BRANCH   5   7
ATOM      7  C   UNL A   1      38.777  30.657  34.582  1.00  0.00     0.077 C 
ATOM      8  C   UNL A   1      38.499  31.941  34.319  1.00  0.00     0.077 C 
BRANCH   8   9
ATOM      9  C   UNL A   1      37.143  32.486  34.575  1.00  0.00     0.253 C 
ATOM     10  O   UNL A   1      36.858  32.748  35.746  1.00  0.00    -0.269 OA
BRANCH   9  11
ATOM     11  N   UNL A   1      36.264  32.717  33.555  1.00  0.00    -0.277 N 
ATOM     12  C   UNL A   1      35.929  31.700  32.544  1.00  0.00     0.151 C 
ATOM     13  C   UNL A   1      35.626  33.889  33.259  1.00  0.00     0.213 A 
ATOM     14  C   UNL A   1      34.995  32.409  31.547  1.00  0.00     0.148 C 
ATOM     15  N   UNL A   1      34.878  33.729  32.132  1.00  0.00    -0.308 N 
ATOM     16  N   UNL A   1      35.554  35.105  33.721  1.00  0.00    -0.212 NA
ATOM     17  C   UNL A   1      34.236  34.876  31.834  1.00  0.00     0.070 A 
ATOM     18  C   UNL A   1      34.676  35.739  32.849  1.00  0.00     0.091 A 
ATOM     19  C   UNL A   1      33.348  35.257  30.827  1.00  0.00     0.028 A 
ATOM     20  C   UNL A   1      34.205  37.061  32.859  1.00  0.00     0.031 A 
ATOM     21  C   UNL A   1      32.890  36.579  30.865  1.00  0.00     0.002 A 
ATOM     22  C   UNL A   1      33.311  37.467  31.859  1.00  0.00     0.002 A 
ENDBRANCH   9  11
ENDBRANCH   8   9
ENDBRANCH   5   7
ENDBRANCH   2   3
ENDBRANCH   1   2
BRANCH   1  23
ATOM     23  C   UNL A   1      41.946  26.214  35.728  1.00  0.00     0.023 C 
BRANCH  23  24
ATOM     24  C   UNL A   1      41.836  24.756  35.285  1.00  0.00     0.116 C 
BRANCH  24  25
ATOM     25  N   UNL A   1      42.806  23.876  35.923  1.00  0.00    -0.352 N 
ATOM     26  C   UNL A   1      44.085  23.550  35.523  1.00  0.00     0.251 C 
ATOM     27  H   UNL A   1      42.505  23.453  36.760  1.00  0.00     0.163 HD
ATOM     28  O   UNL A   1      44.760  22.744  36.144  1.00  0.00    -0.269 OA
BRANCH  26  29
ATOM     29  C   UNL A   1      44.602  24.146  34.277  1.00  0.00     0.039 A 
ATOM     30  C   UNL A   1      45.400  25.288  34.325  1.00  0.00     0.014 A 
ATOM     31  C   UNL A   1      44.172  23.616  33.056  1.00  0.00     0.014 A 
ATOM     32  C   UNL A   1      45.594  26.024  33.166  1.00  0.00     0.010 A 
ATOM     33  C   UNL A   1      44.421  24.322  31.885  1.00  0.00     0.010 A 
ATOM     34  C   UNL A   1      45.062  25.566  31.954  1.00  0.00    -0.014 A 
BRANCH  34  35
ATOM     35  C   UNL A   1      45.173  26.474  30.805  1.00  0.00     0.031 A 
ATOM     36  C   UNL A   1      45.135  25.807  29.473  1.00  0.00     0.074 A 
ATOM     37  C   UNL A   1      44.682  27.728  30.886  1.00  0.00     0.049 A 
ATOM     38  N   UNL A   1      44.035  25.476  28.863  1.00  0.00    -0.248 NA
ATOM     39  C   UNL A   1      46.348  25.258  28.869  1.00  0.00     0.031 C 
ATOM     40  C   UNL A   1      43.445  28.090  31.593  1.00  0.00     0.029 A 
ATOM     41  N   UNL A   1      45.007  28.853  30.171  1.00  0.00    -0.354 N 
ATOM     42  C   UNL A   1      44.392  24.621  27.837  1.00  0.00     0.074 A 
ATOM     43  C   UNL A   1      45.836  24.528  27.869  1.00  0.00     0.031 C 
ATOM     44  C   UNL A   1      43.015  29.279  31.125  1.00  0.00     0.029 A 
ATOM     45  C   UNL A   1      44.018  29.829  30.225  1.00  0.00     0.049 A 
ATOM     46  H   UNL A   1      45.851  28.957  29.674  1.00  0.00     0.167 HD
ATOM     47  C   UNL A   1      43.497  24.006  27.020  1.00  0.00     0.031 A 
ATOM     48  C   UNL A   1      43.790  30.741  29.243  1.00  0.00     0.031 A 
ATOM     49  C   UNL A   1      42.122  24.338  27.232  1.00  0.00     0.049 A 
ATOM     50  C   UNL A   1      43.047  29.898  28.239  1.00  0.00     0.074 A 
ATOM     51  C   UNL A   1      41.055  23.813  27.928  1.00  0.00     0.029 A 
ATOM     52  N   UNL A   1      41.650  25.511  26.696  1.00  0.00    -0.354 N 
ATOM     53  N   UNL A   1      41.779  29.583  28.281  1.00  0.00    -0.248 NA
ATOM     54  C   UNL A   1      43.845  29.072  27.329  1.00  0.00     0.031 C 
ATOM     55  C   UNL A   1      40.152  24.903  28.127  1.00  0.00     0.029 A 
ATOM     56  C   UNL A   1      40.760  26.041  27.597  1.00  0.00     0.049 A 
ATOM     57  H   UNL A   1      41.901  25.899  25.827  1.00  0.00     0.167 HD
ATOM     58  C   UNL A   1      41.688  28.333  27.661  1.00  0.00     0.074 A 
ATOM     59  C   UNL A   1      42.984  28.103  27.055  1.00  0.00     0.031 C 
ATOM     60  C   UNL A   1      40.654  27.462  27.855  1.00  0.00     0.031 A 
BRANCH  47  61
ATOM     61  C   UNL A   1      43.895  23.116  25.913  1.00  0.00    -0.014 A 
ATOM     62  C   UNL A   1      44.482  23.617  24.745  1.00  0.00     0.009 A 
ATOM     63  C   UNL A   1      43.792  21.729  26.088  1.00  0.00     0.009 A 
ATOM     64  C   UNL A   1      44.972  22.736  23.777  1.00  0.00     0.001 A 
ATOM     65  C   UNL A   1      44.285  20.854  25.123  1.00  0.00     0.001 A 
ATOM     66  C   UNL A   1      44.880  21.358  23.969  1.00  0.00     0.000 A 
ENDBRANCH  47  61
BRANCH  48  67
ATOM     67  C   UNL A   1      44.974  31.601  28.931  1.00  0.00    -0.014 A 
ATOM     68  C   UNL A   1      46.149  31.688  29.687  1.00  0.00     0.009 A 
ATOM     69  C   UNL A   1      44.882  32.424  27.786  1.00  0.00     0.009 A 
ATOM     70  C   UNL A   1      47.128  32.648  29.390  1.00  0.00     0.001 A 
ATOM     71  C   UNL A   1      45.867  33.364  27.473  1.00  0.00     0.001 A 
ATOM     72  C   UNL A   1      46.980  33.495  28.294  1.00  0.00     0.000 A 
ENDBRANCH  48  67
BRANCH  60  73
ATOM     73  C   UNL A   1      39.478  27.978  28.622  1.00  0.00    -0.014 A 
ATOM     74  C   UNL A   1      38.515  28.790  27.998  1.00  0.00     0.009 A 
ATOM     75  C   UNL A   1      39.356  27.718  29.992  1.00  0.00     0.009 A 
ATOM     76  C   UNL A   1      37.488  29.376  28.739  1.00  0.00     0.001 A 
ATOM     77  C   UNL A   1      38.316  28.288  30.730  1.00  0.00     0.001 A 
ATOM     78  C   UNL A   1      37.393  29.129  30.107  1.00  0.00     0.000 A 
ENDBRANCH  60  73
ENDBRANCH  34  35
ENDBRANCH  26  29
ENDBRANCH  24  25
ENDBRANCH  23  24
ENDBRANCH   1  23
TORSDOF 13
ENDMDL
MODEL 2
REMARK VINA RESULT:     -11.0      3.424      8.104
REMARK SMILES O=C(/C=C/C(=O)N1CCn2c1nc1ccccc12)NCCCCNC(=O)c1ccc(-c2c3nc(c(-c4ccccc4)c4ccc([nH]4)c(-c4ccccc4)c4nc(c(-c5ccccc5)c5ccc2[nH]5)C=C4)C=C3)cc1
REMARK SMILES IDX 21 1 20 2 19 3 1 4 2 5 3 7 4 8 5 9 6 10 7 11 8 12 11 13 9 14
REMARK SMILES IDX 10 15 12 16 18 17 13 18 17 19 14 20 16 21 15 22 22 23 23 24
REMARK SMILES IDX 24 25 25 26 26 28 27 29 28 30 74 31 29 32 73 33 30 34 31 35
REMARK SMILES IDX 32 36 67 37 33 38 72 39 66 40 68 41 34 42 71 43 65 44 64 45
REMARK SMILES IDX 35 47 57 48 42 49 56 50 43 51 46 52 55 53 69 54 44 55 45 56
REMARK SMILES IDX 54 58 70 59 47 60 36 61 37 62 41 63 38 64 40 65 39 66 58 67
REMARK SMILES IDX 59 68 63 69 60 70 62 71 61 72 48 73 49 74 53 75 50 76 52 77
REMARK SMILES IDX 51 78
REMARK H PARENT 19 6 24 27 68 46 46 57
REMARK Flexibility Score: inf
ROOT
ATOM      1  C   UNL A   1      32.915  35.444  29.814  1.00  0.00     0.023 C 
ENDROOT
BRANCH   1   2
ATOM      2  C   UNL A   1      33.454  36.091  31.095  1.00  0.00     0.116 C 
BRANCH   2   3
ATOM      3  N   UNL A   1      34.436  35.267  31.777  1.00  0.00    -0.353 N 
ATOM      4  O   UNL A   1      34.443  36.498  33.716  1.00  0.00    -0.270 OA
ATOM      5  C   UNL A   1      34.845  35.547  33.057  1.00  0.00     0.244 C 
ATOM      6  H   UNL A   1      34.818  34.490  31.310  1.00  0.00     0.163 HD
BRANCH   5   7
ATOM      7  C   UNL A   1      35.935  34.694  33.584  1.00  0.00     0.077 C 
ATOM      8  C   UNL A   1      35.769  33.519  34.208  1.00  0.00     0.077 C 
BRANCH   8   9
ATOM      9  C   UNL A   1      36.936  32.656  34.511  1.00  0.00     0.253 C 
ATOM     10  O   UNL A   1      37.059  31.627  33.842  1.00  0.00    -0.269 OA
BRANCH   9  11
ATOM     11  N   UNL A   1      37.849  33.003  35.466  1.00  0.00    -0.277 N 
ATOM     12  C   UNL A   1      37.594  32.850  36.908  1.00  0.00     0.151 C 
ATOM     13  C   UNL A   1      39.069  33.590  35.273  1.00  0.00     0.213 A 
ATOM     14  C   UNL A   1      38.830  33.449  37.606  1.00  0.00     0.148 C 
ATOM     15  N   UNL A   1      39.655  33.830  36.479  1.00  0.00    -0.308 N 
ATOM     16  N   UNL A   1      39.806  34.007  34.283  1.00  0.00    -0.212 NA
ATOM     17  C   UNL A   1      40.863  34.401  36.302  1.00  0.00     0.070 A 
ATOM     18  C   UNL A   1      40.944  34.508  34.906  1.00  0.00     0.091 A 
ATOM     19  C   UNL A   1      41.871  34.827  37.169  1.00  0.00     0.028 A 
ATOM     20  C   UNL A   1      42.095  35.077  34.340  1.00  0.00     0.031 A 
ATOM     21  C   UNL A   1      43.010  35.385  36.577  1.00  0.00     0.002 A 
ATOM     22  C   UNL A   1      43.122  35.511  35.189  1.00  0.00     0.002 A 
ENDBRANCH   9  11
ENDBRANCH   8   9
ENDBRANCH   5   7
ENDBRANCH   2   3
ENDBRANCH   1   2
BRANCH   1  23
ATOM     23  C   UNL A   1      33.612  35.872  28.519  1.00  0.00     0.023 C 
BRANCH  23  24
ATOM     24  C   UNL A   1      34.531  34.811  27.917  1.00  0.00     0.116 C 
BRANCH  24  25
ATOM     25  N   UNL A   1      33.882  33.523  27.712  1.00  0.00    -0.352 N 
ATOM     26  C   UNL A   1      34.320  32.260  28.052  1.00  0.00     0.251 C 
ATOM     27  H   UNL A   1      33.005  33.559  27.265  1.00  0.00     0.163 HD
ATOM     28  O   UNL A   1      33.678  31.264  27.759  1.00  0.00    -0.269 OA
BRANCH  26  29
ATOM     29  C   UNL A   1      35.627  32.129  28.723  1.00  0.00     0.039 A 
ATOM     30  C   UNL A   1      36.685  31.489  28.079  1.00  0.00     0.014 A 
ATOM     31  C   UNL A   1      35.738  32.547  30.053  1.00  0.00     0.014 A 
ATOM     32  C   UNL A   1      37.778  31.075  28.825  1.00  0.00     0.010 A 
ATOM     33  C   UNL A   1      36.863  32.186  30.785  1.00  0.00     0.010 A 
ATOM     34  C   UNL A   1      37.843  31.381  30.190  1.00  0.00    -0.014 A 
BRANCH  34  35
ATOM     35  C   UNL A   1      38.948  30.776  30.945  1.00  0.00     0.031 A 
ATOM     36  C   UNL A   1      39.293  29.383  30.544  1.00  0.00     0.074 A 
ATOM     37  C   UNL A   1      39.946  31.551  31.417  1.00  0.00     0.049 A 
ATOM     38  N   UNL A   1      40.070  29.092  29.542  1.00  0.00    -0.248 NA
ATOM     39  C   UNL A   1      38.581  28.238  31.107  1.00  0.00     0.031 C 
ATOM     40  C   UNL A   1      40.504  32.710  30.706  1.00  0.00     0.029 A 
ATOM     41  N   UNL A   1      40.821  31.335  32.452  1.00  0.00    -0.354 N 
ATOM     42  C   UNL A   1      39.904  27.743  29.290  1.00  0.00     0.074 A 
ATOM     43  C   UNL A   1      38.985  27.251  30.295  1.00  0.00     0.031 C 
ATOM     44  C   UNL A   1      41.725  32.977  31.210  1.00  0.00     0.029 A 
ATOM     45  C   UNL A   1      41.958  32.131  32.372  1.00  0.00     0.049 A 
ATOM     46  H   UNL A   1      40.660  30.684  33.174  1.00  0.00     0.167 HD
ATOM     47  C   UNL A   1      40.502  27.088  28.260  1.00  0.00     0.031 A 
ATOM     48  C   UNL A   1      43.174  31.780  32.869  1.00  0.00     0.031 A 
ATOM     49  C   UNL A   1      41.391  27.864  27.454  1.00  0.00     0.049 A 
ATOM     50  C   UNL A   1      43.648  30.819  31.809  1.00  0.00     0.074 A 
ATOM     51  C   UNL A   1      41.322  28.573  26.273  1.00  0.00     0.029 A 
ATOM     52  N   UNL A   1      42.665  28.082  27.920  1.00  0.00    -0.354 N 
ATOM     53  N   UNL A   1      44.177  31.137  30.657  1.00  0.00    -0.248 NA
ATOM     54  C   UNL A   1      43.177  29.434  31.897  1.00  0.00     0.031 C 
ATOM     55  C   UNL A   1      42.398  29.512  26.325  1.00  0.00     0.029 A 
ATOM     56  C   UNL A   1      43.015  29.361  27.567  1.00  0.00     0.049 A 
ATOM     57  H   UNL A   1      43.224  27.440  28.415  1.00  0.00     0.167 HD
ATOM     58  C   UNL A   1      43.815  30.104  29.786  1.00  0.00     0.074 A 
ATOM     59  C   UNL A   1      43.248  29.068  30.625  1.00  0.00     0.031 C 
ATOM     60  C   UNL A   1      43.791  30.230  28.426  1.00  0.00     0.031 A 
BRANCH  47  61
ATOM     61  C   UNL A   1      40.335  25.642  28.020  1.00  0.00    -0.014 A 
ATOM     62  C   UNL A   1      39.225  25.136  27.335  1.00  0.00     0.009 A 
ATOM     63  C   UNL A   1      41.373  24.771  28.383  1.00  0.00     0.009 A 
ATOM     64  C   UNL A   1      39.166  23.779  27.005  1.00  0.00     0.001 A 
ATOM     65  C   UNL A   1      41.314  23.420  28.049  1.00  0.00     0.001 A 
ATOM     66  C   UNL A   1      40.212  22.925  27.355  1.00  0.00     0.000 A 
ENDBRANCH  47  61
BRANCH  48  67
ATOM     67  C   UNL A   1      43.167  31.501  34.338  1.00  0.00    -0.014 A 
ATOM     68  C   UNL A   1      42.134  30.885  35.053  1.00  0.00     0.009 A 
ATOM     69  C   UNL A   1      44.294  31.930  35.075  1.00  0.00     0.009 A 
ATOM     70  C   UNL A   1      42.165  30.820  36.454  1.00  0.00     0.001 A 
ATOM     71  C   UNL A   1      44.340  31.844  36.469  1.00  0.00     0.001 A 
ATOM     72  C   UNL A   1      43.259  31.313  37.161  1.00  0.00     0.000 A 
ENDBRANCH  48  67
BRANCH  60  73
ATOM     73  C   UNL A   1      44.373  31.486  27.859  1.00  0.00    -0.014 A 
ATOM     74  C   UNL A   1      43.584  32.641  27.715  1.00  0.00     0.009 A 
ATOM     75  C   UNL A   1      45.694  31.510  27.397  1.00  0.00     0.009 A 
ATOM     76  C   UNL A   1      44.087  33.772  27.071  1.00  0.00     0.001 A 
ATOM     77  C   UNL A   1      46.204  32.650  26.771  1.00  0.00     0.001 A 
ATOM     78  C   UNL A   1      45.395  33.773  26.594  1.00  0.00     0.000 A 
ENDBRANCH  60  73
ENDBRANCH  34  35
ENDBRANCH  26  29
ENDBRANCH  24  25
ENDBRANCH  23  24
ENDBRANCH   1  23
TORSDOF 13
ENDMDL
MODEL 3
REMARK VINA RESULT:     -10.7      3.425     12.057
REMARK SMILES O=C(/C=C/C(=O)N1CCn2c1nc1ccccc12)NCCCCNC(=O)c1ccc(-c2c3nc(c(-c4ccccc4)c4ccc([nH]4)c(-c4ccccc4)c4nc(c(-c5ccccc5)c5ccc2[nH]5)C=C4)C=C3)cc1
REMARK SMILES IDX 21 1 20 2 19 3 1 4 2 5 3 7 4 8 5 9 6 10 7 11 8 12 11 13 9 14
REMARK SMILES IDX 10 15 12 16 18 17 13 18 17 19 14 20 16 21 15 22 22 23 23 24
REMARK SMILES IDX 24 25 25 26 26 28 27 29 28 30 74 31 29 32 73 33 30 34 31 35
REMARK SMILES IDX 32 36 67 37 33 38 72 39 66 40 68 41 34 42 71 43 65 44 64 45
REMARK SMILES IDX 35 47 57 48 42 49 56 50 43 51 46 52 55 53 69 54 44 55 45 56
REMARK SMILES IDX 54 58 70 59 47 60 36 61 37 62 41 63 38 64 40 65 39 66 58 67
REMARK SMILES IDX 59 68 63 69 60 70 62 71 61 72 48 73 49 74 53 75 50 76 52 77
REMARK SMILES IDX 51 78
REMARK H PARENT 19 6 24 27 68 46 46 57
REMARK Flexibility Score: inf
ROOT
ATOM      1  C   UNL A   1      44.303  32.190  26.524  1.00  0.00     0.023 C 
ENDROOT
BRANCH   1   2
ATOM      2  C   UNL A   1      45.747  31.689  26.417  1.00  0.00     0.116 C 
BRANCH   2   3
ATOM      3  N   UNL A   1      45.851  30.392  25.772  1.00  0.00    -0.353 N 
ATOM      4  O   UNL A   1      46.236  29.217  27.706  1.00  0.00    -0.270 OA
ATOM      5  C   UNL A   1      46.084  29.247  26.492  1.00  0.00     0.244 C 
ATOM      6  H   UNL A   1      45.753  30.333  24.794  1.00  0.00     0.163 HD
BRANCH   5   7
ATOM      7  C   UNL A   1      46.283  28.016  25.693  1.00  0.00     0.077 C 
ATOM      8  C   UNL A   1      45.936  26.778  26.075  1.00  0.00     0.077 C 
BRANCH   8   9
ATOM      9  C   UNL A   1      45.996  25.650  25.115  1.00  0.00     0.253 C 
ATOM     10  O   UNL A   1      46.933  25.648  24.312  1.00  0.00    -0.269 OA
BRANCH   9  11
ATOM     11  N   UNL A   1      45.075  24.642  25.141  1.00  0.00    -0.277 N 
ATOM     12  C   UNL A   1      43.626  24.887  25.243  1.00  0.00     0.151 C 
ATOM     13  C   UNL A   1      45.316  23.297  25.151  1.00  0.00     0.213 A 
ATOM     14  C   UNL A   1      42.983  23.492  25.340  1.00  0.00     0.148 C 
ATOM     15  N   UNL A   1      44.137  22.622  25.239  1.00  0.00    -0.308 N 
ATOM     16  N   UNL A   1      46.337  22.488  25.131  1.00  0.00    -0.212 NA
ATOM     17  C   UNL A   1      44.361  21.293  25.241  1.00  0.00     0.070 A 
ATOM     18  C   UNL A   1      45.760  21.224  25.174  1.00  0.00     0.091 A 
ATOM     19  C   UNL A   1      43.534  20.169  25.291  1.00  0.00     0.028 A 
ATOM     20  C   UNL A   1      46.372  19.961  25.160  1.00  0.00     0.031 A 
ATOM     21  C   UNL A   1      44.170  18.923  25.271  1.00  0.00     0.002 A 
ATOM     22  C   UNL A   1      45.562  18.818  25.209  1.00  0.00     0.002 A 
ENDBRANCH   9  11
ENDBRANCH   8   9
ENDBRANCH   5   7
ENDBRANCH   2   3
ENDBRANCH   1   2
BRANCH   1  23
ATOM     23  C   UNL A   1      44.051  33.593  25.962  1.00  0.00     0.023 C 
BRANCH  23  24
ATOM     24  C   UNL A   1      45.074  34.640  26.399  1.00  0.00     0.116 C 
BRANCH  24  25
ATOM     25  N   UNL A   1      44.621  36.012  26.216  1.00  0.00    -0.352 N 
ATOM     26  C   UNL A   1      43.783  36.768  27.010  1.00  0.00     0.251 C 
ATOM     27  H   UNL A   1      44.962  36.466  25.411  1.00  0.00     0.163 HD
ATOM     28  O   UNL A   1      43.451  37.898  26.688  1.00  0.00    -0.269 OA
BRANCH  26  29
ATOM     29  C   UNL A   1      43.233  36.153  28.232  1.00  0.00     0.039 A 
ATOM     30  C   UNL A   1      44.048  35.961  29.347  1.00  0.00     0.014 A 
ATOM     31  C   UNL A   1      41.925  35.661  28.200  1.00  0.00     0.014 A 
ATOM     32  C   UNL A   1      43.631  35.093  30.346  1.00  0.00     0.010 A 
ATOM     33  C   UNL A   1      41.484  34.841  29.233  1.00  0.00     0.010 A 
ATOM     34  C   UNL A   1      42.368  34.495  30.263  1.00  0.00    -0.014 A 
BRANCH  34  35
ATOM     35  C   UNL A   1      42.060  33.472  31.271  1.00  0.00     0.031 A 
ATOM     36  C   UNL A   1      40.653  33.476  31.760  1.00  0.00     0.074 A 
ATOM     37  C   UNL A   1      42.706  32.288  31.249  1.00  0.00     0.049 A 
ATOM     38  N   UNL A   1      39.672  32.888  31.141  1.00  0.00    -0.248 NA
ATOM     39  C   UNL A   1      40.236  34.354  32.852  1.00  0.00     0.031 C 
ATOM     40  C   UNL A   1      43.086  31.573  30.023  1.00  0.00     0.029 A 
ATOM     41  N   UNL A   1      42.918  31.377  32.254  1.00  0.00    -0.354 N 
ATOM     42  C   UNL A   1      38.503  33.364  31.705  1.00  0.00     0.074 A 
ATOM     43  C   UNL A   1      38.901  34.257  32.773  1.00  0.00     0.031 C 
ATOM     44  C   UNL A   1      43.297  30.277  30.330  1.00  0.00     0.029 A 
ATOM     45  C   UNL A   1      43.235  30.111  31.775  1.00  0.00     0.049 A 
ATOM     46  H   UNL A   1      42.853  31.598  33.211  1.00  0.00     0.167 HD
ATOM     47  C   UNL A   1      37.261  33.029  31.266  1.00  0.00     0.031 A 
ATOM     48  C   UNL A   1      42.956  28.953  32.430  1.00  0.00     0.031 A 
ATOM     49  C   UNL A   1      37.207  32.083  30.195  1.00  0.00     0.049 A 
ATOM     50  C   UNL A   1      41.484  28.809  32.138  1.00  0.00     0.074 A 
ATOM     51  C   UNL A   1      37.112  32.121  28.821  1.00  0.00     0.029 A 
ATOM     52  N   UNL A   1      37.346  30.751  30.501  1.00  0.00    -0.354 N 
ATOM     53  N   UNL A   1      40.957  28.346  31.036  1.00  0.00    -0.248 NA
ATOM     54  C   UNL A   1      40.552  29.552  32.989  1.00  0.00     0.031 C 
ATOM     55  C   UNL A   1      37.630  30.870  28.365  1.00  0.00     0.029 A 
ATOM     56  C   UNL A   1      38.072  30.175  29.490  1.00  0.00     0.049 A 
ATOM     57  H   UNL A   1      36.989  30.295  31.297  1.00  0.00     0.167 HD
ATOM     58  C   UNL A   1      39.732  29.008  30.905  1.00  0.00     0.074 A 
ATOM     59  C   UNL A   1      39.523  29.694  32.164  1.00  0.00     0.031 C 
ATOM     60  C   UNL A   1      39.064  29.145  29.722  1.00  0.00     0.031 A 
BRANCH  47  61
ATOM     61  C   UNL A   1      36.023  33.526  31.897  1.00  0.00    -0.014 A 
ATOM     62  C   UNL A   1      35.194  34.452  31.254  1.00  0.00     0.009 A 
ATOM     63  C   UNL A   1      35.611  32.964  33.114  1.00  0.00     0.009 A 
ATOM     64  C   UNL A   1      33.962  34.795  31.818  1.00  0.00     0.001 A 
ATOM     65  C   UNL A   1      34.381  33.305  33.671  1.00  0.00     0.001 A 
ATOM     66  C   UNL A   1      33.554  34.218  33.020  1.00  0.00     0.000 A 
ENDBRANCH  47  61
BRANCH  48  67
ATOM     67  C   UNL A   1      43.571  28.867  33.791  1.00  0.00    -0.014 A 
ATOM     68  C   UNL A   1      44.777  29.459  34.187  1.00  0.00     0.009 A 
ATOM     69  C   UNL A   1      42.889  28.089  34.752  1.00  0.00     0.009 A 
ATOM     70  C   UNL A   1      45.341  29.177  35.440  1.00  0.00     0.001 A 
ATOM     71  C   UNL A   1      43.436  27.827  36.012  1.00  0.00     0.001 A 
ATOM     72  C   UNL A   1      44.679  28.350  36.344  1.00  0.00     0.000 A 
ENDBRANCH  48  67
BRANCH  60  73
ATOM     73  C   UNL A   1      39.596  28.371  28.558  1.00  0.00    -0.014 A 
ATOM     74  C   UNL A   1      39.307  27.002  28.415  1.00  0.00     0.009 A 
ATOM     75  C   UNL A   1      40.450  28.980  27.631  1.00  0.00     0.009 A 
ATOM     76  C   UNL A   1      39.904  26.250  27.404  1.00  0.00     0.001 A 
ATOM     77  C   UNL A   1      41.032  28.230  26.606  1.00  0.00     0.001 A 
ATOM     78  C   UNL A   1      40.772  26.863  26.503  1.00  0.00     0.000 A 
ENDBRANCH  60  73
ENDBRANCH  34  35
ENDBRANCH  26  29
ENDBRANCH  24  25
ENDBRANCH  23  24
ENDBRANCH   1  23
TORSDOF 13
ENDMDL
