MODEL 1
REMARK VINA RESULT:     -10.8      0.000      0.000
REMARK SMILES O=C(NCCCCNC(=O)[C@@]1(C(F)(F)F)CCN(C(=O)Cc2ccn[nH]2)C1)c1ccc(-c2c3nc(c(-c4ccccc4)c4ccc([nH]4)c(-c4ccccc4)c4nc(c(-c5ccccc5)c5ccc2[nH]5)C=C4)C=C3)cc1
REMARK SMILES IDX 6 1 5 2 4 3 3 4 1 5 2 6 28 8 29 9 75 10 30 11 74 12 31 13
REMARK SMILES IDX 32 14 33 15 68 16 34 17 73 18 67 19 69 20 35 21 72 22 66 23
REMARK SMILES IDX 65 24 36 26 58 27 43 28 57 29 44 30 47 31 56 32 70 33 45 34
REMARK SMILES IDX 46 35 55 37 71 38 48 39 37 40 38 41 42 42 39 43 41 44 40 45
REMARK SMILES IDX 59 46 60 47 64 48 61 49 63 50 62 51 49 52 50 53 54 54 51 55
REMARK SMILES IDX 53 56 52 57 7 58 8 59 9 60 10 62 11 63 16 64 27 65 17 66
REMARK SMILES IDX 18 67 12 68 13 69 14 70 15 71 19 72 20 73 21 74 22 75 23 76
REMARK SMILES IDX 26 77 24 78 25 79
REMARK H PARENT 3 7 69 25 47 36 8 61 26 80
REMARK Flexibility Score: inf
ROOT
ATOM      1  C   UNL A   1      36.823  21.107  24.701  1.00  0.00     0.023 C 
ENDROOT
BRANCH   1   2
ATOM      2  C   UNL A   1      37.840  19.976  24.888  1.00  0.00     0.023 C 
BRANCH   2   3
ATOM      3  C   UNL A   1      38.932  20.261  25.911  1.00  0.00     0.116 C 
BRANCH   3   4
ATOM      4  N   UNL A   1      40.061  19.351  25.805  1.00  0.00    -0.352 N 
ATOM      5  O   UNL A   1      42.243  18.765  25.804  1.00  0.00    -0.269 OA
ATOM      6  C   UNL A   1      41.387  19.610  26.046  1.00  0.00     0.251 C 
ATOM      7  H   UNL A   1      39.847  18.431  25.525  1.00  0.00     0.163 HD
BRANCH   6   8
ATOM      8  C   UNL A   1      41.775  20.933  26.569  1.00  0.00     0.039 A 
ATOM      9  C   UNL A   1      41.725  21.192  27.941  1.00  0.00     0.014 A 
ATOM     10  C   UNL A   1      42.176  21.925  25.671  1.00  0.00     0.014 A 
ATOM     11  C   UNL A   1      41.968  22.479  28.405  1.00  0.00     0.010 A 
ATOM     12  C   UNL A   1      42.487  23.200  26.147  1.00  0.00     0.010 A 
ATOM     13  C   UNL A   1      42.364  23.490  27.515  1.00  0.00    -0.014 A 
BRANCH  13  14
ATOM     14  C   UNL A   1      42.720  24.825  28.046  1.00  0.00     0.031 A 
ATOM     15  C   UNL A   1      41.675  25.878  28.269  1.00  0.00     0.074 A 
ATOM     16  C   UNL A   1      44.011  25.070  28.344  1.00  0.00     0.049 A 
ATOM     17  N   UNL A   1      41.822  27.095  28.729  1.00  0.00    -0.248 NA
ATOM     18  C   UNL A   1      40.287  25.526  27.931  1.00  0.00     0.031 C 
ATOM     19  C   UNL A   1      45.112  24.119  28.165  1.00  0.00     0.029 A 
ATOM     20  N   UNL A   1      44.612  26.182  28.870  1.00  0.00    -0.354 N 
ATOM     21  C   UNL A   1      40.554  27.661  28.718  1.00  0.00     0.074 A 
ATOM     22  C   UNL A   1      39.650  26.661  28.189  1.00  0.00     0.031 C 
ATOM     23  C   UNL A   1      46.245  24.673  28.617  1.00  0.00     0.029 A 
ATOM     24  C   UNL A   1      45.964  26.035  29.057  1.00  0.00     0.049 A 
ATOM     25  H   UNL A   1      44.122  27.006  29.095  1.00  0.00     0.167 HD
ATOM     26  C   UNL A   1      40.181  28.902  29.111  1.00  0.00     0.031 A 
ATOM     27  C   UNL A   1      46.883  26.904  29.512  1.00  0.00     0.031 A 
ATOM     28  C   UNL A   1      41.085  29.892  29.636  1.00  0.00     0.049 A 
ATOM     29  C   UNL A   1      46.446  28.282  29.908  1.00  0.00     0.074 A 
ATOM     30  C   UNL A   1      40.799  31.168  30.091  1.00  0.00     0.029 A 
ATOM     31  N   UNL A   1      42.454  29.718  29.769  1.00  0.00    -0.354 N 
ATOM     32  N   UNL A   1      45.238  28.792  29.914  1.00  0.00    -0.248 NA
ATOM     33  C   UNL A   1      47.498  29.203  30.355  1.00  0.00     0.031 C 
ATOM     34  C   UNL A   1      42.001  31.782  30.458  1.00  0.00     0.029 A 
ATOM     35  C   UNL A   1      43.030  30.872  30.276  1.00  0.00     0.049 A 
ATOM     36  H   UNL A   1      42.945  28.897  29.539  1.00  0.00     0.167 HD
ATOM     37  C   UNL A   1      45.383  30.093  30.371  1.00  0.00     0.074 A 
ATOM     38  C   UNL A   1      46.792  30.285  30.655  1.00  0.00     0.031 C 
ATOM     39  C   UNL A   1      44.435  31.046  30.538  1.00  0.00     0.031 A 
BRANCH  26  40
ATOM     40  C   UNL A   1      38.733  29.273  28.963  1.00  0.00    -0.014 A 
ATOM     41  C   UNL A   1      38.223  29.747  27.744  1.00  0.00     0.009 A 
ATOM     42  C   UNL A   1      37.855  29.098  30.043  1.00  0.00     0.009 A 
ATOM     43  C   UNL A   1      36.867  30.063  27.620  1.00  0.00     0.001 A 
ATOM     44  C   UNL A   1      36.496  29.393  29.911  1.00  0.00     0.001 A 
ATOM     45  C   UNL A   1      36.005  29.881  28.701  1.00  0.00     0.000 A 
ENDBRANCH  26  40
BRANCH  27  46
ATOM     46  C   UNL A   1      48.305  26.492  29.594  1.00  0.00    -0.014 A 
ATOM     47  C   UNL A   1      49.178  26.718  28.519  1.00  0.00     0.009 A 
ATOM     48  C   UNL A   1      48.805  25.896  30.764  1.00  0.00     0.009 A 
ATOM     49  C   UNL A   1      50.520  26.344  28.611  1.00  0.00     0.001 A 
ATOM     50  C   UNL A   1      50.153  25.549  30.862  1.00  0.00     0.001 A 
ATOM     51  C   UNL A   1      51.008  25.767  29.783  1.00  0.00     0.000 A 
ENDBRANCH  27  46
BRANCH  39  52
ATOM     52  C   UNL A   1      44.896  32.373  31.064  1.00  0.00    -0.014 A 
ATOM     53  C   UNL A   1      45.277  33.404  30.192  1.00  0.00     0.009 A 
ATOM     54  C   UNL A   1      44.927  32.602  32.449  1.00  0.00     0.009 A 
ATOM     55  C   UNL A   1      45.711  34.629  30.698  1.00  0.00     0.001 A 
ATOM     56  C   UNL A   1      45.338  33.836  32.950  1.00  0.00     0.001 A 
ATOM     57  C   UNL A   1      45.739  34.846  32.075  1.00  0.00     0.000 A 
ENDBRANCH  39  52
ENDBRANCH  13  14
ENDBRANCH   6   8
ENDBRANCH   3   4
ENDBRANCH   2   3
ENDBRANCH   1   2
BRANCH   1  58
ATOM     58  C   UNL A   1      35.372  20.699  24.974  1.00  0.00     0.116 C 
BRANCH  58  59
ATOM     59  N   UNL A   1      34.930  21.240  26.243  1.00  0.00    -0.355 N 
ATOM     60  C   UNL A   1      34.423  22.449  26.594  1.00  0.00     0.237 C 
ATOM     61  H   UNL A   1      35.015  20.612  26.996  1.00  0.00     0.163 HD
ATOM     62  O   UNL A   1      34.411  22.660  27.811  1.00  0.00    -0.274 OA
BRANCH  60  63
ATOM     63  C   UNL A   1      33.795  23.434  25.616  1.00  0.00     0.163 C 
ATOM     64  C   UNL A   1      32.760  22.736  24.717  1.00  0.00     0.050 C 
ATOM     65  C   UNL A   1      32.915  24.426  26.400  1.00  0.00     0.146 C 
ATOM     66  C   UNL A   1      31.734  23.814  24.399  1.00  0.00     0.121 C 
ATOM     67  N   UNL A   1      31.770  24.702  25.544  1.00  0.00    -0.341 N 
BRANCH  63  68
ATOM     68  C   UNL A   1      34.816  24.257  24.858  1.00  0.00     0.404 C 
ATOM     69  F   UNL A   1      34.945  23.874  23.570  1.00  0.00    -0.170 F 
ATOM     70  F   UNL A   1      34.478  25.567  24.805  1.00  0.00    -0.170 F 
ATOM     71  F   UNL A   1      36.039  24.187  25.425  1.00  0.00    -0.170 F 
ENDBRANCH  63  68
BRANCH  67  72
ATOM     72  C   UNL A   1      30.926  25.758  25.824  1.00  0.00     0.228 C 
ATOM     73  O   UNL A   1      29.747  25.573  26.137  1.00  0.00    -0.274 OA
BRANCH  72  74
ATOM     74  C   UNL A   1      31.475  27.172  25.696  1.00  0.00     0.155 C 
BRANCH  74  75
ATOM     75  C   UNL A   1      31.045  27.809  24.421  1.00  0.00     0.044 A 
ATOM     76  C   UNL A   1      31.041  29.122  24.000  1.00  0.00     0.045 A 
ATOM     77  N   UNL A   1      30.520  27.089  23.383  1.00  0.00    -0.282 N 
ATOM     78  C   UNL A   1      30.548  29.074  22.684  1.00  0.00     0.135 A 
ATOM     79  N   UNL A   1      30.245  27.832  22.300  1.00  0.00    -0.184 NA
ATOM     80  H   UNL A   1      30.360  26.119  23.425  1.00  0.00     0.190 HD
ENDBRANCH  74  75
ENDBRANCH  72  74
ENDBRANCH  67  72
ENDBRANCH  60  63
ENDBRANCH  58  59
ENDBRANCH   1  58
TORSDOF 15
ENDMDL
MODEL 2
REMARK VINA RESULT:     -10.8      4.738      9.330
REMARK SMILES O=C(NCCCCNC(=O)[C@@]1(C(F)(F)F)CCN(C(=O)Cc2ccn[nH]2)C1)c1ccc(-c2c3nc(c(-c4ccccc4)c4ccc([nH]4)c(-c4ccccc4)c4nc(c(-c5ccccc5)c5ccc2[nH]5)C=C4)C=C3)cc1
REMARK SMILES IDX 6 1 5 2 4 3 3 4 1 5 2 6 28 8 29 9 75 10 30 11 74 12 31 13
REMARK SMILES IDX 32 14 33 15 68 16 34 17 73 18 67 19 69 20 35 21 72 22 66 23
REMARK SMILES IDX 65 24 36 26 58 27 43 28 57 29 44 30 47 31 56 32 70 33 45 34
REMARK SMILES IDX 46 35 55 37 71 38 48 39 37 40 38 41 42 42 39 43 41 44 40 45
REMARK SMILES IDX 59 46 60 47 64 48 61 49 63 50 62 51 49 52 50 53 54 54 51 55
REMARK SMILES IDX 53 56 52 57 7 58 8 59 9 60 10 62 11 63 16 64 27 65 17 66
REMARK SMILES IDX 18 67 12 68 13 69 14 70 15 71 19 72 20 73 21 74 22 75 23 76
REMARK SMILES IDX 26 77 24 78 25 79
REMARK H PARENT 3 7 69 25 47 36 8 61 26 80
REMARK Flexibility Score: inf
ROOT
ATOM      1  C   UNL A   1      31.540  31.169  26.156  1.00  0.00     0.023 C 
ENDROOT
BRANCH   1   2
ATOM      2  C   UNL A   1      31.402  32.628  26.602  1.00  0.00     0.023 C 
BRANCH   2   3
ATOM      3  C   UNL A   1      32.592  33.173  27.381  1.00  0.00     0.116 C 
BRANCH   3   4
ATOM      4  N   UNL A   1      32.413  34.554  27.800  1.00  0.00    -0.352 N 
ATOM      5  O   UNL A   1      32.776  36.387  29.070  1.00  0.00    -0.269 OA
ATOM      6  C   UNL A   1      33.119  35.255  28.746  1.00  0.00     0.251 C 
ATOM      7  H   UNL A   1      31.694  35.051  27.345  1.00  0.00     0.163 HD
BRANCH   6   8
ATOM      8  C   UNL A   1      34.278  34.614  29.394  1.00  0.00     0.039 A 
ATOM      9  C   UNL A   1      35.533  34.638  28.780  1.00  0.00     0.014 A 
ATOM     10  C   UNL A   1      34.098  33.970  30.621  1.00  0.00     0.014 A 
ATOM     11  C   UNL A   1      36.583  33.921  29.338  1.00  0.00     0.010 A 
ATOM     12  C   UNL A   1      35.173  33.308  31.215  1.00  0.00     0.010 A 
ATOM     13  C   UNL A   1      36.416  33.261  30.567  1.00  0.00    -0.014 A 
BRANCH  13  14
ATOM     14  C   UNL A   1      37.579  32.593  31.194  1.00  0.00     0.031 A 
ATOM     15  C   UNL A   1      38.242  31.413  30.546  1.00  0.00     0.074 A 
ATOM     16  C   UNL A   1      38.043  33.081  32.361  1.00  0.00     0.049 A 
ATOM     17  N   UNL A   1      39.269  30.718  30.965  1.00  0.00    -0.248 NA
ATOM     18  C   UNL A   1      37.681  30.949  29.267  1.00  0.00     0.031 C 
ATOM     19  C   UNL A   1      37.475  34.224  33.081  1.00  0.00     0.029 A 
ATOM     20  N   UNL A   1      39.103  32.692  33.135  1.00  0.00    -0.354 N 
ATOM     21  C   UNL A   1      39.467  29.724  30.015  1.00  0.00     0.074 A 
ATOM     22  C   UNL A   1      38.443  29.895  29.006  1.00  0.00     0.031 C 
ATOM     23  C   UNL A   1      38.219  34.470  34.168  1.00  0.00     0.029 A 
ATOM     24  C   UNL A   1      39.275  33.468  34.254  1.00  0.00     0.049 A 
ATOM     25  H   UNL A   1      39.686  31.931  32.911  1.00  0.00     0.167 HD
ATOM     26  C   UNL A   1      40.416  28.758  29.990  1.00  0.00     0.031 A 
ATOM     27  C   UNL A   1      40.170  33.374  35.253  1.00  0.00     0.031 A 
ATOM     28  C   UNL A   1      41.431  28.594  30.998  1.00  0.00     0.049 A 
ATOM     29  C   UNL A   1      41.187  32.274  35.216  1.00  0.00     0.074 A 
ATOM     30  C   UNL A   1      42.456  27.664  31.047  1.00  0.00     0.029 A 
ATOM     31  N   UNL A   1      41.545  29.374  32.138  1.00  0.00    -0.354 N 
ATOM     32  N   UNL A   1      41.375  31.358  34.298  1.00  0.00    -0.248 NA
ATOM     33  C   UNL A   1      42.110  32.192  36.355  1.00  0.00     0.031 C 
ATOM     34  C   UNL A   1      43.163  27.853  32.239  1.00  0.00     0.029 A 
ATOM     35  C   UNL A   1      42.608  28.932  32.910  1.00  0.00     0.049 A 
ATOM     36  H   UNL A   1      40.959  30.131  32.366  1.00  0.00     0.167 HD
ATOM     37  C   UNL A   1      42.442  30.593  34.743  1.00  0.00     0.074 A 
ATOM     38  C   UNL A   1      42.875  31.169  36.002  1.00  0.00     0.031 C 
ATOM     39  C   UNL A   1      43.013  29.510  34.164  1.00  0.00     0.031 A 
BRANCH  26  40
ATOM     40  C   UNL A   1      40.385  27.781  28.850  1.00  0.00    -0.014 A 
ATOM     41  C   UNL A   1      39.663  26.580  28.937  1.00  0.00     0.009 A 
ATOM     42  C   UNL A   1      41.045  28.089  27.650  1.00  0.00     0.009 A 
ATOM     43  C   UNL A   1      39.626  25.697  27.855  1.00  0.00     0.001 A 
ATOM     44  C   UNL A   1      40.989  27.216  26.563  1.00  0.00     0.001 A 
ATOM     45  C   UNL A   1      40.286  26.017  26.668  1.00  0.00     0.000 A 
ENDBRANCH  26  40
BRANCH  27  46
ATOM     46  C   UNL A   1      40.121  34.344  36.375  1.00  0.00    -0.014 A 
ATOM     47  C   UNL A   1      39.389  34.056  37.536  1.00  0.00     0.009 A 
ATOM     48  C   UNL A   1      40.835  35.551  36.301  1.00  0.00     0.009 A 
ATOM     49  C   UNL A   1      39.363  34.966  38.596  1.00  0.00     0.001 A 
ATOM     50  C   UNL A   1      40.829  36.445  37.372  1.00  0.00     0.001 A 
ATOM     51  C   UNL A   1      40.088  36.154  38.516  1.00  0.00     0.000 A 
ENDBRANCH  27  46
BRANCH  39  52
ATOM     52  C   UNL A   1      44.173  28.890  34.885  1.00  0.00    -0.014 A 
ATOM     53  C   UNL A   1      43.979  27.859  35.817  1.00  0.00     0.009 A 
ATOM     54  C   UNL A   1      45.478  29.328  34.611  1.00  0.00     0.009 A 
ATOM     55  C   UNL A   1      45.068  27.299  36.484  1.00  0.00     0.001 A 
ATOM     56  C   UNL A   1      46.567  28.750  35.263  1.00  0.00     0.001 A 
ATOM     57  C   UNL A   1      46.361  27.742  36.206  1.00  0.00     0.000 A 
ENDBRANCH  39  52
ENDBRANCH  13  14
ENDBRANCH   6   8
ENDBRANCH   3   4
ENDBRANCH   2   3
ENDBRANCH   1   2
BRANCH   1  58
ATOM     58  C   UNL A   1      32.820  30.481  26.641  1.00  0.00     0.116 C 
BRANCH  58  59
ATOM     59  N   UNL A   1      32.493  29.387  27.533  1.00  0.00    -0.355 N 
ATOM     60  C   UNL A   1      31.937  28.168  27.318  1.00  0.00     0.237 C 
ATOM     61  H   UNL A   1      32.717  29.561  28.475  1.00  0.00     0.163 HD
ATOM     62  O   UNL A   1      31.552  27.599  28.344  1.00  0.00    -0.274 OA
BRANCH  60  63
ATOM     63  C   UNL A   1      31.888  27.472  25.964  1.00  0.00     0.163 C 
ATOM     64  C   UNL A   1      30.997  26.219  26.020  1.00  0.00     0.050 C 
ATOM     65  C   UNL A   1      31.117  28.363  24.971  1.00  0.00     0.146 C 
ATOM     66  C   UNL A   1      30.420  26.091  24.617  1.00  0.00     0.121 C 
ATOM     67  N   UNL A   1      30.369  27.451  24.117  1.00  0.00    -0.341 N 
BRANCH  63  68
ATOM     68  C   UNL A   1      33.257  27.230  25.365  1.00  0.00     0.404 C 
ATOM     69  F   UNL A   1      33.367  26.016  24.783  1.00  0.00    -0.170 F 
ATOM     70  F   UNL A   1      33.552  28.119  24.388  1.00  0.00    -0.170 F 
ATOM     71  F   UNL A   1      34.235  27.323  26.292  1.00  0.00    -0.170 F 
ENDBRANCH  63  68
BRANCH  67  72
ATOM     72  C   UNL A   1      29.789  27.903  22.949  1.00  0.00     0.228 C 
ATOM     73  O   UNL A   1      30.417  27.928  21.888  1.00  0.00    -0.274 OA
BRANCH  72  74
ATOM     74  C   UNL A   1      28.357  28.416  23.009  1.00  0.00     0.155 C 
BRANCH  74  75
ATOM     75  C   UNL A   1      28.294  29.883  22.772  1.00  0.00     0.044 A 
ATOM     76  C   UNL A   1      27.731  30.913  23.496  1.00  0.00     0.045 A 
ATOM     77  N   UNL A   1      28.841  30.471  21.664  1.00  0.00    -0.282 N 
ATOM     78  C   UNL A   1      28.041  32.075  22.767  1.00  0.00     0.135 A 
ATOM     79  N   UNL A   1      28.733  31.808  21.657  1.00  0.00    -0.184 NA
ATOM     80  H   UNL A   1      29.274  29.961  20.942  1.00  0.00     0.190 HD
ENDBRANCH  74  75
ENDBRANCH  72  74
ENDBRANCH  67  72
ENDBRANCH  60  63
ENDBRANCH  58  59
ENDBRANCH   1  58
TORSDOF 15
ENDMDL
MODEL 3
REMARK VINA RESULT:     -10.7      2.400      6.989
REMARK SMILES O=C(NCCCCNC(=O)[C@@]1(C(F)(F)F)CCN(C(=O)Cc2ccn[nH]2)C1)c1ccc(-c2c3nc(c(-c4ccccc4)c4ccc([nH]4)c(-c4ccccc4)c4nc(c(-c5ccccc5)c5ccc2[nH]5)C=C4)C=C3)cc1
REMARK SMILES IDX 6 1 5 2 4 3 3 4 1 5 2 6 28 8 29 9 75 10 30 11 74 12 31 13
REMARK SMILES IDX 32 14 33 15 68 16 34 17 73 18 67 19 69 20 35 21 72 22 66 23
REMARK SMILES IDX 65 24 36 26 58 27 43 28 57 29 44 30 47 31 56 32 70 33 45 34
REMARK SMILES IDX 46 35 55 37 71 38 48 39 37 40 38 41 42 42 39 43 41 44 40 45
REMARK SMILES IDX 59 46 60 47 64 48 61 49 63 50 62 51 49 52 50 53 54 54 51 55
REMARK SMILES IDX 53 56 52 57 7 58 8 59 9 60 10 62 11 63 16 64 27 65 17 66
REMARK SMILES IDX 18 67 12 68 13 69 14 70 15 71 19 72 20 73 21 74 22 75 23 76
REMARK SMILES IDX 26 77 24 78 25 79
REMARK H PARENT 3 7 69 25 47 36 8 61 26 80
REMARK Flexibility Score: inf
ROOT
ATOM      1  C   UNL A   1      37.212  20.270  25.088  1.00  0.00     0.023 C 
ENDROOT
BRANCH   1   2
ATOM      2  C   UNL A   1      38.432  19.345  25.030  1.00  0.00     0.023 C 
BRANCH   2   3
ATOM      3  C   UNL A   1      39.573  19.733  25.963  1.00  0.00     0.116 C 
BRANCH   3   4
ATOM      4  N   UNL A   1      40.703  18.821  25.886  1.00  0.00    -0.352 N 
ATOM      5  O   UNL A   1      42.888  18.248  25.834  1.00  0.00    -0.269 OA
ATOM      6  C   UNL A   1      42.037  19.107  26.037  1.00  0.00     0.251 C 
ATOM      7  H   UNL A   1      40.484  17.879  25.704  1.00  0.00     0.163 HD
BRANCH   6   8
ATOM      8  C   UNL A   1      42.438  20.475  26.416  1.00  0.00     0.039 A 
ATOM      9  C   UNL A   1      42.419  20.871  27.756  1.00  0.00     0.014 A 
ATOM     10  C   UNL A   1      42.820  21.371  25.415  1.00  0.00     0.014 A 
ATOM     11  C   UNL A   1      42.673  22.197  28.083  1.00  0.00     0.010 A 
ATOM     12  C   UNL A   1      43.143  22.685  25.753  1.00  0.00     0.010 A 
ATOM     13  C   UNL A   1      43.051  23.112  27.087  1.00  0.00    -0.014 A 
BRANCH  13  14
ATOM     14  C   UNL A   1      43.420  24.493  27.473  1.00  0.00     0.031 A 
ATOM     15  C   UNL A   1      44.850  24.947  27.466  1.00  0.00     0.074 A 
ATOM     16  C   UNL A   1      42.435  25.344  27.816  1.00  0.00     0.049 A 
ATOM     17  N   UNL A   1      45.338  26.122  27.774  1.00  0.00    -0.248 NA
ATOM     18  C   UNL A   1      45.865  23.959  27.066  1.00  0.00     0.031 C 
ATOM     19  C   UNL A   1      41.008  25.009  27.859  1.00  0.00     0.029 A 
ATOM     20  N   UNL A   1      42.478  26.664  28.178  1.00  0.00    -0.354 N 
ATOM     21  C   UNL A   1      46.714  26.012  27.626  1.00  0.00     0.074 A 
ATOM     22  C   UNL A   1      46.987  24.650  27.216  1.00  0.00     0.031 C 
ATOM     23  C   UNL A   1      40.311  26.107  28.184  1.00  0.00     0.029 A 
ATOM     24  C   UNL A   1      41.241  27.202  28.431  1.00  0.00     0.049 A 
ATOM     25  H   UNL A   1      43.315  27.178  28.249  1.00  0.00     0.167 HD
ATOM     26  C   UNL A   1      47.662  26.960  27.817  1.00  0.00     0.031 A 
ATOM     27  C   UNL A   1      40.891  28.435  28.838  1.00  0.00     0.031 A 
ATOM     28  C   UNL A   1      47.384  28.313  28.225  1.00  0.00     0.049 A 
ATOM     29  C   UNL A   1      41.964  29.454  29.073  1.00  0.00     0.074 A 
ATOM     30  C   UNL A   1      48.273  29.357  28.415  1.00  0.00     0.029 A 
ATOM     31  N   UNL A   1      46.121  28.807  28.512  1.00  0.00    -0.354 N 
ATOM     32  N   UNL A   1      43.258  29.339  28.904  1.00  0.00    -0.248 NA
ATOM     33  C   UNL A   1      41.527  30.769  29.559  1.00  0.00     0.031 C 
ATOM     34  C   UNL A   1      47.552  30.470  28.861  1.00  0.00     0.029 A 
ATOM     35  C   UNL A   1      46.209  30.133  28.902  1.00  0.00     0.049 A 
ATOM     36  H   UNL A   1      45.285  28.292  28.448  1.00  0.00     0.167 HD
ATOM     37  C   UNL A   1      43.793  30.569  29.257  1.00  0.00     0.074 A 
ATOM     38  C   UNL A   1      42.679  31.422  29.626  1.00  0.00     0.031 C 
ATOM     39  C   UNL A   1      45.090  30.958  29.277  1.00  0.00     0.031 A 
BRANCH  26  40
ATOM     40  C   UNL A   1      49.097  26.562  27.614  1.00  0.00    -0.014 A 
ATOM     41  C   UNL A   1      49.882  26.097  28.681  1.00  0.00     0.009 A 
ATOM     42  C   UNL A   1      49.656  26.605  26.328  1.00  0.00     0.009 A 
ATOM     43  C   UNL A   1      51.206  25.708  28.466  1.00  0.00     0.001 A 
ATOM     44  C   UNL A   1      50.973  26.195  26.111  1.00  0.00     0.001 A 
ATOM     45  C   UNL A   1      51.749  25.753  27.181  1.00  0.00     0.000 A 
ENDBRANCH  26  40
BRANCH  27  46
ATOM     46  C   UNL A   1      39.459  28.754  29.063  1.00  0.00    -0.014 A 
ATOM     47  C   UNL A   1      38.873  28.557  30.321  1.00  0.00     0.009 A 
ATOM     48  C   UNL A   1      38.680  29.288  28.023  1.00  0.00     0.009 A 
ATOM     49  C   UNL A   1      37.530  28.877  30.531  1.00  0.00     0.001 A 
ATOM     50  C   UNL A   1      37.346  29.632  28.244  1.00  0.00     0.001 A 
ATOM     51  C   UNL A   1      36.770  29.420  29.495  1.00  0.00     0.000 A 
ENDBRANCH  27  46
BRANCH  39  52
ATOM     52  C   UNL A   1      45.366  32.371  29.700  1.00  0.00    -0.014 A 
ATOM     53  C   UNL A   1      45.627  32.686  31.043  1.00  0.00     0.009 A 
ATOM     54  C   UNL A   1      45.387  33.395  28.741  1.00  0.00     0.009 A 
ATOM     55  C   UNL A   1      45.873  34.006  31.420  1.00  0.00     0.001 A 
ATOM     56  C   UNL A   1      45.657  34.710  29.118  1.00  0.00     0.001 A 
ATOM     57  C   UNL A   1      45.891  35.016  30.459  1.00  0.00     0.000 A 
ENDBRANCH  39  52
ENDBRANCH  13  14
ENDBRANCH   6   8
ENDBRANCH   3   4
ENDBRANCH   2   3
ENDBRANCH   1   2
BRANCH   1  58
ATOM     58  C   UNL A   1      37.526  21.698  25.545  1.00  0.00     0.116 C 
BRANCH  58  59
ATOM     59  N   UNL A   1      37.472  22.608  24.419  1.00  0.00    -0.355 N 
ATOM     60  C   UNL A   1      36.444  23.055  23.655  1.00  0.00     0.237 C 
ATOM     61  H   UNL A   1      38.349  22.971  24.157  1.00  0.00     0.163 HD
ATOM     62  O   UNL A   1      36.795  23.608  22.607  1.00  0.00    -0.274 OA
BRANCH  60  63
ATOM     63  C   UNL A   1      34.980  23.013  24.073  1.00  0.00     0.163 C 
ATOM     64  C   UNL A   1      34.061  23.407  22.904  1.00  0.00     0.050 C 
ATOM     65  C   UNL A   1      34.571  21.547  24.316  1.00  0.00     0.146 C 
ATOM     66  C   UNL A   1      32.774  22.630  23.144  1.00  0.00     0.121 C 
ATOM     67  N   UNL A   1      33.194  21.438  23.855  1.00  0.00    -0.341 N 
BRANCH  63  68
ATOM     68  C   UNL A   1      34.702  23.765  25.357  1.00  0.00     0.404 C 
ATOM     69  F   UNL A   1      33.551  24.470  25.313  1.00  0.00    -0.170 F 
ATOM     70  F   UNL A   1      34.567  22.933  26.417  1.00  0.00    -0.170 F 
ATOM     71  F   UNL A   1      35.695  24.629  25.658  1.00  0.00    -0.170 F 
ENDBRANCH  63  68
BRANCH  67  72
ATOM     72  C   UNL A   1      32.433  20.332  24.178  1.00  0.00     0.228 C 
ATOM     73  O   UNL A   1      31.761  20.296  25.211  1.00  0.00    -0.274 OA
BRANCH  72  74
ATOM     74  C   UNL A   1      32.477  19.132  23.244  1.00  0.00     0.155 C 
BRANCH  74  75
ATOM     75  C   UNL A   1      32.956  17.912  23.949  1.00  0.00     0.044 A 
ATOM     76  C   UNL A   1      34.180  17.276  23.968  1.00  0.00     0.045 A 
ATOM     77  N   UNL A   1      32.143  17.164  24.757  1.00  0.00    -0.282 N 
ATOM     78  C   UNL A   1      34.009  16.196  24.853  1.00  0.00     0.135 A 
ATOM     79  N   UNL A   1      32.771  16.137  25.348  1.00  0.00    -0.184 NA
ATOM     80  H   UNL A   1      31.188  17.362  24.891  1.00  0.00     0.190 HD
ENDBRANCH  74  75
ENDBRANCH  72  74
ENDBRANCH  67  72
ENDBRANCH  60  63
ENDBRANCH  58  59
ENDBRANCH   1  58
TORSDOF 15
ENDMDL
