MODEL 1
REMARK VINA RESULT:     -12.7      0.000      0.000
REMARK SMILES Cc1ccc(S(=O)(=O)n2cc(C(=O)C(=O)NCC(=O)NCCCCNC(=O)c3ccc(-c4c5nc(c(-c6ccccc6)c6ccc([nH]6)c(-c6ccccc6)c6nc(c(-c7ccccc7)c7ccc4[nH]7)C=C6)C=C5)cc3)c3ccccc32)cc1
REMARK SMILES IDX 21 1 20 2 18 3 19 4 17 6 16 7 14 8 15 9 12 11 13 12 11 13
REMARK SMILES IDX 9 14 10 15 81 16 76 17 80 18 77 19 79 20 78 21 6 22 7 23
REMARK SMILES IDX 8 24 5 25 1 26 2 27 3 28 83 29 4 30 82 31 22 32 23 33 24 34
REMARK SMILES IDX 25 35 26 36 27 38 28 39 29 40 75 41 30 42 74 43 31 44 32 45
REMARK SMILES IDX 33 46 68 47 34 48 73 49 67 50 69 51 35 52 72 53 66 54 65 55
REMARK SMILES IDX 36 57 58 58 43 59 57 60 44 61 47 62 56 63 70 64 45 65 46 66
REMARK SMILES IDX 55 68 71 69 48 70 37 71 38 72 42 73 39 74 41 75 40 76 59 77
REMARK SMILES IDX 60 78 64 79 61 80 63 81 62 82 49 83 50 84 54 85 51 86 53 87
REMARK SMILES IDX 52 88
REMARK H PARENT 20 5 16 10 25 37 69 56 47 67
REMARK Flexibility Score: inf
ROOT
ATOM      1  C   UNL A   1      34.380  28.752  26.470  1.00  0.00     0.116 C 
ENDROOT
BRANCH   1   2
ATOM      2  N   UNL A   1      33.160  29.524  26.348  1.00  0.00    -0.355 N 
ATOM      3  C   UNL A   1      32.348  29.706  25.266  1.00  0.00     0.239 C 
ATOM      4  O   UNL A   1      31.310  30.352  25.427  1.00  0.00    -0.273 OA
ATOM      5  H   UNL A   1      32.873  29.987  27.169  1.00  0.00     0.163 HD
BRANCH   3   6
ATOM      6  C   UNL A   1      32.649  29.013  23.933  1.00  0.00     0.216 C 
BRANCH   6   7
ATOM      7  N   UNL A   1      31.771  29.423  22.843  1.00  0.00    -0.340 N 
ATOM      8  C   UNL A   1      30.551  28.941  22.421  1.00  0.00     0.292 C 
ATOM      9  O   UNL A   1      30.013  29.483  21.462  1.00  0.00    -0.265 OA
ATOM     10  H   UNL A   1      32.112  30.179  22.312  1.00  0.00     0.164 HD
BRANCH   8  11
ATOM     11  C   UNL A   1      29.884  27.719  23.108  1.00  0.00     0.252 C 
ATOM     12  O   UNL A   1      28.694  27.795  23.398  1.00  0.00    -0.283 OA
BRANCH  11  13
ATOM     13  C   UNL A   1      30.640  26.496  23.429  1.00  0.00     0.054 A 
ATOM     14  N   UNL A   1      32.028  24.747  23.312  1.00  0.00    -0.240 N 
ATOM     15  C   UNL A   1      31.648  25.908  22.685  1.00  0.00     0.117 A 
ATOM     16  C   UNL A   1      31.324  24.557  24.481  1.00  0.00     0.065 A 
ATOM     17  C   UNL A   1      30.442  25.643  24.576  1.00  0.00     0.012 A 
ATOM     18  C   UNL A   1      31.343  23.527  25.438  1.00  0.00     0.028 A 
ATOM     19  C   UNL A   1      29.568  25.696  25.687  1.00  0.00     0.011 A 
ATOM     20  C   UNL A   1      30.445  23.596  26.505  1.00  0.00     0.002 A 
ATOM     21  C   UNL A   1      29.572  24.669  26.634  1.00  0.00     0.001 A 
BRANCH  14  22
ATOM     22  S   UNL A   1      33.141  23.644  22.642  1.00  0.00     0.268 S 
ATOM     23  O   UNL A   1      33.543  24.243  21.374  1.00  0.00    -0.201 OA
ATOM     24  O   UNL A   1      32.508  22.350  22.709  1.00  0.00    -0.201 OA
BRANCH  22  25
ATOM     25  C   UNL A   1      34.571  23.596  23.692  1.00  0.00     0.088 A 
ATOM     26  C   UNL A   1      38.238  23.535  25.944  1.00  0.00     0.044 C 
ATOM     27  C   UNL A   1      36.950  23.542  25.173  1.00  0.00    -0.051 A 
ATOM     28  C   UNL A   1      36.869  22.877  23.944  1.00  0.00     0.005 A 
ATOM     29  C   UNL A   1      35.821  24.207  25.666  1.00  0.00     0.005 A 
ATOM     30  C   UNL A   1      35.687  22.906  23.202  1.00  0.00     0.022 A 
ATOM     31  C   UNL A   1      34.628  24.227  24.936  1.00  0.00     0.022 A 
ENDBRANCH  22  25
ENDBRANCH  14  22
ENDBRANCH  11  13
ENDBRANCH   8  11
ENDBRANCH   6   7
ENDBRANCH   3   6
ENDBRANCH   1   2
BRANCH   1  32
ATOM     32  C   UNL A   1      35.373  29.385  27.451  1.00  0.00     0.023 C 
BRANCH  32  33
ATOM     33  C   UNL A   1      35.206  30.891  27.633  1.00  0.00     0.023 C 
BRANCH  33  34
ATOM     34  C   UNL A   1      35.140  31.348  29.081  1.00  0.00     0.116 C 
BRANCH  34  35
ATOM     35  N   UNL A   1      34.321  32.532  29.308  1.00  0.00    -0.352 N 
ATOM     36  C   UNL A   1      34.522  33.610  30.157  1.00  0.00     0.251 C 
ATOM     37  H   UNL A   1      33.494  32.572  28.776  1.00  0.00     0.163 HD
ATOM     38  O   UNL A   1      33.648  34.466  30.264  1.00  0.00    -0.269 OA
BRANCH  36  39
ATOM     39  C   UNL A   1      35.855  33.845  30.773  1.00  0.00     0.039 A 
ATOM     40  C   UNL A   1      36.866  34.263  29.896  1.00  0.00     0.014 A 
ATOM     41  C   UNL A   1      36.186  33.253  31.982  1.00  0.00     0.014 A 
ATOM     42  C   UNL A   1      38.137  33.735  30.043  1.00  0.00     0.010 A 
ATOM     43  C   UNL A   1      37.379  32.587  32.043  1.00  0.00     0.010 A 
ATOM     44  C   UNL A   1      38.315  32.772  31.026  1.00  0.00    -0.014 A 
BRANCH  44  45
ATOM     45  C   UNL A   1      39.472  31.920  31.132  1.00  0.00     0.031 A 
ATOM     46  C   UNL A   1      39.418  30.652  30.402  1.00  0.00     0.074 A 
ATOM     47  C   UNL A   1      40.579  32.413  31.728  1.00  0.00     0.049 A 
ATOM     48  N   UNL A   1      40.200  29.663  30.620  1.00  0.00    -0.248 NA
ATOM     49  C   UNL A   1      38.408  30.376  29.381  1.00  0.00     0.031 C 
ATOM     50  C   UNL A   1      41.950  31.918  31.684  1.00  0.00     0.029 A 
ATOM     51  N   UNL A   1      40.608  33.402  32.711  1.00  0.00    -0.354 N 
ATOM     52  C   UNL A   1      40.027  28.779  29.581  1.00  0.00     0.074 A 
ATOM     53  C   UNL A   1      38.827  29.201  28.908  1.00  0.00     0.031 C 
ATOM     54  C   UNL A   1      42.614  32.384  32.759  1.00  0.00     0.029 A 
ATOM     55  C   UNL A   1      41.636  33.050  33.606  1.00  0.00     0.049 A 
ATOM     56  H   UNL A   1      40.024  34.193  32.767  1.00  0.00     0.167 HD
ATOM     57  C   UNL A   1      41.030  27.898  29.327  1.00  0.00     0.031 A 
ATOM     58  C   UNL A   1      41.309  32.651  34.873  1.00  0.00     0.031 A 
ATOM     59  C   UNL A   1      42.056  27.991  30.367  1.00  0.00     0.049 A 
ATOM     60  C   UNL A   1      41.654  31.195  35.129  1.00  0.00     0.074 A 
ATOM     61  C   UNL A   1      43.271  28.652  30.433  1.00  0.00     0.029 A 
ATOM     62  N   UNL A   1      41.693  27.706  31.677  1.00  0.00    -0.354 N 
ATOM     63  N   UNL A   1      41.812  30.292  34.196  1.00  0.00    -0.248 NA
ATOM     64  C   UNL A   1      41.869  30.655  36.464  1.00  0.00     0.031 C 
ATOM     65  C   UNL A   1      43.608  28.807  31.808  1.00  0.00     0.029 A 
ATOM     66  C   UNL A   1      42.618  28.209  32.571  1.00  0.00     0.049 A 
ATOM     67  H   UNL A   1      40.883  27.210  31.935  1.00  0.00     0.167 HD
ATOM     68  C   UNL A   1      42.178  29.093  34.761  1.00  0.00     0.074 A 
ATOM     69  C   UNL A   1      42.189  29.379  36.186  1.00  0.00     0.031 C 
ATOM     70  C   UNL A   1      42.439  27.980  34.004  1.00  0.00     0.031 A 
BRANCH  57  71
ATOM     71  C   UNL A   1      41.215  27.167  28.023  1.00  0.00    -0.014 A 
ATOM     72  C   UNL A   1      41.205  25.761  28.030  1.00  0.00     0.009 A 
ATOM     73  C   UNL A   1      41.461  27.773  26.778  1.00  0.00     0.009 A 
ATOM     74  C   UNL A   1      41.475  25.007  26.880  1.00  0.00     0.001 A 
ATOM     75  C   UNL A   1      41.749  27.027  25.626  1.00  0.00     0.001 A 
ATOM     76  C   UNL A   1      41.762  25.642  25.679  1.00  0.00     0.000 A 
ENDBRANCH  57  71
BRANCH  58  77
ATOM     77  C   UNL A   1      40.105  33.373  35.402  1.00  0.00    -0.014 A 
ATOM     78  C   UNL A   1      38.872  32.678  35.394  1.00  0.00     0.009 A 
ATOM     79  C   UNL A   1      40.243  34.463  36.272  1.00  0.00     0.009 A 
ATOM     80  C   UNL A   1      37.897  32.932  36.364  1.00  0.00     0.001 A 
ATOM     81  C   UNL A   1      39.242  34.740  37.215  1.00  0.00     0.001 A 
ATOM     82  C   UNL A   1      38.103  33.938  37.302  1.00  0.00     0.000 A 
ENDBRANCH  58  77
BRANCH  70  83
ATOM     83  C   UNL A   1      42.582  26.542  34.491  1.00  0.00    -0.014 A 
ATOM     84  C   UNL A   1      41.672  25.862  35.303  1.00  0.00     0.009 A 
ATOM     85  C   UNL A   1      43.686  25.770  34.042  1.00  0.00     0.009 A 
ATOM     86  C   UNL A   1      41.842  24.508  35.636  1.00  0.00     0.001 A 
ATOM     87  C   UNL A   1      43.839  24.412  34.327  1.00  0.00     0.001 A 
ATOM     88  C   UNL A   1      42.913  23.778  35.133  1.00  0.00     0.000 A 
ENDBRANCH  70  83
ENDBRANCH  44  45
ENDBRANCH  36  39
ENDBRANCH  34  35
ENDBRANCH  33  34
ENDBRANCH  32  33
ENDBRANCH   1  32
TORSDOF 16
ENDMDL
MODEL 2
REMARK VINA RESULT:     -12.6      4.029      9.047
REMARK SMILES Cc1ccc(S(=O)(=O)n2cc(C(=O)C(=O)NCC(=O)NCCCCNC(=O)c3ccc(-c4c5nc(c(-c6ccccc6)c6ccc([nH]6)c(-c6ccccc6)c6nc(c(-c7ccccc7)c7ccc4[nH]7)C=C6)C=C5)cc3)c3ccccc32)cc1
REMARK SMILES IDX 21 1 20 2 18 3 19 4 17 6 16 7 14 8 15 9 12 11 13 12 11 13
REMARK SMILES IDX 9 14 10 15 81 16 76 17 80 18 77 19 79 20 78 21 6 22 7 23
REMARK SMILES IDX 8 24 5 25 1 26 2 27 3 28 83 29 4 30 82 31 22 32 23 33 24 34
REMARK SMILES IDX 25 35 26 36 27 38 28 39 29 40 75 41 30 42 74 43 31 44 32 45
REMARK SMILES IDX 33 46 68 47 34 48 73 49 67 50 69 51 35 52 72 53 66 54 65 55
REMARK SMILES IDX 36 57 58 58 43 59 57 60 44 61 47 62 56 63 70 64 45 65 46 66
REMARK SMILES IDX 55 68 71 69 48 70 37 71 38 72 42 73 39 74 41 75 40 76 59 77
REMARK SMILES IDX 60 78 64 79 61 80 63 81 62 82 49 83 50 84 54 85 51 86 53 87
REMARK SMILES IDX 52 88
REMARK H PARENT 20 5 16 10 25 37 69 56 47 67
REMARK Flexibility Score: inf
ROOT
ATOM      1  C   UNL A   1      37.245  22.544  25.062  1.00  0.00     0.116 C 
ENDROOT
BRANCH   1   2
ATOM      2  N   UNL A   1      36.131  22.440  25.983  1.00  0.00    -0.355 N 
ATOM      3  C   UNL A   1      35.129  21.516  26.038  1.00  0.00     0.239 C 
ATOM      4  O   UNL A   1      34.326  21.592  26.971  1.00  0.00    -0.273 OA
ATOM      5  H   UNL A   1      36.091  23.143  26.672  1.00  0.00     0.163 HD
BRANCH   3   6
ATOM      6  C   UNL A   1      35.087  20.343  25.053  1.00  0.00     0.216 C 
BRANCH   6   7
ATOM      7  N   UNL A   1      33.924  19.478  25.213  1.00  0.00    -0.340 N 
ATOM      8  C   UNL A   1      32.710  19.450  24.562  1.00  0.00     0.292 C 
ATOM      9  O   UNL A   1      31.893  18.597  24.893  1.00  0.00    -0.265 OA
ATOM     10  H   UNL A   1      34.023  18.792  25.913  1.00  0.00     0.164 HD
BRANCH   8  11
ATOM     11  C   UNL A   1      32.357  20.489  23.464  1.00  0.00     0.252 C 
ATOM     12  O   UNL A   1      32.123  20.080  22.332  1.00  0.00    -0.283 OA
BRANCH  11  13
ATOM     13  C   UNL A   1      32.315  21.934  23.744  1.00  0.00     0.054 A 
ATOM     14  N   UNL A   1      32.710  24.135  23.696  1.00  0.00    -0.240 N 
ATOM     15  C   UNL A   1      32.967  22.946  23.060  1.00  0.00     0.117 A 
ATOM     16  C   UNL A   1      31.869  23.954  24.772  1.00  0.00     0.065 A 
ATOM     17  C   UNL A   1      31.607  22.577  24.826  1.00  0.00     0.012 A 
ATOM     18  C   UNL A   1      31.348  24.849  25.724  1.00  0.00     0.028 A 
ATOM     19  C   UNL A   1      30.775  22.097  25.863  1.00  0.00     0.011 A 
ATOM     20  C   UNL A   1      30.554  24.335  26.753  1.00  0.00     0.002 A 
ATOM     21  C   UNL A   1      30.265  22.978  26.820  1.00  0.00     0.001 A 
BRANCH  14  22
ATOM     22  S   UNL A   1      33.448  25.608  23.260  1.00  0.00     0.268 S 
ATOM     23  O   UNL A   1      33.856  25.423  21.871  1.00  0.00    -0.201 OA
ATOM     24  O   UNL A   1      34.400  25.900  24.303  1.00  0.00    -0.201 OA
BRANCH  22  25
ATOM     25  C   UNL A   1      32.209  26.877  23.291  1.00  0.00     0.088 A 
ATOM     26  C   UNL A   1      29.472  30.196  23.387  1.00  0.00     0.044 C 
ATOM     27  C   UNL A   1      30.411  29.026  23.364  1.00  0.00    -0.051 A 
ATOM     28  C   UNL A   1      31.524  29.009  24.212  1.00  0.00     0.005 A 
ATOM     29  C   UNL A   1      30.191  27.944  22.504  1.00  0.00     0.005 A 
ATOM     30  C   UNL A   1      32.424  27.942  24.174  1.00  0.00     0.022 A 
ATOM     31  C   UNL A   1      31.080  26.865  22.472  1.00  0.00     0.022 A 
ENDBRANCH  22  25
ENDBRANCH  14  22
ENDBRANCH  11  13
ENDBRANCH   8  11
ENDBRANCH   6   7
ENDBRANCH   3   6
ENDBRANCH   1   2
BRANCH   1  32
ATOM     32  C   UNL A   1      38.426  21.661  25.475  1.00  0.00     0.023 C 
BRANCH  32  33
ATOM     33  C   UNL A   1      39.314  22.265  26.561  1.00  0.00     0.023 C 
BRANCH  33  34
ATOM     34  C   UNL A   1      40.712  22.638  26.097  1.00  0.00     0.116 C 
BRANCH  34  35
ATOM     35  N   UNL A   1      41.544  21.507  25.703  1.00  0.00    -0.352 N 
ATOM     36  C   UNL A   1      42.880  21.245  25.966  1.00  0.00     0.251 C 
ATOM     37  H   UNL A   1      41.084  20.823  25.164  1.00  0.00     0.163 HD
ATOM     38  O   UNL A   1      43.415  20.266  25.452  1.00  0.00    -0.269 OA
BRANCH  36  39
ATOM     39  C   UNL A   1      43.605  22.007  27.016  1.00  0.00     0.039 A 
ATOM     40  C   UNL A   1      43.004  22.023  28.283  1.00  0.00     0.014 A 
ATOM     41  C   UNL A   1      44.514  22.994  26.668  1.00  0.00     0.014 A 
ATOM     42  C   UNL A   1      43.004  23.202  29.007  1.00  0.00     0.010 A 
ATOM     43  C   UNL A   1      44.379  24.211  27.279  1.00  0.00     0.010 A 
ATOM     44  C   UNL A   1      43.556  24.320  28.400  1.00  0.00    -0.014 A 
BRANCH  44  45
ATOM     45  C   UNL A   1      43.389  25.671  28.874  1.00  0.00     0.031 A 
ATOM     46  C   UNL A   1      42.216  26.395  28.382  1.00  0.00     0.074 A 
ATOM     47  C   UNL A   1      44.200  26.109  29.861  1.00  0.00     0.049 A 
ATOM     48  N   UNL A   1      42.074  27.665  28.450  1.00  0.00    -0.248 NA
ATOM     49  C   UNL A   1      41.107  25.725  27.703  1.00  0.00     0.031 C 
ATOM     50  C   UNL A   1      44.051  27.268  30.733  1.00  0.00     0.029 A 
ATOM     51  N   UNL A   1      45.494  25.656  30.119  1.00  0.00    -0.354 N 
ATOM     52  C   UNL A   1      40.761  27.938  28.145  1.00  0.00     0.074 A 
ATOM     53  C   UNL A   1      40.236  26.727  27.572  1.00  0.00     0.031 C 
ATOM     54  C   UNL A   1      45.262  27.608  31.213  1.00  0.00     0.029 A 
ATOM     55  C   UNL A   1      46.240  26.778  30.525  1.00  0.00     0.049 A 
ATOM     56  H   UNL A   1      45.822  24.731  30.034  1.00  0.00     0.167 HD
ATOM     57  C   UNL A   1      40.243  29.118  28.578  1.00  0.00     0.031 A 
ATOM     58  C   UNL A   1      47.223  27.259  29.704  1.00  0.00     0.031 A 
ATOM     59  C   UNL A   1      41.298  29.941  29.172  1.00  0.00     0.049 A 
ATOM     60  C   UNL A   1      46.903  28.642  29.166  1.00  0.00     0.074 A 
ATOM     61  C   UNL A   1      41.696  30.160  30.479  1.00  0.00     0.029 A 
ATOM     62  N   UNL A   1      42.362  30.327  28.367  1.00  0.00    -0.354 N 
ATOM     63  N   UNL A   1      45.701  29.153  29.090  1.00  0.00    -0.248 NA
ATOM     64  C   UNL A   1      47.926  29.565  28.693  1.00  0.00     0.031 C 
ATOM     65  C   UNL A   1      43.039  30.635  30.451  1.00  0.00     0.029 A 
ATOM     66  C   UNL A   1      43.439  30.738  29.128  1.00  0.00     0.049 A 
ATOM     67  H   UNL A   1      42.352  30.310  27.382  1.00  0.00     0.167 HD
ATOM     68  C   UNL A   1      45.768  30.442  28.616  1.00  0.00     0.074 A 
ATOM     69  C   UNL A   1      47.187  30.643  28.377  1.00  0.00     0.031 C 
ATOM     70  C   UNL A   1      44.651  31.223  28.468  1.00  0.00     0.031 A 
BRANCH  57  71
ATOM     71  C   UNL A   1      38.771  29.404  28.716  1.00  0.00    -0.014 A 
ATOM     72  C   UNL A   1      38.160  29.210  29.968  1.00  0.00     0.009 A 
ATOM     73  C   UNL A   1      37.918  29.801  27.672  1.00  0.00     0.009 A 
ATOM     74  C   UNL A   1      36.778  29.351  30.153  1.00  0.00     0.001 A 
ATOM     75  C   UNL A   1      36.532  29.928  27.844  1.00  0.00     0.001 A 
ATOM     76  C   UNL A   1      35.961  29.696  29.086  1.00  0.00     0.000 A 
ENDBRANCH  57  71
BRANCH  58  77
ATOM     77  C   UNL A   1      47.916  26.164  28.948  1.00  0.00    -0.014 A 
ATOM     78  C   UNL A   1      47.651  26.059  27.562  1.00  0.00     0.009 A 
ATOM     79  C   UNL A   1      49.091  25.581  29.443  1.00  0.00     0.009 A 
ATOM     80  C   UNL A   1      48.622  25.574  26.679  1.00  0.00     0.001 A 
ATOM     81  C   UNL A   1      50.043  25.057  28.555  1.00  0.00     0.001 A 
ATOM     82  C   UNL A   1      49.837  25.111  27.175  1.00  0.00     0.000 A 
ENDBRANCH  58  77
BRANCH  70  83
ATOM     83  C   UNL A   1      44.537  32.542  27.712  1.00  0.00    -0.014 A 
ATOM     84  C   UNL A   1      44.748  32.718  26.343  1.00  0.00     0.009 A 
ATOM     85  C   UNL A   1      44.111  33.702  28.412  1.00  0.00     0.009 A 
ATOM     86  C   UNL A   1      44.539  33.956  25.712  1.00  0.00     0.001 A 
ATOM     87  C   UNL A   1      43.854  34.924  27.787  1.00  0.00     0.001 A 
ATOM     88  C   UNL A   1      44.074  35.052  26.430  1.00  0.00     0.000 A 
ENDBRANCH  70  83
ENDBRANCH  44  45
ENDBRANCH  36  39
ENDBRANCH  34  35
ENDBRANCH  33  34
ENDBRANCH  32  33
ENDBRANCH   1  32
TORSDOF 16
ENDMDL
MODEL 3
REMARK VINA RESULT:     -12.5      4.165      9.353
REMARK SMILES Cc1ccc(S(=O)(=O)n2cc(C(=O)C(=O)NCC(=O)NCCCCNC(=O)c3ccc(-c4c5nc(c(-c6ccccc6)c6ccc([nH]6)c(-c6ccccc6)c6nc(c(-c7ccccc7)c7ccc4[nH]7)C=C6)C=C5)cc3)c3ccccc32)cc1
REMARK SMILES IDX 21 1 20 2 18 3 19 4 17 6 16 7 14 8 15 9 12 11 13 12 11 13
REMARK SMILES IDX 9 14 10 15 81 16 76 17 80 18 77 19 79 20 78 21 6 22 7 23
REMARK SMILES IDX 8 24 5 25 1 26 2 27 3 28 83 29 4 30 82 31 22 32 23 33 24 34
REMARK SMILES IDX 25 35 26 36 27 38 28 39 29 40 75 41 30 42 74 43 31 44 32 45
REMARK SMILES IDX 33 46 68 47 34 48 73 49 67 50 69 51 35 52 72 53 66 54 65 55
REMARK SMILES IDX 36 57 58 58 43 59 57 60 44 61 47 62 56 63 70 64 45 65 46 66
REMARK SMILES IDX 55 68 71 69 48 70 37 71 38 72 42 73 39 74 41 75 40 76 59 77
REMARK SMILES IDX 60 78 64 79 61 80 63 81 62 82 49 83 50 84 54 85 51 86 53 87
REMARK SMILES IDX 52 88
REMARK H PARENT 20 5 16 10 25 37 69 56 47 67
REMARK Flexibility Score: inf
ROOT
ATOM      1  C   UNL A   1      37.502  23.272  25.579  1.00  0.00     0.116 C 
ENDROOT
BRANCH   1   2
ATOM      2  N   UNL A   1      37.610  21.842  25.371  1.00  0.00    -0.355 N 
ATOM      3  C   UNL A   1      36.632  20.917  25.149  1.00  0.00     0.239 C 
ATOM      4  O   UNL A   1      36.978  19.755  24.922  1.00  0.00    -0.273 OA
ATOM      5  H   UNL A   1      38.527  21.484  25.393  1.00  0.00     0.163 HD
BRANCH   3   6
ATOM      6  C   UNL A   1      35.162  21.337  25.047  1.00  0.00     0.216 C 
BRANCH   6   7
ATOM      7  N   UNL A   1      34.220  20.282  25.403  1.00  0.00    -0.340 N 
ATOM      8  C   UNL A   1      32.984  19.951  24.892  1.00  0.00     0.292 C 
ATOM      9  O   UNL A   1      32.392  18.993  25.379  1.00  0.00    -0.265 OA
ATOM     10  H   UNL A   1      34.520  19.704  26.141  1.00  0.00     0.164 HD
BRANCH   8  11
ATOM     11  C   UNL A   1      32.328  20.783  23.758  1.00  0.00     0.252 C 
ATOM     12  O   UNL A   1      32.049  20.214  22.707  1.00  0.00    -0.283 OA
BRANCH  11  13
ATOM     13  C   UNL A   1      32.053  22.222  23.907  1.00  0.00     0.054 A 
ATOM     14  N   UNL A   1      31.310  24.191  24.665  1.00  0.00    -0.240 N 
ATOM     15  C   UNL A   1      31.424  22.856  24.965  1.00  0.00     0.117 A 
ATOM     16  C   UNL A   1      31.881  24.478  23.444  1.00  0.00     0.065 A 
ATOM     17  C   UNL A   1      32.354  23.256  22.946  1.00  0.00     0.012 A 
ATOM     18  C   UNL A   1      31.993  25.675  22.712  1.00  0.00     0.028 A 
ATOM     19  C   UNL A   1      32.976  23.250  21.676  1.00  0.00     0.011 A 
ATOM     20  C   UNL A   1      32.587  25.627  21.449  1.00  0.00     0.002 A 
ATOM     21  C   UNL A   1      33.079  24.432  20.938  1.00  0.00     0.001 A 
BRANCH  14  22
ATOM     22  S   UNL A   1      30.461  25.300  25.641  1.00  0.00     0.268 S 
ATOM     23  O   UNL A   1      29.995  24.515  26.779  1.00  0.00    -0.201 OA
ATOM     24  O   UNL A   1      29.547  25.986  24.760  1.00  0.00    -0.201 OA
BRANCH  22  25
ATOM     25  C   UNL A   1      31.618  26.498  26.252  1.00  0.00     0.088 A 
ATOM     26  C   UNL A   1      34.599  29.373  27.422  1.00  0.00     0.044 C 
ATOM     27  C   UNL A   1      33.557  28.365  27.035  1.00  0.00    -0.051 A 
ATOM     28  C   UNL A   1      33.935  27.192  26.370  1.00  0.00     0.005 A 
ATOM     29  C   UNL A   1      32.206  28.577  27.331  1.00  0.00     0.005 A 
ATOM     30  C   UNL A   1      32.970  26.263  25.974  1.00  0.00     0.022 A 
ATOM     31  C   UNL A   1      31.236  27.643  26.952  1.00  0.00     0.022 A 
ENDBRANCH  22  25
ENDBRANCH  14  22
ENDBRANCH  11  13
ENDBRANCH   8  11
ENDBRANCH   6   7
ENDBRANCH   3   6
ENDBRANCH   1   2
BRANCH   1  32
ATOM     32  C   UNL A   1      38.608  23.813  26.490  1.00  0.00     0.023 C 
BRANCH  32  33
ATOM     33  C   UNL A   1      39.711  22.806  26.809  1.00  0.00     0.023 C 
BRANCH  33  34
ATOM     34  C   UNL A   1      41.032  23.073  26.107  1.00  0.00     0.116 C 
BRANCH  34  35
ATOM     35  N   UNL A   1      41.746  21.876  25.680  1.00  0.00    -0.352 N 
ATOM     36  C   UNL A   1      43.105  21.604  25.663  1.00  0.00     0.251 C 
ATOM     37  H   UNL A   1      41.172  21.147  25.351  1.00  0.00     0.163 HD
ATOM     38  O   UNL A   1      43.504  20.552  25.168  1.00  0.00    -0.269 OA
BRANCH  36  39
ATOM     39  C   UNL A   1      44.056  22.465  26.415  1.00  0.00     0.039 A 
ATOM     40  C   UNL A   1      43.944  22.420  27.812  1.00  0.00     0.014 A 
ATOM     41  C   UNL A   1      44.655  23.554  25.802  1.00  0.00     0.014 A 
ATOM     42  C   UNL A   1      44.055  23.598  28.529  1.00  0.00     0.010 A 
ATOM     43  C   UNL A   1      44.596  24.751  26.462  1.00  0.00     0.010 A 
ATOM     44  C   UNL A   1      44.216  24.769  27.803  1.00  0.00    -0.014 A 
BRANCH  44  45
ATOM     45  C   UNL A   1      44.063  26.095  28.351  1.00  0.00     0.031 A 
ATOM     46  C   UNL A   1      42.735  26.699  28.236  1.00  0.00     0.074 A 
ATOM     47  C   UNL A   1      45.076  26.607  29.082  1.00  0.00     0.049 A 
ATOM     48  N   UNL A   1      42.498  27.947  28.384  1.00  0.00    -0.248 NA
ATOM     49  C   UNL A   1      41.548  25.923  27.876  1.00  0.00     0.031 C 
ATOM     50  C   UNL A   1      45.072  27.740  29.999  1.00  0.00     0.029 A 
ATOM     51  N   UNL A   1      46.427  26.286  28.947  1.00  0.00    -0.354 N 
ATOM     52  C   UNL A   1      41.133  28.088  28.472  1.00  0.00     0.074 A 
ATOM     53  C   UNL A   1      40.584  26.833  28.031  1.00  0.00     0.031 C 
ATOM     54  C   UNL A   1      46.332  28.198  30.128  1.00  0.00     0.029 A 
ATOM     55  C   UNL A   1      47.147  27.475  29.164  1.00  0.00     0.049 A 
ATOM     56  H   UNL A   1      46.803  25.399  28.742  1.00  0.00     0.167 HD
ATOM     57  C   UNL A   1      40.650  29.207  29.074  1.00  0.00     0.031 A 
ATOM     58  C   UNL A   1      47.805  28.057  28.114  1.00  0.00     0.031 A 
ATOM     59  C   UNL A   1      41.746  30.130  29.372  1.00  0.00     0.049 A 
ATOM     60  C   UNL A   1      47.215  29.403  27.736  1.00  0.00     0.074 A 
ATOM     61  C   UNL A   1      42.478  30.382  30.520  1.00  0.00     0.029 A 
ATOM     62  N   UNL A   1      42.496  30.625  28.312  1.00  0.00    -0.354 N 
ATOM     63  N   UNL A   1      45.998  29.790  28.021  1.00  0.00    -0.248 NA
ATOM     64  C   UNL A   1      47.968  30.427  27.024  1.00  0.00     0.031 C 
ATOM     65  C   UNL A   1      43.706  30.990  30.128  1.00  0.00     0.029 A 
ATOM     66  C   UNL A   1      43.700  31.139  28.751  1.00  0.00     0.049 A 
ATOM     67  H   UNL A   1      42.206  30.612  27.371  1.00  0.00     0.167 HD
ATOM     68  C   UNL A   1      45.804  31.083  27.591  1.00  0.00     0.074 A 
ATOM     69  C   UNL A   1      47.070  31.426  26.967  1.00  0.00     0.031 C 
ATOM     70  C   UNL A   1      44.621  31.747  27.791  1.00  0.00     0.031 A 
BRANCH  57  71
ATOM     71  C   UNL A   1      39.258  29.343  29.632  1.00  0.00    -0.014 A 
ATOM     72  C   UNL A   1      38.432  30.372  29.143  1.00  0.00     0.009 A 
ATOM     73  C   UNL A   1      38.713  28.557  30.662  1.00  0.00     0.009 A 
ATOM     74  C   UNL A   1      37.166  30.633  29.683  1.00  0.00     0.001 A 
ATOM     75  C   UNL A   1      37.454  28.821  31.220  1.00  0.00     0.001 A 
ATOM     76  C   UNL A   1      36.682  29.865  30.733  1.00  0.00     0.000 A 
ENDBRANCH  57  71
BRANCH  58  77
ATOM     77  C   UNL A   1      48.355  27.042  27.157  1.00  0.00    -0.014 A 
ATOM     78  C   UNL A   1      47.708  26.906  25.906  1.00  0.00     0.009 A 
ATOM     79  C   UNL A   1      49.676  26.588  27.270  1.00  0.00     0.009 A 
ATOM     80  C   UNL A   1      48.422  26.527  24.764  1.00  0.00     0.001 A 
ATOM     81  C   UNL A   1      50.375  26.168  26.128  1.00  0.00     0.001 A 
ATOM     82  C   UNL A   1      49.769  26.198  24.871  1.00  0.00     0.000 A 
ENDBRANCH  58  77
BRANCH  70  83
ATOM     83  C   UNL A   1      44.172  33.052  27.143  1.00  0.00    -0.014 A 
ATOM     84  C   UNL A   1      44.020  33.272  25.773  1.00  0.00     0.009 A 
ATOM     85  C   UNL A   1      43.795  34.139  27.976  1.00  0.00     0.009 A 
ATOM     86  C   UNL A   1      43.519  34.482  25.266  1.00  0.00     0.001 A 
ATOM     87  C   UNL A   1      43.251  35.328  27.485  1.00  0.00     0.001 A 
ATOM     88  C   UNL A   1      43.117  35.502  26.121  1.00  0.00     0.000 A 
ENDBRANCH  70  83
ENDBRANCH  44  45
ENDBRANCH  36  39
ENDBRANCH  34  35
ENDBRANCH  33  34
ENDBRANCH  32  33
ENDBRANCH   1  32
TORSDOF 16
ENDMDL
