MODEL 1
REMARK VINA RESULT:     -10.1      0.000      0.000
REMARK SMILES CC[C@@](C)(NC(=O)N(C)[C@@H](C)C(C)C)C(=O)NCCCCNC(=O)c1ccc(-c2c3nc(c(-c4ccccc4)c4ccc([nH]4)c(-c4ccccc4)c4nc(c(-c5ccccc5)c5ccc2[nH]5)C=C4)C=C3)cc1
REMARK SMILES IDX 18 1 17 2 15 3 16 4 3 6 4 7 2 8 1 9 5 10 6 11 7 13 8 14 9 15
REMARK SMILES IDX 10 16 11 17 12 18 13 19 14 20 19 21 20 22 21 23 22 24 23 25
REMARK SMILES IDX 24 27 25 28 26 29 72 30 27 31 71 32 28 33 29 34 30 35 65 36
REMARK SMILES IDX 31 37 70 38 64 39 66 40 32 41 69 42 63 43 62 44 33 46 55 47
REMARK SMILES IDX 40 48 54 49 41 50 44 51 53 52 67 53 42 54 43 55 52 57 68 58
REMARK SMILES IDX 45 59 34 60 35 61 39 62 36 63 38 64 37 65 56 66 57 67 61 68
REMARK SMILES IDX 58 69 60 70 59 71 46 72 47 73 51 74 48 75 50 76 49 77
REMARK H PARENT 17 5 5 12 22 26 66 45 44 56
REMARK Flexibility Score: inf
ROOT
ATOM      1  C   UNL A   1      32.733  29.936  25.920  1.00  0.00     0.116 C 
ENDROOT
BRANCH   1   2
ATOM      2  N   UNL A   1      33.347  29.698  24.627  1.00  0.00    -0.354 N 
ATOM      3  C   UNL A   1      33.446  28.593  23.832  1.00  0.00     0.245 C 
ATOM      4  O   UNL A   1      33.967  28.794  22.729  1.00  0.00    -0.272 OA
ATOM      5  H   UNL A   1      33.779  30.495  24.244  1.00  0.00     0.163 HD
BRANCH   3   6
ATOM      6  C   UNL A   1      32.861  27.198  24.219  1.00  0.00     0.117 C 
ATOM      7  C   UNL A   1      33.653  26.748  25.485  1.00  0.00     0.045 C 
BRANCH   6   8
ATOM      8  C   UNL A   1      31.359  27.197  24.649  1.00  0.00     0.035 C 
ATOM      9  C   UNL A   1      31.038  26.775  26.082  1.00  0.00     0.007 C 
ENDBRANCH   6   8
BRANCH   6  10
ATOM     10  N   UNL A   1      33.038  26.158  23.160  1.00  0.00    -0.324 N 
ATOM     11  C   UNL A   1      33.299  24.833  23.042  1.00  0.00     0.318 C 
ATOM     12  H   UNL A   1      32.933  26.562  22.269  1.00  0.00     0.166 HD
ATOM     13  O   UNL A   1      33.653  24.492  21.908  1.00  0.00    -0.249 OA
BRANCH  11  14
ATOM     14  N   UNL A   1      33.050  23.910  24.023  1.00  0.00    -0.325 N 
ATOM     15  C   UNL A   1      31.743  23.588  24.575  1.00  0.00     0.149 C 
BRANCH  14  16
ATOM     16  C   UNL A   1      34.177  23.143  24.646  1.00  0.00     0.086 C 
ATOM     17  C   UNL A   1      34.242  21.646  24.266  1.00  0.00     0.031 C 
BRANCH  16  18
ATOM     18  C   UNL A   1      35.593  23.768  24.455  1.00  0.00     0.005 C 
ATOM     19  C   UNL A   1      36.384  23.955  25.749  1.00  0.00     0.009 C 
ATOM     20  C   UNL A   1      36.435  22.898  23.502  1.00  0.00     0.009 C 
ENDBRANCH  16  18
ENDBRANCH  14  16
ENDBRANCH  11  14
ENDBRANCH   6  10
ENDBRANCH   3   6
ENDBRANCH   1   2
BRANCH   1  21
ATOM     21  C   UNL A   1      31.369  30.598  25.847  1.00  0.00     0.023 C 
BRANCH  21  22
ATOM     22  C   UNL A   1      31.263  31.972  26.501  1.00  0.00     0.023 C 
BRANCH  22  23
ATOM     23  C   UNL A   1      32.588  32.522  26.987  1.00  0.00     0.116 C 
BRANCH  23  24
ATOM     24  N   UNL A   1      32.435  33.830  27.609  1.00  0.00    -0.352 N 
ATOM     25  C   UNL A   1      33.146  34.404  28.627  1.00  0.00     0.251 C 
ATOM     26  H   UNL A   1      31.710  34.386  27.240  1.00  0.00     0.163 HD
ATOM     27  O   UNL A   1      32.726  35.428  29.169  1.00  0.00    -0.269 OA
BRANCH  25  28
ATOM     28  C   UNL A   1      34.408  33.792  29.083  1.00  0.00     0.039 A 
ATOM     29  C   UNL A   1      35.613  34.199  28.505  1.00  0.00     0.014 A 
ATOM     30  C   UNL A   1      34.403  32.813  30.078  1.00  0.00     0.014 A 
ATOM     31  C   UNL A   1      36.814  33.661  28.966  1.00  0.00     0.010 A 
ATOM     32  C   UNL A   1      35.599  32.370  30.619  1.00  0.00     0.010 A 
ATOM     33  C   UNL A   1      36.817  32.768  30.051  1.00  0.00    -0.014 A 
BRANCH  33  34
ATOM     34  C   UNL A   1      38.074  32.199  30.589  1.00  0.00     0.031 A 
ATOM     35  C   UNL A   1      38.637  30.937  29.994  1.00  0.00     0.074 A 
ATOM     36  C   UNL A   1      38.662  32.772  31.657  1.00  0.00     0.049 A 
ATOM     37  N   UNL A   1      39.672  30.233  30.375  1.00  0.00    -0.248 NA
ATOM     38  C   UNL A   1      37.918  30.367  28.840  1.00  0.00     0.031 C 
ATOM     39  C   UNL A   1      38.184  33.970  32.351  1.00  0.00     0.029 A 
ATOM     40  N   UNL A   1      39.791  32.416  32.348  1.00  0.00    -0.354 N 
ATOM     41  C   UNL A   1      39.707  29.131  29.531  1.00  0.00     0.074 A 
ATOM     42  C   UNL A   1      38.559  29.223  28.660  1.00  0.00     0.031 C 
ATOM     43  C   UNL A   1      39.036  34.272  33.344  1.00  0.00     0.029 A 
ATOM     44  C   UNL A   1      40.090  33.265  33.387  1.00  0.00     0.049 A 
ATOM     45  H   UNL A   1      40.337  31.629  32.122  1.00  0.00     0.167 HD
ATOM     46  C   UNL A   1      40.630  28.141  29.467  1.00  0.00     0.031 A 
ATOM     47  C   UNL A   1      41.099  33.229  34.276  1.00  0.00     0.031 A 
ATOM     48  C   UNL A   1      41.784  28.068  30.319  1.00  0.00     0.049 A 
ATOM     49  C   UNL A   1      42.111  32.122  34.185  1.00  0.00     0.074 A 
ATOM     50  C   UNL A   1      42.817  27.148  30.295  1.00  0.00     0.029 A 
ATOM     51  N   UNL A   1      42.058  28.955  31.349  1.00  0.00    -0.354 N 
ATOM     52  N   UNL A   1      42.171  31.125  33.336  1.00  0.00    -0.248 NA
ATOM     53  C   UNL A   1      43.201  32.142  35.170  1.00  0.00     0.031 C 
ATOM     54  C   UNL A   1      43.688  27.447  31.346  1.00  0.00     0.029 A 
ATOM     55  C   UNL A   1      43.232  28.590  31.985  1.00  0.00     0.049 A 
ATOM     56  H   UNL A   1      41.500  29.730  31.591  1.00  0.00     0.167 HD
ATOM     57  C   UNL A   1      43.319  30.416  33.664  1.00  0.00     0.074 A 
ATOM     58  C   UNL A   1      43.932  31.108  34.779  1.00  0.00     0.031 C 
ATOM     59  C   UNL A   1      43.822  29.294  33.094  1.00  0.00     0.031 A 
BRANCH  46  60
ATOM     60  C   UNL A   1      40.416  27.061  28.441  1.00  0.00    -0.014 A 
ATOM     61  C   UNL A   1      39.655  25.917  28.730  1.00  0.00     0.009 A 
ATOM     62  C   UNL A   1      40.970  27.198  27.159  1.00  0.00     0.009 A 
ATOM     63  C   UNL A   1      39.490  24.913  27.774  1.00  0.00     0.001 A 
ATOM     64  C   UNL A   1      40.775  26.210  26.193  1.00  0.00     0.001 A 
ATOM     65  C   UNL A   1      40.046  25.064  26.504  1.00  0.00     0.000 A 
ENDBRANCH  46  60
BRANCH  47  66
ATOM     66  C   UNL A   1      41.216  34.288  35.313  1.00  0.00    -0.014 A 
ATOM     67  C   UNL A   1      40.592  34.133  36.561  1.00  0.00     0.009 A 
ATOM     68  C   UNL A   1      41.953  35.457  35.065  1.00  0.00     0.009 A 
ATOM     69  C   UNL A   1      40.680  35.138  37.527  1.00  0.00     0.001 A 
ATOM     70  C   UNL A   1      42.064  36.446  36.044  1.00  0.00     0.001 A 
ATOM     71  C   UNL A   1      41.419  36.292  37.270  1.00  0.00     0.000 A 
ENDBRANCH  47  66
BRANCH  59  72
ATOM     72  C   UNL A   1      45.117  28.767  33.644  1.00  0.00    -0.014 A 
ATOM     73  C   UNL A   1      45.141  27.808  34.669  1.00  0.00     0.009 A 
ATOM     74  C   UNL A   1      46.331  29.208  33.095  1.00  0.00     0.009 A 
ATOM     75  C   UNL A   1      46.357  27.328  35.156  1.00  0.00     0.001 A 
ATOM     76  C   UNL A   1      47.545  28.702  33.562  1.00  0.00     0.001 A 
ATOM     77  C   UNL A   1      47.557  27.770  34.598  1.00  0.00     0.000 A 
ENDBRANCH  59  72
ENDBRANCH  33  34
ENDBRANCH  25  28
ENDBRANCH  23  24
ENDBRANCH  22  23
ENDBRANCH  21  22
ENDBRANCH   1  21
TORSDOF 16
ENDMDL
MODEL 2
REMARK VINA RESULT:     -10.0      3.625      8.834
REMARK SMILES CC[C@@](C)(NC(=O)N(C)[C@@H](C)C(C)C)C(=O)NCCCCNC(=O)c1ccc(-c2c3nc(c(-c4ccccc4)c4ccc([nH]4)c(-c4ccccc4)c4nc(c(-c5ccccc5)c5ccc2[nH]5)C=C4)C=C3)cc1
REMARK SMILES IDX 18 1 17 2 15 3 16 4 3 6 4 7 2 8 1 9 5 10 6 11 7 13 8 14 9 15
REMARK SMILES IDX 10 16 11 17 12 18 13 19 14 20 19 21 20 22 21 23 22 24 23 25
REMARK SMILES IDX 24 27 25 28 26 29 72 30 27 31 71 32 28 33 29 34 30 35 65 36
REMARK SMILES IDX 31 37 70 38 64 39 66 40 32 41 69 42 63 43 62 44 33 46 55 47
REMARK SMILES IDX 40 48 54 49 41 50 44 51 53 52 67 53 42 54 43 55 52 57 68 58
REMARK SMILES IDX 45 59 34 60 35 61 39 62 36 63 38 64 37 65 56 66 57 67 61 68
REMARK SMILES IDX 58 69 60 70 59 71 46 72 47 73 51 74 48 75 50 76 49 77
REMARK H PARENT 17 5 5 12 22 26 66 45 44 56
REMARK Flexibility Score: inf
ROOT
ATOM      1  C   UNL A   1      36.560  21.674  25.677  1.00  0.00     0.116 C 
ENDROOT
BRANCH   1   2
ATOM      2  N   UNL A   1      35.510  21.681  26.677  1.00  0.00    -0.354 N 
ATOM      3  C   UNL A   1      34.349  22.387  26.806  1.00  0.00     0.245 C 
ATOM      4  O   UNL A   1      33.640  22.048  27.761  1.00  0.00    -0.272 OA
ATOM      5  H   UNL A   1      35.665  21.046  27.414  1.00  0.00     0.163 HD
BRANCH   3   6
ATOM      6  C   UNL A   1      33.882  23.470  25.782  1.00  0.00     0.117 C 
ATOM      7  C   UNL A   1      35.108  24.411  25.580  1.00  0.00     0.045 C 
BRANCH   6   8
ATOM      8  C   UNL A   1      33.530  22.936  24.357  1.00  0.00     0.035 C 
ATOM      9  C   UNL A   1      34.404  23.405  23.195  1.00  0.00     0.007 C 
ENDBRANCH   6   8
BRANCH   6  10
ATOM     10  N   UNL A   1      32.731  24.294  26.264  1.00  0.00    -0.324 N 
ATOM     11  C   UNL A   1      32.067  25.432  25.946  1.00  0.00     0.318 C 
ATOM     12  H   UNL A   1      32.331  23.881  27.063  1.00  0.00     0.166 HD
ATOM     13  O   UNL A   1      31.349  25.863  26.854  1.00  0.00    -0.249 OA
BRANCH  11  14
ATOM     14  N   UNL A   1      32.047  25.985  24.692  1.00  0.00    -0.325 N 
ATOM     15  C   UNL A   1      31.022  25.766  23.683  1.00  0.00     0.149 C 
BRANCH  14  16
ATOM     16  C   UNL A   1      33.156  26.888  24.245  1.00  0.00     0.086 C 
ATOM     17  C   UNL A   1      33.336  26.999  22.714  1.00  0.00     0.031 C 
BRANCH  16  18
ATOM     18  C   UNL A   1      33.127  28.326  24.848  1.00  0.00     0.005 C 
ATOM     19  C   UNL A   1      31.727  28.895  25.067  1.00  0.00     0.009 C 
ATOM     20  C   UNL A   1      33.869  28.353  26.198  1.00  0.00     0.009 C 
ENDBRANCH  16  18
ENDBRANCH  14  16
ENDBRANCH  11  14
ENDBRANCH   6  10
ENDBRANCH   3   6
ENDBRANCH   1   2
BRANCH   1  21
ATOM     21  C   UNL A   1      36.572  20.436  24.798  1.00  0.00     0.023 C 
BRANCH  21  22
ATOM     22  C   UNL A   1      37.783  19.522  24.957  1.00  0.00     0.023 C 
BRANCH  22  23
ATOM     23  C   UNL A   1      38.937  20.160  25.702  1.00  0.00     0.116 C 
BRANCH  23  24
ATOM     24  N   UNL A   1      40.080  19.263  25.800  1.00  0.00    -0.352 N 
ATOM     25  C   UNL A   1      41.390  19.540  26.081  1.00  0.00     0.251 C 
ATOM     26  H   UNL A   1      39.879  18.311  25.641  1.00  0.00     0.163 HD
ATOM     27  O   UNL A   1      42.253  18.681  25.897  1.00  0.00    -0.269 OA
BRANCH  25  28
ATOM     28  C   UNL A   1      41.769  20.871  26.591  1.00  0.00     0.039 A 
ATOM     29  C   UNL A   1      42.263  21.828  25.702  1.00  0.00     0.014 A 
ATOM     30  C   UNL A   1      41.641  21.173  27.948  1.00  0.00     0.014 A 
ATOM     31  C   UNL A   1      42.576  23.104  26.169  1.00  0.00     0.010 A 
ATOM     32  C   UNL A   1      41.836  22.473  28.388  1.00  0.00     0.010 A 
ATOM     33  C   UNL A   1      42.332  23.445  27.509  1.00  0.00    -0.014 A 
BRANCH  33  34
ATOM     34  C   UNL A   1      42.622  24.799  28.035  1.00  0.00     0.031 A 
ATOM     35  C   UNL A   1      44.022  25.151  28.459  1.00  0.00     0.074 A 
ATOM     36  C   UNL A   1      41.617  25.680  28.202  1.00  0.00     0.049 A 
ATOM     37  N   UNL A   1      44.466  26.245  29.023  1.00  0.00    -0.248 NA
ATOM     38  C   UNL A   1      45.057  24.120  28.258  1.00  0.00     0.031 C 
ATOM     39  C   UNL A   1      40.210  25.438  27.874  1.00  0.00     0.029 A 
ATOM     40  N   UNL A   1      41.626  26.958  28.697  1.00  0.00    -0.354 N 
ATOM     41  C   UNL A   1      45.814  26.021  29.269  1.00  0.00     0.074 A 
ATOM     42  C   UNL A   1      46.104  24.668  28.853  1.00  0.00     0.031 C 
ATOM     43  C   UNL A   1      39.500  26.546  28.139  1.00  0.00     0.029 A 
ATOM     44  C   UNL A   1      40.389  27.556  28.700  1.00  0.00     0.049 A 
ATOM     45  H   UNL A   1      42.442  27.406  29.019  1.00  0.00     0.167 HD
ATOM     46  C   UNL A   1      46.737  26.874  29.772  1.00  0.00     0.031 A 
ATOM     47  C   UNL A   1      40.017  28.781  29.114  1.00  0.00     0.031 A 
ATOM     48  C   UNL A   1      46.448  28.227  30.160  1.00  0.00     0.049 A 
ATOM     49  C   UNL A   1      41.059  29.712  29.668  1.00  0.00     0.074 A 
ATOM     50  C   UNL A   1      47.320  29.198  30.618  1.00  0.00     0.029 A 
ATOM     51  N   UNL A   1      45.185  28.799  30.134  1.00  0.00    -0.354 N 
ATOM     52  N   UNL A   1      42.345  29.510  29.828  1.00  0.00    -0.248 NA
ATOM     53  C   UNL A   1      40.599  31.041  30.088  1.00  0.00     0.031 C 
ATOM     54  C   UNL A   1      46.576  30.342  30.919  1.00  0.00     0.029 A 
ATOM     55  C   UNL A   1      45.250  30.103  30.591  1.00  0.00     0.049 A 
ATOM     56  H   UNL A   1      44.365  28.344  29.834  1.00  0.00     0.167 HD
ATOM     57  C   UNL A   1      42.853  30.696  30.340  1.00  0.00     0.074 A 
ATOM     58  C   UNL A   1      41.739  31.616  30.446  1.00  0.00     0.031 C 
ATOM     59  C   UNL A   1      44.127  31.000  30.689  1.00  0.00     0.031 A 
BRANCH  46  60
ATOM     60  C   UNL A   1      48.142  26.359  29.931  1.00  0.00    -0.014 A 
ATOM     61  C   UNL A   1      48.582  25.790  31.137  1.00  0.00     0.009 A 
ATOM     62  C   UNL A   1      49.036  26.427  28.850  1.00  0.00     0.009 A 
ATOM     63  C   UNL A   1      49.897  25.342  31.273  1.00  0.00     0.001 A 
ATOM     64  C   UNL A   1      50.340  25.946  28.977  1.00  0.00     0.001 A 
ATOM     65  C   UNL A   1      50.773  25.415  30.190  1.00  0.00     0.000 A 
ENDBRANCH  46  60
BRANCH  47  66
ATOM     66  C   UNL A   1      38.597  29.207  28.996  1.00  0.00    -0.014 A 
ATOM     67  C   UNL A   1      38.106  29.714  27.782  1.00  0.00     0.009 A 
ATOM     68  C   UNL A   1      37.724  29.107  30.091  1.00  0.00     0.009 A 
ATOM     69  C   UNL A   1      36.779  30.138  27.677  1.00  0.00     0.001 A 
ATOM     70  C   UNL A   1      36.390  29.503  29.973  1.00  0.00     0.001 A 
ATOM     71  C   UNL A   1      35.921  30.027  28.771  1.00  0.00     0.000 A 
ENDBRANCH  47  66
BRANCH  59  72
ATOM     72  C   UNL A   1      44.389  32.394  31.184  1.00  0.00    -0.014 A 
ATOM     73  C   UNL A   1      44.340  32.705  32.552  1.00  0.00     0.009 A 
ATOM     74  C   UNL A   1      44.731  33.400  30.267  1.00  0.00     0.009 A 
ATOM     75  C   UNL A   1      44.597  34.006  32.987  1.00  0.00     0.001 A 
ATOM     76  C   UNL A   1      45.019  34.692  30.709  1.00  0.00     0.001 A 
ATOM     77  C   UNL A   1      44.942  34.996  32.067  1.00  0.00     0.000 A 
ENDBRANCH  59  72
ENDBRANCH  33  34
ENDBRANCH  25  28
ENDBRANCH  23  24
ENDBRANCH  22  23
ENDBRANCH  21  22
ENDBRANCH   1  21
TORSDOF 16
ENDMDL
MODEL 3
REMARK VINA RESULT:     -10.0      3.769      8.979
REMARK SMILES CC[C@@](C)(NC(=O)N(C)[C@@H](C)C(C)C)C(=O)NCCCCNC(=O)c1ccc(-c2c3nc(c(-c4ccccc4)c4ccc([nH]4)c(-c4ccccc4)c4nc(c(-c5ccccc5)c5ccc2[nH]5)C=C4)C=C3)cc1
REMARK SMILES IDX 18 1 17 2 15 3 16 4 3 6 4 7 2 8 1 9 5 10 6 11 7 13 8 14 9 15
REMARK SMILES IDX 10 16 11 17 12 18 13 19 14 20 19 21 20 22 21 23 22 24 23 25
REMARK SMILES IDX 24 27 25 28 26 29 72 30 27 31 71 32 28 33 29 34 30 35 65 36
REMARK SMILES IDX 31 37 70 38 64 39 66 40 32 41 69 42 63 43 62 44 33 46 55 47
REMARK SMILES IDX 40 48 54 49 41 50 44 51 53 52 67 53 42 54 43 55 52 57 68 58
REMARK SMILES IDX 45 59 34 60 35 61 39 62 36 63 38 64 37 65 56 66 57 67 61 68
REMARK SMILES IDX 58 69 60 70 59 71 46 72 47 73 51 74 48 75 50 76 49 77
REMARK H PARENT 17 5 5 12 22 26 66 45 44 56
REMARK Flexibility Score: inf
ROOT
ATOM      1  C   UNL A   1      36.154  21.544  25.766  1.00  0.00     0.116 C 
ENDROOT
BRANCH   1   2
ATOM      2  N   UNL A   1      35.160  21.560  26.822  1.00  0.00    -0.354 N 
ATOM      3  C   UNL A   1      33.956  22.188  26.960  1.00  0.00     0.245 C 
ATOM      4  O   UNL A   1      33.325  21.882  27.979  1.00  0.00    -0.272 OA
ATOM      5  H   UNL A   1      35.401  21.004  27.598  1.00  0.00     0.163 HD
BRANCH   3   6
ATOM      6  C   UNL A   1      33.354  23.142  25.880  1.00  0.00     0.117 C 
ATOM      7  C   UNL A   1      34.324  24.361  25.811  1.00  0.00     0.045 C 
BRANCH   6   8
ATOM      8  C   UNL A   1      33.307  22.567  24.428  1.00  0.00     0.035 C 
ATOM      9  C   UNL A   1      33.918  23.417  23.315  1.00  0.00     0.007 C 
ENDBRANCH   6   8
BRANCH   6  10
ATOM     10  N   UNL A   1      31.988  23.647  26.220  1.00  0.00    -0.324 N 
ATOM     11  C   UNL A   1      31.186  24.711  25.973  1.00  0.00     0.318 C 
ATOM     12  H   UNL A   1      31.528  23.006  26.808  1.00  0.00     0.166 HD
ATOM     13  O   UNL A   1      30.229  24.808  26.749  1.00  0.00    -0.249 OA
BRANCH  11  14
ATOM     14  N   UNL A   1      31.305  25.526  24.878  1.00  0.00    -0.325 N 
ATOM     15  C   UNL A   1      30.717  25.283  23.569  1.00  0.00     0.149 C 
BRANCH  14  16
ATOM     16  C   UNL A   1      32.116  26.784  24.954  1.00  0.00     0.086 C 
ATOM     17  C   UNL A   1      32.647  27.307  23.600  1.00  0.00     0.031 C 
BRANCH  16  18
ATOM     18  C   UNL A   1      31.442  27.965  25.715  1.00  0.00     0.005 C 
ATOM     19  C   UNL A   1      32.059  28.280  27.076  1.00  0.00     0.009 C 
ATOM     20  C   UNL A   1      31.491  29.247  24.861  1.00  0.00     0.009 C 
ENDBRANCH  16  18
ENDBRANCH  14  16
ENDBRANCH  11  14
ENDBRANCH   6  10
ENDBRANCH   3   6
ENDBRANCH   1   2
BRANCH   1  21
ATOM     21  C   UNL A   1      36.141  20.284  24.920  1.00  0.00     0.023 C 
BRANCH  21  22
ATOM     22  C   UNL A   1      37.485  19.583  24.755  1.00  0.00     0.023 C 
BRANCH  22  23
ATOM     23  C   UNL A   1      38.624  20.263  25.487  1.00  0.00     0.116 C 
BRANCH  23  24
ATOM     24  N   UNL A   1      39.753  19.364  25.687  1.00  0.00    -0.352 N 
ATOM     25  C   UNL A   1      41.031  19.639  26.090  1.00  0.00     0.251 C 
ATOM     26  H   UNL A   1      39.567  18.414  25.505  1.00  0.00     0.163 HD
ATOM     27  O   UNL A   1      41.907  18.780  25.984  1.00  0.00    -0.269 OA
BRANCH  25  28
ATOM     28  C   UNL A   1      41.361  20.967  26.639  1.00  0.00     0.039 A 
ATOM     29  C   UNL A   1      41.300  21.170  28.020  1.00  0.00     0.014 A 
ATOM     30  C   UNL A   1      41.729  22.014  25.792  1.00  0.00     0.014 A 
ATOM     31  C   UNL A   1      41.661  22.408  28.551  1.00  0.00     0.010 A 
ATOM     32  C   UNL A   1      42.202  23.202  26.326  1.00  0.00     0.010 A 
ATOM     33  C   UNL A   1      42.147  23.422  27.709  1.00  0.00    -0.014 A 
BRANCH  33  34
ATOM     34  C   UNL A   1      42.569  24.740  28.239  1.00  0.00     0.031 A 
ATOM     35  C   UNL A   1      41.545  25.823  28.446  1.00  0.00     0.074 A 
ATOM     36  C   UNL A   1      43.875  24.984  28.456  1.00  0.00     0.049 A 
ATOM     37  N   UNL A   1      41.719  27.065  28.816  1.00  0.00    -0.248 NA
ATOM     38  C   UNL A   1      40.141  25.474  28.165  1.00  0.00     0.031 C 
ATOM     39  C   UNL A   1      44.967  24.030  28.245  1.00  0.00     0.029 A 
ATOM     40  N   UNL A   1      44.506  26.117  28.901  1.00  0.00    -0.354 N 
ATOM     41  C   UNL A   1      40.459  27.648  28.780  1.00  0.00     0.074 A 
ATOM     42  C   UNL A   1      39.539  26.645  28.295  1.00  0.00     0.031 C 
ATOM     43  C   UNL A   1      46.127  24.606  28.598  1.00  0.00     0.029 A 
ATOM     44  C   UNL A   1      45.869  25.979  29.012  1.00  0.00     0.049 A 
ATOM     45  H   UNL A   1      44.029  26.950  29.120  1.00  0.00     0.167 HD
ATOM     46  C   UNL A   1      40.093  28.899  29.145  1.00  0.00     0.031 A 
ATOM     47  C   UNL A   1      46.804  26.866  29.401  1.00  0.00     0.031 A 
ATOM     48  C   UNL A   1      41.008  29.885  29.651  1.00  0.00     0.049 A 
ATOM     49  C   UNL A   1      46.374  28.249  29.802  1.00  0.00     0.074 A 
ATOM     50  C   UNL A   1      40.734  31.159  30.114  1.00  0.00     0.029 A 
ATOM     51  N   UNL A   1      42.377  29.701  29.763  1.00  0.00    -0.354 N 
ATOM     52  N   UNL A   1      45.168  28.764  29.831  1.00  0.00    -0.248 NA
ATOM     53  C   UNL A   1      47.433  29.170  30.234  1.00  0.00     0.031 C 
ATOM     54  C   UNL A   1      41.946  31.766  30.454  1.00  0.00     0.029 A 
ATOM     55  C   UNL A   1      42.967  30.848  30.263  1.00  0.00     0.049 A 
ATOM     56  H   UNL A   1      42.859  28.876  29.521  1.00  0.00     0.167 HD
ATOM     57  C   UNL A   1      45.320  30.057  30.311  1.00  0.00     0.074 A 
ATOM     58  C   UNL A   1      46.732  30.241  30.576  1.00  0.00     0.031 C 
ATOM     59  C   UNL A   1      44.376  31.009  30.517  1.00  0.00     0.031 A 
BRANCH  46  60
ATOM     60  C   UNL A   1      38.640  29.265  29.002  1.00  0.00    -0.014 A 
ATOM     61  C   UNL A   1      37.743  29.137  30.076  1.00  0.00     0.009 A 
ATOM     62  C   UNL A   1      38.164  29.766  27.780  1.00  0.00     0.009 A 
ATOM     63  C   UNL A   1      36.394  29.457  29.916  1.00  0.00     0.001 A 
ATOM     64  C   UNL A   1      36.822  30.119  27.633  1.00  0.00     0.001 A 
ATOM     65  C   UNL A   1      35.936  29.953  28.696  1.00  0.00     0.000 A 
ENDBRANCH  46  60
BRANCH  47  66
ATOM     66  C   UNL A   1      48.234  26.465  29.453  1.00  0.00    -0.014 A 
ATOM     67  C   UNL A   1      48.772  25.903  30.622  1.00  0.00     0.009 A 
ATOM     68  C   UNL A   1      49.069  26.637  28.338  1.00  0.00     0.009 A 
ATOM     69  C   UNL A   1      50.121  25.549  30.682  1.00  0.00     0.001 A 
ATOM     70  C   UNL A   1      50.411  26.253  28.392  1.00  0.00     0.001 A 
ATOM     71  C   UNL A   1      50.939  25.719  29.565  1.00  0.00     0.000 A 
ENDBRANCH  47  66
BRANCH  59  72
ATOM     72  C   UNL A   1      44.836  32.319  31.089  1.00  0.00    -0.014 A 
ATOM     73  C   UNL A   1      44.926  32.521  32.475  1.00  0.00     0.009 A 
ATOM     74  C   UNL A   1      45.228  33.352  30.223  1.00  0.00     0.009 A 
ATOM     75  C   UNL A   1      45.367  33.745  32.981  1.00  0.00     0.001 A 
ATOM     76  C   UNL A   1      45.698  34.563  30.732  1.00  0.00     0.001 A 
ATOM     77  C   UNL A   1      45.758  34.762  32.110  1.00  0.00     0.000 A 
ENDBRANCH  59  72
ENDBRANCH  33  34
ENDBRANCH  25  28
ENDBRANCH  23  24
ENDBRANCH  22  23
ENDBRANCH  21  22
ENDBRANCH   1  21
TORSDOF 16
ENDMDL
