MODEL 1
REMARK VINA RESULT:     -12.3      0.000      0.000
REMARK SMILES CC(C)n1c2c(c3ccccc31)[C@@H](c1ccccc1)N(CC(=O)NCCCCNC(=O)c1ccc(-c3c4nc(c(-c5ccccc5)c5ccc([nH]5)c(-c5ccccc5)c5nc(c(-c6ccccc6)c6ccc3[nH]6)C=C5)C=C4)cc1)C2=O
REMARK SMILES IDX 26 1 25 2 24 3 22 4 23 5 21 7 20 8 4 9 5 10 12 11 6 12 80 13
REMARK SMILES IDX 7 14 11 15 13 16 81 17 8 18 10 19 9 20 2 21 1 22 3 23 14 24
REMARK SMILES IDX 15 25 19 26 16 27 18 28 17 29 27 30 28 31 29 32 30 33 31 35
REMARK SMILES IDX 32 36 33 37 79 38 34 39 78 40 35 41 36 42 37 43 72 44 38 45
REMARK SMILES IDX 77 46 71 47 73 48 39 49 76 50 70 51 69 52 40 54 62 55 47 56
REMARK SMILES IDX 61 57 48 58 51 59 60 60 74 61 49 62 50 63 59 65 75 66 52 67
REMARK SMILES IDX 41 68 42 69 46 70 43 71 45 72 44 73 63 74 64 75 68 76 65 77
REMARK SMILES IDX 67 78 66 79 53 80 54 81 58 82 55 83 57 84 56 85
REMARK H PARENT 24 6 29 34 73 53 51 64
REMARK Flexibility Score: inf
ROOT
ATOM      1  C   UNL A   1      37.424  22.517  25.233  1.00  0.00     0.023 C 
ENDROOT
BRANCH   1   2
ATOM      2  C   UNL A   1      36.833  22.619  23.825  1.00  0.00     0.116 C 
BRANCH   2   3
ATOM      3  N   UNL A   1      35.504  22.054  23.760  1.00  0.00    -0.355 N 
ATOM      4  C   UNL A   1      34.369  22.642  23.278  1.00  0.00     0.239 C 
ATOM      5  O   UNL A   1      33.307  22.019  23.349  1.00  0.00    -0.273 OA
ATOM      6  H   UNL A   1      35.405  21.136  24.101  1.00  0.00     0.163 HD
BRANCH   4   7
ATOM      7  C   UNL A   1      34.422  24.067  22.713  1.00  0.00     0.220 C 
BRANCH   7   8
ATOM      8  N   UNL A   1      33.551  24.958  23.461  1.00  0.00    -0.317 N 
ATOM      9  N   UNL A   1      31.433  27.814  23.817  1.00  0.00    -0.334 N 
ATOM     10  C   UNL A   1      32.196  26.690  23.777  1.00  0.00     0.114 A 
ATOM     11  C   UNL A   1      31.849  28.567  24.920  1.00  0.00     0.049 A 
ATOM     12  C   UNL A   1      33.051  26.666  24.844  1.00  0.00     0.018 A 
ATOM     13  C   UNL A   1      32.447  25.599  22.898  1.00  0.00     0.272 C 
ATOM     14  C   UNL A   1      32.882  27.856  25.566  1.00  0.00     0.006 A 
ATOM     15  C   UNL A   1      31.429  29.815  25.410  1.00  0.00     0.027 A 
ATOM     16  C   UNL A   1      33.913  25.457  24.816  1.00  0.00     0.150 C 
ATOM     17  O   UNL A   1      31.907  25.354  21.827  1.00  0.00    -0.267 OA
ATOM     18  C   UNL A   1      33.505  28.404  26.702  1.00  0.00     0.011 A 
ATOM     19  C   UNL A   1      32.057  30.335  26.548  1.00  0.00     0.002 A 
ATOM     20  C   UNL A   1      33.081  29.643  27.183  1.00  0.00     0.001 A 
BRANCH   9  21
ATOM     21  C   UNL A   1      30.403  28.154  22.838  1.00  0.00     0.082 C 
ATOM     22  C   UNL A   1      28.995  28.124  23.435  1.00  0.00     0.031 C 
ATOM     23  C   UNL A   1      30.686  29.468  22.109  1.00  0.00     0.031 C 
ENDBRANCH   9  21
BRANCH  16  24
ATOM     24  C   UNL A   1      33.482  24.481  25.898  1.00  0.00    -0.021 A 
ATOM     25  C   UNL A   1      34.485  23.769  26.585  1.00  0.00     0.006 A 
ATOM     26  C   UNL A   1      32.145  24.190  26.231  1.00  0.00     0.006 A 
ATOM     27  C   UNL A   1      34.167  22.785  27.525  1.00  0.00     0.000 A 
ATOM     28  C   UNL A   1      31.826  23.224  27.189  1.00  0.00     0.000 A 
ATOM     29  C   UNL A   1      32.837  22.511  27.825  1.00  0.00     0.000 A 
ENDBRANCH  16  24
ENDBRANCH   7   8
ENDBRANCH   4   7
ENDBRANCH   2   3
ENDBRANCH   1   2
BRANCH   1  30
ATOM     30  C   UNL A   1      38.563  21.499  25.376  1.00  0.00     0.023 C 
BRANCH  30  31
ATOM     31  C   UNL A   1      39.554  21.837  26.489  1.00  0.00     0.116 C 
BRANCH  31  32
ATOM     32  N   UNL A   1      40.834  22.301  25.990  1.00  0.00    -0.352 N 
ATOM     33  C   UNL A   1      41.613  23.399  26.208  1.00  0.00     0.251 C 
ATOM     34  H   UNL A   1      41.235  21.677  25.343  1.00  0.00     0.163 HD
ATOM     35  O   UNL A   1      42.719  23.401  25.663  1.00  0.00    -0.269 OA
BRANCH  33  36
ATOM     36  C   UNL A   1      41.184  24.604  26.958  1.00  0.00     0.039 A 
ATOM     37  C   UNL A   1      40.251  25.543  26.518  1.00  0.00     0.014 A 
ATOM     38  C   UNL A   1      41.877  24.843  28.158  1.00  0.00     0.014 A 
ATOM     39  C   UNL A   1      40.141  26.768  27.152  1.00  0.00     0.010 A 
ATOM     40  C   UNL A   1      41.744  26.050  28.819  1.00  0.00     0.010 A 
ATOM     41  C   UNL A   1      40.945  27.038  28.255  1.00  0.00    -0.014 A 
BRANCH  41  42
ATOM     42  C   UNL A   1      40.884  28.374  28.824  1.00  0.00     0.031 A 
ATOM     43  C   UNL A   1      42.007  29.274  28.433  1.00  0.00     0.074 A 
ATOM     44  C   UNL A   1      39.813  28.762  29.545  1.00  0.00     0.049 A 
ATOM     45  N   UNL A   1      42.776  29.990  29.188  1.00  0.00    -0.248 NA
ATOM     46  C   UNL A   1      42.383  29.295  27.006  1.00  0.00     0.031 C 
ATOM     47  C   UNL A   1      38.553  28.036  29.755  1.00  0.00     0.029 A 
ATOM     48  N   UNL A   1      39.563  29.964  30.124  1.00  0.00    -0.354 N 
ATOM     49  C   UNL A   1      43.634  30.673  28.325  1.00  0.00     0.074 A 
ATOM     50  C   UNL A   1      43.433  30.113  27.014  1.00  0.00     0.031 C 
ATOM     51  C   UNL A   1      37.597  28.909  30.145  1.00  0.00     0.029 A 
ATOM     52  C   UNL A   1      38.215  30.205  30.360  1.00  0.00     0.049 A 
ATOM     53  H   UNL A   1      40.273  30.606  30.355  1.00  0.00     0.167 HD
ATOM     54  C   UNL A   1      44.311  31.792  28.701  1.00  0.00     0.031 A 
ATOM     55  C   UNL A   1      37.646  31.411  30.607  1.00  0.00     0.031 A 
ATOM     56  C   UNL A   1      44.455  31.883  30.126  1.00  0.00     0.049 A 
ATOM     57  C   UNL A   1      38.728  32.333  31.023  1.00  0.00     0.074 A 
ATOM     58  C   UNL A   1      45.104  31.121  31.077  1.00  0.00     0.029 A 
ATOM     59  N   UNL A   1      43.563  32.665  30.818  1.00  0.00    -0.354 N 
ATOM     60  N   UNL A   1      39.413  32.191  32.121  1.00  0.00    -0.248 NA
ATOM     61  C   UNL A   1      39.359  33.135  29.985  1.00  0.00     0.031 C 
ATOM     62  C   UNL A   1      44.224  31.112  32.196  1.00  0.00     0.029 A 
ATOM     63  C   UNL A   1      43.132  31.928  31.891  1.00  0.00     0.049 A 
ATOM     64  H   UNL A   1      43.286  33.582  30.588  1.00  0.00     0.167 HD
ATOM     65  C   UNL A   1      40.716  32.513  31.767  1.00  0.00     0.074 A 
ATOM     66  C   UNL A   1      40.608  33.160  30.460  1.00  0.00     0.031 C 
ATOM     67  C   UNL A   1      41.787  31.974  32.423  1.00  0.00     0.031 A 
BRANCH  54  68
ATOM     68  C   UNL A   1      44.526  32.966  27.780  1.00  0.00    -0.014 A 
ATOM     69  C   UNL A   1      45.408  32.926  26.680  1.00  0.00     0.009 A 
ATOM     70  C   UNL A   1      43.641  34.056  27.834  1.00  0.00     0.009 A 
ATOM     71  C   UNL A   1      45.402  33.902  25.682  1.00  0.00     0.001 A 
ATOM     72  C   UNL A   1      43.603  35.017  26.814  1.00  0.00     0.001 A 
ATOM     73  C   UNL A   1      44.480  34.936  25.737  1.00  0.00     0.000 A 
ENDBRANCH  54  68
BRANCH  55  74
ATOM     74  C   UNL A   1      36.364  31.910  30.054  1.00  0.00    -0.014 A 
ATOM     75  C   UNL A   1      36.130  31.866  28.665  1.00  0.00     0.009 A 
ATOM     76  C   UNL A   1      35.503  32.696  30.835  1.00  0.00     0.009 A 
ATOM     77  C   UNL A   1      35.100  32.606  28.075  1.00  0.00     0.001 A 
ATOM     78  C   UNL A   1      34.472  33.439  30.244  1.00  0.00     0.001 A 
ATOM     79  C   UNL A   1      34.281  33.406  28.864  1.00  0.00     0.000 A 
ENDBRANCH  55  74
BRANCH  67  80
ATOM     80  C   UNL A   1      41.531  31.125  33.650  1.00  0.00    -0.014 A 
ATOM     81  C   UNL A   1      41.789  31.685  34.910  1.00  0.00     0.009 A 
ATOM     82  C   UNL A   1      41.262  29.744  33.583  1.00  0.00     0.009 A 
ATOM     83  C   UNL A   1      41.803  30.893  36.061  1.00  0.00     0.001 A 
ATOM     84  C   UNL A   1      41.252  28.955  34.739  1.00  0.00     0.001 A 
ATOM     85  C   UNL A   1      41.535  29.529  35.976  1.00  0.00     0.000 A 
ENDBRANCH  67  80
ENDBRANCH  41  42
ENDBRANCH  33  36
ENDBRANCH  31  32
ENDBRANCH  30  31
ENDBRANCH   1  30
TORSDOF 14
ENDMDL
MODEL 2
REMARK VINA RESULT:     -12.2      2.537      6.147
REMARK SMILES CC(C)n1c2c(c3ccccc31)[C@@H](c1ccccc1)N(CC(=O)NCCCCNC(=O)c1ccc(-c3c4nc(c(-c5ccccc5)c5ccc([nH]5)c(-c5ccccc5)c5nc(c(-c6ccccc6)c6ccc3[nH]6)C=C5)C=C4)cc1)C2=O
REMARK SMILES IDX 26 1 25 2 24 3 22 4 23 5 21 7 20 8 4 9 5 10 12 11 6 12 80 13
REMARK SMILES IDX 7 14 11 15 13 16 81 17 8 18 10 19 9 20 2 21 1 22 3 23 14 24
REMARK SMILES IDX 15 25 19 26 16 27 18 28 17 29 27 30 28 31 29 32 30 33 31 35
REMARK SMILES IDX 32 36 33 37 79 38 34 39 78 40 35 41 36 42 37 43 72 44 38 45
REMARK SMILES IDX 77 46 71 47 73 48 39 49 76 50 70 51 69 52 40 54 62 55 47 56
REMARK SMILES IDX 61 57 48 58 51 59 60 60 74 61 49 62 50 63 59 65 75 66 52 67
REMARK SMILES IDX 41 68 42 69 46 70 43 71 45 72 44 73 63 74 64 75 68 76 65 77
REMARK SMILES IDX 67 78 66 79 53 80 54 81 58 82 55 83 57 84 56 85
REMARK H PARENT 24 6 29 34 73 53 51 64
REMARK Flexibility Score: inf
ROOT
ATOM      1  C   UNL A   1      36.947  21.278  25.298  1.00  0.00     0.023 C 
ENDROOT
BRANCH   1   2
ATOM      2  C   UNL A   1      36.371  22.216  24.237  1.00  0.00     0.116 C 
BRANCH   2   3
ATOM      3  N   UNL A   1      35.051  21.802  23.816  1.00  0.00    -0.355 N 
ATOM      4  C   UNL A   1      34.108  22.549  23.168  1.00  0.00     0.239 C 
ATOM      5  O   UNL A   1      33.011  22.037  22.931  1.00  0.00    -0.273 OA
ATOM      6  H   UNL A   1      34.803  20.872  24.018  1.00  0.00     0.163 HD
BRANCH   4   7
ATOM      7  C   UNL A   1      34.403  24.008  22.798  1.00  0.00     0.220 C 
BRANCH   7   8
ATOM      8  N   UNL A   1      33.537  24.918  23.528  1.00  0.00    -0.317 N 
ATOM      9  N   UNL A   1      31.461  27.809  23.838  1.00  0.00    -0.334 N 
ATOM     10  C   UNL A   1      32.206  26.673  23.815  1.00  0.00     0.114 A 
ATOM     11  C   UNL A   1      31.874  28.564  24.940  1.00  0.00     0.049 A 
ATOM     12  C   UNL A   1      33.047  26.644  24.893  1.00  0.00     0.018 A 
ATOM     13  C   UNL A   1      32.450  25.572  22.948  1.00  0.00     0.272 C 
ATOM     14  C   UNL A   1      32.888  27.841  25.604  1.00  0.00     0.006 A 
ATOM     15  C   UNL A   1      31.468  29.822  25.416  1.00  0.00     0.027 A 
ATOM     16  C   UNL A   1      33.890  25.422  24.884  1.00  0.00     0.150 C 
ATOM     17  O   UNL A   1      31.920  25.328  21.871  1.00  0.00    -0.267 OA
ATOM     18  C   UNL A   1      33.506  28.388  26.743  1.00  0.00     0.011 A 
ATOM     19  C   UNL A   1      32.090  30.340  26.557  1.00  0.00     0.002 A 
ATOM     20  C   UNL A   1      33.096  29.637  27.211  1.00  0.00     0.001 A 
BRANCH   9  21
ATOM     21  C   UNL A   1      30.447  28.158  22.843  1.00  0.00     0.082 C 
ATOM     22  C   UNL A   1      29.023  27.980  23.371  1.00  0.00     0.031 C 
ATOM     23  C   UNL A   1      30.663  29.546  22.237  1.00  0.00     0.031 C 
ENDBRANCH   9  21
BRANCH  16  24
ATOM     24  C   UNL A   1      33.431  24.460  25.968  1.00  0.00    -0.021 A 
ATOM     25  C   UNL A   1      34.412  23.713  26.649  1.00  0.00     0.006 A 
ATOM     26  C   UNL A   1      32.086  24.216  26.308  1.00  0.00     0.006 A 
ATOM     27  C   UNL A   1      34.064  22.740  27.590  1.00  0.00     0.000 A 
ATOM     28  C   UNL A   1      31.739  23.261  27.267  1.00  0.00     0.000 A 
ATOM     29  C   UNL A   1      32.727  22.513  27.897  1.00  0.00     0.000 A 
ENDBRANCH  16  24
ENDBRANCH   7   8
ENDBRANCH   4   7
ENDBRANCH   2   3
ENDBRANCH   1   2
BRANCH   1  30
ATOM     30  C   UNL A   1      38.373  20.790  25.013  1.00  0.00     0.023 C 
BRANCH  30  31
ATOM     31  C   UNL A   1      38.832  19.659  25.932  1.00  0.00     0.116 C 
BRANCH  31  32
ATOM     32  N   UNL A   1      40.114  19.099  25.549  1.00  0.00    -0.352 N 
ATOM     33  C   UNL A   1      41.412  19.346  25.886  1.00  0.00     0.251 C 
ATOM     34  H   UNL A   1      40.027  18.370  24.894  1.00  0.00     0.163 HD
ATOM     35  O   UNL A   1      42.254  18.576  25.418  1.00  0.00    -0.269 OA
BRANCH  33  36
ATOM     36  C   UNL A   1      41.873  20.511  26.678  1.00  0.00     0.039 A 
ATOM     37  C   UNL A   1      41.739  20.657  28.059  1.00  0.00     0.014 A 
ATOM     38  C   UNL A   1      42.384  21.585  25.927  1.00  0.00     0.014 A 
ATOM     39  C   UNL A   1      41.933  21.891  28.654  1.00  0.00     0.010 A 
ATOM     40  C   UNL A   1      42.617  22.812  26.520  1.00  0.00     0.010 A 
ATOM     41  C   UNL A   1      42.299  22.977  27.864  1.00  0.00    -0.014 A 
BRANCH  41  42
ATOM     42  C   UNL A   1      42.381  24.280  28.503  1.00  0.00     0.031 A 
ATOM     43  C   UNL A   1      41.266  25.213  28.171  1.00  0.00     0.074 A 
ATOM     44  C   UNL A   1      43.343  24.534  29.413  1.00  0.00     0.049 A 
ATOM     45  N   UNL A   1      41.327  26.439  27.761  1.00  0.00    -0.248 NA
ATOM     46  C   UNL A   1      39.898  24.662  28.208  1.00  0.00     0.031 C 
ATOM     47  C   UNL A   1      44.313  23.596  29.991  1.00  0.00     0.029 A 
ATOM     48  N   UNL A   1      43.561  25.666  30.130  1.00  0.00    -0.354 N 
ATOM     49  C   UNL A   1      40.005  26.868  27.636  1.00  0.00     0.074 A 
ATOM     50  C   UNL A   1      39.175  25.703  27.799  1.00  0.00     0.031 C 
ATOM     51  C   UNL A   1      44.793  24.108  31.146  1.00  0.00     0.029 A 
ATOM     52  C   UNL A   1      44.288  25.461  31.296  1.00  0.00     0.049 A 
ATOM     53  H   UNL A   1      43.233  26.551  29.849  1.00  0.00     0.167 HD
ATOM     54  C   UNL A   1      39.663  28.184  27.606  1.00  0.00     0.031 A 
ATOM     55  C   UNL A   1      44.371  26.309  32.351  1.00  0.00     0.031 A 
ATOM     56  C   UNL A   1      40.762  29.019  27.208  1.00  0.00     0.049 A 
ATOM     57  C   UNL A   1      43.942  27.645  31.877  1.00  0.00     0.074 A 
ATOM     58  C   UNL A   1      41.505  29.143  26.052  1.00  0.00     0.029 A 
ATOM     59  N   UNL A   1      41.495  29.635  28.192  1.00  0.00    -0.354 N 
ATOM     60  N   UNL A   1      44.597  28.341  30.992  1.00  0.00    -0.248 NA
ATOM     61  C   UNL A   1      42.539  27.995  32.040  1.00  0.00     0.031 C 
ATOM     62  C   UNL A   1      42.839  29.358  26.500  1.00  0.00     0.029 A 
ATOM     63  C   UNL A   1      42.817  29.430  27.895  1.00  0.00     0.049 A 
ATOM     64  H   UNL A   1      41.138  30.131  28.965  1.00  0.00     0.167 HD
ATOM     65  C   UNL A   1      43.615  28.909  30.194  1.00  0.00     0.074 A 
ATOM     66  C   UNL A   1      42.367  28.724  30.934  1.00  0.00     0.031 C 
ATOM     67  C   UNL A   1      43.852  29.220  28.885  1.00  0.00     0.031 A 
BRANCH  54  68
ATOM     68  C   UNL A   1      38.427  28.724  28.278  1.00  0.00    -0.014 A 
ATOM     69  C   UNL A   1      38.206  28.626  29.668  1.00  0.00     0.009 A 
ATOM     70  C   UNL A   1      37.577  29.589  27.567  1.00  0.00     0.009 A 
ATOM     71  C   UNL A   1      37.208  29.356  30.318  1.00  0.00     0.001 A 
ATOM     72  C   UNL A   1      36.601  30.353  28.221  1.00  0.00     0.001 A 
ATOM     73  C   UNL A   1      36.422  30.240  29.597  1.00  0.00     0.000 A 
ENDBRANCH  54  68
BRANCH  55  74
ATOM     74  C   UNL A   1      44.327  25.937  33.786  1.00  0.00    -0.014 A 
ATOM     75  C   UNL A   1      45.437  26.191  34.615  1.00  0.00     0.009 A 
ATOM     76  C   UNL A   1      43.333  25.074  34.273  1.00  0.00     0.009 A 
ATOM     77  C   UNL A   1      45.569  25.578  35.865  1.00  0.00     0.001 A 
ATOM     78  C   UNL A   1      43.466  24.459  35.526  1.00  0.00     0.001 A 
ATOM     79  C   UNL A   1      44.590  24.699  36.314  1.00  0.00     0.000 A 
ENDBRANCH  55  74
BRANCH  67  80
ATOM     80  C   UNL A   1      45.260  29.071  28.350  1.00  0.00    -0.014 A 
ATOM     81  C   UNL A   1      46.028  30.231  28.169  1.00  0.00     0.009 A 
ATOM     82  C   UNL A   1      45.754  27.863  27.821  1.00  0.00     0.009 A 
ATOM     83  C   UNL A   1      47.235  30.195  27.465  1.00  0.00     0.001 A 
ATOM     84  C   UNL A   1      46.974  27.821  27.137  1.00  0.00     0.001 A 
ATOM     85  C   UNL A   1      47.707  28.991  26.948  1.00  0.00     0.000 A 
ENDBRANCH  67  80
ENDBRANCH  41  42
ENDBRANCH  33  36
ENDBRANCH  31  32
ENDBRANCH  30  31
ENDBRANCH   1  30
TORSDOF 14
ENDMDL
MODEL 3
REMARK VINA RESULT:     -12.2      2.492      4.000
REMARK SMILES CC(C)n1c2c(c3ccccc31)[C@@H](c1ccccc1)N(CC(=O)NCCCCNC(=O)c1ccc(-c3c4nc(c(-c5ccccc5)c5ccc([nH]5)c(-c5ccccc5)c5nc(c(-c6ccccc6)c6ccc3[nH]6)C=C5)C=C4)cc1)C2=O
REMARK SMILES IDX 26 1 25 2 24 3 22 4 23 5 21 7 20 8 4 9 5 10 12 11 6 12 80 13
REMARK SMILES IDX 7 14 11 15 13 16 81 17 8 18 10 19 9 20 2 21 1 22 3 23 14 24
REMARK SMILES IDX 15 25 19 26 16 27 18 28 17 29 27 30 28 31 29 32 30 33 31 35
REMARK SMILES IDX 32 36 33 37 79 38 34 39 78 40 35 41 36 42 37 43 72 44 38 45
REMARK SMILES IDX 77 46 71 47 73 48 39 49 76 50 70 51 69 52 40 54 62 55 47 56
REMARK SMILES IDX 61 57 48 58 51 59 60 60 74 61 49 62 50 63 59 65 75 66 52 67
REMARK SMILES IDX 41 68 42 69 46 70 43 71 45 72 44 73 63 74 64 75 68 76 65 77
REMARK SMILES IDX 67 78 66 79 53 80 54 81 58 82 55 83 57 84 56 85
REMARK H PARENT 24 6 29 34 73 53 51 64
REMARK Flexibility Score: inf
ROOT
ATOM      1  C   UNL A   1      40.408  21.750  27.156  1.00  0.00     0.023 C 
ENDROOT
BRANCH   1   2
ATOM      2  C   UNL A   1      39.236  22.538  26.569  1.00  0.00     0.116 C 
BRANCH   2   3
ATOM      3  N   UNL A   1      38.728  21.923  25.363  1.00  0.00    -0.355 N 
ATOM      4  C   UNL A   1      37.467  21.453  25.132  1.00  0.00     0.239 C 
ATOM      5  O   UNL A   1      37.228  20.912  24.050  1.00  0.00    -0.273 OA
ATOM      6  H   UNL A   1      39.366  21.835  24.619  1.00  0.00     0.163 HD
BRANCH   4   7
ATOM      7  C   UNL A   1      36.396  21.556  26.226  1.00  0.00     0.220 C 
BRANCH   7   8
ATOM      8  N   UNL A   1      35.234  22.289  25.752  1.00  0.00    -0.317 N 
ATOM      9  N   UNL A   1      33.288  25.248  25.276  1.00  0.00    -0.334 N 
ATOM     10  C   UNL A   1      33.964  24.074  25.381  1.00  0.00     0.114 A 
ATOM     11  C   UNL A   1      31.986  25.028  25.737  1.00  0.00     0.049 A 
ATOM     12  C   UNL A   1      33.130  23.093  25.842  1.00  0.00     0.018 A 
ATOM     13  C   UNL A   1      35.299  23.594  25.265  1.00  0.00     0.272 C 
ATOM     14  C   UNL A   1      31.882  23.671  26.111  1.00  0.00     0.006 A 
ATOM     15  C   UNL A   1      30.886  25.891  25.877  1.00  0.00     0.027 A 
ATOM     16  C   UNL A   1      33.848  21.801  25.986  1.00  0.00     0.150 C 
ATOM     17  O   UNL A   1      36.300  24.222  24.940  1.00  0.00    -0.267 OA
ATOM     18  C   UNL A   1      30.674  23.181  26.638  1.00  0.00     0.011 A 
ATOM     19  C   UNL A   1      29.692  25.378  26.394  1.00  0.00     0.002 A 
ATOM     20  C   UNL A   1      29.586  24.044  26.773  1.00  0.00     0.001 A 
BRANCH   9  21
ATOM     21  C   UNL A   1      33.870  26.502  24.801  1.00  0.00     0.082 C 
ATOM     22  C   UNL A   1      33.266  26.960  23.473  1.00  0.00     0.031 C 
ATOM     23  C   UNL A   1      33.838  27.609  25.856  1.00  0.00     0.031 C 
ENDBRANCH   9  21
BRANCH  16  24
ATOM     24  C   UNL A   1      33.411  20.834  24.896  1.00  0.00    -0.021 A 
ATOM     25  C   UNL A   1      32.682  21.351  23.807  1.00  0.00     0.006 A 
ATOM     26  C   UNL A   1      33.633  19.444  24.920  1.00  0.00     0.006 A 
ATOM     27  C   UNL A   1      32.163  20.514  22.815  1.00  0.00     0.000 A 
ATOM     28  C   UNL A   1      33.136  18.610  23.915  1.00  0.00     0.000 A 
ATOM     29  C   UNL A   1      32.389  19.143  22.870  1.00  0.00     0.000 A 
ENDBRANCH  16  24
ENDBRANCH   7   8
ENDBRANCH   4   7
ENDBRANCH   2   3
ENDBRANCH   1   2
BRANCH   1  30
ATOM     30  C   UNL A   1      40.710  20.426  26.442  1.00  0.00     0.023 C 
BRANCH  30  31
ATOM     31  C   UNL A   1      42.132  19.916  26.667  1.00  0.00     0.116 C 
BRANCH  31  32
ATOM     32  N   UNL A   1      42.973  20.036  25.492  1.00  0.00    -0.352 N 
ATOM     33  C   UNL A   1      43.821  20.987  25.007  1.00  0.00     0.251 C 
ATOM     34  H   UNL A   1      42.920  19.246  24.907  1.00  0.00     0.163 HD
ATOM     35  O   UNL A   1      44.459  20.687  23.995  1.00  0.00    -0.269 OA
BRANCH  33  36
ATOM     36  C   UNL A   1      43.947  22.362  25.548  1.00  0.00     0.039 A 
ATOM     37  C   UNL A   1      44.806  22.753  26.576  1.00  0.00     0.014 A 
ATOM     38  C   UNL A   1      43.033  23.298  25.032  1.00  0.00     0.014 A 
ATOM     39  C   UNL A   1      44.639  23.977  27.198  1.00  0.00     0.010 A 
ATOM     40  C   UNL A   1      42.885  24.539  25.624  1.00  0.00     0.010 A 
ATOM     41  C   UNL A   1      43.628  24.830  26.763  1.00  0.00    -0.014 A 
BRANCH  41  42
ATOM     42  C   UNL A   1      43.409  26.055  27.513  1.00  0.00     0.031 A 
ATOM     43  C   UNL A   1      44.392  27.143  27.239  1.00  0.00     0.074 A 
ATOM     44  C   UNL A   1      42.317  26.193  28.292  1.00  0.00     0.049 A 
ATOM     45  N   UNL A   1      45.081  27.845  28.079  1.00  0.00    -0.248 NA
ATOM     46  C   UNL A   1      44.720  27.409  25.825  1.00  0.00     0.031 C 
ATOM     47  C   UNL A   1      41.171  25.283  28.412  1.00  0.00     0.029 A 
ATOM     48  N   UNL A   1      41.929  27.260  29.035  1.00  0.00    -0.354 N 
ATOM     49  C   UNL A   1      45.816  28.749  27.310  1.00  0.00     0.074 A 
ATOM     50  C   UNL A   1      45.653  28.352  25.936  1.00  0.00     0.031 C 
ATOM     51  C   UNL A   1      40.120  25.958  28.930  1.00  0.00     0.029 A 
ATOM     52  C   UNL A   1      40.568  27.283  29.317  1.00  0.00     0.049 A 
ATOM     53  H   UNL A   1      42.554  27.955  29.346  1.00  0.00     0.167 HD
ATOM     54  C   UNL A   1      46.351  29.887  27.831  1.00  0.00     0.031 A 
ATOM     55  C   UNL A   1      39.852  28.357  29.735  1.00  0.00     0.031 A 
ATOM     56  C   UNL A   1      46.523  29.801  29.253  1.00  0.00     0.049 A 
ATOM     57  C   UNL A   1      40.815  29.350  30.264  1.00  0.00     0.074 A 
ATOM     58  C   UNL A   1      47.294  29.010  30.082  1.00  0.00     0.029 A 
ATOM     59  N   UNL A   1      45.557  30.354  30.056  1.00  0.00    -0.354 N 
ATOM     60  N   UNL A   1      41.545  29.153  31.324  1.00  0.00    -0.248 NA
ATOM     61  C   UNL A   1      41.305  30.364  29.341  1.00  0.00     0.031 C 
ATOM     62  C   UNL A   1      46.455  28.730  31.198  1.00  0.00     0.029 A 
ATOM     63  C   UNL A   1      45.257  29.426  31.021  1.00  0.00     0.049 A 
ATOM     64  H   UNL A   1      45.154  31.248  29.959  1.00  0.00     0.167 HD
ATOM     65  C   UNL A   1      42.783  29.692  31.005  1.00  0.00     0.074 A 
ATOM     66  C   UNL A   1      42.552  30.492  29.802  1.00  0.00     0.031 C 
ATOM     67  C   UNL A   1      43.934  29.218  31.568  1.00  0.00     0.031 A 
BRANCH  54  68
ATOM     68  C   UNL A   1      46.383  31.193  27.080  1.00  0.00    -0.014 A 
ATOM     69  C   UNL A   1      45.216  31.877  26.680  1.00  0.00     0.009 A 
ATOM     70  C   UNL A   1      47.590  31.909  26.993  1.00  0.00     0.009 A 
ATOM     71  C   UNL A   1      45.242  33.200  26.235  1.00  0.00     0.001 A 
ATOM     72  C   UNL A   1      47.615  33.250  26.586  1.00  0.00     0.001 A 
ATOM     73  C   UNL A   1      46.440  33.895  26.212  1.00  0.00     0.000 A 
ENDBRANCH  54  68
BRANCH  55  74
ATOM     74  C   UNL A   1      38.500  28.750  29.270  1.00  0.00    -0.014 A 
ATOM     75  C   UNL A   1      38.302  29.149  27.934  1.00  0.00     0.009 A 
ATOM     76  C   UNL A   1      37.476  29.023  30.190  1.00  0.00     0.009 A 
ATOM     77  C   UNL A   1      37.144  29.826  27.539  1.00  0.00     0.001 A 
ATOM     78  C   UNL A   1      36.316  29.702  29.795  1.00  0.00     0.001 A 
ATOM     79  C   UNL A   1      36.157  30.117  28.474  1.00  0.00     0.000 A 
ENDBRANCH  55  74
BRANCH  67  80
ATOM     80  C   UNL A   1      43.828  28.183  32.667  1.00  0.00    -0.014 A 
ATOM     81  C   UNL A   1      43.958  28.611  33.997  1.00  0.00     0.009 A 
ATOM     82  C   UNL A   1      43.826  26.797  32.417  1.00  0.00     0.009 A 
ATOM     83  C   UNL A   1      44.107  27.692  35.039  1.00  0.00     0.001 A 
ATOM     84  C   UNL A   1      43.951  25.875  33.462  1.00  0.00     0.001 A 
ATOM     85  C   UNL A   1      44.104  26.325  34.772  1.00  0.00     0.000 A 
ENDBRANCH  67  80
ENDBRANCH  41  42
ENDBRANCH  33  36
ENDBRANCH  31  32
ENDBRANCH  30  31
ENDBRANCH   1  30
TORSDOF 14
ENDMDL
