MODEL 1
REMARK VINA RESULT:     -12.0      0.000      0.000
REMARK SMILES Cc1ccc([C@@H]2[C@H](C(=O)NCCCCNC(=O)c3ccc(-c4c5nc(c(-c6ccccc6)c6ccc([nH]6)c(-c6ccccc6)c6nc(c(-c7ccccc7)c7ccc4[nH]7)C=C6)C=C5)cc3)c3ccccc3C(=O)N2c2ccccc2)cc1
REMARK SMILES IDX 13 1 12 2 11 3 10 4 8 5 9 6 7 8 6 9 74 10 66 11 72 12 67 13
REMARK SMILES IDX 71 14 73 15 68 16 70 17 69 18 5 19 1 20 2 21 3 22 82 23 4 24
REMARK SMILES IDX 81 25 75 26 76 27 80 28 77 29 79 30 78 31 14 32 15 33 16 34
REMARK SMILES IDX 17 36 18 37 19 38 65 39 20 40 64 41 21 42 22 43 23 44 58 45
REMARK SMILES IDX 24 46 63 47 57 48 59 49 25 50 62 51 56 52 55 53 26 55 48 56
REMARK SMILES IDX 33 57 47 58 34 59 37 60 46 61 60 62 35 63 36 64 45 66 61 67
REMARK SMILES IDX 38 68 27 69 28 70 32 71 29 72 31 73 30 74 49 75 50 76 54 77
REMARK SMILES IDX 51 78 53 79 52 80 39 81 40 82 44 83 41 84 43 85 42 86
REMARK H PARENT 10 7 15 35 59 54 37 65
REMARK Flexibility Score: inf
ROOT
ATOM      1  C   UNL A   1      33.534  29.164  27.637  1.00  0.00     0.023 C 
ENDROOT
BRANCH   1   2
ATOM      2  C   UNL A   1      33.637  27.877  26.817  1.00  0.00     0.023 C 
BRANCH   2   3
ATOM      3  C   UNL A   1      32.443  26.924  26.968  1.00  0.00     0.116 C 
BRANCH   3   4
ATOM      4  N   UNL A   1      32.520  25.802  26.046  1.00  0.00    -0.355 N 
ATOM      5  C   UNL A   1      33.720  25.157  25.833  1.00  0.00     0.230 C 
ATOM      6  O   UNL A   1      34.143  24.363  26.671  1.00  0.00    -0.274 OA
ATOM      7  H   UNL A   1      31.711  25.502  25.573  1.00  0.00     0.163 HD
BRANCH   5   8
ATOM      8  C   UNL A   1      34.441  25.395  24.498  1.00  0.00     0.137 C 
ATOM      9  C   UNL A   1      35.101  24.091  23.943  1.00  0.00     0.138 C 
ATOM     10  N   UNL A   1      34.064  23.253  23.316  1.00  0.00    -0.300 N 
ATOM     11  C   UNL A   1      33.573  26.009  23.394  1.00  0.00    -0.020 A 
ATOM     12  C   UNL A   1      33.626  23.822  22.107  1.00  0.00     0.259 C 
ATOM     13  C   UNL A   1      33.107  27.327  23.510  1.00  0.00     0.005 A 
ATOM     14  C   UNL A   1      33.221  25.263  22.246  1.00  0.00     0.044 A 
ATOM     15  O   UNL A   1      33.457  23.209  21.060  1.00  0.00    -0.269 OA
ATOM     16  C   UNL A   1      32.256  27.863  22.542  1.00  0.00     0.000 A 
ATOM     17  C   UNL A   1      32.397  25.820  21.263  1.00  0.00     0.014 A 
ATOM     18  C   UNL A   1      31.901  27.112  21.422  1.00  0.00     0.001 A 
BRANCH   9  19
ATOM     19  C   UNL A   1      36.296  23.491  24.682  1.00  0.00    -0.024 A 
ATOM     20  C   UNL A   1      39.869  21.675  26.334  1.00  0.00     0.044 C 
ATOM     21  C   UNL A   1      38.573  22.262  25.862  1.00  0.00    -0.051 A 
ATOM     22  C   UNL A   1      38.183  23.552  26.228  1.00  0.00     0.004 A 
ATOM     23  C   UNL A   1      37.764  21.546  24.982  1.00  0.00     0.004 A 
ATOM     24  C   UNL A   1      37.026  24.135  25.686  1.00  0.00     0.006 A 
ATOM     25  C   UNL A   1      36.648  22.154  24.402  1.00  0.00     0.006 A 
ENDBRANCH   9  19
BRANCH  10  26
ATOM     26  C   UNL A   1      33.078  22.487  24.055  1.00  0.00     0.045 A 
ATOM     27  C   UNL A   1      31.784  23.016  24.247  1.00  0.00     0.026 A 
ATOM     28  C   UNL A   1      33.364  21.286  24.715  1.00  0.00     0.026 A 
ATOM     29  C   UNL A   1      30.857  22.422  25.109  1.00  0.00     0.002 A 
ATOM     30  C   UNL A   1      32.422  20.663  25.547  1.00  0.00     0.002 A 
ATOM     31  C   UNL A   1      31.179  21.242  25.763  1.00  0.00     0.000 A 
ENDBRANCH  10  26
ENDBRANCH   5   8
ENDBRANCH   3   4
ENDBRANCH   2   3
ENDBRANCH   1   2
BRANCH   1  32
ATOM     32  C   UNL A   1      34.271  30.346  27.016  1.00  0.00     0.116 C 
BRANCH  32  33
ATOM     33  N   UNL A   1      34.878  31.261  27.980  1.00  0.00    -0.352 N 
ATOM     34  C   UNL A   1      36.057  31.122  28.705  1.00  0.00     0.251 C 
ATOM     35  H   UNL A   1      34.381  32.096  28.140  1.00  0.00     0.163 HD
ATOM     36  O   UNL A   1      36.415  31.986  29.477  1.00  0.00    -0.269 OA
BRANCH  34  37
ATOM     37  C   UNL A   1      36.941  29.963  28.414  1.00  0.00     0.039 A 
ATOM     38  C   UNL A   1      37.084  28.992  29.410  1.00  0.00     0.014 A 
ATOM     39  C   UNL A   1      37.794  29.975  27.315  1.00  0.00     0.014 A 
ATOM     40  C   UNL A   1      38.249  28.232  29.450  1.00  0.00     0.010 A 
ATOM     41  C   UNL A   1      38.994  29.300  27.406  1.00  0.00     0.010 A 
ATOM     42  C   UNL A   1      39.254  28.497  28.520  1.00  0.00    -0.014 A 
BRANCH  42  43
ATOM     43  C   UNL A   1      40.649  28.143  28.754  1.00  0.00     0.031 A 
ATOM     44  C   UNL A   1      41.232  26.914  28.192  1.00  0.00     0.074 A 
ATOM     45  C   UNL A   1      41.430  28.987  29.464  1.00  0.00     0.049 A 
ATOM     46  N   UNL A   1      42.234  26.285  28.707  1.00  0.00    -0.248 NA
ATOM     47  C   UNL A   1      40.683  26.262  27.010  1.00  0.00     0.031 C 
ATOM     48  C   UNL A   1      42.884  28.967  29.598  1.00  0.00     0.029 A 
ATOM     49  N   UNL A   1      41.020  29.933  30.393  1.00  0.00    -0.354 N 
ATOM     50  C   UNL A   1      42.649  25.354  27.784  1.00  0.00     0.074 A 
ATOM     51  C   UNL A   1      41.597  25.311  26.794  1.00  0.00     0.031 C 
ATOM     52  C   UNL A   1      43.229  29.672  30.689  1.00  0.00     0.029 A 
ATOM     53  C   UNL A   1      42.004  30.040  31.380  1.00  0.00     0.049 A 
ATOM     54  H   UNL A   1      40.178  30.441  30.363  1.00  0.00     0.167 HD
ATOM     55  C   UNL A   1      43.909  24.836  27.864  1.00  0.00     0.031 A 
ATOM     56  C   UNL A   1      41.724  29.724  32.680  1.00  0.00     0.031 A 
ATOM     57  C   UNL A   1      44.624  25.313  29.050  1.00  0.00     0.049 A 
ATOM     58  C   UNL A   1      42.512  28.541  33.204  1.00  0.00     0.074 A 
ATOM     59  C   UNL A   1      45.592  26.287  29.235  1.00  0.00     0.029 A 
ATOM     60  N   UNL A   1      44.156  24.979  30.316  1.00  0.00    -0.354 N 
ATOM     61  N   UNL A   1      43.150  27.692  32.446  1.00  0.00    -0.248 NA
ATOM     62  C   UNL A   1      42.597  28.194  34.621  1.00  0.00     0.031 C 
ATOM     63  C   UNL A   1      45.648  26.593  30.620  1.00  0.00     0.029 A 
ATOM     64  C   UNL A   1      44.737  25.786  31.276  1.00  0.00     0.049 A 
ATOM     65  H   UNL A   1      43.502  24.267  30.503  1.00  0.00     0.167 HD
ATOM     66  C   UNL A   1      43.692  26.702  33.223  1.00  0.00     0.074 A 
ATOM     67  C   UNL A   1      43.337  27.072  34.580  1.00  0.00     0.031 C 
ATOM     68  C   UNL A   1      44.370  25.649  32.679  1.00  0.00     0.031 A 
BRANCH  55  69
ATOM     69  C   UNL A   1      44.589  24.165  26.692  1.00  0.00    -0.014 A 
ATOM     70  C   UNL A   1      44.625  22.760  26.616  1.00  0.00     0.009 A 
ATOM     71  C   UNL A   1      45.270  24.849  25.670  1.00  0.00     0.009 A 
ATOM     72  C   UNL A   1      45.391  22.084  25.656  1.00  0.00     0.001 A 
ATOM     73  C   UNL A   1      46.074  24.184  24.734  1.00  0.00     0.001 A 
ATOM     74  C   UNL A   1      46.146  22.798  24.736  1.00  0.00     0.000 A 
ENDBRANCH  55  69
BRANCH  56  75
ATOM     75  C   UNL A   1      40.326  30.041  33.088  1.00  0.00    -0.014 A 
ATOM     76  C   UNL A   1      39.938  31.394  33.157  1.00  0.00     0.009 A 
ATOM     77  C   UNL A   1      39.326  29.060  33.064  1.00  0.00     0.009 A 
ATOM     78  C   UNL A   1      38.589  31.758  33.092  1.00  0.00     0.001 A 
ATOM     79  C   UNL A   1      37.975  29.428  33.010  1.00  0.00     0.001 A 
ATOM     80  C   UNL A   1      37.610  30.775  32.990  1.00  0.00     0.000 A 
ENDBRANCH  56  75
BRANCH  68  81
ATOM     81  C   UNL A   1      44.818  24.416  33.423  1.00  0.00    -0.014 A 
ATOM     82  C   UNL A   1      46.091  24.252  33.984  1.00  0.00     0.009 A 
ATOM     83  C   UNL A   1      43.871  23.403  33.695  1.00  0.00     0.009 A 
ATOM     84  C   UNL A   1      46.416  23.113  34.734  1.00  0.00     0.001 A 
ATOM     85  C   UNL A   1      44.176  22.288  34.479  1.00  0.00     0.001 A 
ATOM     86  C   UNL A   1      45.457  22.136  34.989  1.00  0.00     0.000 A 
ENDBRANCH  68  81
ENDBRANCH  42  43
ENDBRANCH  34  37
ENDBRANCH  32  33
ENDBRANCH   1  32
TORSDOF 13
ENDMDL
MODEL 2
REMARK VINA RESULT:     -11.9      3.162      8.619
REMARK SMILES Cc1ccc([C@@H]2[C@H](C(=O)NCCCCNC(=O)c3ccc(-c4c5nc(c(-c6ccccc6)c6ccc([nH]6)c(-c6ccccc6)c6nc(c(-c7ccccc7)c7ccc4[nH]7)C=C6)C=C5)cc3)c3ccccc3C(=O)N2c2ccccc2)cc1
REMARK SMILES IDX 13 1 12 2 11 3 10 4 8 5 9 6 7 8 6 9 74 10 66 11 72 12 67 13
REMARK SMILES IDX 71 14 73 15 68 16 70 17 69 18 5 19 1 20 2 21 3 22 82 23 4 24
REMARK SMILES IDX 81 25 75 26 76 27 80 28 77 29 79 30 78 31 14 32 15 33 16 34
REMARK SMILES IDX 17 36 18 37 19 38 65 39 20 40 64 41 21 42 22 43 23 44 58 45
REMARK SMILES IDX 24 46 63 47 57 48 59 49 25 50 62 51 56 52 55 53 26 55 48 56
REMARK SMILES IDX 33 57 47 58 34 59 37 60 46 61 60 62 35 63 36 64 45 66 61 67
REMARK SMILES IDX 38 68 27 69 28 70 32 71 29 72 31 73 30 74 49 75 50 76 54 77
REMARK SMILES IDX 51 78 53 79 52 80 39 81 40 82 44 83 41 84 43 85 42 86
REMARK H PARENT 10 7 15 35 59 54 37 65
REMARK Flexibility Score: inf
ROOT
ATOM      1  C   UNL A   1      37.833  23.637  25.088  1.00  0.00     0.023 C 
ENDROOT
BRANCH   1   2
ATOM      2  C   UNL A   1      36.332  23.917  25.177  1.00  0.00     0.023 C 
BRANCH   2   3
ATOM      3  C   UNL A   1      35.646  24.168  23.827  1.00  0.00     0.116 C 
BRANCH   3   4
ATOM      4  N   UNL A   1      34.296  24.683  23.988  1.00  0.00    -0.355 N 
ATOM      5  C   UNL A   1      34.063  25.792  24.772  1.00  0.00     0.230 C 
ATOM      6  O   UNL A   1      34.327  26.912  24.337  1.00  0.00    -0.274 OA
ATOM      7  H   UNL A   1      33.545  24.236  23.535  1.00  0.00     0.163 HD
BRANCH   5   8
ATOM      8  C   UNL A   1      33.392  25.586  26.137  1.00  0.00     0.137 C 
ATOM      9  C   UNL A   1      32.429  26.760  26.506  1.00  0.00     0.138 C 
ATOM     10  N   UNL A   1      31.160  26.593  25.777  1.00  0.00    -0.300 N 
ATOM     11  C   UNL A   1      32.629  24.265  26.290  1.00  0.00    -0.020 A 
ATOM     12  C   UNL A   1      30.421  25.517  26.300  1.00  0.00     0.259 C 
ATOM     13  C   UNL A   1      33.323  23.046  26.315  1.00  0.00     0.005 A 
ATOM     14  C   UNL A   1      31.220  24.248  26.401  1.00  0.00     0.044 A 
ATOM     15  O   UNL A   1      29.220  25.537  26.541  1.00  0.00    -0.269 OA
ATOM     16  C   UNL A   1      32.625  21.838  26.380  1.00  0.00     0.000 A 
ATOM     17  C   UNL A   1      30.531  23.035  26.502  1.00  0.00     0.014 A 
ATOM     18  C   UNL A   1      31.234  21.831  26.471  1.00  0.00     0.001 A 
BRANCH   9  19
ATOM     19  C   UNL A   1      33.019  28.137  26.809  1.00  0.00    -0.024 A 
ATOM     20  C   UNL A   1      34.367  32.069  28.040  1.00  0.00     0.044 C 
ATOM     21  C   UNL A   1      33.927  30.742  27.499  1.00  0.00    -0.051 A 
ATOM     22  C   UNL A   1      34.827  29.688  27.337  1.00  0.00     0.004 A 
ATOM     23  C   UNL A   1      32.581  30.519  27.215  1.00  0.00     0.004 A 
ATOM     24  C   UNL A   1      34.383  28.416  26.941  1.00  0.00     0.006 A 
ATOM     25  C   UNL A   1      32.138  29.237  26.879  1.00  0.00     0.006 A 
ENDBRANCH   9  19
BRANCH  10  26
ATOM     26  C   UNL A   1      30.995  26.851  24.359  1.00  0.00     0.045 A 
ATOM     27  C   UNL A   1      31.033  25.775  23.445  1.00  0.00     0.026 A 
ATOM     28  C   UNL A   1      30.924  28.135  23.807  1.00  0.00     0.026 A 
ATOM     29  C   UNL A   1      31.077  25.975  22.062  1.00  0.00     0.002 A 
ATOM     30  C   UNL A   1      30.924  28.339  22.418  1.00  0.00     0.002 A 
ATOM     31  C   UNL A   1      31.025  27.262  21.547  1.00  0.00     0.000 A 
ENDBRANCH  10  26
ENDBRANCH   5   8
ENDBRANCH   3   4
ENDBRANCH   2   3
ENDBRANCH   1   2
BRANCH   1  32
ATOM     32  C   UNL A   1      38.339  22.666  26.150  1.00  0.00     0.116 C 
BRANCH  32  33
ATOM     33  N   UNL A   1      39.784  22.698  26.368  1.00  0.00    -0.352 N 
ATOM     34  C   UNL A   1      40.589  23.757  26.775  1.00  0.00     0.251 C 
ATOM     35  H   UNL A   1      40.254  21.850  26.203  1.00  0.00     0.163 HD
ATOM     36  O   UNL A   1      41.787  23.611  26.902  1.00  0.00    -0.269 OA
BRANCH  34  37
ATOM     37  C   UNL A   1      39.941  25.030  27.188  1.00  0.00     0.039 A 
ATOM     38  C   UNL A   1      40.225  26.174  26.436  1.00  0.00     0.014 A 
ATOM     39  C   UNL A   1      39.297  25.136  28.417  1.00  0.00     0.014 A 
ATOM     40  C   UNL A   1      40.133  27.421  27.045  1.00  0.00     0.010 A 
ATOM     41  C   UNL A   1      39.301  26.358  29.058  1.00  0.00     0.010 A 
ATOM     42  C   UNL A   1      39.802  27.484  28.398  1.00  0.00    -0.014 A 
BRANCH  42  43
ATOM     43  C   UNL A   1      40.148  28.627  29.236  1.00  0.00     0.031 A 
ATOM     44  C   UNL A   1      39.167  29.683  29.533  1.00  0.00     0.074 A 
ATOM     45  C   UNL A   1      41.381  28.689  29.785  1.00  0.00     0.049 A 
ATOM     46  N   UNL A   1      39.478  30.902  29.821  1.00  0.00    -0.248 NA
ATOM     47  C   UNL A   1      37.729  29.450  29.475  1.00  0.00     0.031 C 
ATOM     48  C   UNL A   1      41.850  29.581  30.841  1.00  0.00     0.029 A 
ATOM     49  N   UNL A   1      42.537  28.068  29.332  1.00  0.00    -0.354 N 
ATOM     50  C   UNL A   1      38.337  31.517  30.280  1.00  0.00     0.074 A 
ATOM     51  C   UNL A   1      37.263  30.607  29.953  1.00  0.00     0.031 C 
ATOM     52  C   UNL A   1      43.193  29.628  30.806  1.00  0.00     0.029 A 
ATOM     53  C   UNL A   1      43.627  28.889  29.631  1.00  0.00     0.049 A 
ATOM     54  H   UNL A   1      42.580  27.196  28.877  1.00  0.00     0.167 HD
ATOM     55  C   UNL A   1      38.435  32.651  31.031  1.00  0.00     0.031 A 
ATOM     56  C   UNL A   1      44.401  29.409  28.632  1.00  0.00     0.031 A 
ATOM     57  C   UNL A   1      39.820  33.112  31.152  1.00  0.00     0.049 A 
ATOM     58  C   UNL A   1      44.353  30.922  28.548  1.00  0.00     0.074 A 
ATOM     59  C   UNL A   1      40.761  33.004  32.164  1.00  0.00     0.029 A 
ATOM     60  N   UNL A   1      40.508  33.527  30.018  1.00  0.00    -0.354 N 
ATOM     61  N   UNL A   1      43.446  31.659  29.125  1.00  0.00    -0.248 NA
ATOM     62  C   UNL A   1      45.296  31.714  27.762  1.00  0.00     0.031 C 
ATOM     63  C   UNL A   1      42.037  33.283  31.608  1.00  0.00     0.029 A 
ATOM     64  C   UNL A   1      41.867  33.587  30.270  1.00  0.00     0.049 A 
ATOM     65  H   UNL A   1      40.088  33.746  29.155  1.00  0.00     0.167 HD
ATOM     66  C   UNL A   1      43.642  32.973  28.790  1.00  0.00     0.074 A 
ATOM     67  C   UNL A   1      44.826  32.960  27.951  1.00  0.00     0.031 C 
ATOM     68  C   UNL A   1      42.799  33.960  29.215  1.00  0.00     0.031 A 
BRANCH  55  69
ATOM     69  C   UNL A   1      37.311  33.138  31.919  1.00  0.00    -0.014 A 
ATOM     70  C   UNL A   1      37.269  32.747  33.270  1.00  0.00     0.009 A 
ATOM     71  C   UNL A   1      36.231  33.921  31.476  1.00  0.00     0.009 A 
ATOM     72  C   UNL A   1      36.164  33.015  34.090  1.00  0.00     0.001 A 
ATOM     73  C   UNL A   1      35.103  34.156  32.274  1.00  0.00     0.001 A 
ATOM     74  C   UNL A   1      35.062  33.689  33.580  1.00  0.00     0.000 A 
ENDBRANCH  55  69
BRANCH  56  75
ATOM     75  C   UNL A   1      44.540  28.513  27.449  1.00  0.00    -0.014 A 
ATOM     76  C   UNL A   1      45.305  27.337  27.585  1.00  0.00     0.009 A 
ATOM     77  C   UNL A   1      43.673  28.624  26.353  1.00  0.00     0.009 A 
ATOM     78  C   UNL A   1      45.126  26.260  26.711  1.00  0.00     0.001 A 
ATOM     79  C   UNL A   1      43.505  27.546  25.474  1.00  0.00     0.001 A 
ATOM     80  C   UNL A   1      44.205  26.356  25.673  1.00  0.00     0.000 A 
ENDBRANCH  56  75
BRANCH  68  81
ATOM     81  C   UNL A   1      42.809  35.390  28.736  1.00  0.00    -0.014 A 
ATOM     82  C   UNL A   1      42.109  35.849  27.612  1.00  0.00     0.009 A 
ATOM     83  C   UNL A   1      43.450  36.369  29.527  1.00  0.00     0.009 A 
ATOM     84  C   UNL A   1      42.094  37.208  27.267  1.00  0.00     0.001 A 
ATOM     85  C   UNL A   1      43.400  37.730  29.213  1.00  0.00     0.001 A 
ATOM     86  C   UNL A   1      42.732  38.148  28.072  1.00  0.00     0.000 A 
ENDBRANCH  68  81
ENDBRANCH  42  43
ENDBRANCH  34  37
ENDBRANCH  32  33
ENDBRANCH   1  32
TORSDOF 13
ENDMDL
MODEL 3
REMARK VINA RESULT:     -11.7      5.393     10.954
REMARK SMILES Cc1ccc([C@@H]2[C@H](C(=O)NCCCCNC(=O)c3ccc(-c4c5nc(c(-c6ccccc6)c6ccc([nH]6)c(-c6ccccc6)c6nc(c(-c7ccccc7)c7ccc4[nH]7)C=C6)C=C5)cc3)c3ccccc3C(=O)N2c2ccccc2)cc1
REMARK SMILES IDX 13 1 12 2 11 3 10 4 8 5 9 6 7 8 6 9 74 10 66 11 72 12 67 13
REMARK SMILES IDX 71 14 73 15 68 16 70 17 69 18 5 19 1 20 2 21 3 22 82 23 4 24
REMARK SMILES IDX 81 25 75 26 76 27 80 28 77 29 79 30 78 31 14 32 15 33 16 34
REMARK SMILES IDX 17 36 18 37 19 38 65 39 20 40 64 41 21 42 22 43 23 44 58 45
REMARK SMILES IDX 24 46 63 47 57 48 59 49 25 50 62 51 56 52 55 53 26 55 48 56
REMARK SMILES IDX 33 57 47 58 34 59 37 60 46 61 60 62 35 63 36 64 45 66 61 67
REMARK SMILES IDX 38 68 27 69 28 70 32 71 29 72 31 73 30 74 49 75 50 76 54 77
REMARK SMILES IDX 51 78 53 79 52 80 39 81 40 82 44 83 41 84 43 85 42 86
REMARK H PARENT 10 7 15 35 59 54 37 65
REMARK Flexibility Score: inf
ROOT
ATOM      1  C   UNL A   1      46.376  31.878  30.319  1.00  0.00     0.023 C 
ENDROOT
BRANCH   1   2
ATOM      2  C   UNL A   1      45.825  30.586  30.923  1.00  0.00     0.023 C 
BRANCH   2   3
ATOM      3  C   UNL A   1      46.194  29.310  30.153  1.00  0.00     0.116 C 
BRANCH   3   4
ATOM      4  N   UNL A   1      45.159  28.294  30.254  1.00  0.00    -0.355 N 
ATOM      5  C   UNL A   1      45.219  27.159  29.473  1.00  0.00     0.230 C 
ATOM      6  O   UNL A   1      45.994  26.253  29.774  1.00  0.00    -0.274 OA
ATOM      7  H   UNL A   1      44.413  28.417  30.883  1.00  0.00     0.163 HD
BRANCH   5   8
ATOM      8  C   UNL A   1      44.239  27.038  28.297  1.00  0.00     0.137 C 
ATOM      9  C   UNL A   1      44.835  27.609  26.970  1.00  0.00     0.138 C 
ATOM     10  N   UNL A   1      45.763  26.621  26.392  1.00  0.00    -0.300 N 
ATOM     11  C   UNL A   1      43.723  25.619  28.030  1.00  0.00    -0.020 A 
ATOM     12  C   UNL A   1      45.059  25.519  25.874  1.00  0.00     0.259 C 
ATOM     13  C   UNL A   1      42.876  24.988  28.953  1.00  0.00     0.005 A 
ATOM     14  C   UNL A   1      44.092  24.921  26.857  1.00  0.00     0.044 A 
ATOM     15  O   UNL A   1      45.273  24.993  24.788  1.00  0.00    -0.269 OA
ATOM     16  C   UNL A   1      42.465  23.670  28.746  1.00  0.00     0.000 A 
ATOM     17  C   UNL A   1      43.646  23.613  26.640  1.00  0.00     0.014 A 
ATOM     18  C   UNL A   1      42.849  22.983  27.595  1.00  0.00     0.001 A 
BRANCH   9  19
ATOM     19  C   UNL A   1      45.068  29.113  26.847  1.00  0.00    -0.024 A 
ATOM     20  C   UNL A   1      45.537  33.422  26.952  1.00  0.00     0.044 C 
ATOM     21  C   UNL A   1      45.354  31.943  26.796  1.00  0.00    -0.051 A 
ATOM     22  C   UNL A   1      46.426  31.107  26.478  1.00  0.00     0.004 A 
ATOM     23  C   UNL A   1      44.109  31.366  27.038  1.00  0.00     0.004 A 
ATOM     24  C   UNL A   1      46.268  29.712  26.449  1.00  0.00     0.006 A 
ATOM     25  C   UNL A   1      43.972  29.975  27.066  1.00  0.00     0.006 A 
ENDBRANCH   9  19
BRANCH  10  26
ATOM     26  C   UNL A   1      47.088  26.343  26.914  1.00  0.00     0.045 A 
ATOM     27  C   UNL A   1      48.017  27.396  27.054  1.00  0.00     0.026 A 
ATOM     28  C   UNL A   1      47.563  25.054  27.178  1.00  0.00     0.026 A 
ATOM     29  C   UNL A   1      49.361  27.166  27.362  1.00  0.00     0.002 A 
ATOM     30  C   UNL A   1      48.901  24.822  27.530  1.00  0.00     0.002 A 
ATOM     31  C   UNL A   1      49.805  25.874  27.599  1.00  0.00     0.000 A 
ENDBRANCH  10  26
ENDBRANCH   5   8
ENDBRANCH   3   4
ENDBRANCH   2   3
ENDBRANCH   1   2
BRANCH   1  32
ATOM     32  C   UNL A   1      45.714  33.140  30.861  1.00  0.00     0.116 C 
BRANCH  32  33
ATOM     33  N   UNL A   1      46.494  33.854  31.870  1.00  0.00    -0.352 N 
ATOM     34  C   UNL A   1      46.136  34.221  33.163  1.00  0.00     0.251 C 
ATOM     35  H   UNL A   1      47.403  34.112  31.594  1.00  0.00     0.163 HD
ATOM     36  O   UNL A   1      46.914  34.823  33.874  1.00  0.00    -0.269 OA
BRANCH  34  37
ATOM     37  C   UNL A   1      44.839  33.743  33.708  1.00  0.00     0.039 A 
ATOM     38  C   UNL A   1      44.786  32.434  34.197  1.00  0.00     0.014 A 
ATOM     39  C   UNL A   1      43.669  34.466  33.501  1.00  0.00     0.014 A 
ATOM     40  C   UNL A   1      43.568  31.761  34.192  1.00  0.00     0.010 A 
ATOM     41  C   UNL A   1      42.479  33.775  33.397  1.00  0.00     0.010 A 
ATOM     42  C   UNL A   1      42.450  32.402  33.659  1.00  0.00    -0.014 A 
BRANCH  42  43
ATOM     43  C   UNL A   1      41.293  31.670  33.156  1.00  0.00     0.031 A 
ATOM     44  C   UNL A   1      41.209  31.243  31.750  1.00  0.00     0.074 A 
ATOM     45  C   UNL A   1      40.302  31.340  34.013  1.00  0.00     0.049 A 
ATOM     46  N   UNL A   1      40.102  31.048  31.116  1.00  0.00    -0.248 NA
ATOM     47  C   UNL A   1      42.393  31.047  30.923  1.00  0.00     0.031 C 
ATOM     48  C   UNL A   1      39.200  30.407  33.796  1.00  0.00     0.029 A 
ATOM     49  N   UNL A   1      39.983  31.964  35.211  1.00  0.00    -0.354 N 
ATOM     50  C   UNL A   1      40.414  30.421  29.933  1.00  0.00     0.074 A 
ATOM     51  C   UNL A   1      41.850  30.533  29.816  1.00  0.00     0.031 C 
ATOM     52  C   UNL A   1      38.226  30.672  34.684  1.00  0.00     0.029 A 
ATOM     53  C   UNL A   1      38.600  31.881  35.400  1.00  0.00     0.049 A 
ATOM     54  H   UNL A   1      40.622  32.394  35.824  1.00  0.00     0.167 HD
ATOM     55  C   UNL A   1      39.450  29.732  29.258  1.00  0.00     0.031 A 
ATOM     56  C   UNL A   1      37.837  33.012  35.462  1.00  0.00     0.031 A 
ATOM     57  C   UNL A   1      38.136  29.862  29.891  1.00  0.00     0.049 A 
ATOM     58  C   UNL A   1      36.832  33.132  34.334  1.00  0.00     0.074 A 
ATOM     59  C   UNL A   1      37.403  29.023  30.714  1.00  0.00     0.029 A 
ATOM     60  N   UNL A   1      37.525  31.109  29.957  1.00  0.00    -0.354 N 
ATOM     61  N   UNL A   1      36.877  32.432  33.235  1.00  0.00    -0.248 NA
ATOM     62  C   UNL A   1      35.729  34.091  34.337  1.00  0.00     0.031 C 
ATOM     63  C   UNL A   1      36.389  29.795  31.338  1.00  0.00     0.029 A 
ATOM     64  C   UNL A   1      36.489  31.094  30.873  1.00  0.00     0.049 A 
ATOM     65  H   UNL A   1      37.792  31.894  29.426  1.00  0.00     0.167 HD
ATOM     66  C   UNL A   1      35.874  32.834  32.393  1.00  0.00     0.074 A 
ATOM     67  C   UNL A   1      35.169  33.862  33.136  1.00  0.00     0.031 C 
ATOM     68  C   UNL A   1      35.723  32.302  31.144  1.00  0.00     0.031 A 
BRANCH  55  69
ATOM     69  C   UNL A   1      39.777  28.681  28.220  1.00  0.00    -0.014 A 
ATOM     70  C   UNL A   1      39.429  27.338  28.452  1.00  0.00     0.009 A 
ATOM     71  C   UNL A   1      40.485  28.931  27.032  1.00  0.00     0.009 A 
ATOM     72  C   UNL A   1      39.864  26.299  27.617  1.00  0.00     0.001 A 
ATOM     73  C   UNL A   1      40.962  27.896  26.215  1.00  0.00     0.001 A 
ATOM     74  C   UNL A   1      40.664  26.575  26.517  1.00  0.00     0.000 A 
ENDBRANCH  55  69
BRANCH  56  75
ATOM     75  C   UNL A   1      38.530  34.173  36.088  1.00  0.00    -0.014 A 
ATOM     76  C   UNL A   1      38.737  34.159  37.481  1.00  0.00     0.009 A 
ATOM     77  C   UNL A   1      39.267  35.078  35.311  1.00  0.00     0.009 A 
ATOM     78  C   UNL A   1      39.731  34.950  38.067  1.00  0.00     0.001 A 
ATOM     79  C   UNL A   1      40.254  35.877  35.904  1.00  0.00     0.001 A 
ATOM     80  C   UNL A   1      40.508  35.787  37.273  1.00  0.00     0.000 A 
ENDBRANCH  56  75
BRANCH  68  81
ATOM     81  C   UNL A   1      34.793  32.820  30.076  1.00  0.00    -0.014 A 
ATOM     82  C   UNL A   1      34.277  34.122  30.043  1.00  0.00     0.009 A 
ATOM     83  C   UNL A   1      34.514  32.000  28.960  1.00  0.00     0.009 A 
ATOM     84  C   UNL A   1      33.481  34.565  28.977  1.00  0.00     0.001 A 
ATOM     85  C   UNL A   1      33.759  32.450  27.874  1.00  0.00     0.001 A 
ATOM     86  C   UNL A   1      33.230  33.732  27.889  1.00  0.00     0.000 A 
ENDBRANCH  68  81
ENDBRANCH  42  43
ENDBRANCH  34  37
ENDBRANCH  32  33
ENDBRANCH   1  32
TORSDOF 13
ENDMDL
