MODEL 1
REMARK VINA RESULT:     -10.1      0.000      0.000
REMARK SMILES CC(C)[C@H](NC(=O)[C@H](C)NC(=O)C[NH3+])C(=O)NCCCCNC(=O)c1ccc(-c2c3nc(c(-c4ccccc4)c4ccc([nH]4)c(-c4ccccc4)c4nc(c(-c5ccccc5)c5ccc2[nH]5)C=C4)C=C3)cc1
REMARK SMILES IDX 18 1 17 2 15 3 16 4 4 6 2 7 1 8 3 9 5 10 6 11 7 13 8 14 9 15
REMARK SMILES IDX 10 16 11 17 12 19 13 20 14 21 19 25 20 26 21 27 22 28 23 29
REMARK SMILES IDX 24 31 25 32 26 33 72 34 27 35 71 36 28 37 29 38 30 39 65 40
REMARK SMILES IDX 31 41 70 42 64 43 66 44 32 45 69 46 63 47 62 48 33 50 55 51
REMARK SMILES IDX 40 52 54 53 41 54 44 55 53 56 67 57 42 58 43 59 52 61 68 62
REMARK SMILES IDX 45 63 34 64 35 65 39 66 36 67 38 68 37 69 56 70 57 71 61 72
REMARK SMILES IDX 58 73 60 74 59 75 46 76 47 77 51 78 48 79 50 80 49 81
REMARK H PARENT 17 5 5 12 10 18 14 22 14 23 14 24 22 30 66 49 44 60
REMARK Flexibility Score: inf
ROOT
ATOM      1  C   UNL A   1      33.574  27.216  24.793  1.00  0.00     0.116 C 
ENDROOT
BRANCH   1   2
ATOM      2  N   UNL A   1      33.736  26.810  23.422  1.00  0.00    -0.354 N 
ATOM      3  C   UNL A   1      33.815  25.562  22.890  1.00  0.00     0.242 C 
ATOM      4  O   UNL A   1      33.622  25.481  21.671  1.00  0.00    -0.273 OA
ATOM      5  H   UNL A   1      33.800  27.548  22.773  1.00  0.00     0.163 HD
BRANCH   3   6
ATOM      6  C   UNL A   1      34.019  24.266  23.732  1.00  0.00     0.173 C 
BRANCH   6   7
ATOM      7  C   UNL A   1      35.449  23.995  24.223  1.00  0.00     0.015 C 
ATOM      8  C   UNL A   1      35.561  23.632  25.705  1.00  0.00     0.010 C 
ATOM      9  C   UNL A   1      36.099  22.873  23.397  1.00  0.00     0.010 C 
ENDBRANCH   6   7
BRANCH   6  10
ATOM     10  N   UNL A   1      33.247  23.087  23.277  1.00  0.00    -0.342 N 
ATOM     11  C   UNL A   1      32.547  22.026  23.738  1.00  0.00     0.242 C 
ATOM     12  H   UNL A   1      33.239  23.071  22.293  1.00  0.00     0.164 HD
ATOM     13  O   UNL A   1      32.148  21.289  22.821  1.00  0.00    -0.273 OA
BRANCH  11  14
ATOM     14  C   UNL A   1      32.381  21.557  25.220  1.00  0.00     0.168 C 
ATOM     15  C   UNL A   1      32.488  20.023  25.277  1.00  0.00     0.041 C 
BRANCH  14  16
ATOM     16  N   UNL A   1      31.171  21.928  25.943  1.00  0.00    -0.340 N 
ATOM     17  C   UNL A   1      30.929  23.017  26.734  1.00  0.00     0.275 C 
ATOM     18  H   UNL A   1      30.417  21.302  25.848  1.00  0.00     0.164 HD
ATOM     19  O   UNL A   1      29.945  22.985  27.477  1.00  0.00    -0.268 OA
BRANCH  17  20
ATOM     20  C   UNL A   1      31.764  24.299  26.606  1.00  0.00     0.360 C 
BRANCH  20  21
ATOM     21  N   UNL A   1      30.966  25.520  26.757  1.00  0.00    -0.350 N 
ATOM     22  H   UNL A   1      31.099  26.116  25.941  1.00  0.00     0.344 HD
ATOM     23  H   UNL A   1      31.264  26.019  27.595  1.00  0.00     0.344 HD
ATOM     24  H   UNL A   1      29.980  25.273  26.842  1.00  0.00     0.344 HD
ENDBRANCH  20  21
ENDBRANCH  17  20
ENDBRANCH  14  16
ENDBRANCH  11  14
ENDBRANCH   6  10
ENDBRANCH   3   6
ENDBRANCH   1   2
BRANCH   1  25
ATOM     25  C   UNL A   1      32.437  28.217  25.007  1.00  0.00     0.023 C 
BRANCH  25  26
ATOM     26  C   UNL A   1      32.878  29.543  25.629  1.00  0.00     0.023 C 
BRANCH  26  27
ATOM     27  C   UNL A   1      33.669  29.439  26.930  1.00  0.00     0.116 C 
BRANCH  27  28
ATOM     28  N   UNL A   1      33.665  30.644  27.753  1.00  0.00    -0.352 N 
ATOM     29  C   UNL A   1      34.673  31.106  28.568  1.00  0.00     0.251 C 
ATOM     30  H   UNL A   1      32.846  31.190  27.720  1.00  0.00     0.163 HD
ATOM     31  O   UNL A   1      34.539  32.110  29.245  1.00  0.00    -0.269 OA
BRANCH  29  32
ATOM     32  C   UNL A   1      35.931  30.325  28.641  1.00  0.00     0.039 A 
ATOM     33  C   UNL A   1      36.822  30.368  27.565  1.00  0.00     0.014 A 
ATOM     34  C   UNL A   1      36.266  29.637  29.811  1.00  0.00     0.014 A 
ATOM     35  C   UNL A   1      38.092  29.805  27.704  1.00  0.00     0.010 A 
ATOM     36  C   UNL A   1      37.555  29.139  29.970  1.00  0.00     0.010 A 
ATOM     37  C   UNL A   1      38.488  29.235  28.925  1.00  0.00    -0.014 A 
BRANCH  37  38
ATOM     38  C   UNL A   1      39.884  28.780  29.151  1.00  0.00     0.031 A 
ATOM     39  C   UNL A   1      40.903  29.714  29.740  1.00  0.00     0.074 A 
ATOM     40  C   UNL A   1      40.259  27.552  28.740  1.00  0.00     0.049 A 
ATOM     41  N   UNL A   1      42.182  29.516  29.945  1.00  0.00    -0.248 NA
ATOM     42  C   UNL A   1      40.433  31.054  30.120  1.00  0.00     0.031 C 
ATOM     43  C   UNL A   1      39.385  26.566  28.100  1.00  0.00     0.029 A 
ATOM     44  N   UNL A   1      41.481  26.928  28.790  1.00  0.00    -0.354 N 
ATOM     45  C   UNL A   1      42.670  30.710  30.459  1.00  0.00     0.074 A 
ATOM     46  C   UNL A   1      41.562  31.640  30.491  1.00  0.00     0.031 C 
ATOM     47  C   UNL A   1      40.092  25.454  27.842  1.00  0.00     0.029 A 
ATOM     48  C   UNL A   1      41.474  25.660  28.263  1.00  0.00     0.049 A 
ATOM     49  H   UNL A   1      42.286  27.350  29.168  1.00  0.00     0.167 HD
ATOM     50  C   UNL A   1      43.922  31.002  30.883  1.00  0.00     0.031 A 
ATOM     51  C   UNL A   1      42.468  24.760  28.130  1.00  0.00     0.031 A 
ATOM     52  C   UNL A   1      45.023  30.077  30.868  1.00  0.00     0.049 A 
ATOM     53  C   UNL A   1      43.847  25.105  28.617  1.00  0.00     0.074 A 
ATOM     54  C   UNL A   1      46.310  30.261  31.344  1.00  0.00     0.029 A 
ATOM     55  N   UNL A   1      44.968  28.794  30.348  1.00  0.00    -0.354 N 
ATOM     56  N   UNL A   1      44.272  26.212  29.173  1.00  0.00    -0.248 NA
ATOM     57  C   UNL A   1      44.879  24.068  28.466  1.00  0.00     0.031 C 
ATOM     58  C   UNL A   1      47.047  29.104  31.072  1.00  0.00     0.029 A 
ATOM     59  C   UNL A   1      46.204  28.182  30.471  1.00  0.00     0.049 A 
ATOM     60  H   UNL A   1      44.169  28.379  29.952  1.00  0.00     0.167 HD
ATOM     61  C   UNL A   1      45.614  25.998  29.462  1.00  0.00     0.074 A 
ATOM     62  C   UNL A   1      45.927  24.651  29.032  1.00  0.00     0.031 C 
ATOM     63  C   UNL A   1      46.504  26.843  30.036  1.00  0.00     0.031 A 
BRANCH  50  64
ATOM     64  C   UNL A   1      44.165  32.393  31.399  1.00  0.00    -0.014 A 
ATOM     65  C   UNL A   1      44.571  33.427  30.541  1.00  0.00     0.009 A 
ATOM     66  C   UNL A   1      43.962  32.679  32.759  1.00  0.00     0.009 A 
ATOM     67  C   UNL A   1      44.808  34.709  31.040  1.00  0.00     0.001 A 
ATOM     68  C   UNL A   1      44.172  33.969  33.250  1.00  0.00     0.001 A 
ATOM     69  C   UNL A   1      44.605  34.980  32.393  1.00  0.00     0.000 A 
ENDBRANCH  50  64
BRANCH  51  70
ATOM     70  C   UNL A   1      42.189  23.430  27.530  1.00  0.00    -0.014 A 
ATOM     71  C   UNL A   1      41.638  22.403  28.312  1.00  0.00     0.009 A 
ATOM     72  C   UNL A   1      42.469  23.181  26.179  1.00  0.00     0.009 A 
ATOM     73  C   UNL A   1      41.395  21.144  27.756  1.00  0.00     0.001 A 
ATOM     74  C   UNL A   1      42.203  21.929  25.619  1.00  0.00     0.001 A 
ATOM     75  C   UNL A   1      41.673  20.911  26.410  1.00  0.00     0.000 A 
ENDBRANCH  51  70
BRANCH  63  76
ATOM     76  C   UNL A   1      47.896  26.325  30.260  1.00  0.00    -0.014 A 
ATOM     77  C   UNL A   1      48.283  25.787  31.497  1.00  0.00     0.009 A 
ATOM     78  C   UNL A   1      48.821  26.340  29.205  1.00  0.00     0.009 A 
ATOM     79  C   UNL A   1      49.579  25.300  31.681  1.00  0.00     0.001 A 
ATOM     80  C   UNL A   1      50.107  25.828  29.383  1.00  0.00     0.001 A 
ATOM     81  C   UNL A   1      50.488  25.316  30.623  1.00  0.00     0.000 A 
ENDBRANCH  63  76
ENDBRANCH  37  38
ENDBRANCH  29  32
ENDBRANCH  27  28
ENDBRANCH  26  27
ENDBRANCH  25  26
ENDBRANCH   1  25
TORSDOF 17
ENDMDL
MODEL 2
REMARK VINA RESULT:      -9.8      3.229      4.960
REMARK SMILES CC(C)[C@H](NC(=O)[C@H](C)NC(=O)C[NH3+])C(=O)NCCCCNC(=O)c1ccc(-c2c3nc(c(-c4ccccc4)c4ccc([nH]4)c(-c4ccccc4)c4nc(c(-c5ccccc5)c5ccc2[nH]5)C=C4)C=C3)cc1
REMARK SMILES IDX 18 1 17 2 15 3 16 4 4 6 2 7 1 8 3 9 5 10 6 11 7 13 8 14 9 15
REMARK SMILES IDX 10 16 11 17 12 19 13 20 14 21 19 25 20 26 21 27 22 28 23 29
REMARK SMILES IDX 24 31 25 32 26 33 72 34 27 35 71 36 28 37 29 38 30 39 65 40
REMARK SMILES IDX 31 41 70 42 64 43 66 44 32 45 69 46 63 47 62 48 33 50 55 51
REMARK SMILES IDX 40 52 54 53 41 54 44 55 53 56 67 57 42 58 43 59 52 61 68 62
REMARK SMILES IDX 45 63 34 64 35 65 39 66 36 67 38 68 37 69 56 70 57 71 61 72
REMARK SMILES IDX 58 73 60 74 59 75 46 76 47 77 51 78 48 79 50 80 49 81
REMARK H PARENT 17 5 5 12 10 18 14 22 14 23 14 24 22 30 66 49 44 60
REMARK Flexibility Score: inf
ROOT
ATOM      1  C   UNL A   1      34.430  29.092  27.258  1.00  0.00     0.116 C 
ENDROOT
BRANCH   1   2
ATOM      2  N   UNL A   1      33.055  28.903  27.639  1.00  0.00    -0.354 N 
ATOM      3  C   UNL A   1      32.146  27.999  27.189  1.00  0.00     0.242 C 
ATOM      4  O   UNL A   1      31.150  27.832  27.903  1.00  0.00    -0.273 OA
ATOM      5  H   UNL A   1      32.724  29.523  28.329  1.00  0.00     0.163 HD
BRANCH   3   6
ATOM      6  C   UNL A   1      32.349  27.117  25.920  1.00  0.00     0.173 C 
BRANCH   6   7
ATOM      7  C   UNL A   1      33.131  25.810  26.121  1.00  0.00     0.015 C 
ATOM      8  C   UNL A   1      32.265  24.551  26.205  1.00  0.00     0.010 C 
ATOM      9  C   UNL A   1      34.160  25.619  24.995  1.00  0.00     0.010 C 
ENDBRANCH   6   7
BRANCH   6  10
ATOM     10  N   UNL A   1      32.624  27.861  24.669  1.00  0.00    -0.342 N 
ATOM     11  C   UNL A   1      32.013  28.552  23.680  1.00  0.00     0.242 C 
ATOM     12  H   UNL A   1      33.593  27.848  24.497  1.00  0.00     0.164 HD
ATOM     13  O   UNL A   1      32.808  28.920  22.800  1.00  0.00    -0.273 OA
BRANCH  11  14
ATOM     14  C   UNL A   1      30.479  28.741  23.450  1.00  0.00     0.168 C 
ATOM     15  C   UNL A   1      29.790  27.365  23.498  1.00  0.00     0.041 C 
BRANCH  14  16
ATOM     16  N   UNL A   1      30.026  29.402  22.232  1.00  0.00    -0.340 N 
ATOM     17  C   UNL A   1      28.961  30.238  22.041  1.00  0.00     0.275 C 
ATOM     18  H   UNL A   1      30.568  29.221  21.430  1.00  0.00     0.164 HD
ATOM     19  O   UNL A   1      28.592  30.449  20.882  1.00  0.00    -0.268 OA
BRANCH  17  20
ATOM     20  C   UNL A   1      28.326  31.006  23.209  1.00  0.00     0.360 C 
BRANCH  20  21
ATOM     21  N   UNL A   1      29.245  31.965  23.830  1.00  0.00    -0.350 N 
ATOM     22  H   UNL A   1      29.350  31.743  24.820  1.00  0.00     0.344 HD
ATOM     23  H   UNL A   1      28.870  32.908  23.730  1.00  0.00     0.344 HD
ATOM     24  H   UNL A   1      30.154  31.911  23.371  1.00  0.00     0.344 HD
ENDBRANCH  20  21
ENDBRANCH  17  20
ENDBRANCH  14  16
ENDBRANCH  11  14
ENDBRANCH   6  10
ENDBRANCH   3   6
ENDBRANCH   1   2
BRANCH   1  25
ATOM     25  C   UNL A   1      34.990  30.464  27.641  1.00  0.00     0.023 C 
BRANCH  25  26
ATOM     26  C   UNL A   1      33.922  31.511  27.959  1.00  0.00     0.023 C 
BRANCH  26  27
ATOM     27  C   UNL A   1      34.371  32.967  27.878  1.00  0.00     0.116 C 
BRANCH  27  28
ATOM     28  N   UNL A   1      33.660  33.882  28.765  1.00  0.00    -0.352 N 
ATOM     29  C   UNL A   1      33.979  34.208  30.064  1.00  0.00     0.251 C 
ATOM     30  H   UNL A   1      32.860  34.317  28.391  1.00  0.00     0.163 HD
ATOM     31  O   UNL A   1      33.283  34.958  30.725  1.00  0.00    -0.269 OA
BRANCH  29  32
ATOM     32  C   UNL A   1      35.184  33.589  30.667  1.00  0.00     0.039 A 
ATOM     33  C   UNL A   1      35.039  32.443  31.453  1.00  0.00     0.014 A 
ATOM     34  C   UNL A   1      36.456  34.088  30.370  1.00  0.00     0.014 A 
ATOM     35  C   UNL A   1      36.177  31.740  31.856  1.00  0.00     0.010 A 
ATOM     36  C   UNL A   1      37.581  33.349  30.714  1.00  0.00     0.010 A 
ATOM     37  C   UNL A   1      37.453  32.156  31.444  1.00  0.00    -0.014 A 
BRANCH  37  38
ATOM     38  C   UNL A   1      38.662  31.336  31.719  1.00  0.00     0.031 A 
ATOM     39  C   UNL A   1      39.550  31.655  32.888  1.00  0.00     0.074 A 
ATOM     40  C   UNL A   1      39.010  30.358  30.859  1.00  0.00     0.049 A 
ATOM     41  N   UNL A   1      40.680  31.095  33.242  1.00  0.00    -0.248 NA
ATOM     42  C   UNL A   1      39.131  32.767  33.754  1.00  0.00     0.031 C 
ATOM     43  C   UNL A   1      38.269  29.981  29.653  1.00  0.00     0.029 A 
ATOM     44  N   UNL A   1      40.088  29.507  30.865  1.00  0.00    -0.354 N 
ATOM     45  C   UNL A   1      41.114  31.796  34.358  1.00  0.00     0.074 A 
ATOM     46  C   UNL A   1      40.152  32.852  34.594  1.00  0.00     0.031 C 
ATOM     47  C   UNL A   1      38.900  28.960  29.051  1.00  0.00     0.029 A 
ATOM     48  C   UNL A   1      40.106  28.633  29.805  1.00  0.00     0.049 A 
ATOM     49  H   UNL A   1      40.783  29.522  31.562  1.00  0.00     0.167 HD
ATOM     50  C   UNL A   1      42.205  31.574  35.129  1.00  0.00     0.031 A 
ATOM     51  C   UNL A   1      40.992  27.675  29.473  1.00  0.00     0.031 A 
ATOM     52  C   UNL A   1      43.156  30.517  34.908  1.00  0.00     0.049 A 
ATOM     53  C   UNL A   1      42.190  27.442  30.350  1.00  0.00     0.074 A 
ATOM     54  C   UNL A   1      44.253  30.170  35.678  1.00  0.00     0.029 A 
ATOM     55  N   UNL A   1      43.124  29.639  33.837  1.00  0.00    -0.354 N 
ATOM     56  N   UNL A   1      42.544  28.064  31.446  1.00  0.00    -0.248 NA
ATOM     57  C   UNL A   1      43.105  26.363  29.945  1.00  0.00     0.031 C 
ATOM     58  C   UNL A   1      44.910  29.109  35.048  1.00  0.00     0.029 A 
ATOM     59  C   UNL A   1      44.194  28.764  33.913  1.00  0.00     0.049 A 
ATOM     60  H   UNL A   1      42.441  29.637  33.128  1.00  0.00     0.167 HD
ATOM     61  C   UNL A   1      43.707  27.439  31.878  1.00  0.00     0.074 A 
ATOM     62  C   UNL A   1      43.990  26.380  30.932  1.00  0.00     0.031 C 
ATOM     63  C   UNL A   1      44.468  27.717  32.964  1.00  0.00     0.031 A 
BRANCH  50  64
ATOM     64  C   UNL A   1      42.428  32.504  36.289  1.00  0.00    -0.014 A 
ATOM     65  C   UNL A   1      43.148  33.699  36.135  1.00  0.00     0.009 A 
ATOM     66  C   UNL A   1      41.889  32.192  37.547  1.00  0.00     0.009 A 
ATOM     67  C   UNL A   1      43.359  34.543  37.227  1.00  0.00     0.001 A 
ATOM     68  C   UNL A   1      42.077  33.052  38.631  1.00  0.00     0.001 A 
ATOM     69  C   UNL A   1      42.820  34.221  38.472  1.00  0.00     0.000 A 
ENDBRANCH  50  64
BRANCH  51  70
ATOM     70  C   UNL A   1      40.767  26.843  28.264  1.00  0.00    -0.014 A 
ATOM     71  C   UNL A   1      41.364  27.193  27.043  1.00  0.00     0.009 A 
ATOM     72  C   UNL A   1      39.960  25.697  28.322  1.00  0.00     0.009 A 
ATOM     73  C   UNL A   1      41.136  26.425  25.898  1.00  0.00     0.001 A 
ATOM     74  C   UNL A   1      39.754  24.917  27.182  1.00  0.00     0.001 A 
ATOM     75  C   UNL A   1      40.336  25.286  25.970  1.00  0.00     0.000 A 
ENDBRANCH  51  70
BRANCH  63  76
ATOM     76  C   UNL A   1      45.666  26.844  33.205  1.00  0.00    -0.014 A 
ATOM     77  C   UNL A   1      45.562  25.650  33.937  1.00  0.00     0.009 A 
ATOM     78  C   UNL A   1      46.907  27.201  32.656  1.00  0.00     0.009 A 
ATOM     79  C   UNL A   1      46.686  24.847  34.138  1.00  0.00     0.001 A 
ATOM     80  C   UNL A   1      48.023  26.382  32.837  1.00  0.00     0.001 A 
ATOM     81  C   UNL A   1      47.914  25.210  33.585  1.00  0.00     0.000 A 
ENDBRANCH  63  76
ENDBRANCH  37  38
ENDBRANCH  29  32
ENDBRANCH  27  28
ENDBRANCH  26  27
ENDBRANCH  25  26
ENDBRANCH   1  25
TORSDOF 17
ENDMDL
MODEL 3
REMARK VINA RESULT:      -9.7      2.439      7.100
REMARK SMILES CC(C)[C@H](NC(=O)[C@H](C)NC(=O)C[NH3+])C(=O)NCCCCNC(=O)c1ccc(-c2c3nc(c(-c4ccccc4)c4ccc([nH]4)c(-c4ccccc4)c4nc(c(-c5ccccc5)c5ccc2[nH]5)C=C4)C=C3)cc1
REMARK SMILES IDX 18 1 17 2 15 3 16 4 4 6 2 7 1 8 3 9 5 10 6 11 7 13 8 14 9 15
REMARK SMILES IDX 10 16 11 17 12 19 13 20 14 21 19 25 20 26 21 27 22 28 23 29
REMARK SMILES IDX 24 31 25 32 26 33 72 34 27 35 71 36 28 37 29 38 30 39 65 40
REMARK SMILES IDX 31 41 70 42 64 43 66 44 32 45 69 46 63 47 62 48 33 50 55 51
REMARK SMILES IDX 40 52 54 53 41 54 44 55 53 56 67 57 42 58 43 59 52 61 68 62
REMARK SMILES IDX 45 63 34 64 35 65 39 66 36 67 38 68 37 69 56 70 57 71 61 72
REMARK SMILES IDX 58 73 60 74 59 75 46 76 47 77 51 78 48 79 50 80 49 81
REMARK H PARENT 17 5 5 12 10 18 14 22 14 23 14 24 22 30 66 49 44 60
REMARK Flexibility Score: inf
ROOT
ATOM      1  C   UNL A   1      32.383  27.629  26.722  1.00  0.00     0.116 C 
ENDROOT
BRANCH   1   2
ATOM      2  N   UNL A   1      31.361  27.161  25.824  1.00  0.00    -0.354 N 
ATOM      3  C   UNL A   1      31.469  26.700  24.550  1.00  0.00     0.242 C 
ATOM      4  O   UNL A   1      30.503  26.059  24.122  1.00  0.00    -0.273 OA
ATOM      5  H   UNL A   1      30.446  27.177  26.187  1.00  0.00     0.163 HD
BRANCH   3   6
ATOM      6  C   UNL A   1      32.754  26.844  23.678  1.00  0.00     0.173 C 
BRANCH   6   7
ATOM      7  C   UNL A   1      32.758  27.997  22.663  1.00  0.00     0.015 C 
ATOM      8  C   UNL A   1      31.468  28.818  22.618  1.00  0.00     0.010 C 
ATOM      9  C   UNL A   1      33.932  28.951  22.936  1.00  0.00     0.010 C 
ENDBRANCH   6   7
BRANCH   6  10
ATOM     10  N   UNL A   1      33.358  25.570  23.226  1.00  0.00    -0.342 N 
ATOM     11  C   UNL A   1      34.025  24.484  23.680  1.00  0.00     0.242 C 
ATOM     12  H   UNL A   1      33.229  25.481  22.255  1.00  0.00     0.164 HD
ATOM     13  O   UNL A   1      34.351  23.713  22.762  1.00  0.00    -0.273 OA
BRANCH  11  14
ATOM     14  C   UNL A   1      34.568  24.225  25.122  1.00  0.00     0.168 C 
ATOM     15  C   UNL A   1      35.290  22.867  25.151  1.00  0.00     0.041 C 
BRANCH  14  16
ATOM     16  N   UNL A   1      33.631  24.235  26.239  1.00  0.00    -0.340 N 
ATOM     17  C   UNL A   1      32.340  23.786  26.296  1.00  0.00     0.275 C 
ATOM     18  H   UNL A   1      33.979  24.621  27.075  1.00  0.00     0.164 HD
ATOM     19  O   UNL A   1      31.641  24.154  27.243  1.00  0.00    -0.268 OA
BRANCH  17  20
ATOM     20  C   UNL A   1      31.811  22.746  25.298  1.00  0.00     0.360 C 
BRANCH  20  21
ATOM     21  N   UNL A   1      30.686  23.240  24.499  1.00  0.00    -0.350 N 
ATOM     22  H   UNL A   1      31.038  23.660  23.639  1.00  0.00     0.344 HD
ATOM     23  H   UNL A   1      30.171  23.940  25.033  1.00  0.00     0.344 HD
ATOM     24  H   UNL A   1      30.065  22.465  24.269  1.00  0.00     0.344 HD
ENDBRANCH  20  21
ENDBRANCH  17  20
ENDBRANCH  14  16
ENDBRANCH  11  14
ENDBRANCH   6  10
ENDBRANCH   3   6
ENDBRANCH   1   2
BRANCH   1  25
ATOM     25  C   UNL A   1      31.983  28.878  27.510  1.00  0.00     0.023 C 
BRANCH  25  26
ATOM     26  C   UNL A   1      32.041  30.175  26.701  1.00  0.00     0.023 C 
BRANCH  26  27
ATOM     27  C   UNL A   1      33.033  31.224  27.193  1.00  0.00     0.116 C 
BRANCH  27  28
ATOM     28  N   UNL A   1      32.472  32.555  27.400  1.00  0.00    -0.352 N 
ATOM     29  C   UNL A   1      33.036  33.605  28.087  1.00  0.00     0.251 C 
ATOM     30  H   UNL A   1      31.587  32.720  27.000  1.00  0.00     0.163 HD
ATOM     31  O   UNL A   1      32.451  34.665  28.230  1.00  0.00    -0.269 OA
BRANCH  29  32
ATOM     32  C   UNL A   1      34.374  33.409  28.695  1.00  0.00     0.039 A 
ATOM     33  C   UNL A   1      34.474  32.752  29.925  1.00  0.00     0.014 A 
ATOM     34  C   UNL A   1      35.526  33.787  27.998  1.00  0.00     0.014 A 
ATOM     35  C   UNL A   1      35.732  32.385  30.406  1.00  0.00     0.010 A 
ATOM     36  C   UNL A   1      36.771  33.359  28.446  1.00  0.00     0.010 A 
ATOM     37  C   UNL A   1      36.885  32.636  29.645  1.00  0.00    -0.014 A 
BRANCH  37  38
ATOM     38  C   UNL A   1      38.214  32.109  30.054  1.00  0.00     0.031 A 
ATOM     39  C   UNL A   1      38.703  30.788  29.532  1.00  0.00     0.074 A 
ATOM     40  C   UNL A   1      38.942  32.779  30.970  1.00  0.00     0.049 A 
ATOM     41  N   UNL A   1      39.800  30.139  29.831  1.00  0.00    -0.248 NA
ATOM     42  C   UNL A   1      37.832  30.091  28.572  1.00  0.00     0.031 C 
ATOM     43  C   UNL A   1      38.558  34.044  31.601  1.00  0.00     0.029 A 
ATOM     44  N   UNL A   1      40.156  32.480  31.538  1.00  0.00    -0.354 N 
ATOM     45  C   UNL A   1      39.742  28.952  29.113  1.00  0.00     0.074 A 
ATOM     46  C   UNL A   1      38.482  28.950  28.401  1.00  0.00     0.031 C 
ATOM     47  C   UNL A   1      39.529  34.424  32.448  1.00  0.00     0.029 A 
ATOM     48  C   UNL A   1      40.584  33.416  32.447  1.00  0.00     0.049 A 
ATOM     49  H   UNL A   1      40.670  31.671  31.314  1.00  0.00     0.167 HD
ATOM     50  C   UNL A   1      40.661  27.960  29.037  1.00  0.00     0.031 A 
ATOM     51  C   UNL A   1      41.699  33.460  33.200  1.00  0.00     0.031 A 
ATOM     52  C   UNL A   1      41.922  27.964  29.730  1.00  0.00     0.049 A 
ATOM     53  C   UNL A   1      42.708  32.351  33.092  1.00  0.00     0.074 A 
ATOM     54  C   UNL A   1      42.947  27.037  29.659  1.00  0.00     0.029 A 
ATOM     55  N   UNL A   1      42.327  28.942  30.624  1.00  0.00    -0.354 N 
ATOM     56  N   UNL A   1      42.674  31.274  32.348  1.00  0.00    -0.248 NA
ATOM     57  C   UNL A   1      43.916  32.475  33.922  1.00  0.00     0.031 C 
ATOM     58  C   UNL A   1      43.956  27.432  30.544  1.00  0.00     0.029 A 
ATOM     59  C   UNL A   1      43.578  28.631  31.128  1.00  0.00     0.049 A 
ATOM     60  H   UNL A   1      41.804  29.740  30.863  1.00  0.00     0.167 HD
ATOM     61  C   UNL A   1      43.863  30.603  32.599  1.00  0.00     0.074 A 
ATOM     62  C   UNL A   1      44.603  31.402  33.554  1.00  0.00     0.031 C 
ATOM     63  C   UNL A   1      44.303  29.431  32.080  1.00  0.00     0.031 A 
BRANCH  50  64
ATOM     64  C   UNL A   1      40.328  26.779  28.169  1.00  0.00    -0.014 A 
ATOM     65  C   UNL A   1      39.498  25.746  28.633  1.00  0.00     0.009 A 
ATOM     66  C   UNL A   1      40.830  26.710  26.860  1.00  0.00     0.009 A 
ATOM     67  C   UNL A   1      39.212  24.649  27.820  1.00  0.00     0.001 A 
ATOM     68  C   UNL A   1      40.518  25.626  26.038  1.00  0.00     0.001 A 
ATOM     69  C   UNL A   1      39.718  24.591  26.522  1.00  0.00     0.000 A 
ENDBRANCH  50  64
BRANCH  51  70
ATOM     70  C   UNL A   1      41.936  34.611  34.109  1.00  0.00    -0.014 A 
ATOM     71  C   UNL A   1      42.560  35.773  33.631  1.00  0.00     0.009 A 
ATOM     72  C   UNL A   1      41.539  34.555  35.454  1.00  0.00     0.009 A 
ATOM     73  C   UNL A   1      42.804  36.849  34.489  1.00  0.00     0.001 A 
ATOM     74  C   UNL A   1      41.762  35.641  36.303  1.00  0.00     0.001 A 
ATOM     75  C   UNL A   1      42.400  36.784  35.822  1.00  0.00     0.000 A 
ENDBRANCH  51  70
BRANCH  63  76
ATOM     76  C   UNL A   1      45.660  28.955  32.512  1.00  0.00    -0.014 A 
ATOM     77  C   UNL A   1      45.816  28.103  33.616  1.00  0.00     0.009 A 
ATOM     78  C   UNL A   1      46.795  29.332  31.778  1.00  0.00     0.009 A 
ATOM     79  C   UNL A   1      47.086  27.661  33.994  1.00  0.00     0.001 A 
ATOM     80  C   UNL A   1      48.061  28.868  32.142  1.00  0.00     0.001 A 
ATOM     81  C   UNL A   1      48.206  28.040  33.253  1.00  0.00     0.000 A 
ENDBRANCH  63  76
ENDBRANCH  37  38
ENDBRANCH  29  32
ENDBRANCH  27  28
ENDBRANCH  26  27
ENDBRANCH  25  26
ENDBRANCH   1  25
TORSDOF 17
ENDMDL
