MODEL 1
REMARK VINA RESULT:     -11.3      0.000      0.000
REMARK SMILES O=C(CC1CCN(S(=O)(=O)c2cc[nH]c2)CC1)NCCCCNC(=O)c1ccc(-c2c3nc(c(-c4ccccc4)c4ccc([nH]4)c(-c4ccccc4)c4nc(c(-c5ccccc5)c5ccc2[nH]5)C=C4)C=C3)cc1
REMARK SMILES IDX 20 1 19 2 18 3 1 4 2 5 3 7 4 8 5 9 17 10 6 11 16 12 7 13
REMARK SMILES IDX 8 14 9 15 10 16 11 17 12 18 15 19 13 20 14 21 21 23 22 24
REMARK SMILES IDX 23 25 24 26 25 28 26 29 27 30 73 31 28 32 72 33 29 34 30 35
REMARK SMILES IDX 31 36 66 37 32 38 71 39 65 40 67 41 33 42 70 43 64 44 63 45
REMARK SMILES IDX 34 47 56 48 41 49 55 50 42 51 45 52 54 53 68 54 43 55 44 56
REMARK SMILES IDX 53 58 69 59 46 60 35 61 36 62 40 63 37 64 39 65 38 66 57 67
REMARK SMILES IDX 58 68 62 69 59 70 61 71 60 72 47 73 48 74 52 75 49 76 51 77
REMARK SMILES IDX 50 78
REMARK H PARENT 18 6 14 22 23 27 67 46 45 57
REMARK Flexibility Score: inf
ROOT
ATOM      1  C   UNL A   1      33.039  30.977  27.083  1.00  0.00     0.023 C 
ENDROOT
BRANCH   1   2
ATOM      2  C   UNL A   1      31.912  30.507  26.165  1.00  0.00     0.116 C 
BRANCH   2   3
ATOM      3  N   UNL A   1      31.898  29.064  26.020  1.00  0.00    -0.356 N 
ATOM      4  O   UNL A   1      30.773  29.045  24.020  1.00  0.00    -0.275 OA
ATOM      5  C   UNL A   1      31.316  28.444  24.940  1.00  0.00     0.220 C 
ATOM      6  H   UNL A   1      32.317  28.511  26.718  1.00  0.00     0.163 HD
BRANCH   5   7
ATOM      7  C   UNL A   1      31.378  26.931  24.968  1.00  0.00     0.103 C 
BRANCH   7   8
ATOM      8  C   UNL A   1      32.308  26.342  26.045  1.00  0.00     0.001 C 
ATOM      9  C   UNL A   1      33.796  26.344  25.670  1.00  0.00     0.021 C 
ATOM     10  C   UNL A   1      31.903  24.897  26.380  1.00  0.00     0.021 C 
ATOM     11  C   UNL A   1      34.111  25.374  24.538  1.00  0.00     0.103 C 
ATOM     12  C   UNL A   1      32.248  23.910  25.263  1.00  0.00     0.103 C 
ATOM     13  N   UNL A   1      33.692  23.988  24.914  1.00  0.00    -0.198 NA
BRANCH  13  14
ATOM     14  S   UNL A   1      34.177  22.864  23.700  1.00  0.00     0.244 S 
ATOM     15  O   UNL A   1      33.522  23.227  22.470  1.00  0.00    -0.207 OA
ATOM     16  O   UNL A   1      35.622  22.717  23.782  1.00  0.00    -0.207 OA
BRANCH  14  17
ATOM     17  C   UNL A   1      33.556  21.292  24.073  1.00  0.00     0.100 A 
ATOM     18  C   UNL A   1      34.088  20.409  25.052  1.00  0.00     0.041 A 
ATOM     19  C   UNL A   1      32.452  20.673  23.521  1.00  0.00     0.104 A 
ATOM     20  C   UNL A   1      33.310  19.272  25.043  1.00  0.00     0.083 A 
ATOM     21  N   UNL A   1      32.309  19.450  24.123  1.00  0.00    -0.366 N 
ATOM     22  H   UNL A   1      31.597  18.800  23.925  1.00  0.00     0.165 HD
ENDBRANCH  14  17
ENDBRANCH  13  14
ENDBRANCH   7   8
ENDBRANCH   5   7
ENDBRANCH   2   3
ENDBRANCH   1   2
BRANCH   1  23
ATOM     23  C   UNL A   1      34.319  30.131  27.018  1.00  0.00     0.023 C 
BRANCH  23  24
ATOM     24  C   UNL A   1      34.873  29.715  28.381  1.00  0.00     0.116 C 
BRANCH  24  25
ATOM     25  N   UNL A   1      35.413  30.851  29.106  1.00  0.00    -0.352 N 
ATOM     26  C   UNL A   1      36.668  31.041  29.623  1.00  0.00     0.251 C 
ATOM     27  H   UNL A   1      34.784  31.596  29.247  1.00  0.00     0.163 HD
ATOM     28  O   UNL A   1      36.840  31.898  30.488  1.00  0.00    -0.269 OA
BRANCH  26  29
ATOM     29  C   UNL A   1      37.816  30.221  29.182  1.00  0.00     0.039 A 
ATOM     30  C   UNL A   1      38.600  29.606  30.167  1.00  0.00     0.014 A 
ATOM     31  C   UNL A   1      38.182  30.127  27.835  1.00  0.00     0.014 A 
ATOM     32  C   UNL A   1      39.705  28.842  29.800  1.00  0.00     0.010 A 
ATOM     33  C   UNL A   1      39.275  29.348  27.461  1.00  0.00     0.010 A 
ATOM     34  C   UNL A   1      40.025  28.688  28.444  1.00  0.00    -0.014 A 
BRANCH  34  35
ATOM     35  C   UNL A   1      41.061  27.699  28.063  1.00  0.00     0.031 A 
ATOM     36  C   UNL A   1      42.455  28.330  27.937  1.00  0.00     0.074 A 
ATOM     37  C   UNL A   1      40.659  26.410  27.854  1.00  0.00     0.049 A 
ATOM     38  N   UNL A   1      43.493  27.915  27.280  1.00  0.00    -0.248 NA
ATOM     39  C   UNL A   1      42.728  29.637  28.597  1.00  0.00     0.031 C 
ATOM     40  C   UNL A   1      39.272  25.932  28.038  1.00  0.00     0.029 A 
ATOM     41  N   UNL A   1      41.300  25.253  27.452  1.00  0.00    -0.354 N 
ATOM     42  C   UNL A   1      44.560  28.800  27.549  1.00  0.00     0.074 A 
ATOM     43  C   UNL A   1      44.009  29.883  28.305  1.00  0.00     0.031 C 
ATOM     44  C   UNL A   1      39.161  24.632  27.692  1.00  0.00     0.029 A 
ATOM     45  C   UNL A   1      40.453  24.130  27.263  1.00  0.00     0.049 A 
ATOM     46  H   UNL A   1      42.273  25.211  27.307  1.00  0.00     0.167 HD
ATOM     47  C   UNL A   1      45.858  28.527  27.225  1.00  0.00     0.031 A 
ATOM     48  C   UNL A   1      40.745  22.891  26.763  1.00  0.00     0.031 A 
ATOM     49  C   UNL A   1      45.943  27.308  26.499  1.00  0.00     0.049 A 
ATOM     50  C   UNL A   1      42.202  22.833  26.583  1.00  0.00     0.074 A 
ATOM     51  C   UNL A   1      45.578  26.950  25.228  1.00  0.00     0.029 A 
ATOM     52  N   UNL A   1      46.173  26.174  27.237  1.00  0.00    -0.354 N 
ATOM     53  N   UNL A   1      43.061  22.705  27.546  1.00  0.00    -0.248 NA
ATOM     54  C   UNL A   1      42.762  22.946  25.230  1.00  0.00     0.031 C 
ATOM     55  C   UNL A   1      45.131  25.620  25.379  1.00  0.00     0.029 A 
ATOM     56  C   UNL A   1      45.406  25.184  26.680  1.00  0.00     0.049 A 
ATOM     57  H   UNL A   1      46.770  26.088  28.015  1.00  0.00     0.167 HD
ATOM     58  C   UNL A   1      44.222  23.136  26.954  1.00  0.00     0.074 A 
ATOM     59  C   UNL A   1      44.059  22.928  25.531  1.00  0.00     0.031 C 
ATOM     60  C   UNL A   1      44.929  24.132  27.547  1.00  0.00     0.031 A 
BRANCH  47  61
ATOM     61  C   UNL A   1      47.155  29.133  27.686  1.00  0.00    -0.014 A 
ATOM     62  C   UNL A   1      48.092  29.504  26.690  1.00  0.00     0.009 A 
ATOM     63  C   UNL A   1      47.622  29.047  29.001  1.00  0.00     0.009 A 
ATOM     64  C   UNL A   1      49.450  29.659  26.970  1.00  0.00     0.001 A 
ATOM     65  C   UNL A   1      48.983  29.243  29.291  1.00  0.00     0.001 A 
ATOM     66  C   UNL A   1      49.899  29.510  28.274  1.00  0.00     0.000 A 
ENDBRANCH  47  61
BRANCH  48  67
ATOM     67  C   UNL A   1      39.992  21.659  26.323  1.00  0.00    -0.014 A 
ATOM     68  C   UNL A   1      38.731  21.635  25.726  1.00  0.00     0.009 A 
ATOM     69  C   UNL A   1      40.622  20.389  26.465  1.00  0.00     0.009 A 
ATOM     70  C   UNL A   1      38.182  20.435  25.225  1.00  0.00     0.001 A 
ATOM     71  C   UNL A   1      40.105  19.205  25.935  1.00  0.00     0.001 A 
ATOM     72  C   UNL A   1      38.881  19.230  25.297  1.00  0.00     0.000 A 
ENDBRANCH  48  67
BRANCH  60  73
ATOM     73  C   UNL A   1      44.704  24.268  29.048  1.00  0.00    -0.014 A 
ATOM     74  C   UNL A   1      44.519  23.124  29.842  1.00  0.00     0.009 A 
ATOM     75  C   UNL A   1      44.534  25.513  29.678  1.00  0.00     0.009 A 
ATOM     76  C   UNL A   1      44.148  23.221  31.190  1.00  0.00     0.001 A 
ATOM     77  C   UNL A   1      44.172  25.617  31.029  1.00  0.00     0.001 A 
ATOM     78  C   UNL A   1      43.971  24.468  31.784  1.00  0.00     0.000 A 
ENDBRANCH  60  73
ENDBRANCH  34  35
ENDBRANCH  26  29
ENDBRANCH  24  25
ENDBRANCH  23  24
ENDBRANCH   1  23
TORSDOF 14
ENDMDL
MODEL 2
REMARK VINA RESULT:     -11.2      5.069      9.563
REMARK SMILES O=C(CC1CCN(S(=O)(=O)c2cc[nH]c2)CC1)NCCCCNC(=O)c1ccc(-c2c3nc(c(-c4ccccc4)c4ccc([nH]4)c(-c4ccccc4)c4nc(c(-c5ccccc5)c5ccc2[nH]5)C=C4)C=C3)cc1
REMARK SMILES IDX 20 1 19 2 18 3 1 4 2 5 3 7 4 8 5 9 17 10 6 11 16 12 7 13
REMARK SMILES IDX 8 14 9 15 10 16 11 17 12 18 15 19 13 20 14 21 21 23 22 24
REMARK SMILES IDX 23 25 24 26 25 28 26 29 27 30 73 31 28 32 72 33 29 34 30 35
REMARK SMILES IDX 31 36 66 37 32 38 71 39 65 40 67 41 33 42 70 43 64 44 63 45
REMARK SMILES IDX 34 47 56 48 41 49 55 50 42 51 45 52 54 53 68 54 43 55 44 56
REMARK SMILES IDX 53 58 69 59 46 60 35 61 36 62 40 63 37 64 39 65 38 66 57 67
REMARK SMILES IDX 58 68 62 69 59 70 61 71 60 72 47 73 48 74 52 75 49 76 51 77
REMARK SMILES IDX 50 78
REMARK H PARENT 18 6 14 22 23 27 67 46 45 57
REMARK Flexibility Score: inf
ROOT
ATOM      1  C   UNL A   1      34.226  33.746  28.507  1.00  0.00     0.023 C 
ENDROOT
BRANCH   1   2
ATOM      2  C   UNL A   1      34.027  32.364  29.126  1.00  0.00     0.116 C 
BRANCH   2   3
ATOM      3  N   UNL A   1      34.283  31.302  28.171  1.00  0.00    -0.356 N 
ATOM      4  O   UNL A   1      32.208  31.368  27.194  1.00  0.00    -0.275 OA
ATOM      5  C   UNL A   1      33.332  30.886  27.271  1.00  0.00     0.220 C 
ATOM      6  H   UNL A   1      35.166  30.867  28.169  1.00  0.00     0.163 HD
BRANCH   5   7
ATOM      7  C   UNL A   1      33.770  29.752  26.366  1.00  0.00     0.103 C 
BRANCH   7   8
ATOM      8  C   UNL A   1      33.537  28.341  26.939  1.00  0.00     0.001 C 
ATOM      9  C   UNL A   1      33.977  27.199  26.013  1.00  0.00     0.021 C 
ATOM     10  C   UNL A   1      32.052  28.133  27.279  1.00  0.00     0.021 C 
ATOM     11  C   UNL A   1      33.104  27.090  24.768  1.00  0.00     0.103 C 
ATOM     12  C   UNL A   1      31.173  27.987  26.035  1.00  0.00     0.103 C 
ATOM     13  N   UNL A   1      31.673  26.895  25.157  1.00  0.00    -0.198 NA
BRANCH  13  14
ATOM     14  S   UNL A   1      30.702  26.626  23.758  1.00  0.00     0.244 S 
ATOM     15  O   UNL A   1      31.460  25.815  22.840  1.00  0.00    -0.207 OA
ATOM     16  O   UNL A   1      29.375  26.234  24.207  1.00  0.00    -0.207 OA
BRANCH  14  17
ATOM     17  C   UNL A   1      30.456  28.118  22.916  1.00  0.00     0.100 A 
ATOM     18  C   UNL A   1      29.208  28.783  22.770  1.00  0.00     0.041 A 
ATOM     19  C   UNL A   1      31.412  28.901  22.300  1.00  0.00     0.104 A 
ATOM     20  C   UNL A   1      29.440  29.931  22.045  1.00  0.00     0.083 A 
ATOM     21  N   UNL A   1      30.784  30.003  21.780  1.00  0.00    -0.366 N 
ATOM     22  H   UNL A   1      31.228  30.733  21.292  1.00  0.00     0.165 HD
ENDBRANCH  14  17
ENDBRANCH  13  14
ENDBRANCH   7   8
ENDBRANCH   5   7
ENDBRANCH   2   3
ENDBRANCH   1   2
BRANCH   1  23
ATOM     23  C   UNL A   1      33.026  34.695  28.646  1.00  0.00     0.023 C 
BRANCH  23  24
ATOM     24  C   UNL A   1      33.334  36.003  29.375  1.00  0.00     0.116 C 
BRANCH  24  25
ATOM     25  N   UNL A   1      32.575  36.118  30.607  1.00  0.00    -0.352 N 
ATOM     26  C   UNL A   1      32.751  35.476  31.806  1.00  0.00     0.251 C 
ATOM     27  H   UNL A   1      31.821  36.751  30.578  1.00  0.00     0.163 HD
ATOM     28  O   UNL A   1      31.823  35.440  32.611  1.00  0.00    -0.269 OA
BRANCH  26  29
ATOM     29  C   UNL A   1      34.024  34.805  32.141  1.00  0.00     0.039 A 
ATOM     30  C   UNL A   1      33.968  33.484  32.605  1.00  0.00     0.014 A 
ATOM     31  C   UNL A   1      35.250  35.479  32.094  1.00  0.00     0.014 A 
ATOM     32  C   UNL A   1      35.140  32.818  32.955  1.00  0.00     0.010 A 
ATOM     33  C   UNL A   1      36.427  34.811  32.424  1.00  0.00     0.010 A 
ATOM     34  C   UNL A   1      36.373  33.473  32.835  1.00  0.00    -0.014 A 
BRANCH  34  35
ATOM     35  C   UNL A   1      37.618  32.684  32.997  1.00  0.00     0.031 A 
ATOM     36  C   UNL A   1      37.770  31.602  31.919  1.00  0.00     0.074 A 
ATOM     37  C   UNL A   1      38.426  32.988  34.056  1.00  0.00     0.049 A 
ATOM     38  N   UNL A   1      38.474  30.513  31.936  1.00  0.00    -0.248 NA
ATOM     39  C   UNL A   1      36.996  31.718  30.652  1.00  0.00     0.031 C 
ATOM     40  C   UNL A   1      38.165  34.085  35.013  1.00  0.00     0.029 A 
ATOM     41  N   UNL A   1      39.604  32.462  34.553  1.00  0.00    -0.354 N 
ATOM     42  C   UNL A   1      38.351  29.897  30.671  1.00  0.00     0.074 A 
ATOM     43  C   UNL A   1      37.368  30.645  29.949  1.00  0.00     0.031 C 
ATOM     44  C   UNL A   1      39.095  34.103  35.991  1.00  0.00     0.029 A 
ATOM     45  C   UNL A   1      40.055  33.037  35.769  1.00  0.00     0.049 A 
ATOM     46  H   UNL A   1      40.095  31.741  34.096  1.00  0.00     0.167 HD
ATOM     47  C   UNL A   1      39.151  28.870  30.258  1.00  0.00     0.031 A 
ATOM     48  C   UNL A   1      41.100  32.673  36.573  1.00  0.00     0.031 A 
ATOM     49  C   UNL A   1      40.018  28.463  31.308  1.00  0.00     0.049 A 
ATOM     50  C   UNL A   1      41.840  31.620  35.863  1.00  0.00     0.074 A 
ATOM     51  C   UNL A   1      39.810  27.793  32.484  1.00  0.00     0.029 A 
ATOM     52  N   UNL A   1      41.256  29.056  31.342  1.00  0.00    -0.354 N 
ATOM     53  N   UNL A   1      42.622  31.822  34.848  1.00  0.00    -0.248 NA
ATOM     54  C   UNL A   1      41.691  30.224  36.294  1.00  0.00     0.031 C 
ATOM     55  C   UNL A   1      40.719  28.403  33.374  1.00  0.00     0.029 A 
ATOM     56  C   UNL A   1      41.545  29.281  32.662  1.00  0.00     0.049 A 
ATOM     57  H   UNL A   1      41.824  29.278  30.569  1.00  0.00     0.167 HD
ATOM     58  C   UNL A   1      42.705  30.568  34.296  1.00  0.00     0.074 A 
ATOM     59  C   UNL A   1      42.437  29.630  35.365  1.00  0.00     0.031 C 
ATOM     60  C   UNL A   1      42.389  30.407  32.985  1.00  0.00     0.031 A 
BRANCH  47  61
ATOM     61  C   UNL A   1      39.423  28.298  28.894  1.00  0.00    -0.014 A 
ATOM     62  C   UNL A   1      39.493  26.887  28.782  1.00  0.00     0.009 A 
ATOM     63  C   UNL A   1      39.929  29.049  27.829  1.00  0.00     0.009 A 
ATOM     64  C   UNL A   1      40.147  26.259  27.721  1.00  0.00     0.001 A 
ATOM     65  C   UNL A   1      40.550  28.417  26.740  1.00  0.00     0.001 A 
ATOM     66  C   UNL A   1      40.692  27.030  26.705  1.00  0.00     0.000 A 
ENDBRANCH  47  61
BRANCH  48  67
ATOM     67  C   UNL A   1      41.626  33.016  37.945  1.00  0.00    -0.014 A 
ATOM     68  C   UNL A   1      42.955  33.291  38.271  1.00  0.00     0.009 A 
ATOM     69  C   UNL A   1      40.700  33.134  39.020  1.00  0.00     0.009 A 
ATOM     70  C   UNL A   1      43.314  33.741  39.560  1.00  0.00     0.001 A 
ATOM     71  C   UNL A   1      41.040  33.618  40.286  1.00  0.00     0.001 A 
ATOM     72  C   UNL A   1      42.356  33.937  40.554  1.00  0.00     0.000 A 
ENDBRANCH  48  67
BRANCH  60  73
ATOM     73  C   UNL A   1      42.540  31.662  32.134  1.00  0.00    -0.014 A 
ATOM     74  C   UNL A   1      41.401  32.351  31.682  1.00  0.00     0.009 A 
ATOM     75  C   UNL A   1      43.783  32.105  31.651  1.00  0.00     0.009 A 
ATOM     76  C   UNL A   1      41.500  33.408  30.767  1.00  0.00     0.001 A 
ATOM     77  C   UNL A   1      43.890  33.167  30.741  1.00  0.00     0.001 A 
ATOM     78  C   UNL A   1      42.744  33.815  30.292  1.00  0.00     0.000 A 
ENDBRANCH  60  73
ENDBRANCH  34  35
ENDBRANCH  26  29
ENDBRANCH  24  25
ENDBRANCH  23  24
ENDBRANCH   1  23
TORSDOF 14
ENDMDL
MODEL 3
REMARK VINA RESULT:     -11.1      2.241      6.708
REMARK SMILES O=C(CC1CCN(S(=O)(=O)c2cc[nH]c2)CC1)NCCCCNC(=O)c1ccc(-c2c3nc(c(-c4ccccc4)c4ccc([nH]4)c(-c4ccccc4)c4nc(c(-c5ccccc5)c5ccc2[nH]5)C=C4)C=C3)cc1
REMARK SMILES IDX 20 1 19 2 18 3 1 4 2 5 3 7 4 8 5 9 17 10 6 11 16 12 7 13
REMARK SMILES IDX 8 14 9 15 10 16 11 17 12 18 15 19 13 20 14 21 21 23 22 24
REMARK SMILES IDX 23 25 24 26 25 28 26 29 27 30 73 31 28 32 72 33 29 34 30 35
REMARK SMILES IDX 31 36 66 37 32 38 71 39 65 40 67 41 33 42 70 43 64 44 63 45
REMARK SMILES IDX 34 47 56 48 41 49 55 50 42 51 45 52 54 53 68 54 43 55 44 56
REMARK SMILES IDX 53 58 69 59 46 60 35 61 36 62 40 63 37 64 39 65 38 66 57 67
REMARK SMILES IDX 58 68 62 69 59 70 61 71 60 72 47 73 48 74 52 75 49 76 51 77
REMARK SMILES IDX 50 78
REMARK H PARENT 18 6 14 22 23 27 67 46 45 57
REMARK Flexibility Score: inf
ROOT
ATOM      1  C   UNL A   1      32.643  30.261  26.285  1.00  0.00     0.023 C 
ENDROOT
BRANCH   1   2
ATOM      2  C   UNL A   1      31.454  30.020  25.357  1.00  0.00     0.116 C 
BRANCH   2   3
ATOM      3  N   UNL A   1      31.517  28.716  24.724  1.00  0.00    -0.356 N 
ATOM      4  O   UNL A   1      30.807  29.429  22.661  1.00  0.00    -0.275 OA
ATOM      5  C   UNL A   1      31.180  28.529  23.405  1.00  0.00     0.220 C 
ATOM      6  H   UNL A   1      31.811  27.942  25.256  1.00  0.00     0.163 HD
BRANCH   5   7
ATOM      7  C   UNL A   1      31.287  27.097  22.921  1.00  0.00     0.103 C 
BRANCH   7   8
ATOM      8  C   UNL A   1      32.581  26.769  22.154  1.00  0.00     0.001 C 
ATOM      9  C   UNL A   1      32.618  25.362  21.543  1.00  0.00     0.021 C 
ATOM     10  C   UNL A   1      33.807  26.924  23.069  1.00  0.00     0.021 C 
ATOM     11  C   UNL A   1      32.695  24.270  22.603  1.00  0.00     0.103 C 
ATOM     12  C   UNL A   1      33.912  25.810  24.114  1.00  0.00     0.103 C 
ATOM     13  N   UNL A   1      33.900  24.472  23.466  1.00  0.00    -0.198 NA
BRANCH  13  14
ATOM     14  S   UNL A   1      34.073  23.160  24.572  1.00  0.00     0.244 S 
ATOM     15  O   UNL A   1      33.669  23.622  25.875  1.00  0.00    -0.207 OA
ATOM     16  O   UNL A   1      33.479  21.982  23.960  1.00  0.00    -0.207 OA
BRANCH  14  17
ATOM     17  C   UNL A   1      35.747  22.762  24.754  1.00  0.00     0.100 A 
ATOM     18  C   UNL A   1      36.289  21.448  24.713  1.00  0.00     0.041 A 
ATOM     19  C   UNL A   1      36.804  23.634  24.926  1.00  0.00     0.104 A 
ATOM     20  C   UNL A   1      37.650  21.561  24.892  1.00  0.00     0.083 A 
ATOM     21  N   UNL A   1      37.954  22.894  25.002  1.00  0.00    -0.366 N 
ATOM     22  H   UNL A   1      38.860  23.262  25.118  1.00  0.00     0.165 HD
ENDBRANCH  14  17
ENDBRANCH  13  14
ENDBRANCH   7   8
ENDBRANCH   5   7
ENDBRANCH   2   3
ENDBRANCH   1   2
BRANCH   1  23
ATOM     23  C   UNL A   1      33.759  29.210  26.191  1.00  0.00     0.023 C 
BRANCH  23  24
ATOM     24  C   UNL A   1      34.600  29.065  27.459  1.00  0.00     0.116 C 
BRANCH  24  25
ATOM     25  N   UNL A   1      34.920  30.358  28.038  1.00  0.00    -0.352 N 
ATOM     26  C   UNL A   1      35.973  30.721  28.837  1.00  0.00     0.251 C 
ATOM     27  H   UNL A   1      34.287  31.081  27.824  1.00  0.00     0.163 HD
ATOM     28  O   UNL A   1      35.895  31.752  29.502  1.00  0.00    -0.269 OA
BRANCH  26  29
ATOM     29  C   UNL A   1      37.189  29.888  28.937  1.00  0.00     0.039 A 
ATOM     30  C   UNL A   1      38.107  29.935  27.880  1.00  0.00     0.014 A 
ATOM     31  C   UNL A   1      37.391  29.002  30.002  1.00  0.00     0.014 A 
ATOM     32  C   UNL A   1      39.256  29.150  27.920  1.00  0.00     0.010 A 
ATOM     33  C   UNL A   1      38.549  28.228  30.055  1.00  0.00     0.010 A 
ATOM     34  C   UNL A   1      39.492  28.319  29.023  1.00  0.00    -0.014 A 
BRANCH  34  35
ATOM     35  C   UNL A   1      40.816  27.664  29.153  1.00  0.00     0.031 A 
ATOM     36  C   UNL A   1      40.806  26.217  28.644  1.00  0.00     0.074 A 
ATOM     37  C   UNL A   1      41.829  28.392  29.712  1.00  0.00     0.049 A 
ATOM     38  N   UNL A   1      41.606  25.236  28.927  1.00  0.00    -0.248 NA
ATOM     39  C   UNL A   1      39.726  25.775  27.717  1.00  0.00     0.031 C 
ATOM     40  C   UNL A   1      41.701  29.801  30.141  1.00  0.00     0.029 A 
ATOM     41  N   UNL A   1      43.145  28.121  30.037  1.00  0.00    -0.354 N 
ATOM     42  C   UNL A   1      41.233  24.128  28.134  1.00  0.00     0.074 A 
ATOM     43  C   UNL A   1      40.022  24.496  27.466  1.00  0.00     0.031 C 
ATOM     44  C   UNL A   1      42.842  30.233  30.718  1.00  0.00     0.029 A 
ATOM     45  C   UNL A   1      43.825  29.166  30.714  1.00  0.00     0.049 A 
ATOM     46  H   UNL A   1      43.579  27.265  29.815  1.00  0.00     0.167 HD
ATOM     47  C   UNL A   1      42.009  23.013  27.994  1.00  0.00     0.031 A 
ATOM     48  C   UNL A   1      45.074  29.177  31.273  1.00  0.00     0.031 A 
ATOM     49  C   UNL A   1      43.154  23.097  28.832  1.00  0.00     0.049 A 
ATOM     50  C   UNL A   1      45.719  27.909  30.905  1.00  0.00     0.074 A 
ATOM     51  C   UNL A   1      43.328  23.015  30.188  1.00  0.00     0.029 A 
ATOM     52  N   UNL A   1      44.287  23.627  28.265  1.00  0.00    -0.354 N 
ATOM     53  N   UNL A   1      46.190  27.633  29.728  1.00  0.00    -0.248 NA
ATOM     54  C   UNL A   1      45.839  26.847  31.912  1.00  0.00     0.031 C 
ATOM     55  C   UNL A   1      44.361  23.942  30.442  1.00  0.00     0.029 A 
ATOM     56  C   UNL A   1      44.877  24.405  29.227  1.00  0.00     0.049 A 
ATOM     57  H   UNL A   1      44.612  23.478  27.348  1.00  0.00     0.167 HD
ATOM     58  C   UNL A   1      46.266  26.263  29.764  1.00  0.00     0.074 A 
ATOM     59  C   UNL A   1      46.384  25.894  31.158  1.00  0.00     0.031 C 
ATOM     60  C   UNL A   1      45.647  25.547  28.791  1.00  0.00     0.031 A 
BRANCH  47  61
ATOM     61  C   UNL A   1      41.986  21.896  26.988  1.00  0.00    -0.014 A 
ATOM     62  C   UNL A   1      40.867  21.026  27.007  1.00  0.00     0.009 A 
ATOM     63  C   UNL A   1      43.114  21.470  26.281  1.00  0.00     0.009 A 
ATOM     64  C   UNL A   1      40.916  19.744  26.455  1.00  0.00     0.001 A 
ATOM     65  C   UNL A   1      43.149  20.196  25.691  1.00  0.00     0.001 A 
ATOM     66  C   UNL A   1      42.069  19.323  25.811  1.00  0.00     0.000 A 
ENDBRANCH  47  61
BRANCH  48  67
ATOM     67  C   UNL A   1      45.891  30.081  32.162  1.00  0.00    -0.014 A 
ATOM     68  C   UNL A   1      47.068  30.741  31.805  1.00  0.00     0.009 A 
ATOM     69  C   UNL A   1      45.418  30.353  33.478  1.00  0.00     0.009 A 
ATOM     70  C   UNL A   1      47.673  31.677  32.672  1.00  0.00     0.001 A 
ATOM     71  C   UNL A   1      45.987  31.306  34.325  1.00  0.00     0.001 A 
ATOM     72  C   UNL A   1      47.117  31.984  33.912  1.00  0.00     0.000 A 
ENDBRANCH  48  67
BRANCH  60  73
ATOM     73  C   UNL A   1      45.436  26.298  27.481  1.00  0.00    -0.014 A 
ATOM     74  C   UNL A   1      44.159  26.769  27.134  1.00  0.00     0.009 A 
ATOM     75  C   UNL A   1      46.448  26.431  26.515  1.00  0.00     0.009 A 
ATOM     76  C   UNL A   1      43.900  27.315  25.869  1.00  0.00     0.001 A 
ATOM     77  C   UNL A   1      46.197  26.985  25.251  1.00  0.00     0.001 A 
ATOM     78  C   UNL A   1      44.918  27.421  24.925  1.00  0.00     0.000 A 
ENDBRANCH  60  73
ENDBRANCH  34  35
ENDBRANCH  26  29
ENDBRANCH  24  25
ENDBRANCH  23  24
ENDBRANCH   1  23
TORSDOF 14
ENDMDL
