MODEL 1
REMARK VINA RESULT:     -11.9      0.000      0.000
REMARK SMILES C[C@@H](Oc1ccc(-c2ccccc2)cc1)C(=O)N1CCC[C@H](C(=O)NCCCCNC(=O)c2ccc(-c3c4nc(c(-c5ccccc5)c5ccc([nH]5)c(-c5ccccc5)c5nc(c(-c6ccccc6)c6ccc3[nH]6)C=C5)C=C4)cc2)C1
REMARK SMILES IDX 26 1 25 2 23 3 24 4 22 6 18 7 19 8 81 9 20 10 21 11 16 12
REMARK SMILES IDX 17 13 2 14 1 15 3 16 4 17 5 18 15 19 6 20 14 21 7 22 8 23
REMARK SMILES IDX 9 24 13 25 10 26 12 27 11 28 27 29 28 30 29 31 30 32 31 33
REMARK SMILES IDX 32 35 33 36 34 37 80 38 35 39 79 40 36 41 37 42 38 43 73 44
REMARK SMILES IDX 39 45 78 46 72 47 74 48 40 49 77 50 71 51 70 52 41 54 63 55
REMARK SMILES IDX 48 56 62 57 49 58 52 59 61 60 75 61 50 62 51 63 60 65 76 66
REMARK SMILES IDX 53 67 42 68 43 69 47 70 44 71 46 72 45 73 64 74 65 75 69 76
REMARK SMILES IDX 66 77 68 78 67 79 54 80 55 81 59 82 56 83 58 84 57 85
REMARK H PARENT 25 5 30 34 74 53 52 64
REMARK Flexibility Score: inf
ROOT
ATOM      1  C   UNL A   1      34.473  31.870  28.350  1.00  0.00     0.116 C 
ENDROOT
BRANCH   1   2
ATOM      2  N   UNL A   1      33.337  31.823  27.460  1.00  0.00    -0.356 N 
ATOM      3  C   UNL A   1      32.696  30.781  26.873  1.00  0.00     0.224 C 
ATOM      4  O   UNL A   1      31.624  31.052  26.316  1.00  0.00    -0.275 OA
ATOM      5  H   UNL A   1      32.958  32.705  27.241  1.00  0.00     0.163 HD
BRANCH   3   6
ATOM      6  C   UNL A   1      33.202  29.331  26.849  1.00  0.00     0.098 C 
ATOM      7  N   UNL A   1      32.536  28.115  24.777  1.00  0.00    -0.339 N 
ATOM      8  C   UNL A   1      31.881  27.050  25.532  1.00  0.00     0.119 C 
ATOM      9  C   UNL A   1      33.613  28.807  25.469  1.00  0.00     0.133 C 
ATOM     10  C   UNL A   1      31.392  27.485  26.909  1.00  0.00     0.022 C 
ATOM     11  C   UNL A   1      32.390  28.339  27.684  1.00  0.00     0.017 C 
BRANCH   7  12
ATOM     12  C   UNL A   1      32.136  28.350  23.463  1.00  0.00     0.263 C 
ATOM     13  O   UNL A   1      32.802  29.091  22.730  1.00  0.00    -0.271 OA
BRANCH  12  14
ATOM     14  C   UNL A   1      30.817  27.752  22.932  1.00  0.00     0.259 C 
ATOM     15  C   UNL A   1      29.730  28.758  22.569  1.00  0.00     0.064 C 
BRANCH  14  16
ATOM     16  O   UNL A   1      31.187  26.955  21.800  1.00  0.00    -0.481 OA
BRANCH  16  17
ATOM     17  C   UNL A   1      31.518  25.674  22.134  1.00  0.00     0.120 A 
ATOM     18  C   UNL A   1      30.678  24.892  22.925  1.00  0.00     0.047 A 
ATOM     19  C   UNL A   1      32.791  25.231  21.801  1.00  0.00     0.047 A 
ATOM     20  C   UNL A   1      31.135  23.658  23.407  1.00  0.00     0.012 A 
ATOM     21  C   UNL A   1      33.237  24.000  22.275  1.00  0.00     0.012 A 
ATOM     22  C   UNL A   1      32.435  23.209  23.117  1.00  0.00    -0.018 A 
BRANCH  22  23
ATOM     23  C   UNL A   1      33.000  21.994  23.729  1.00  0.00    -0.018 A 
ATOM     24  C   UNL A   1      32.294  20.785  23.785  1.00  0.00     0.009 A 
ATOM     25  C   UNL A   1      34.300  22.025  24.271  1.00  0.00     0.009 A 
ATOM     26  C   UNL A   1      32.878  19.642  24.343  1.00  0.00     0.001 A 
ATOM     27  C   UNL A   1      34.884  20.887  24.826  1.00  0.00     0.001 A 
ATOM     28  C   UNL A   1      34.173  19.693  24.858  1.00  0.00     0.000 A 
ENDBRANCH  22  23
ENDBRANCH  16  17
ENDBRANCH  14  16
ENDBRANCH  12  14
ENDBRANCH   7  12
ENDBRANCH   3   6
ENDBRANCH   1   2
BRANCH   1  29
ATOM     29  C   UNL A   1      34.480  33.087  29.271  1.00  0.00     0.023 C 
BRANCH  29  30
ATOM     30  C   UNL A   1      33.439  34.147  28.928  1.00  0.00     0.023 C 
BRANCH  30  31
ATOM     31  C   UNL A   1      33.677  35.522  29.545  1.00  0.00     0.116 C 
BRANCH  31  32
ATOM     32  N   UNL A   1      32.677  35.938  30.518  1.00  0.00    -0.352 N 
ATOM     33  C   UNL A   1      32.686  35.731  31.883  1.00  0.00     0.251 C 
ATOM     34  H   UNL A   1      31.901  36.427  30.159  1.00  0.00     0.163 HD
ATOM     35  O   UNL A   1      31.746  36.060  32.586  1.00  0.00    -0.269 OA
BRANCH  33  36
ATOM     36  C   UNL A   1      33.856  35.047  32.477  1.00  0.00     0.039 A 
ATOM     37  C   UNL A   1      33.721  33.726  32.906  1.00  0.00     0.014 A 
ATOM     38  C   UNL A   1      35.099  35.683  32.509  1.00  0.00     0.014 A 
ATOM     39  C   UNL A   1      34.859  33.008  33.279  1.00  0.00     0.010 A 
ATOM     40  C   UNL A   1      36.238  34.943  32.795  1.00  0.00     0.010 A 
ATOM     41  C   UNL A   1      36.131  33.596  33.176  1.00  0.00    -0.014 A 
BRANCH  41  42
ATOM     42  C   UNL A   1      37.367  32.817  33.447  1.00  0.00     0.031 A 
ATOM     43  C   UNL A   1      38.140  33.049  34.715  1.00  0.00     0.074 A 
ATOM     44  C   UNL A   1      37.837  31.961  32.519  1.00  0.00     0.049 A 
ATOM     45  N   UNL A   1      39.271  32.516  35.102  1.00  0.00    -0.248 NA
ATOM     46  C   UNL A   1      37.586  34.036  35.658  1.00  0.00     0.031 C 
ATOM     47  C   UNL A   1      37.217  31.689  31.219  1.00  0.00     0.029 A 
ATOM     48  N   UNL A   1      38.954  31.163  32.525  1.00  0.00    -0.354 N 
ATOM     49  C   UNL A   1      39.574  33.119  36.315  1.00  0.00     0.074 A 
ATOM     50  C   UNL A   1      38.540  34.096  36.575  1.00  0.00     0.031 C 
ATOM     51  C   UNL A   1      37.944  30.764  30.571  1.00  0.00     0.029 A 
ATOM     52  C   UNL A   1      39.096  30.402  31.390  1.00  0.00     0.049 A 
ATOM     53  H   UNL A   1      39.593  31.138  33.273  1.00  0.00     0.167 HD
ATOM     54  C   UNL A   1      40.609  32.870  37.151  1.00  0.00     0.031 A 
ATOM     55  C   UNL A   1      40.044  29.511  31.049  1.00  0.00     0.031 A 
ATOM     56  C   UNL A   1      41.624  31.880  36.911  1.00  0.00     0.049 A 
ATOM     57  C   UNL A   1      41.169  29.231  32.007  1.00  0.00     0.074 A 
ATOM     58  C   UNL A   1      42.671  31.503  37.731  1.00  0.00     0.029 A 
ATOM     59  N   UNL A   1      41.712  31.109  35.763  1.00  0.00    -0.354 N 
ATOM     60  N   UNL A   1      41.400  29.756  33.185  1.00  0.00    -0.248 NA
ATOM     61  C   UNL A   1      42.156  28.224  31.590  1.00  0.00     0.031 C 
ATOM     62  C   UNL A   1      43.418  30.526  37.062  1.00  0.00     0.029 A 
ATOM     63  C   UNL A   1      42.808  30.266  35.847  1.00  0.00     0.049 A 
ATOM     64  H   UNL A   1      41.089  31.153  35.002  1.00  0.00     0.167 HD
ATOM     65  C   UNL A   1      42.542  29.125  33.663  1.00  0.00     0.074 A 
ATOM     66  C   UNL A   1      42.947  28.169  32.653  1.00  0.00     0.031 C 
ATOM     67  C   UNL A   1      43.194  29.321  34.833  1.00  0.00     0.031 A 
BRANCH  54  68
ATOM     68  C   UNL A   1      40.685  33.685  38.412  1.00  0.00    -0.014 A 
ATOM     69  C   UNL A   1      40.058  33.255  39.593  1.00  0.00     0.009 A 
ATOM     70  C   UNL A   1      41.406  34.888  38.424  1.00  0.00     0.009 A 
ATOM     71  C   UNL A   1      40.117  34.035  40.749  1.00  0.00     0.001 A 
ATOM     72  C   UNL A   1      41.487  35.652  39.590  1.00  0.00     0.001 A 
ATOM     73  C   UNL A   1      40.833  35.231  40.748  1.00  0.00     0.000 A 
ENDBRANCH  54  68
BRANCH  55  74
ATOM     74  C   UNL A   1      39.958  28.787  29.754  1.00  0.00    -0.014 A 
ATOM     75  C   UNL A   1      39.392  27.505  29.696  1.00  0.00     0.009 A 
ATOM     76  C   UNL A   1      40.445  29.370  28.574  1.00  0.00     0.009 A 
ATOM     77  C   UNL A   1      39.340  26.808  28.487  1.00  0.00     0.001 A 
ATOM     78  C   UNL A   1      40.368  28.680  27.361  1.00  0.00     0.001 A 
ATOM     79  C   UNL A   1      39.824  27.397  27.320  1.00  0.00     0.000 A 
ENDBRANCH  55  74
BRANCH  67  80
ATOM     80  C   UNL A   1      44.396  28.460  35.099  1.00  0.00    -0.014 A 
ATOM     81  C   UNL A   1      45.686  28.879  34.737  1.00  0.00     0.009 A 
ATOM     82  C   UNL A   1      44.237  27.232  35.760  1.00  0.00     0.009 A 
ATOM     83  C   UNL A   1      46.790  28.070  35.006  1.00  0.00     0.001 A 
ATOM     84  C   UNL A   1      45.347  26.437  36.051  1.00  0.00     0.001 A 
ATOM     85  C   UNL A   1      46.621  26.853  35.666  1.00  0.00     0.000 A 
ENDBRANCH  67  80
ENDBRANCH  41  42
ENDBRANCH  33  36
ENDBRANCH  31  32
ENDBRANCH  30  31
ENDBRANCH  29  30
ENDBRANCH   1  29
TORSDOF 16
ENDMDL
MODEL 2
REMARK VINA RESULT:     -11.7      2.474      3.672
REMARK SMILES C[C@@H](Oc1ccc(-c2ccccc2)cc1)C(=O)N1CCC[C@H](C(=O)NCCCCNC(=O)c2ccc(-c3c4nc(c(-c5ccccc5)c5ccc([nH]5)c(-c5ccccc5)c5nc(c(-c6ccccc6)c6ccc3[nH]6)C=C5)C=C4)cc2)C1
REMARK SMILES IDX 26 1 25 2 23 3 24 4 22 6 18 7 19 8 81 9 20 10 21 11 16 12
REMARK SMILES IDX 17 13 2 14 1 15 3 16 4 17 5 18 15 19 6 20 14 21 7 22 8 23
REMARK SMILES IDX 9 24 13 25 10 26 12 27 11 28 27 29 28 30 29 31 30 32 31 33
REMARK SMILES IDX 32 35 33 36 34 37 80 38 35 39 79 40 36 41 37 42 38 43 73 44
REMARK SMILES IDX 39 45 78 46 72 47 74 48 40 49 77 50 71 51 70 52 41 54 63 55
REMARK SMILES IDX 48 56 62 57 49 58 52 59 61 60 75 61 50 62 51 63 60 65 76 66
REMARK SMILES IDX 53 67 42 68 43 69 47 70 44 71 46 72 45 73 64 74 65 75 69 76
REMARK SMILES IDX 66 77 68 78 67 79 54 80 55 81 59 82 56 83 58 84 57 85
REMARK H PARENT 25 5 30 34 74 53 52 64
REMARK Flexibility Score: inf
ROOT
ATOM      1  C   UNL A   1      34.274  29.041  26.981  1.00  0.00     0.116 C 
ENDROOT
BRANCH   1   2
ATOM      2  N   UNL A   1      34.205  29.058  25.539  1.00  0.00    -0.356 N 
ATOM      3  C   UNL A   1      33.150  29.134  24.689  1.00  0.00     0.224 C 
ATOM      4  O   UNL A   1      33.430  29.328  23.499  1.00  0.00    -0.275 OA
ATOM      5  H   UNL A   1      35.081  29.006  25.092  1.00  0.00     0.163 HD
BRANCH   3   6
ATOM      6  C   UNL A   1      31.676  28.992  25.094  1.00  0.00     0.098 C 
ATOM      7  N   UNL A   1      31.004  26.619  25.458  1.00  0.00    -0.339 N 
ATOM      8  C   UNL A   1      29.918  26.707  24.485  1.00  0.00     0.119 C 
ATOM      9  C   UNL A   1      31.380  27.872  26.096  1.00  0.00     0.133 C 
ATOM     10  C   UNL A   1      30.140  27.767  23.412  1.00  0.00     0.022 C 
ATOM     11  C   UNL A   1      30.668  29.095  23.947  1.00  0.00     0.017 C 
BRANCH   7  12
ATOM     12  C   UNL A   1      31.551  25.369  25.743  1.00  0.00     0.263 C 
ATOM     13  O   UNL A   1      31.359  24.840  26.845  1.00  0.00    -0.271 OA
BRANCH  12  14
ATOM     14  C   UNL A   1      32.464  24.667  24.718  1.00  0.00     0.259 C 
ATOM     15  C   UNL A   1      33.191  25.582  23.739  1.00  0.00     0.064 C 
BRANCH  14  16
ATOM     16  O   UNL A   1      33.390  23.896  25.496  1.00  0.00    -0.481 OA
BRANCH  16  17
ATOM     17  C   UNL A   1      33.387  22.571  25.170  1.00  0.00     0.120 A 
ATOM     18  C   UNL A   1      32.196  21.857  25.053  1.00  0.00     0.047 A 
ATOM     19  C   UNL A   1      34.611  21.918  25.124  1.00  0.00     0.047 A 
ATOM     20  C   UNL A   1      32.238  20.463  24.911  1.00  0.00     0.012 A 
ATOM     21  C   UNL A   1      34.648  20.535  24.973  1.00  0.00     0.012 A 
ATOM     22  C   UNL A   1      33.465  19.778  24.902  1.00  0.00    -0.018 A 
BRANCH  22  23
ATOM     23  C   UNL A   1      33.541  18.307  24.908  1.00  0.00    -0.018 A 
ATOM     24  C   UNL A   1      34.577  17.607  24.274  1.00  0.00     0.009 A 
ATOM     25  C   UNL A   1      32.555  17.559  25.581  1.00  0.00     0.009 A 
ATOM     26  C   UNL A   1      34.634  16.209  24.332  1.00  0.00     0.001 A 
ATOM     27  C   UNL A   1      32.612  16.167  25.640  1.00  0.00     0.001 A 
ATOM     28  C   UNL A   1      33.656  15.492  25.018  1.00  0.00     0.000 A 
ENDBRANCH  22  23
ENDBRANCH  16  17
ENDBRANCH  14  16
ENDBRANCH  12  14
ENDBRANCH   7  12
ENDBRANCH   3   6
ENDBRANCH   1   2
BRANCH   1  29
ATOM     29  C   UNL A   1      34.494  30.418  27.600  1.00  0.00     0.023 C 
BRANCH  29  30
ATOM     30  C   UNL A   1      33.253  31.304  27.633  1.00  0.00     0.023 C 
BRANCH  30  31
ATOM     31  C   UNL A   1      33.448  32.723  27.109  1.00  0.00     0.116 C 
BRANCH  31  32
ATOM     32  N   UNL A   1      32.794  33.761  27.895  1.00  0.00    -0.352 N 
ATOM     33  C   UNL A   1      33.247  34.357  29.055  1.00  0.00     0.251 C 
ATOM     34  H   UNL A   1      31.924  34.076  27.557  1.00  0.00     0.163 HD
ATOM     35  O   UNL A   1      32.568  35.162  29.668  1.00  0.00    -0.269 OA
BRANCH  33  36
ATOM     36  C   UNL A   1      34.573  33.953  29.574  1.00  0.00     0.039 A 
ATOM     37  C   UNL A   1      34.637  33.101  30.678  1.00  0.00     0.014 A 
ATOM     38  C   UNL A   1      35.735  34.339  28.903  1.00  0.00     0.014 A 
ATOM     39  C   UNL A   1      35.867  32.556  31.050  1.00  0.00     0.010 A 
ATOM     40  C   UNL A   1      36.941  33.727  29.220  1.00  0.00     0.010 A 
ATOM     41  C   UNL A   1      37.019  32.824  30.292  1.00  0.00    -0.014 A 
BRANCH  41  42
ATOM     42  C   UNL A   1      38.313  32.160  30.591  1.00  0.00     0.031 A 
ATOM     43  C   UNL A   1      39.302  32.820  31.510  1.00  0.00     0.074 A 
ATOM     44  C   UNL A   1      38.633  31.006  29.974  1.00  0.00     0.049 A 
ATOM     45  N   UNL A   1      40.507  32.430  31.844  1.00  0.00    -0.248 NA
ATOM     46  C   UNL A   1      38.899  34.103  32.108  1.00  0.00     0.031 C 
ATOM     47  C   UNL A   1      37.789  30.292  29.011  1.00  0.00     0.029 A 
ATOM     48  N   UNL A   1      39.762  30.229  30.062  1.00  0.00    -0.354 N 
ATOM     49  C   UNL A   1      41.010  33.429  32.665  1.00  0.00     0.074 A 
ATOM     50  C   UNL A   1      40.005  34.467  32.738  1.00  0.00     0.031 C 
ATOM     51  C   UNL A   1      38.416  29.168  28.626  1.00  0.00     0.029 A 
ATOM     52  C   UNL A   1      39.716  29.098  29.285  1.00  0.00     0.049 A 
ATOM     53  H   UNL A   1      40.532  30.462  30.630  1.00  0.00     0.167 HD
ATOM     54  C   UNL A   1      42.194  33.473  33.321  1.00  0.00     0.031 A 
ATOM     55  C   UNL A   1      40.618  28.112  29.124  1.00  0.00     0.031 A 
ATOM     56  C   UNL A   1      43.183  32.431  33.275  1.00  0.00     0.049 A 
ATOM     57  C   UNL A   1      41.914  28.169  29.883  1.00  0.00     0.074 A 
ATOM     58  C   UNL A   1      44.382  32.349  33.960  1.00  0.00     0.029 A 
ATOM     59  N   UNL A   1      43.084  31.286  32.500  1.00  0.00    -0.354 N 
ATOM     60  N   UNL A   1      42.344  29.086  30.716  1.00  0.00    -0.248 NA
ATOM     61  C   UNL A   1      42.844  27.047  29.689  1.00  0.00     0.031 C 
ATOM     62  C   UNL A   1      45.027  31.170  33.572  1.00  0.00     0.029 A 
ATOM     63  C   UNL A   1      44.208  30.498  32.679  1.00  0.00     0.049 A 
ATOM     64  H   UNL A   1      42.327  31.066  31.911  1.00  0.00     0.167 HD
ATOM     65  C   UNL A   1      43.579  28.639  31.167  1.00  0.00     0.074 A 
ATOM     66  C   UNL A   1      43.824  27.364  30.525  1.00  0.00     0.031 C 
ATOM     67  C   UNL A   1      44.433  29.232  32.034  1.00  0.00     0.031 A 
BRANCH  54  68
ATOM     68  C   UNL A   1      42.474  34.694  34.151  1.00  0.00    -0.014 A 
ATOM     69  C   UNL A   1      42.137  34.739  35.513  1.00  0.00     0.009 A 
ATOM     70  C   UNL A   1      43.100  35.806  33.569  1.00  0.00     0.009 A 
ATOM     71  C   UNL A   1      42.381  35.889  36.265  1.00  0.00     0.001 A 
ATOM     72  C   UNL A   1      43.370  36.945  34.330  1.00  0.00     0.001 A 
ATOM     73  C   UNL A   1      43.000  36.990  35.674  1.00  0.00     0.000 A 
ENDBRANCH  54  68
BRANCH  55  74
ATOM     74  C   UNL A   1      40.317  26.963  28.230  1.00  0.00    -0.014 A 
ATOM     75  C   UNL A   1      39.543  25.889  28.695  1.00  0.00     0.009 A 
ATOM     76  C   UNL A   1      40.805  26.931  26.915  1.00  0.00     0.009 A 
ATOM     77  C   UNL A   1      39.286  24.792  27.870  1.00  0.00     0.001 A 
ATOM     78  C   UNL A   1      40.525  25.843  26.083  1.00  0.00     0.001 A 
ATOM     79  C   UNL A   1      39.774  24.772  26.564  1.00  0.00     0.000 A 
ENDBRANCH  55  74
BRANCH  67  80
ATOM     80  C   UNL A   1      45.697  28.492  32.365  1.00  0.00    -0.014 A 
ATOM     81  C   UNL A   1      46.867  28.677  31.612  1.00  0.00     0.009 A 
ATOM     82  C   UNL A   1      45.726  27.630  33.472  1.00  0.00     0.009 A 
ATOM     83  C   UNL A   1      48.035  27.989  31.946  1.00  0.00     0.001 A 
ATOM     84  C   UNL A   1      46.902  26.963  33.818  1.00  0.00     0.001 A 
ATOM     85  C   UNL A   1      48.053  27.137  33.050  1.00  0.00     0.000 A 
ENDBRANCH  67  80
ENDBRANCH  41  42
ENDBRANCH  33  36
ENDBRANCH  31  32
ENDBRANCH  30  31
ENDBRANCH  29  30
ENDBRANCH   1  29
TORSDOF 16
ENDMDL
MODEL 3
REMARK VINA RESULT:     -11.4      0.468      5.743
REMARK SMILES C[C@@H](Oc1ccc(-c2ccccc2)cc1)C(=O)N1CCC[C@H](C(=O)NCCCCNC(=O)c2ccc(-c3c4nc(c(-c5ccccc5)c5ccc([nH]5)c(-c5ccccc5)c5nc(c(-c6ccccc6)c6ccc3[nH]6)C=C5)C=C4)cc2)C1
REMARK SMILES IDX 26 1 25 2 23 3 24 4 22 6 18 7 19 8 81 9 20 10 21 11 16 12
REMARK SMILES IDX 17 13 2 14 1 15 3 16 4 17 5 18 15 19 6 20 14 21 7 22 8 23
REMARK SMILES IDX 9 24 13 25 10 26 12 27 11 28 27 29 28 30 29 31 30 32 31 33
REMARK SMILES IDX 32 35 33 36 34 37 80 38 35 39 79 40 36 41 37 42 38 43 73 44
REMARK SMILES IDX 39 45 78 46 72 47 74 48 40 49 77 50 71 51 70 52 41 54 63 55
REMARK SMILES IDX 48 56 62 57 49 58 52 59 61 60 75 61 50 62 51 63 60 65 76 66
REMARK SMILES IDX 53 67 42 68 43 69 47 70 44 71 46 72 45 73 64 74 65 75 69 76
REMARK SMILES IDX 66 77 68 78 67 79 54 80 55 81 59 82 56 83 58 84 57 85
REMARK H PARENT 25 5 30 34 74 53 52 64
REMARK Flexibility Score: inf
ROOT
ATOM      1  C   UNL A   1      34.941  31.730  27.963  1.00  0.00     0.116 C 
ENDROOT
BRANCH   1   2
ATOM      2  N   UNL A   1      33.649  31.705  27.318  1.00  0.00    -0.356 N 
ATOM      3  C   UNL A   1      32.856  30.674  26.931  1.00  0.00     0.224 C 
ATOM      4  O   UNL A   1      31.709  30.978  26.579  1.00  0.00    -0.275 OA
ATOM      5  H   UNL A   1      33.276  32.595  27.125  1.00  0.00     0.163 HD
BRANCH   3   6
ATOM      6  C   UNL A   1      33.280  29.198  26.894  1.00  0.00     0.098 C 
ATOM      7  N   UNL A   1      32.530  28.035  24.820  1.00  0.00    -0.339 N 
ATOM      8  C   UNL A   1      31.821  27.003  25.574  1.00  0.00     0.119 C 
ATOM      9  C   UNL A   1      33.650  28.660  25.508  1.00  0.00     0.133 C 
ATOM     10  C   UNL A   1      31.369  27.457  26.958  1.00  0.00     0.022 C 
ATOM     11  C   UNL A   1      32.420  28.248  27.730  1.00  0.00     0.017 C 
BRANCH   7  12
ATOM     12  C   UNL A   1      32.133  28.301  23.511  1.00  0.00     0.263 C 
ATOM     13  O   UNL A   1      32.803  29.056  22.796  1.00  0.00    -0.271 OA
BRANCH  12  14
ATOM     14  C   UNL A   1      30.813  27.718  22.964  1.00  0.00     0.259 C 
ATOM     15  C   UNL A   1      29.734  28.736  22.611  1.00  0.00     0.064 C 
BRANCH  14  16
ATOM     16  O   UNL A   1      31.185  26.936  21.822  1.00  0.00    -0.481 OA
BRANCH  16  17
ATOM     17  C   UNL A   1      31.508  25.649  22.138  1.00  0.00     0.120 A 
ATOM     18  C   UNL A   1      30.729  24.903  23.021  1.00  0.00     0.047 A 
ATOM     19  C   UNL A   1      32.726  25.161  21.684  1.00  0.00     0.047 A 
ATOM     20  C   UNL A   1      31.193  23.660  23.471  1.00  0.00     0.012 A 
ATOM     21  C   UNL A   1      33.180  23.922  22.128  1.00  0.00     0.012 A 
ATOM     22  C   UNL A   1      32.443  23.166  23.057  1.00  0.00    -0.018 A 
BRANCH  22  23
ATOM     23  C   UNL A   1      33.029  21.940  23.625  1.00  0.00    -0.018 A 
ATOM     24  C   UNL A   1      34.297  21.921  24.221  1.00  0.00     0.009 A 
ATOM     25  C   UNL A   1      32.297  20.737  23.593  1.00  0.00     0.009 A 
ATOM     26  C   UNL A   1      34.805  20.744  24.783  1.00  0.00     0.001 A 
ATOM     27  C   UNL A   1      32.801  19.564  24.154  1.00  0.00     0.001 A 
ATOM     28  C   UNL A   1      34.056  19.569  24.754  1.00  0.00     0.000 A 
ENDBRANCH  22  23
ENDBRANCH  16  17
ENDBRANCH  14  16
ENDBRANCH  12  14
ENDBRANCH   7  12
ENDBRANCH   3   6
ENDBRANCH   1   2
BRANCH   1  29
ATOM     29  C   UNL A   1      35.151  32.943  28.865  1.00  0.00     0.023 C 
BRANCH  29  30
ATOM     30  C   UNL A   1      33.879  33.483  29.508  1.00  0.00     0.023 C 
BRANCH  30  31
ATOM     31  C   UNL A   1      33.799  35.002  29.628  1.00  0.00     0.116 C 
BRANCH  31  32
ATOM     32  N   UNL A   1      32.803  35.490  30.572  1.00  0.00    -0.352 N 
ATOM     33  C   UNL A   1      32.847  35.439  31.951  1.00  0.00     0.251 C 
ATOM     34  H   UNL A   1      32.002  35.907  30.179  1.00  0.00     0.163 HD
ATOM     35  O   UNL A   1      31.910  35.812  32.635  1.00  0.00    -0.269 OA
BRANCH  33  36
ATOM     36  C   UNL A   1      34.053  34.868  32.590  1.00  0.00     0.039 A 
ATOM     37  C   UNL A   1      33.995  33.574  33.111  1.00  0.00     0.014 A 
ATOM     38  C   UNL A   1      35.256  35.577  32.576  1.00  0.00     0.014 A 
ATOM     39  C   UNL A   1      35.172  32.953  33.531  1.00  0.00     0.010 A 
ATOM     40  C   UNL A   1      36.437  34.926  32.912  1.00  0.00     0.010 A 
ATOM     41  C   UNL A   1      36.408  33.605  33.385  1.00  0.00    -0.014 A 
BRANCH  41  42
ATOM     42  C   UNL A   1      37.686  32.922  33.709  1.00  0.00     0.031 A 
ATOM     43  C   UNL A   1      38.277  31.932  32.744  1.00  0.00     0.074 A 
ATOM     44  C   UNL A   1      38.273  33.130  34.904  1.00  0.00     0.049 A 
ATOM     45  N   UNL A   1      39.347  31.190  32.874  1.00  0.00    -0.248 NA
ATOM     46  C   UNL A   1      37.550  31.724  31.480  1.00  0.00     0.031 C 
ATOM     47  C   UNL A   1      37.771  34.017  35.958  1.00  0.00     0.029 A 
ATOM     48  N   UNL A   1      39.423  32.602  35.438  1.00  0.00    -0.354 N 
ATOM     49  C   UNL A   1      39.406  30.413  31.725  1.00  0.00     0.074 A 
ATOM     50  C   UNL A   1      38.238  30.733  30.935  1.00  0.00     0.031 C 
ATOM     51  C   UNL A   1      38.626  33.997  36.993  1.00  0.00     0.029 A 
ATOM     52  C   UNL A   1      39.716  33.073  36.694  1.00  0.00     0.049 A 
ATOM     53  H   UNL A   1      39.985  31.948  34.963  1.00  0.00     0.167 HD
ATOM     54  C   UNL A   1      40.358  29.527  31.348  1.00  0.00     0.031 A 
ATOM     55  C   UNL A   1      40.747  32.795  37.513  1.00  0.00     0.031 A 
ATOM     56  C   UNL A   1      41.535  29.227  32.117  1.00  0.00     0.049 A 
ATOM     57  C   UNL A   1      41.806  31.828  37.060  1.00  0.00     0.074 A 
ATOM     58  C   UNL A   1      42.592  28.399  31.788  1.00  0.00     0.029 A 
ATOM     59  N   UNL A   1      41.808  29.750  33.371  1.00  0.00    -0.354 N 
ATOM     60  N   UNL A   1      41.886  31.158  35.937  1.00  0.00    -0.248 NA
ATOM     61  C   UNL A   1      42.923  31.591  37.987  1.00  0.00     0.031 C 
ATOM     62  C   UNL A   1      43.491  28.391  32.860  1.00  0.00     0.029 A 
ATOM     63  C   UNL A   1      43.012  29.250  33.836  1.00  0.00     0.049 A 
ATOM     64  H   UNL A   1      41.233  30.383  33.858  1.00  0.00     0.167 HD
ATOM     65  C   UNL A   1      43.073  30.441  36.008  1.00  0.00     0.074 A 
ATOM     66  C   UNL A   1      43.686  30.769  37.279  1.00  0.00     0.031 C 
ATOM     67  C   UNL A   1      43.607  29.589  35.102  1.00  0.00     0.031 A 
BRANCH  54  68
ATOM     68  C   UNL A   1      40.159  28.824  30.035  1.00  0.00    -0.014 A 
ATOM     69  C   UNL A   1      39.600  27.537  29.978  1.00  0.00     0.009 A 
ATOM     70  C   UNL A   1      40.519  29.463  28.839  1.00  0.00     0.009 A 
ATOM     71  C   UNL A   1      39.445  26.887  28.752  1.00  0.00     0.001 A 
ATOM     72  C   UNL A   1      40.335  28.822  27.612  1.00  0.00     0.001 A 
ATOM     73  C   UNL A   1      39.810  27.531  27.570  1.00  0.00     0.000 A 
ENDBRANCH  54  68
BRANCH  55  74
ATOM     74  C   UNL A   1      40.853  33.466  38.835  1.00  0.00    -0.014 A 
ATOM     75  C   UNL A   1      41.582  34.658  38.968  1.00  0.00     0.009 A 
ATOM     76  C   UNL A   1      40.234  32.918  39.968  1.00  0.00     0.009 A 
ATOM     77  C   UNL A   1      41.712  35.273  40.214  1.00  0.00     0.001 A 
ATOM     78  C   UNL A   1      40.345  33.550  41.210  1.00  0.00     0.001 A 
ATOM     79  C   UNL A   1      41.091  34.721  41.333  1.00  0.00     0.000 A 
ENDBRANCH  55  74
BRANCH  67  80
ATOM     80  C   UNL A   1      44.937  28.977  35.437  1.00  0.00    -0.014 A 
ATOM     81  C   UNL A   1      45.024  27.716  36.048  1.00  0.00     0.009 A 
ATOM     82  C   UNL A   1      46.118  29.655  35.098  1.00  0.00     0.009 A 
ATOM     83  C   UNL A   1      46.270  27.159  36.339  1.00  0.00     0.001 A 
ATOM     84  C   UNL A   1      47.363  29.084  35.367  1.00  0.00     0.001 A 
ATOM     85  C   UNL A   1      47.438  27.841  35.995  1.00  0.00     0.000 A 
ENDBRANCH  67  80
ENDBRANCH  41  42
ENDBRANCH  33  36
ENDBRANCH  31  32
ENDBRANCH  30  31
ENDBRANCH  29  30
ENDBRANCH   1  29
TORSDOF 16
ENDMDL
