MODEL 1
REMARK VINA RESULT:     -11.3      0.000      0.000
REMARK SMILES COc1cccc(CC2(CO)CCN(c3nc(C)ccc3C(=O)NCCCCNC(=O)c3ccc(-c4c5nc(c(-c6ccccc6)c6ccc([nH]6)c(-c6ccccc6)c6nc(c(-c7ccccc7)c7ccc4[nH]7)C=C6)C=C5)cc3)CC2)c1
REMARK SMILES IDX 25 1 24 2 22 3 23 4 21 6 15 7 16 8 17 9 20 10 18 11 19 12
REMARK SMILES IDX 14 13 9 14 12 15 81 16 13 17 80 18 8 19 7 20 3 21 4 22 82 23
REMARK SMILES IDX 5 24 6 25 2 26 1 27 10 28 11 29 26 31 27 32 28 33 29 34
REMARK SMILES IDX 30 35 31 37 32 38 33 39 79 40 34 41 78 42 35 43 36 44 37 45
REMARK SMILES IDX 72 46 38 47 77 48 71 49 73 50 39 51 76 52 70 53 69 54 40 56
REMARK SMILES IDX 62 57 47 58 61 59 48 60 51 61 60 62 74 63 49 64 50 65 59 67
REMARK SMILES IDX 75 68 52 69 41 70 42 71 46 72 43 73 45 74 44 75 63 76 64 77
REMARK SMILES IDX 68 78 65 79 67 80 66 81 53 82 54 83 58 84 55 85 57 86 56 87
REMARK H PARENT 24 5 11 30 29 36 73 55 51 66
REMARK Flexibility Score: inf
ROOT
ATOM      1  C   UNL A   1      37.018  23.476  25.365  1.00  0.00     0.116 C 
ENDROOT
BRANCH   1   2
ATOM      2  N   UNL A   1      36.017  23.256  26.384  1.00  0.00    -0.352 N 
ATOM      3  C   UNL A   1      34.901  22.467  26.531  1.00  0.00     0.255 C 
ATOM      4  O   UNL A   1      34.408  22.591  27.649  1.00  0.00    -0.269 OA
ATOM      5  H   UNL A   1      36.173  23.817  27.177  1.00  0.00     0.163 HD
BRANCH   3   6
ATOM      6  C   UNL A   1      34.351  21.501  25.516  1.00  0.00     0.082 A 
ATOM      7  C   UNL A   1      33.102  21.692  24.882  1.00  0.00     0.141 A 
ATOM      8  N   UNL A   1      32.491  20.663  24.222  1.00  0.00    -0.235 NA
ATOM      9  C   UNL A   1      33.106  19.473  24.080  1.00  0.00     0.040 A 
ATOM     10  C   UNL A   1      35.015  20.298  25.232  1.00  0.00     0.019 A 
ATOM     11  C   UNL A   1      32.336  18.397  23.380  1.00  0.00     0.067 C 
ATOM     12  C   UNL A   1      34.392  19.271  24.526  1.00  0.00     0.024 A 
BRANCH   7  13
ATOM     13  N   UNL A   1      32.385  22.864  24.775  1.00  0.00    -0.356 N 
ATOM     14  C   UNL A   1      31.243  25.567  24.871  1.00  0.00     0.001 C 
ATOM     15  C   UNL A   1      32.611  25.249  24.213  1.00  0.00     0.031 C 
ATOM     16  C   UNL A   1      30.870  24.440  25.869  1.00  0.00     0.031 C 
ATOM     17  C   UNL A   1      32.833  23.803  23.764  1.00  0.00     0.119 C 
ATOM     18  C   UNL A   1      31.053  23.025  25.329  1.00  0.00     0.119 C 
BRANCH  14  19
ATOM     19  C   UNL A   1      30.114  25.889  23.826  1.00  0.00     0.045 C 
BRANCH  19  20
ATOM     20  C   UNL A   1      29.912  27.301  23.331  1.00  0.00    -0.044 A 
ATOM     21  C   UNL A   1      28.494  29.252  23.023  1.00  0.00     0.119 A 
ATOM     22  C   UNL A   1      29.478  29.855  22.245  1.00  0.00     0.046 A 
ATOM     23  C   UNL A   1      28.701  27.977  23.557  1.00  0.00     0.050 A 
ATOM     24  C   UNL A   1      30.706  29.222  22.069  1.00  0.00     0.004 A 
ATOM     25  C   UNL A   1      30.930  27.966  22.635  1.00  0.00     0.004 A 
BRANCH  21  26
ATOM     26  O   UNL A   1      27.306  29.920  23.150  1.00  0.00    -0.497 OA
ATOM     27  C   UNL A   1      27.505  31.306  23.419  1.00  0.00     0.278 C 
ENDBRANCH  21  26
ENDBRANCH  19  20
ENDBRANCH  14  19
BRANCH  14  28
ATOM     28  C   UNL A   1      31.409  26.860  25.730  1.00  0.00     0.163 C 
BRANCH  28  29
ATOM     29  O   UNL A   1      30.577  26.851  26.884  1.00  0.00    -0.396 OA
ATOM     30  H   UNL A   1      29.650  26.942  26.615  1.00  0.00     0.210 HD
ENDBRANCH  28  29
ENDBRANCH  14  28
ENDBRANCH   7  13
ENDBRANCH   3   6
ENDBRANCH   1   2
BRANCH   1  31
ATOM     31  C   UNL A   1      38.367  22.912  25.805  1.00  0.00     0.023 C 
BRANCH  31  32
ATOM     32  C   UNL A   1      38.605  21.455  25.383  1.00  0.00     0.023 C 
BRANCH  32  33
ATOM     33  C   UNL A   1      39.167  20.538  26.470  1.00  0.00     0.116 C 
BRANCH  33  34
ATOM     34  N   UNL A   1      40.218  19.653  25.988  1.00  0.00    -0.352 N 
ATOM     35  C   UNL A   1      41.570  19.877  25.915  1.00  0.00     0.251 C 
ATOM     36  H   UNL A   1      39.916  18.772  25.669  1.00  0.00     0.163 HD
ATOM     37  O   UNL A   1      42.310  19.054  25.386  1.00  0.00    -0.269 OA
BRANCH  35  38
ATOM     38  C   UNL A   1      42.123  21.138  26.444  1.00  0.00     0.039 A 
ATOM     39  C   UNL A   1      42.522  22.126  25.540  1.00  0.00     0.014 A 
ATOM     40  C   UNL A   1      42.200  21.359  27.821  1.00  0.00     0.014 A 
ATOM     41  C   UNL A   1      42.913  23.376  26.020  1.00  0.00     0.010 A 
ATOM     42  C   UNL A   1      42.540  22.622  28.295  1.00  0.00     0.010 A 
ATOM     43  C   UNL A   1      42.877  23.647  27.397  1.00  0.00    -0.014 A 
BRANCH  43  44
ATOM     44  C   UNL A   1      43.119  25.015  27.915  1.00  0.00     0.031 A 
ATOM     45  C   UNL A   1      44.492  25.433  28.352  1.00  0.00     0.074 A 
ATOM     46  C   UNL A   1      42.074  25.849  28.073  1.00  0.00     0.049 A 
ATOM     47  N   UNL A   1      44.872  26.556  28.907  1.00  0.00    -0.248 NA
ATOM     48  C   UNL A   1      45.575  24.456  28.162  1.00  0.00     0.031 C 
ATOM     49  C   UNL A   1      40.683  25.542  27.726  1.00  0.00     0.029 A 
ATOM     50  N   UNL A   1      42.014  27.121  28.585  1.00  0.00    -0.354 N 
ATOM     51  C   UNL A   1      46.233  26.417  29.144  1.00  0.00     0.074 A 
ATOM     52  C   UNL A   1      46.605  25.088  28.708  1.00  0.00     0.031 C 
ATOM     53  C   UNL A   1      39.914  26.602  28.018  1.00  0.00     0.029 A 
ATOM     54  C   UNL A   1      40.744  27.643  28.612  1.00  0.00     0.049 A 
ATOM     55  H   UNL A   1      42.806  27.611  28.902  1.00  0.00     0.167 HD
ATOM     56  C   UNL A   1      47.097  27.320  29.664  1.00  0.00     0.031 A 
ATOM     57  C   UNL A   1      40.294  28.824  29.078  1.00  0.00     0.031 A 
ATOM     58  C   UNL A   1      46.726  28.643  30.094  1.00  0.00     0.049 A 
ATOM     59  C   UNL A   1      41.269  29.794  29.681  1.00  0.00     0.074 A 
ATOM     60  C   UNL A   1      47.541  29.654  30.570  1.00  0.00     0.029 A 
ATOM     61  N   UNL A   1      45.429  29.132  30.111  1.00  0.00    -0.354 N 
ATOM     62  N   UNL A   1      42.566  29.677  29.826  1.00  0.00    -0.248 NA
ATOM     63  C   UNL A   1      40.715  31.059  30.186  1.00  0.00     0.031 C 
ATOM     64  C   UNL A   1      46.731  30.738  30.925  1.00  0.00     0.029 A 
ATOM     65  C   UNL A   1      45.417  30.418  30.623  1.00  0.00     0.049 A 
ATOM     66  H   UNL A   1      44.635  28.638  29.805  1.00  0.00     0.167 HD
ATOM     67  C   UNL A   1      42.986  30.857  30.425  1.00  0.00     0.074 A 
ATOM     68  C   UNL A   1      41.809  31.685  30.596  1.00  0.00     0.031 C 
ATOM     69  C   UNL A   1      44.236  31.221  30.802  1.00  0.00     0.031 A 
BRANCH  56  70
ATOM     70  C   UNL A   1      48.533  26.902  29.808  1.00  0.00    -0.014 A 
ATOM     71  C   UNL A   1      48.986  26.256  30.969  1.00  0.00     0.009 A 
ATOM     72  C   UNL A   1      49.433  27.121  28.756  1.00  0.00     0.009 A 
ATOM     73  C   UNL A   1      50.323  25.866  31.084  1.00  0.00     0.001 A 
ATOM     74  C   UNL A   1      50.762  26.707  28.863  1.00  0.00     0.001 A 
ATOM     75  C   UNL A   1      51.207  26.087  30.030  1.00  0.00     0.000 A 
ENDBRANCH  56  70
BRANCH  57  76
ATOM     76  C   UNL A   1      38.848  29.151  28.998  1.00  0.00    -0.014 A 
ATOM     77  C   UNL A   1      38.296  29.643  27.805  1.00  0.00     0.009 A 
ATOM     78  C   UNL A   1      38.013  28.977  30.113  1.00  0.00     0.009 A 
ATOM     79  C   UNL A   1      36.941  29.974  27.738  1.00  0.00     0.001 A 
ATOM     80  C   UNL A   1      36.653  29.284  30.033  1.00  0.00     0.001 A 
ATOM     81  C   UNL A   1      36.120  29.789  28.850  1.00  0.00     0.000 A 
ENDBRANCH  57  76
BRANCH  69  82
ATOM     82  C   UNL A   1      44.392  32.576  31.430  1.00  0.00    -0.014 A 
ATOM     83  C   UNL A   1      44.335  32.737  32.823  1.00  0.00     0.009 A 
ATOM     84  C   UNL A   1      44.640  33.697  30.623  1.00  0.00     0.009 A 
ATOM     85  C   UNL A   1      44.496  34.000  33.394  1.00  0.00     0.001 A 
ATOM     86  C   UNL A   1      44.827  34.954  31.198  1.00  0.00     0.001 A 
ATOM     87  C   UNL A   1      44.747  35.106  32.583  1.00  0.00     0.000 A 
ENDBRANCH  69  82
ENDBRANCH  43  44
ENDBRANCH  35  38
ENDBRANCH  33  34
ENDBRANCH  32  33
ENDBRANCH  31  32
ENDBRANCH   1  31
TORSDOF 17
ENDMDL
MODEL 2
REMARK VINA RESULT:     -11.0      1.608      2.114
REMARK SMILES COc1cccc(CC2(CO)CCN(c3nc(C)ccc3C(=O)NCCCCNC(=O)c3ccc(-c4c5nc(c(-c6ccccc6)c6ccc([nH]6)c(-c6ccccc6)c6nc(c(-c7ccccc7)c7ccc4[nH]7)C=C6)C=C5)cc3)CC2)c1
REMARK SMILES IDX 25 1 24 2 22 3 23 4 21 6 15 7 16 8 17 9 20 10 18 11 19 12
REMARK SMILES IDX 14 13 9 14 12 15 81 16 13 17 80 18 8 19 7 20 3 21 4 22 82 23
REMARK SMILES IDX 5 24 6 25 2 26 1 27 10 28 11 29 26 31 27 32 28 33 29 34
REMARK SMILES IDX 30 35 31 37 32 38 33 39 79 40 34 41 78 42 35 43 36 44 37 45
REMARK SMILES IDX 72 46 38 47 77 48 71 49 73 50 39 51 76 52 70 53 69 54 40 56
REMARK SMILES IDX 62 57 47 58 61 59 48 60 51 61 60 62 74 63 49 64 50 65 59 67
REMARK SMILES IDX 75 68 52 69 41 70 42 71 46 72 43 73 45 74 44 75 63 76 64 77
REMARK SMILES IDX 68 78 65 79 67 80 66 81 53 82 54 83 58 84 55 85 57 86 56 87
REMARK H PARENT 24 5 11 30 29 36 73 55 51 66
REMARK Flexibility Score: inf
ROOT
ATOM      1  C   UNL A   1      37.332  23.019  25.574  1.00  0.00     0.116 C 
ENDROOT
BRANCH   1   2
ATOM      2  N   UNL A   1      36.191  22.965  26.460  1.00  0.00    -0.352 N 
ATOM      3  C   UNL A   1      34.963  22.348  26.466  1.00  0.00     0.255 C 
ATOM      4  O   UNL A   1      34.359  22.562  27.514  1.00  0.00    -0.269 OA
ATOM      5  H   UNL A   1      36.328  23.513  27.266  1.00  0.00     0.163 HD
BRANCH   3   6
ATOM      6  C   UNL A   1      34.409  21.451  25.391  1.00  0.00     0.082 A 
ATOM      7  C   UNL A   1      33.556  21.927  24.369  1.00  0.00     0.141 A 
ATOM      8  N   UNL A   1      32.823  21.056  23.613  1.00  0.00    -0.235 NA
ATOM      9  C   UNL A   1      32.968  19.725  23.760  1.00  0.00     0.040 A 
ATOM     10  C   UNL A   1      34.632  20.067  25.422  1.00  0.00     0.019 A 
ATOM     11  C   UNL A   1      32.089  18.855  22.916  1.00  0.00     0.067 C 
ATOM     12  C   UNL A   1      33.903  19.194  24.617  1.00  0.00     0.024 A 
BRANCH   7  13
ATOM     13  N   UNL A   1      33.385  23.230  23.956  1.00  0.00    -0.356 N 
ATOM     14  C   UNL A   1      32.535  25.836  22.903  1.00  0.00     0.001 C 
ATOM     15  C   UNL A   1      31.845  25.144  24.108  1.00  0.00     0.031 C 
ATOM     16  C   UNL A   1      33.306  24.781  22.068  1.00  0.00     0.031 C 
ATOM     17  C   UNL A   1      32.677  24.108  24.868  1.00  0.00     0.119 C 
ATOM     18  C   UNL A   1      34.167  23.824  22.887  1.00  0.00     0.119 C 
BRANCH  14  19
ATOM     19  C   UNL A   1      33.404  27.077  23.317  1.00  0.00     0.045 C 
BRANCH  19  20
ATOM     20  C   UNL A   1      33.060  27.874  24.553  1.00  0.00    -0.044 A 
ATOM     21  C   UNL A   1      31.919  29.737  25.618  1.00  0.00     0.119 A 
ATOM     22  C   UNL A   1      32.570  29.462  26.817  1.00  0.00     0.046 A 
ATOM     23  C   UNL A   1      32.167  28.956  24.486  1.00  0.00     0.050 A 
ATOM     24  C   UNL A   1      33.406  28.352  26.911  1.00  0.00     0.004 A 
ATOM     25  C   UNL A   1      33.624  27.547  25.793  1.00  0.00     0.004 A 
BRANCH  21  26
ATOM     26  O   UNL A   1      31.118  30.847  25.587  1.00  0.00    -0.497 OA
ATOM     27  C   UNL A   1      31.482  31.792  26.590  1.00  0.00     0.278 C 
ENDBRANCH  21  26
ENDBRANCH  19  20
ENDBRANCH  14  19
BRANCH  14  28
ATOM     28  C   UNL A   1      31.420  26.392  21.963  1.00  0.00     0.163 C 
BRANCH  28  29
ATOM     29  O   UNL A   1      31.648  26.058  20.599  1.00  0.00    -0.396 OA
ATOM     30  H   UNL A   1      31.258  25.191  20.409  1.00  0.00     0.210 HD
ENDBRANCH  28  29
ENDBRANCH  14  28
ENDBRANCH   7  13
ENDBRANCH   3   6
ENDBRANCH   1   2
BRANCH   1  31
ATOM     31  C   UNL A   1      38.144  21.729  25.662  1.00  0.00     0.023 C 
BRANCH  31  32
ATOM     32  C   UNL A   1      39.589  21.930  26.138  1.00  0.00     0.023 C 
BRANCH  32  33
ATOM     33  C   UNL A   1      40.206  20.748  26.887  1.00  0.00     0.116 C 
BRANCH  33  34
ATOM     34  N   UNL A   1      41.273  20.092  26.145  1.00  0.00    -0.352 N 
ATOM     35  C   UNL A   1      42.512  20.574  25.805  1.00  0.00     0.251 C 
ATOM     36  H   UNL A   1      41.078  19.175  25.845  1.00  0.00     0.163 HD
ATOM     37  O   UNL A   1      43.260  19.920  25.085  1.00  0.00    -0.269 OA
BRANCH  35  38
ATOM     38  C   UNL A   1      42.922  21.910  26.279  1.00  0.00     0.039 A 
ATOM     39  C   UNL A   1      43.066  22.938  25.344  1.00  0.00     0.014 A 
ATOM     40  C   UNL A   1      43.114  22.152  27.641  1.00  0.00     0.014 A 
ATOM     41  C   UNL A   1      43.315  24.237  25.787  1.00  0.00     0.010 A 
ATOM     42  C   UNL A   1      43.310  23.457  28.084  1.00  0.00     0.010 A 
ATOM     43  C   UNL A   1      43.388  24.513  27.161  1.00  0.00    -0.014 A 
BRANCH  43  44
ATOM     44  C   UNL A   1      43.476  25.906  27.660  1.00  0.00     0.031 A 
ATOM     45  C   UNL A   1      44.805  26.510  28.006  1.00  0.00     0.074 A 
ATOM     46  C   UNL A   1      42.340  26.594  27.884  1.00  0.00     0.049 A 
ATOM     47  N   UNL A   1      45.064  27.681  28.533  1.00  0.00    -0.248 NA
ATOM     48  C   UNL A   1      45.996  25.686  27.748  1.00  0.00     0.031 C 
ATOM     49  C   UNL A   1      40.984  26.098  27.628  1.00  0.00     0.029 A 
ATOM     50  N   UNL A   1      42.142  27.852  28.396  1.00  0.00    -0.354 N 
ATOM     51  C   UNL A   1      46.444  27.728  28.681  1.00  0.00     0.074 A 
ATOM     52  C   UNL A   1      46.964  26.457  28.225  1.00  0.00     0.031 C 
ATOM     53  C   UNL A   1      40.099  27.048  27.968  1.00  0.00     0.029 A 
ATOM     54  C   UNL A   1      40.817  28.198  28.504  1.00  0.00     0.049 A 
ATOM     55  H   UNL A   1      42.879  28.448  28.660  1.00  0.00     0.167 HD
ATOM     56  C   UNL A   1      47.209  28.746  29.142  1.00  0.00     0.031 A 
ATOM     57  C   UNL A   1      40.243  29.312  28.996  1.00  0.00     0.031 A 
ATOM     58  C   UNL A   1      46.692  30.011  29.593  1.00  0.00     0.049 A 
ATOM     59  C   UNL A   1      41.114  30.411  29.533  1.00  0.00     0.074 A 
ATOM     60  C   UNL A   1      47.392  31.128  30.012  1.00  0.00     0.029 A 
ATOM     61  N   UNL A   1      45.345  30.321  29.692  1.00  0.00    -0.354 N 
ATOM     62  N   UNL A   1      42.422  30.472  29.593  1.00  0.00    -0.248 NA
ATOM     63  C   UNL A   1      40.428  31.596  30.069  1.00  0.00     0.031 C 
ATOM     64  C   UNL A   1      46.467  32.097  30.417  1.00  0.00     0.029 A 
ATOM     65  C   UNL A   1      45.192  31.599  30.202  1.00  0.00     0.049 A 
ATOM     66  H   UNL A   1      44.606  29.721  29.440  1.00  0.00     0.167 HD
ATOM     67  C   UNL A   1      42.716  31.704  30.161  1.00  0.00     0.074 A 
ATOM     68  C   UNL A   1      41.451  32.367  30.406  1.00  0.00     0.031 C 
ATOM     69  C   UNL A   1      43.926  32.237  30.455  1.00  0.00     0.031 A 
BRANCH  56  70
ATOM     70  C   UNL A   1      48.695  28.526  29.194  1.00  0.00    -0.014 A 
ATOM     71  C   UNL A   1      49.316  28.037  30.354  1.00  0.00     0.009 A 
ATOM     72  C   UNL A   1      49.477  28.773  28.056  1.00  0.00     0.009 A 
ATOM     73  C   UNL A   1      50.697  27.831  30.383  1.00  0.00     0.001 A 
ATOM     74  C   UNL A   1      50.854  28.541  28.080  1.00  0.00     0.001 A 
ATOM     75  C   UNL A   1      51.463  28.078  29.245  1.00  0.00     0.000 A 
ENDBRANCH  56  70
BRANCH  57  76
ATOM     76  C   UNL A   1      38.763  29.441  29.009  1.00  0.00    -0.014 A 
ATOM     77  C   UNL A   1      38.071  29.803  27.844  1.00  0.00     0.009 A 
ATOM     78  C   UNL A   1      38.036  29.205  30.187  1.00  0.00     0.009 A 
ATOM     79  C   UNL A   1      36.682  29.948  27.863  1.00  0.00     0.001 A 
ATOM     80  C   UNL A   1      36.645  29.326  30.195  1.00  0.00     0.001 A 
ATOM     81  C   UNL A   1      35.970  29.704  29.037  1.00  0.00     0.000 A 
ENDBRANCH  57  76
BRANCH  69  82
ATOM     82  C   UNL A   1      43.938  33.607  31.069  1.00  0.00    -0.014 A 
ATOM     83  C   UNL A   1      43.883  33.775  32.461  1.00  0.00     0.009 A 
ATOM     84  C   UNL A   1      44.046  34.741  30.248  1.00  0.00     0.009 A 
ATOM     85  C   UNL A   1      43.909  35.054  33.018  1.00  0.00     0.001 A 
ATOM     86  C   UNL A   1      44.098  36.017  30.810  1.00  0.00     0.001 A 
ATOM     87  C   UNL A   1      44.022  36.174  32.194  1.00  0.00     0.000 A 
ENDBRANCH  69  82
ENDBRANCH  43  44
ENDBRANCH  35  38
ENDBRANCH  33  34
ENDBRANCH  32  33
ENDBRANCH  31  32
ENDBRANCH   1  31
TORSDOF 17
ENDMDL
MODEL 3
REMARK VINA RESULT:     -11.0      3.312      9.136
REMARK SMILES COc1cccc(CC2(CO)CCN(c3nc(C)ccc3C(=O)NCCCCNC(=O)c3ccc(-c4c5nc(c(-c6ccccc6)c6ccc([nH]6)c(-c6ccccc6)c6nc(c(-c7ccccc7)c7ccc4[nH]7)C=C6)C=C5)cc3)CC2)c1
REMARK SMILES IDX 25 1 24 2 22 3 23 4 21 6 15 7 16 8 17 9 20 10 18 11 19 12
REMARK SMILES IDX 14 13 9 14 12 15 81 16 13 17 80 18 8 19 7 20 3 21 4 22 82 23
REMARK SMILES IDX 5 24 6 25 2 26 1 27 10 28 11 29 26 31 27 32 28 33 29 34
REMARK SMILES IDX 30 35 31 37 32 38 33 39 79 40 34 41 78 42 35 43 36 44 37 45
REMARK SMILES IDX 72 46 38 47 77 48 71 49 73 50 39 51 76 52 70 53 69 54 40 56
REMARK SMILES IDX 62 57 47 58 61 59 48 60 51 61 60 62 74 63 49 64 50 65 59 67
REMARK SMILES IDX 75 68 52 69 41 70 42 71 46 72 43 73 45 74 44 75 63 76 64 77
REMARK SMILES IDX 68 78 65 79 67 80 66 81 53 82 54 83 58 84 55 85 57 86 56 87
REMARK H PARENT 24 5 11 30 29 36 73 55 51 66
REMARK Flexibility Score: inf
ROOT
ATOM      1  C   UNL A   1      33.060  29.423  26.819  1.00  0.00     0.116 C 
ENDROOT
BRANCH   1   2
ATOM      2  N   UNL A   1      33.415  29.282  25.425  1.00  0.00    -0.352 N 
ATOM      3  C   UNL A   1      32.743  29.201  24.230  1.00  0.00     0.255 C 
ATOM      4  O   UNL A   1      33.520  29.160  23.279  1.00  0.00    -0.269 OA
ATOM      5  H   UNL A   1      34.389  29.227  25.300  1.00  0.00     0.163 HD
BRANCH   3   6
ATOM      6  C   UNL A   1      31.249  29.232  24.041  1.00  0.00     0.082 A 
ATOM      7  C   UNL A   1      30.480  28.058  23.872  1.00  0.00     0.141 A 
ATOM      8  N   UNL A   1      29.202  28.126  23.391  1.00  0.00    -0.235 NA
ATOM      9  C   UNL A   1      28.617  29.316  23.156  1.00  0.00     0.040 A 
ATOM     10  C   UNL A   1      30.564  30.449  23.915  1.00  0.00     0.019 A 
ATOM     11  C   UNL A   1      27.232  29.284  22.588  1.00  0.00     0.067 C 
ATOM     12  C   UNL A   1      29.248  30.500  23.458  1.00  0.00     0.024 A 
BRANCH   7  13
ATOM     13  N   UNL A   1      30.833  26.767  24.199  1.00  0.00    -0.356 N 
ATOM     14  C   UNL A   1      31.657  24.217  25.399  1.00  0.00     0.001 C 
ATOM     15  C   UNL A   1      30.344  24.948  25.784  1.00  0.00     0.031 C 
ATOM     16  C   UNL A   1      32.645  25.223  24.756  1.00  0.00     0.031 C 
ATOM     17  C   UNL A   1      29.785  25.933  24.755  1.00  0.00     0.119 C 
ATOM     18  C   UNL A   1      32.032  26.127  23.690  1.00  0.00     0.119 C 
BRANCH  14  19
ATOM     19  C   UNL A   1      31.414  22.925  24.537  1.00  0.00     0.045 C 
BRANCH  19  20
ATOM     20  C   UNL A   1      32.383  21.769  24.603  1.00  0.00    -0.044 A 
ATOM     21  C   UNL A   1      32.885  19.461  25.176  1.00  0.00     0.119 A 
ATOM     22  C   UNL A   1      34.232  19.675  24.898  1.00  0.00     0.046 A 
ATOM     23  C   UNL A   1      31.962  20.502  25.040  1.00  0.00     0.050 A 
ATOM     24  C   UNL A   1      34.648  20.909  24.402  1.00  0.00     0.004 A 
ATOM     25  C   UNL A   1      33.722  21.938  24.227  1.00  0.00     0.004 A 
BRANCH  21  26
ATOM     26  O   UNL A   1      32.541  18.231  25.669  1.00  0.00    -0.497 OA
ATOM     27  C   UNL A   1      33.195  17.177  24.967  1.00  0.00     0.278 C 
ENDBRANCH  21  26
ENDBRANCH  19  20
ENDBRANCH  14  19
BRANCH  14  28
ATOM     28  C   UNL A   1      32.341  23.728  26.714  1.00  0.00     0.163 C 
BRANCH  28  29
ATOM     29  O   UNL A   1      31.399  23.257  27.670  1.00  0.00    -0.396 OA
ATOM     30  H   UNL A   1      31.795  22.539  28.188  1.00  0.00     0.210 HD
ENDBRANCH  28  29
ENDBRANCH  14  28
ENDBRANCH   7  13
ENDBRANCH   3   6
ENDBRANCH   1   2
BRANCH   1  31
ATOM     31  C   UNL A   1      33.406  30.822  27.324  1.00  0.00     0.023 C 
BRANCH  31  32
ATOM     32  C   UNL A   1      32.209  31.781  27.382  1.00  0.00     0.023 C 
BRANCH  32  33
ATOM     33  C   UNL A   1      32.450  33.172  26.795  1.00  0.00     0.116 C 
BRANCH  33  34
ATOM     34  N   UNL A   1      32.309  34.241  27.774  1.00  0.00    -0.352 N 
ATOM     35  C   UNL A   1      33.119  34.551  28.837  1.00  0.00     0.251 C 
ATOM     36  H   UNL A   1      31.522  34.821  27.657  1.00  0.00     0.163 HD
ATOM     37  O   UNL A   1      32.798  35.432  29.629  1.00  0.00    -0.269 OA
BRANCH  35  38
ATOM     38  C   UNL A   1      34.363  33.786  29.045  1.00  0.00     0.039 A 
ATOM     39  C   UNL A   1      35.446  34.024  28.196  1.00  0.00     0.014 A 
ATOM     40  C   UNL A   1      34.471  32.877  30.100  1.00  0.00     0.014 A 
ATOM     41  C   UNL A   1      36.673  33.417  28.462  1.00  0.00     0.010 A 
ATOM     42  C   UNL A   1      35.708  32.314  30.396  1.00  0.00     0.010 A 
ATOM     43  C   UNL A   1      36.825  32.597  29.592  1.00  0.00    -0.014 A 
BRANCH  43  44
ATOM     44  C   UNL A   1      38.156  32.083  29.993  1.00  0.00     0.031 A 
ATOM     45  C   UNL A   1      38.644  30.757  29.491  1.00  0.00     0.074 A 
ATOM     46  C   UNL A   1      38.885  32.780  30.886  1.00  0.00     0.049 A 
ATOM     47  N   UNL A   1      39.742  30.113  29.802  1.00  0.00    -0.248 NA
ATOM     48  C   UNL A   1      37.780  30.051  28.533  1.00  0.00     0.031 C 
ATOM     49  C   UNL A   1      38.497  34.063  31.481  1.00  0.00     0.029 A 
ATOM     50  N   UNL A   1      40.097  32.500  31.465  1.00  0.00    -0.354 N 
ATOM     51  C   UNL A   1      39.693  28.923  29.089  1.00  0.00     0.074 A 
ATOM     52  C   UNL A   1      38.443  28.916  28.360  1.00  0.00     0.031 C 
ATOM     53  C   UNL A   1      39.460  34.464  32.325  1.00  0.00     0.029 A 
ATOM     54  C   UNL A   1      40.509  33.452  32.365  1.00  0.00     0.049 A 
ATOM     55  H   UNL A   1      40.620  31.694  31.255  1.00  0.00     0.167 HD
ATOM     56  C   UNL A   1      40.615  27.932  29.035  1.00  0.00     0.031 A 
ATOM     57  C   UNL A   1      41.603  33.498  33.149  1.00  0.00     0.031 A 
ATOM     58  C   UNL A   1      41.859  27.941  29.758  1.00  0.00     0.049 A 
ATOM     59  C   UNL A   1      42.592  32.369  33.096  1.00  0.00     0.074 A 
ATOM     60  C   UNL A   1      42.888  27.017  29.716  1.00  0.00     0.029 A 
ATOM     61  N   UNL A   1      42.237  28.920  30.664  1.00  0.00    -0.354 N 
ATOM     62  N   UNL A   1      42.570  31.287  32.356  1.00  0.00    -0.248 NA
ATOM     63  C   UNL A   1      43.758  32.470  33.986  1.00  0.00     0.031 C 
ATOM     64  C   UNL A   1      43.866  27.409  30.636  1.00  0.00     0.029 A 
ATOM     65  C   UNL A   1      43.467  28.603  31.215  1.00  0.00     0.049 A 
ATOM     66  H   UNL A   1      41.709  29.721  30.884  1.00  0.00     0.167 HD
ATOM     67  C   UNL A   1      43.722  30.585  32.681  1.00  0.00     0.074 A 
ATOM     68  C   UNL A   1      44.432  31.374  33.668  1.00  0.00     0.031 C 
ATOM     69  C   UNL A   1      44.152  29.391  32.207  1.00  0.00     0.031 A 
BRANCH  56  70
ATOM     70  C   UNL A   1      40.304  26.743  28.170  1.00  0.00    -0.014 A 
ATOM     71  C   UNL A   1      39.490  25.700  28.638  1.00  0.00     0.009 A 
ATOM     72  C   UNL A   1      40.799  26.685  26.859  1.00  0.00     0.009 A 
ATOM     73  C   UNL A   1      39.204  24.606  27.818  1.00  0.00     0.001 A 
ATOM     74  C   UNL A   1      40.490  25.603  26.033  1.00  0.00     0.001 A 
ATOM     75  C   UNL A   1      39.700  24.561  26.516  1.00  0.00     0.000 A 
ENDBRANCH  56  70
BRANCH  57  76
ATOM     76  C   UNL A   1      41.817  34.652  34.059  1.00  0.00    -0.014 A 
ATOM     77  C   UNL A   1      41.294  34.637  35.361  1.00  0.00     0.009 A 
ATOM     78  C   UNL A   1      42.543  35.775  33.630  1.00  0.00     0.009 A 
ATOM     79  C   UNL A   1      41.476  35.733  36.208  1.00  0.00     0.001 A 
ATOM     80  C   UNL A   1      42.744  36.857  34.488  1.00  0.00     0.001 A 
ATOM     81  C   UNL A   1      42.205  36.840  35.773  1.00  0.00     0.000 A 
ENDBRANCH  57  76
BRANCH  69  82
ATOM     82  C   UNL A   1      45.454  28.871  32.744  1.00  0.00    -0.014 A 
ATOM     83  C   UNL A   1      45.485  28.015  33.857  1.00  0.00     0.009 A 
ATOM     84  C   UNL A   1      46.659  29.207  32.108  1.00  0.00     0.009 A 
ATOM     85  C   UNL A   1      46.701  27.528  34.337  1.00  0.00     0.001 A 
ATOM     86  C   UNL A   1      47.871  28.698  32.574  1.00  0.00     0.001 A 
ATOM     87  C   UNL A   1      47.892  27.865  33.693  1.00  0.00     0.000 A 
ENDBRANCH  69  82
ENDBRANCH  43  44
ENDBRANCH  35  38
ENDBRANCH  33  34
ENDBRANCH  32  33
ENDBRANCH  31  32
ENDBRANCH   1  31
TORSDOF 17
ENDMDL
