MODEL 1
REMARK VINA RESULT:      -9.6      0.000      0.000
REMARK SMILES O=C(Cc1ccc(-c2ccn(C(F)F)c(=O)c2)cc1)NCCCCNC(=O)c1ccc(-c2c3nc(c(-c4ccccc4)c4ccc([nH]4)c(-c4ccccc4)c4nc(c(-c5ccccc5)c5ccc2[nH]5)C=C4)C=C3)cc1
REMARK SMILES IDX 22 1 21 2 20 3 1 4 2 5 3 7 4 8 5 9 19 10 6 11 18 12 7 13
REMARK SMILES IDX 8 14 9 15 17 16 10 17 15 18 11 19 16 20 12 21 13 22 14 23
REMARK SMILES IDX 23 24 24 25 25 26 26 27 27 29 28 30 29 31 75 32 30 33 74 34
REMARK SMILES IDX 31 35 32 36 33 37 68 38 34 39 73 40 67 41 69 42 35 43 72 44
REMARK SMILES IDX 66 45 65 46 36 48 58 49 43 50 57 51 44 52 47 53 56 54 70 55
REMARK SMILES IDX 45 56 46 57 55 59 71 60 48 61 37 62 38 63 42 64 39 65 41 66
REMARK SMILES IDX 40 67 59 68 60 69 64 70 61 71 63 72 62 73 49 74 50 75 54 76
REMARK SMILES IDX 51 77 53 78 52 79
REMARK H PARENT 20 6 25 28 69 47 47 58
REMARK Flexibility Score: inf
ROOT
ATOM      1  C   UNL A   1      33.159  37.354  31.749  1.00  0.00     0.023 C 
ENDROOT
BRANCH   1   2
ATOM      2  C   UNL A   1      33.857  37.191  33.096  1.00  0.00     0.116 C 
BRANCH   2   3
ATOM      3  N   UNL A   1      33.922  35.812  33.532  1.00  0.00    -0.356 N 
ATOM      4  O   UNL A   1      36.122  35.498  32.939  1.00  0.00    -0.275 OA
ATOM      5  C   UNL A   1      35.095  35.083  33.465  1.00  0.00     0.224 C 
ATOM      6  H   UNL A   1      33.109  35.381  33.885  1.00  0.00     0.163 HD
BRANCH   5   7
ATOM      7  C   UNL A   1      35.013  33.727  34.146  1.00  0.00     0.135 C 
BRANCH   7   8
ATOM      8  C   UNL A   1      36.350  33.086  34.457  1.00  0.00    -0.039 A 
ATOM      9  C   UNL A   1      37.141  33.465  35.553  1.00  0.00     0.005 A 
ATOM     10  C   UNL A   1      36.789  32.017  33.660  1.00  0.00     0.005 A 
ATOM     11  C   UNL A   1      38.331  32.795  35.845  1.00  0.00     0.009 A 
ATOM     12  C   UNL A   1      37.982  31.349  33.950  1.00  0.00     0.009 A 
ATOM     13  C   UNL A   1      38.756  31.726  35.052  1.00  0.00    -0.018 A 
BRANCH  13  14
ATOM     14  C   UNL A   1      39.993  30.997  35.377  1.00  0.00    -0.011 A 
ATOM     15  C   UNL A   1      40.430  29.823  34.648  1.00  0.00     0.027 A 
ATOM     16  C   UNL A   1      40.730  31.439  36.410  1.00  0.00     0.080 A 
ATOM     17  C   UNL A   1      41.542  29.174  35.012  1.00  0.00     0.095 A 
ATOM     18  C   UNL A   1      41.974  30.735  36.819  1.00  0.00     0.255 A 
ATOM     19  N   UNL A   1      42.304  29.610  36.081  1.00  0.00    -0.258 N 
ATOM     20  O   UNL A   1      42.613  31.182  37.769  1.00  0.00    -0.269 OA
BRANCH  19  21
ATOM     21  C   UNL A   1      43.481  28.886  36.485  1.00  0.00     0.451 C 
ATOM     22  F   UNL A   1      43.504  27.645  35.941  1.00  0.00    -0.185 F 
ATOM     23  F   UNL A   1      44.605  29.537  36.096  1.00  0.00    -0.185 F 
ENDBRANCH  19  21
ENDBRANCH  13  14
ENDBRANCH   7   8
ENDBRANCH   5   7
ENDBRANCH   2   3
ENDBRANCH   1   2
BRANCH   1  24
ATOM     24  C   UNL A   1      33.016  36.073  30.919  1.00  0.00     0.023 C 
BRANCH  24  25
ATOM     25  C   UNL A   1      33.333  36.212  29.432  1.00  0.00     0.116 C 
BRANCH  25  26
ATOM     26  N   UNL A   1      32.587  35.274  28.609  1.00  0.00    -0.352 N 
ATOM     27  C   UNL A   1      32.967  34.060  28.092  1.00  0.00     0.251 C 
ATOM     28  H   UNL A   1      31.669  35.552  28.389  1.00  0.00     0.163 HD
ATOM     29  O   UNL A   1      32.239  33.490  27.278  1.00  0.00    -0.269 OA
BRANCH  27  30
ATOM     30  C   UNL A   1      34.254  33.439  28.478  1.00  0.00     0.039 A 
ATOM     31  C   UNL A   1      35.384  33.689  27.693  1.00  0.00     0.014 A 
ATOM     32  C   UNL A   1      34.352  32.595  29.587  1.00  0.00     0.014 A 
ATOM     33  C   UNL A   1      36.622  33.154  28.061  1.00  0.00     0.010 A 
ATOM     34  C   UNL A   1      35.599  32.119  29.992  1.00  0.00     0.010 A 
ATOM     35  C   UNL A   1      36.748  32.395  29.236  1.00  0.00    -0.014 A 
BRANCH  35  36
ATOM     36  C   UNL A   1      38.072  31.898  29.695  1.00  0.00     0.031 A 
ATOM     37  C   UNL A   1      38.593  30.565  29.228  1.00  0.00     0.074 A 
ATOM     38  C   UNL A   1      38.782  32.617  30.587  1.00  0.00     0.049 A 
ATOM     39  N   UNL A   1      39.697  29.946  29.567  1.00  0.00    -0.248 NA
ATOM     40  C   UNL A   1      37.756  29.823  28.274  1.00  0.00     0.031 C 
ATOM     41  C   UNL A   1      38.380  33.909  31.146  1.00  0.00     0.029 A 
ATOM     42  N   UNL A   1      39.990  32.358  31.186  1.00  0.00    -0.354 N 
ATOM     43  C   UNL A   1      39.675  28.735  28.887  1.00  0.00     0.074 A 
ATOM     44  C   UNL A   1      38.431  28.689  28.148  1.00  0.00     0.031 C 
ATOM     45  C   UNL A   1      39.336  34.341  31.984  1.00  0.00     0.029 A 
ATOM     46  C   UNL A   1      40.397  33.341  32.055  1.00  0.00     0.049 A 
ATOM     47  H   UNL A   1      40.516  31.544  31.008  1.00  0.00     0.167 HD
ATOM     48  C   UNL A   1      40.610  27.755  28.865  1.00  0.00     0.031 A 
ATOM     49  C   UNL A   1      41.494  33.427  32.830  1.00  0.00     0.031 A 
ATOM     50  C   UNL A   1      41.852  27.800  29.589  1.00  0.00     0.049 A 
ATOM     51  C   UNL A   1      42.508  32.316  32.803  1.00  0.00     0.074 A 
ATOM     52  C   UNL A   1      42.889  26.882  29.578  1.00  0.00     0.029 A 
ATOM     53  N   UNL A   1      42.222  28.811  30.460  1.00  0.00    -0.354 N 
ATOM     54  N   UNL A   1      42.504  31.212  32.098  1.00  0.00    -0.248 NA
ATOM     55  C   UNL A   1      43.681  32.472  33.675  1.00  0.00     0.031 C 
ATOM     56  C   UNL A   1      43.865  27.314  30.483  1.00  0.00     0.029 A 
ATOM     57  C   UNL A   1      43.460  28.528  31.013  1.00  0.00     0.049 A 
ATOM     58  H   UNL A   1      41.686  29.613  30.656  1.00  0.00     0.167 HD
ATOM     59  C   UNL A   1      43.686  30.555  32.417  1.00  0.00     0.074 A 
ATOM     60  C   UNL A   1      44.387  31.392  33.369  1.00  0.00     0.031 C 
ATOM     61  C   UNL A   1      44.149  29.367  31.960  1.00  0.00     0.031 A 
BRANCH  48  62
ATOM     62  C   UNL A   1      40.317  26.537  28.032  1.00  0.00    -0.014 A 
ATOM     63  C   UNL A   1      40.811  26.410  26.724  1.00  0.00     0.009 A 
ATOM     64  C   UNL A   1      39.566  25.484  28.578  1.00  0.00     0.009 A 
ATOM     65  C   UNL A   1      40.528  25.272  25.967  1.00  0.00     0.001 A 
ATOM     66  C   UNL A   1      39.308  24.334  27.829  1.00  0.00     0.001 A 
ATOM     67  C   UNL A   1      39.782  24.232  26.522  1.00  0.00     0.000 A 
ENDBRANCH  48  62
BRANCH  49  68
ATOM     68  C   UNL A   1      41.707  34.620  33.691  1.00  0.00    -0.014 A 
ATOM     69  C   UNL A   1      41.061  34.724  34.931  1.00  0.00     0.009 A 
ATOM     70  C   UNL A   1      42.547  35.664  33.274  1.00  0.00     0.009 A 
ATOM     71  C   UNL A   1      41.231  35.859  35.727  1.00  0.00     0.001 A 
ATOM     72  C   UNL A   1      42.738  36.786  34.083  1.00  0.00     0.001 A 
ATOM     73  C   UNL A   1      42.073  36.887  35.303  1.00  0.00     0.000 A 
ENDBRANCH  49  68
BRANCH  61  74
ATOM     74  C   UNL A   1      45.495  28.916  32.454  1.00  0.00    -0.014 A 
ATOM     75  C   UNL A   1      46.682  29.440  31.919  1.00  0.00     0.009 A 
ATOM     76  C   UNL A   1      45.573  27.982  33.498  1.00  0.00     0.009 A 
ATOM     77  C   UNL A   1      47.922  29.009  32.399  1.00  0.00     0.001 A 
ATOM     78  C   UNL A   1      46.812  27.576  33.996  1.00  0.00     0.001 A 
ATOM     79  C   UNL A   1      47.984  28.082  33.439  1.00  0.00     0.000 A 
ENDBRANCH  61  74
ENDBRANCH  35  36
ENDBRANCH  27  30
ENDBRANCH  25  26
ENDBRANCH  24  25
ENDBRANCH   1  24
TORSDOF 14
ENDMDL
MODEL 2
REMARK VINA RESULT:      -9.4      0.380      5.955
REMARK SMILES O=C(Cc1ccc(-c2ccn(C(F)F)c(=O)c2)cc1)NCCCCNC(=O)c1ccc(-c2c3nc(c(-c4ccccc4)c4ccc([nH]4)c(-c4ccccc4)c4nc(c(-c5ccccc5)c5ccc2[nH]5)C=C4)C=C3)cc1
REMARK SMILES IDX 22 1 21 2 20 3 1 4 2 5 3 7 4 8 5 9 19 10 6 11 18 12 7 13
REMARK SMILES IDX 8 14 9 15 17 16 10 17 15 18 11 19 16 20 12 21 13 22 14 23
REMARK SMILES IDX 23 24 24 25 25 26 26 27 27 29 28 30 29 31 75 32 30 33 74 34
REMARK SMILES IDX 31 35 32 36 33 37 68 38 34 39 73 40 67 41 69 42 35 43 72 44
REMARK SMILES IDX 66 45 65 46 36 48 58 49 43 50 57 51 44 52 47 53 56 54 70 55
REMARK SMILES IDX 45 56 46 57 55 59 71 60 48 61 37 62 38 63 42 64 39 65 41 66
REMARK SMILES IDX 40 67 59 68 60 69 64 70 61 71 63 72 62 73 49 74 50 75 54 76
REMARK SMILES IDX 51 77 53 78 52 79
REMARK H PARENT 20 6 25 28 69 47 47 58
REMARK Flexibility Score: inf
ROOT
ATOM      1  C   UNL A   1      33.177  37.290  31.780  1.00  0.00     0.023 C 
ENDROOT
BRANCH   1   2
ATOM      2  C   UNL A   1      33.891  37.152  33.121  1.00  0.00     0.116 C 
BRANCH   2   3
ATOM      3  N   UNL A   1      33.998  35.776  33.561  1.00  0.00    -0.356 N 
ATOM      4  O   UNL A   1      36.190  35.509  32.918  1.00  0.00    -0.275 OA
ATOM      5  C   UNL A   1      35.185  35.074  33.470  1.00  0.00     0.224 C 
ATOM      6  H   UNL A   1      33.203  35.329  33.935  1.00  0.00     0.163 HD
BRANCH   5   7
ATOM      7  C   UNL A   1      35.150  33.719  34.158  1.00  0.00     0.135 C 
BRANCH   7   8
ATOM      8  C   UNL A   1      36.508  33.124  34.467  1.00  0.00    -0.039 A 
ATOM      9  C   UNL A   1      37.381  33.670  35.421  1.00  0.00     0.005 A 
ATOM     10  C   UNL A   1      36.885  31.933  33.827  1.00  0.00     0.005 A 
ATOM     11  C   UNL A   1      38.591  33.044  35.727  1.00  0.00     0.009 A 
ATOM     12  C   UNL A   1      38.098  31.308  34.131  1.00  0.00     0.009 A 
ATOM     13  C   UNL A   1      38.955  31.854  35.092  1.00  0.00    -0.018 A 
BRANCH  13  14
ATOM     14  C   UNL A   1      40.215  31.174  35.437  1.00  0.00    -0.011 A 
ATOM     15  C   UNL A   1      40.628  29.925  34.829  1.00  0.00     0.027 A 
ATOM     16  C   UNL A   1      40.998  31.739  36.373  1.00  0.00     0.080 A 
ATOM     17  C   UNL A   1      41.764  29.329  35.211  1.00  0.00     0.095 A 
ATOM     18  C   UNL A   1      42.269  31.094  36.798  1.00  0.00     0.255 A 
ATOM     19  N   UNL A   1      42.573  29.892  36.181  1.00  0.00    -0.258 N 
ATOM     20  O   UNL A   1      42.949  31.653  37.655  1.00  0.00    -0.269 OA
BRANCH  19  21
ATOM     21  C   UNL A   1      43.777  29.227  36.607  1.00  0.00     0.451 C 
ATOM     22  F   UNL A   1      43.520  27.959  37.011  1.00  0.00    -0.185 F 
ATOM     23  F   UNL A   1      44.680  29.171  35.597  1.00  0.00    -0.185 F 
ENDBRANCH  19  21
ENDBRANCH  13  14
ENDBRANCH   7   8
ENDBRANCH   5   7
ENDBRANCH   2   3
ENDBRANCH   1   2
BRANCH   1  24
ATOM     24  C   UNL A   1      33.360  36.119  30.808  1.00  0.00     0.023 C 
BRANCH  24  25
ATOM     25  C   UNL A   1      33.225  36.462  29.328  1.00  0.00     0.116 C 
BRANCH  25  26
ATOM     26  N   UNL A   1      32.580  35.408  28.563  1.00  0.00    -0.352 N 
ATOM     27  C   UNL A   1      33.059  34.181  28.174  1.00  0.00     0.251 C 
ATOM     28  H   UNL A   1      31.657  35.603  28.280  1.00  0.00     0.163 HD
ATOM     29  O   UNL A   1      32.409  33.494  27.386  1.00  0.00    -0.269 OA
BRANCH  27  30
ATOM     30  C   UNL A   1      34.363  33.684  28.669  1.00  0.00     0.039 A 
ATOM     31  C   UNL A   1      34.392  32.919  29.839  1.00  0.00     0.014 A 
ATOM     32  C   UNL A   1      35.557  33.985  28.007  1.00  0.00     0.014 A 
ATOM     33  C   UNL A   1      35.603  32.397  30.303  1.00  0.00     0.010 A 
ATOM     34  C   UNL A   1      36.753  33.408  28.430  1.00  0.00     0.010 A 
ATOM     35  C   UNL A   1      36.790  32.605  29.581  1.00  0.00    -0.014 A 
BRANCH  35  36
ATOM     36  C   UNL A   1      38.070  31.980  30.005  1.00  0.00     0.031 A 
ATOM     37  C   UNL A   1      39.005  32.705  30.934  1.00  0.00     0.074 A 
ATOM     38  C   UNL A   1      38.426  30.781  29.501  1.00  0.00     0.049 A 
ATOM     39  N   UNL A   1      40.188  32.340  31.365  1.00  0.00    -0.248 NA
ATOM     40  C   UNL A   1      38.565  34.019  31.427  1.00  0.00     0.031 C 
ATOM     41  C   UNL A   1      37.629  29.983  28.567  1.00  0.00     0.029 A 
ATOM     42  N   UNL A   1      39.556  30.027  29.701  1.00  0.00    -0.354 N 
ATOM     43  C   UNL A   1      40.640  33.387  32.159  1.00  0.00     0.074 A 
ATOM     44  C   UNL A   1      39.624  34.417  32.117  1.00  0.00     0.031 C 
ATOM     45  C   UNL A   1      38.282  28.842  28.297  1.00  0.00     0.029 A 
ATOM     46  C   UNL A   1      39.560  28.844  29.002  1.00  0.00     0.049 A 
ATOM     47  H   UNL A   1      40.293  30.307  30.291  1.00  0.00     0.167 HD
ATOM     48  C   UNL A   1      41.789  33.480  32.870  1.00  0.00     0.031 A 
ATOM     49  C   UNL A   1      40.489  27.872  28.929  1.00  0.00     0.031 A 
ATOM     50  C   UNL A   1      42.798  32.456  32.923  1.00  0.00     0.049 A 
ATOM     51  C   UNL A   1      41.765  28.008  29.712  1.00  0.00     0.074 A 
ATOM     52  C   UNL A   1      43.966  32.435  33.667  1.00  0.00     0.029 A 
ATOM     53  N   UNL A   1      42.764  31.276  32.198  1.00  0.00    -0.354 N 
ATOM     54  N   UNL A   1      42.143  28.972  30.514  1.00  0.00    -0.248 NA
ATOM     55  C   UNL A   1      42.738  26.913  29.585  1.00  0.00     0.031 C 
ATOM     56  C   UNL A   1      44.664  31.264  33.352  1.00  0.00     0.029 A 
ATOM     57  C   UNL A   1      43.903  30.530  32.456  1.00  0.00     0.049 A 
ATOM     58  H   UNL A   1      42.038  31.006  31.591  1.00  0.00     0.167 HD
ATOM     59  C   UNL A   1      43.383  28.589  31.010  1.00  0.00     0.074 A 
ATOM     60  C   UNL A   1      43.685  27.297  30.428  1.00  0.00     0.031 C 
ATOM     61  C   UNL A   1      44.194  29.247  31.872  1.00  0.00     0.031 A 
BRANCH  48  62
ATOM     62  C   UNL A   1      42.022  34.747  33.646  1.00  0.00    -0.014 A 
ATOM     63  C   UNL A   1      42.768  35.807  33.106  1.00  0.00     0.009 A 
ATOM     64  C   UNL A   1      41.456  34.899  34.922  1.00  0.00     0.009 A 
ATOM     65  C   UNL A   1      42.974  36.976  33.842  1.00  0.00     0.001 A 
ATOM     66  C   UNL A   1      41.639  36.079  35.644  1.00  0.00     0.001 A 
ATOM     67  C   UNL A   1      42.405  37.113  35.108  1.00  0.00     0.000 A 
ENDBRANCH  48  62
BRANCH  49  68
ATOM     68  C   UNL A   1      40.243  26.668  28.092  1.00  0.00    -0.014 A 
ATOM     69  C   UNL A   1      40.774  26.585  26.796  1.00  0.00     0.009 A 
ATOM     70  C   UNL A   1      39.469  25.603  28.578  1.00  0.00     0.009 A 
ATOM     71  C   UNL A   1      40.516  25.471  25.995  1.00  0.00     0.001 A 
ATOM     72  C   UNL A   1      39.236  24.477  27.785  1.00  0.00     0.001 A 
ATOM     73  C   UNL A   1      39.751  24.417  26.492  1.00  0.00     0.000 A 
ENDBRANCH  49  68
BRANCH  61  74
ATOM     74  C   UNL A   1      45.474  28.565  32.269  1.00  0.00    -0.014 A 
ATOM     75  C   UNL A   1      45.476  27.473  33.150  1.00  0.00     0.009 A 
ATOM     76  C   UNL A   1      46.690  29.000  31.722  1.00  0.00     0.009 A 
ATOM     77  C   UNL A   1      46.678  26.852  33.501  1.00  0.00     0.001 A 
ATOM     78  C   UNL A   1      47.886  28.359  32.051  1.00  0.00     0.001 A 
ATOM     79  C   UNL A   1      47.879  27.292  32.947  1.00  0.00     0.000 A 
ENDBRANCH  61  74
ENDBRANCH  35  36
ENDBRANCH  27  30
ENDBRANCH  25  26
ENDBRANCH  24  25
ENDBRANCH   1  24
TORSDOF 14
ENDMDL
MODEL 3
REMARK VINA RESULT:      -8.2      8.299     13.692
REMARK SMILES O=C(Cc1ccc(-c2ccn(C(F)F)c(=O)c2)cc1)NCCCCNC(=O)c1ccc(-c2c3nc(c(-c4ccccc4)c4ccc([nH]4)c(-c4ccccc4)c4nc(c(-c5ccccc5)c5ccc2[nH]5)C=C4)C=C3)cc1
REMARK SMILES IDX 22 1 21 2 20 3 1 4 2 5 3 7 4 8 5 9 19 10 6 11 18 12 7 13
REMARK SMILES IDX 8 14 9 15 17 16 10 17 15 18 11 19 16 20 12 21 13 22 14 23
REMARK SMILES IDX 23 24 24 25 25 26 26 27 27 29 28 30 29 31 75 32 30 33 74 34
REMARK SMILES IDX 31 35 32 36 33 37 68 38 34 39 73 40 67 41 69 42 35 43 72 44
REMARK SMILES IDX 66 45 65 46 36 48 58 49 43 50 57 51 44 52 47 53 56 54 70 55
REMARK SMILES IDX 45 56 46 57 55 59 71 60 48 61 37 62 38 63 42 64 39 65 41 66
REMARK SMILES IDX 40 67 59 68 60 69 64 70 61 71 63 72 62 73 49 74 50 75 54 76
REMARK SMILES IDX 51 77 53 78 52 79
REMARK H PARENT 20 6 25 28 69 47 47 58
REMARK Flexibility Score: inf
ROOT
ATOM      1  C   UNL A   1      45.678  19.860  24.537  1.00  0.00     0.023 C 
ENDROOT
BRANCH   1   2
ATOM      2  C   UNL A   1      44.327  19.214  24.243  1.00  0.00     0.116 C 
BRANCH   2   3
ATOM      3  N   UNL A   1      43.258  19.752  25.056  1.00  0.00    -0.356 N 
ATOM      4  O   UNL A   1      42.615  17.729  25.941  1.00  0.00    -0.275 OA
ATOM      5  C   UNL A   1      42.511  18.950  25.899  1.00  0.00     0.224 C 
ATOM      6  H   UNL A   1      43.056  20.715  25.008  1.00  0.00     0.163 HD
BRANCH   5   7
ATOM      7  C   UNL A   1      41.572  19.724  26.810  1.00  0.00     0.135 C 
BRANCH   7   8
ATOM      8  C   UNL A   1      40.277  20.168  26.162  1.00  0.00    -0.039 A 
ATOM      9  C   UNL A   1      39.400  19.280  25.521  1.00  0.00     0.005 A 
ATOM     10  C   UNL A   1      39.896  21.515  26.270  1.00  0.00     0.005 A 
ATOM     11  C   UNL A   1      38.180  19.722  25.004  1.00  0.00     0.009 A 
ATOM     12  C   UNL A   1      38.676  21.959  25.749  1.00  0.00     0.009 A 
ATOM     13  C   UNL A   1      37.805  21.062  25.123  1.00  0.00    -0.018 A 
BRANCH  13  14
ATOM     14  C   UNL A   1      36.505  21.525  24.609  1.00  0.00    -0.011 A 
ATOM     15  C   UNL A   1      36.367  22.675  23.737  1.00  0.00     0.027 A 
ATOM     16  C   UNL A   1      35.404  20.855  24.989  1.00  0.00     0.080 A 
ATOM     17  C   UNL A   1      35.156  23.077  23.332  1.00  0.00     0.095 A 
ATOM     18  C   UNL A   1      34.053  21.283  24.538  1.00  0.00     0.255 A 
ATOM     19  N   UNL A   1      34.013  22.403  23.725  1.00  0.00    -0.258 N 
ATOM     20  O   UNL A   1      33.079  20.633  24.912  1.00  0.00    -0.269 OA
BRANCH  19  21
ATOM     21  C   UNL A   1      32.714  22.864  23.311  1.00  0.00     0.451 C 
ATOM     22  F   UNL A   1      32.749  24.167  22.943  1.00  0.00    -0.185 F 
ATOM     23  F   UNL A   1      32.260  22.142  22.256  1.00  0.00    -0.185 F 
ENDBRANCH  19  21
ENDBRANCH  13  14
ENDBRANCH   7   8
ENDBRANCH   5   7
ENDBRANCH   2   3
ENDBRANCH   1   2
BRANCH   1  24
ATOM     24  C   UNL A   1      45.672  21.390  24.632  1.00  0.00     0.023 C 
BRANCH  24  25
ATOM     25  C   UNL A   1      45.695  21.964  26.045  1.00  0.00     0.116 C 
BRANCH  25  26
ATOM     26  N   UNL A   1      44.364  22.202  26.578  1.00  0.00    -0.352 N 
ATOM     27  C   UNL A   1      43.790  23.366  27.027  1.00  0.00     0.251 C 
ATOM     28  H   UNL A   1      43.785  21.408  26.622  1.00  0.00     0.163 HD
ATOM     29  O   UNL A   1      42.698  23.327  27.595  1.00  0.00    -0.269 OA
BRANCH  27  30
ATOM     30  C   UNL A   1      44.479  24.666  26.863  1.00  0.00     0.039 A 
ATOM     31  C   UNL A   1      45.095  25.246  27.976  1.00  0.00     0.014 A 
ATOM     32  C   UNL A   1      44.502  25.329  25.633  1.00  0.00     0.014 A 
ATOM     33  C   UNL A   1      45.794  26.450  27.840  1.00  0.00     0.010 A 
ATOM     34  C   UNL A   1      45.256  26.492  25.482  1.00  0.00     0.010 A 
ATOM     35  C   UNL A   1      45.913  27.064  26.583  1.00  0.00    -0.014 A 
BRANCH  35  36
ATOM     36  C   UNL A   1      46.730  28.292  26.399  1.00  0.00     0.031 A 
ATOM     37  C   UNL A   1      48.213  28.195  26.160  1.00  0.00     0.074 A 
ATOM     38  C   UNL A   1      46.150  29.503  26.513  1.00  0.00     0.049 A 
ATOM     39  N   UNL A   1      49.093  29.158  26.035  1.00  0.00    -0.248 NA
ATOM     40  C   UNL A   1      48.785  26.843  26.071  1.00  0.00     0.031 C 
ATOM     41  C   UNL A   1      44.729  29.742  26.775  1.00  0.00     0.029 A 
ATOM     42  N   UNL A   1      46.687  30.764  26.429  1.00  0.00    -0.354 N 
ATOM     43  C   UNL A   1      50.321  28.529  25.876  1.00  0.00     0.074 A 
ATOM     44  C   UNL A   1      50.079  27.104  25.960  1.00  0.00     0.031 C 
ATOM     45  C   UNL A   1      44.504  31.065  26.803  1.00  0.00     0.029 A 
ATOM     46  C   UNL A   1      45.767  31.769  26.605  1.00  0.00     0.049 A 
ATOM     47  H   UNL A   1      47.643  30.932  26.258  1.00  0.00     0.167 HD
ATOM     48  C   UNL A   1      51.539  29.082  25.663  1.00  0.00     0.031 A 
ATOM     49  C   UNL A   1      45.920  33.107  26.613  1.00  0.00     0.031 A 
ATOM     50  C   UNL A   1      51.785  30.497  25.568  1.00  0.00     0.049 A 
ATOM     51  C   UNL A   1      47.286  33.696  26.395  1.00  0.00     0.074 A 
ATOM     52  C   UNL A   1      52.975  31.148  25.292  1.00  0.00     0.029 A 
ATOM     53  N   UNL A   1      50.825  31.479  25.755  1.00  0.00    -0.354 N 
ATOM     54  N   UNL A   1      48.423  33.085  26.174  1.00  0.00    -0.248 NA
ATOM     55  C   UNL A   1      47.383  35.163  26.420  1.00  0.00     0.031 C 
ATOM     56  C   UNL A   1      52.746  32.526  25.363  1.00  0.00     0.029 A 
ATOM     57  C   UNL A   1      51.402  32.732  25.627  1.00  0.00     0.049 A 
ATOM     58  H   UNL A   1      49.875  31.311  25.949  1.00  0.00     0.167 HD
ATOM     59  C   UNL A   1      49.366  34.091  26.004  1.00  0.00     0.074 A 
ATOM     60  C   UNL A   1      48.664  35.351  26.134  1.00  0.00     0.031 C 
ATOM     61  C   UNL A   1      50.694  33.979  25.758  1.00  0.00     0.031 A 
BRANCH  48  62
ATOM     62  C   UNL A   1      52.710  28.148  25.529  1.00  0.00    -0.014 A 
ATOM     63  C   UNL A   1      53.441  27.727  26.651  1.00  0.00     0.009 A 
ATOM     64  C   UNL A   1      53.065  27.652  24.264  1.00  0.00     0.009 A 
ATOM     65  C   UNL A   1      54.525  26.859  26.506  1.00  0.00     0.001 A 
ATOM     66  C   UNL A   1      54.132  26.762  24.125  1.00  0.00     0.001 A 
ATOM     67  C   UNL A   1      54.866  26.373  25.244  1.00  0.00     0.000 A 
ENDBRANCH  48  62
BRANCH  49  68
ATOM     68  C   UNL A   1      44.742  33.990  26.820  1.00  0.00    -0.014 A 
ATOM     69  C   UNL A   1      44.355  34.363  28.116  1.00  0.00     0.009 A 
ATOM     70  C   UNL A   1      43.994  34.455  25.728  1.00  0.00     0.009 A 
ATOM     71  C   UNL A   1      43.228  35.164  28.315  1.00  0.00     0.001 A 
ATOM     72  C   UNL A   1      42.885  35.279  25.928  1.00  0.00     0.001 A 
ATOM     73  C   UNL A   1      42.497  35.625  27.221  1.00  0.00     0.000 A 
ENDBRANCH  49  68
BRANCH  61  74
ATOM     74  C   UNL A   1      51.470  35.253  25.577  1.00  0.00    -0.014 A 
ATOM     75  C   UNL A   1      52.047  35.919  26.670  1.00  0.00     0.009 A 
ATOM     76  C   UNL A   1      51.659  35.773  24.288  1.00  0.00     0.009 A 
ATOM     77  C   UNL A   1      52.768  37.100  26.476  1.00  0.00     0.001 A 
ATOM     78  C   UNL A   1      52.406  36.936  24.093  1.00  0.00     0.001 A 
ATOM     79  C   UNL A   1      52.952  37.603  25.189  1.00  0.00     0.000 A 
ENDBRANCH  61  74
ENDBRANCH  35  36
ENDBRANCH  27  30
ENDBRANCH  25  26
ENDBRANCH  24  25
ENDBRANCH   1  24
TORSDOF 14
ENDMDL
