MODEL 1
REMARK VINA RESULT:     -10.1      0.000      0.000
REMARK SMILES CC(C)C[C@H](NC(=O)CNC(=O)[C@@H](NC(=O)OCc1ccccc1)C(C)C)C(=O)NCCCCNC(=O)c1ccc(-c2c3nc(c(-c4ccccc4)c4ccc([nH]4)c(-c4ccccc4)c4nc(c(-c5ccccc5)c5ccc2[nH]5)C=C4)C=C3)cc1
REMARK SMILES IDX 28 1 29 2 30 3 5 5 4 6 2 7 1 8 3 9 6 10 7 11 8 13 9 14 10 15
REMARK SMILES IDX 11 16 12 18 13 19 14 20 15 21 16 23 17 24 18 25 19 26 20 27
REMARK SMILES IDX 24 28 21 29 23 30 22 31 25 32 26 33 27 34 31 35 32 36 33 37
REMARK SMILES IDX 34 38 35 39 36 40 37 42 38 43 39 44 85 45 40 46 84 47 41 48
REMARK SMILES IDX 42 49 43 50 78 51 44 52 83 53 77 54 79 55 45 56 82 57 76 58
REMARK SMILES IDX 75 59 46 61 68 62 53 63 67 64 54 65 57 66 66 67 80 68 55 69
REMARK SMILES IDX 56 70 65 72 81 73 58 74 47 75 48 76 52 77 49 78 51 79 50 80
REMARK SMILES IDX 69 81 70 82 74 83 71 84 73 85 72 86 59 87 60 88 64 89 61 90
REMARK SMILES IDX 63 91 62 92
REMARK H PARENT 30 4 6 12 10 17 14 22 35 41 79 60 57 71
REMARK Flexibility Score: inf
ROOT
ATOM      1  C   UNL A   1      32.547  27.140  25.465  1.00  0.00     0.242 C 
ATOM      2  O   UNL A   1      33.711  27.140  25.062  1.00  0.00    -0.273 OA
ATOM      3  N   UNL A   1      32.310  27.467  26.807  1.00  0.00    -0.354 N 
ATOM      4  H   UNL A   1      32.541  26.795  27.489  1.00  0.00     0.163 HD
ENDROOT
BRANCH   1   5
ATOM      5  C   UNL A   1      31.378  26.436  24.672  1.00  0.00     0.171 C 
BRANCH   5   6
ATOM      6  C   UNL A   1      30.956  24.964  24.968  1.00  0.00     0.038 C 
BRANCH   6   7
ATOM      7  C   UNL A   1      31.056  24.393  26.439  1.00  0.00    -0.015 C 
ATOM      8  C   UNL A   1      30.038  23.280  26.765  1.00  0.00     0.007 C 
ATOM      9  C   UNL A   1      32.411  23.789  26.786  1.00  0.00     0.007 C 
ENDBRANCH   6   7
ENDBRANCH   5   6
BRANCH   5  10
ATOM     10  N   UNL A   1      31.595  26.610  23.276  1.00  0.00    -0.343 N 
ATOM     11  C   UNL A   1      32.144  25.685  22.454  1.00  0.00     0.240 C 
ATOM     12  H   UNL A   1      31.326  27.469  22.878  1.00  0.00     0.164 HD
ATOM     13  O   UNL A   1      32.038  25.898  21.240  1.00  0.00    -0.273 OA
BRANCH  11  14
ATOM     14  C   UNL A   1      32.887  24.392  22.961  1.00  0.00     0.216 C 
BRANCH  14  15
ATOM     15  N   UNL A   1      34.313  23.939  22.918  1.00  0.00    -0.345 N 
ATOM     16  C   UNL A   1      35.305  23.140  23.363  1.00  0.00     0.243 C 
ATOM     17  H   UNL A   1      34.733  24.498  22.224  1.00  0.00     0.164 HD
ATOM     18  O   UNL A   1      36.169  23.061  22.459  1.00  0.00    -0.273 OA
BRANCH  16  19
ATOM     19  C   UNL A   1      35.704  22.407  24.728  1.00  0.00     0.177 C 
BRANCH  19  20
ATOM     20  N   UNL A   1      36.402  23.308  25.682  1.00  0.00    -0.309 N 
ATOM     21  C   UNL A   1      37.701  23.480  26.072  1.00  0.00     0.408 C 
ATOM     22  H   UNL A   1      35.785  23.922  26.141  1.00  0.00     0.167 HD
ATOM     23  O   UNL A   1      37.974  24.234  27.002  1.00  0.00    -0.225 OA
BRANCH  21  24
ATOM     24  O   UNL A   1      38.611  22.714  25.426  1.00  0.00    -0.445 OA
BRANCH  24  25
ATOM     25  C   UNL A   1      38.959  21.468  26.060  1.00  0.00     0.270 C 
BRANCH  25  26
ATOM     26  C   UNL A   1      40.406  21.060  26.114  1.00  0.00    -0.011 A 
ATOM     27  C   UNL A   1      40.722  19.689  26.085  1.00  0.00     0.007 A 
ATOM     28  C   UNL A   1      41.441  21.996  26.085  1.00  0.00     0.007 A 
ATOM     29  C   UNL A   1      42.048  19.264  26.077  1.00  0.00     0.000 A 
ATOM     30  C   UNL A   1      42.769  21.568  26.081  1.00  0.00     0.000 A 
ATOM     31  C   UNL A   1      43.072  20.206  26.084  1.00  0.00     0.000 A 
ENDBRANCH  25  26
ENDBRANCH  24  25
ENDBRANCH  21  24
ENDBRANCH  19  20
BRANCH  19  32
ATOM     32  C   UNL A   1      34.910  21.212  25.302  1.00  0.00     0.015 C 
ATOM     33  C   UNL A   1      34.522  21.443  26.766  1.00  0.00     0.010 C 
ATOM     34  C   UNL A   1      33.592  20.971  24.527  1.00  0.00     0.010 C 
ENDBRANCH  19  32
ENDBRANCH  16  19
ENDBRANCH  14  15
ENDBRANCH  11  14
ENDBRANCH   5  10
ENDBRANCH   1   5
BRANCH   3  35
ATOM     35  C   UNL A   1      31.741  28.747  27.273  1.00  0.00     0.116 C 
BRANCH  35  36
ATOM     36  C   UNL A   1      31.826  29.917  26.282  1.00  0.00     0.023 C 
BRANCH  36  37
ATOM     37  C   UNL A   1      31.432  31.306  26.825  1.00  0.00     0.023 C 
BRANCH  37  38
ATOM     38  C   UNL A   1      32.314  32.517  26.508  1.00  0.00     0.116 C 
BRANCH  38  39
ATOM     39  N   UNL A   1      32.197  33.643  27.426  1.00  0.00    -0.352 N 
ATOM     40  C   UNL A   1      33.120  34.129  28.350  1.00  0.00     0.251 C 
ATOM     41  H   UNL A   1      31.341  34.131  27.389  1.00  0.00     0.163 HD
ATOM     42  O   UNL A   1      32.906  35.121  28.992  1.00  0.00    -0.269 OA
BRANCH  40  43
ATOM     43  C   UNL A   1      34.354  33.336  28.604  1.00  0.00     0.039 A 
ATOM     44  C   UNL A   1      35.576  34.018  28.620  1.00  0.00     0.014 A 
ATOM     45  C   UNL A   1      34.302  31.982  28.929  1.00  0.00     0.014 A 
ATOM     46  C   UNL A   1      36.721  33.375  29.100  1.00  0.00     0.010 A 
ATOM     47  C   UNL A   1      35.424  31.370  29.488  1.00  0.00     0.010 A 
ATOM     48  C   UNL A   1      36.637  32.069  29.609  1.00  0.00    -0.014 A 
BRANCH  48  49
ATOM     49  C   UNL A   1      37.787  31.443  30.315  1.00  0.00     0.031 A 
ATOM     50  C   UNL A   1      38.686  30.473  29.599  1.00  0.00     0.074 A 
ATOM     51  C   UNL A   1      37.977  31.681  31.631  1.00  0.00     0.049 A 
ATOM     52  N   UNL A   1      39.690  29.776  30.069  1.00  0.00    -0.248 NA
ATOM     53  C   UNL A   1      38.401  30.233  28.177  1.00  0.00     0.031 C 
ATOM     54  C   UNL A   1      37.152  32.558  32.466  1.00  0.00     0.029 A 
ATOM     55  N   UNL A   1      38.926  31.200  32.501  1.00  0.00    -0.354 N 
ATOM     56  C   UNL A   1      40.137  28.999  29.009  1.00  0.00     0.074 A 
ATOM     57  C   UNL A   1      39.267  29.274  27.886  1.00  0.00     0.031 C 
ATOM     58  C   UNL A   1      37.651  32.580  33.713  1.00  0.00     0.029 A 
ATOM     59  C   UNL A   1      38.803  31.689  33.780  1.00  0.00     0.049 A 
ATOM     60  H   UNL A   1      39.628  30.565  32.233  1.00  0.00     0.167 HD
ATOM     61  C   UNL A   1      41.190  28.148  28.963  1.00  0.00     0.031 A 
ATOM     62  C   UNL A   1      39.535  31.447  34.885  1.00  0.00     0.031 A 
ATOM     63  C   UNL A   1      42.073  27.889  30.067  1.00  0.00     0.049 A 
ATOM     64  C   UNL A   1      40.700  30.501  34.807  1.00  0.00     0.074 A 
ATOM     65  C   UNL A   1      43.209  27.096  30.094  1.00  0.00     0.029 A 
ATOM     66  N   UNL A   1      41.922  28.416  31.340  1.00  0.00    -0.354 N 
ATOM     67  N   UNL A   1      41.153  29.833  33.776  1.00  0.00    -0.248 NA
ATOM     68  C   UNL A   1      41.460  30.285  36.048  1.00  0.00     0.031 C 
ATOM     69  C   UNL A   1      43.720  27.110  31.397  1.00  0.00     0.029 A 
ATOM     70  C   UNL A   1      42.931  27.951  32.166  1.00  0.00     0.049 A 
ATOM     71  H   UNL A   1      41.206  29.032  31.614  1.00  0.00     0.167 HD
ATOM     72  C   UNL A   1      42.267  29.141  34.234  1.00  0.00     0.074 A 
ATOM     73  C   UNL A   1      42.429  29.480  35.631  1.00  0.00     0.031 C 
ATOM     74  C   UNL A   1      43.083  28.299  33.554  1.00  0.00     0.031 A 
BRANCH  61  75
ATOM     75  C   UNL A   1      41.439  27.430  27.667  1.00  0.00    -0.014 A 
ATOM     76  C   UNL A   1      40.864  26.175  27.408  1.00  0.00     0.009 A 
ATOM     77  C   UNL A   1      42.237  28.028  26.679  1.00  0.00     0.009 A 
ATOM     78  C   UNL A   1      41.117  25.515  26.205  1.00  0.00     0.001 A 
ATOM     79  C   UNL A   1      42.464  27.379  25.464  1.00  0.00     0.001 A 
ATOM     80  C   UNL A   1      41.913  26.119  25.232  1.00  0.00     0.000 A 
ENDBRANCH  61  75
BRANCH  62  81
ATOM     81  C   UNL A   1      39.206  32.130  36.166  1.00  0.00    -0.014 A 
ATOM     82  C   UNL A   1      38.050  31.776  36.880  1.00  0.00     0.009 A 
ATOM     83  C   UNL A   1      40.029  33.147  36.671  1.00  0.00     0.009 A 
ATOM     84  C   UNL A   1      37.712  32.446  38.058  1.00  0.00     0.001 A 
ATOM     85  C   UNL A   1      39.704  33.797  37.864  1.00  0.00     0.001 A 
ATOM     86  C   UNL A   1      38.541  33.452  38.551  1.00  0.00     0.000 A 
ENDBRANCH  62  81
BRANCH  74  87
ATOM     87  C   UNL A   1      44.247  27.717  34.302  1.00  0.00    -0.014 A 
ATOM     88  C   UNL A   1      45.476  28.391  34.378  1.00  0.00     0.009 A 
ATOM     89  C   UNL A   1      44.098  26.495  34.977  1.00  0.00     0.009 A 
ATOM     90  C   UNL A   1      46.541  27.837  35.091  1.00  0.00     0.001 A 
ATOM     91  C   UNL A   1      45.155  25.958  35.711  1.00  0.00     0.001 A 
ATOM     92  C   UNL A   1      46.378  26.624  35.760  1.00  0.00     0.000 A 
ENDBRANCH  74  87
ENDBRANCH  48  49
ENDBRANCH  40  43
ENDBRANCH  38  39
ENDBRANCH  37  38
ENDBRANCH  36  37
ENDBRANCH  35  36
ENDBRANCH   3  35
TORSDOF 22
ENDMDL
MODEL 2
REMARK VINA RESULT:      -9.9      0.990      5.632
REMARK SMILES CC(C)C[C@H](NC(=O)CNC(=O)[C@@H](NC(=O)OCc1ccccc1)C(C)C)C(=O)NCCCCNC(=O)c1ccc(-c2c3nc(c(-c4ccccc4)c4ccc([nH]4)c(-c4ccccc4)c4nc(c(-c5ccccc5)c5ccc2[nH]5)C=C4)C=C3)cc1
REMARK SMILES IDX 28 1 29 2 30 3 5 5 4 6 2 7 1 8 3 9 6 10 7 11 8 13 9 14 10 15
REMARK SMILES IDX 11 16 12 18 13 19 14 20 15 21 16 23 17 24 18 25 19 26 20 27
REMARK SMILES IDX 24 28 21 29 23 30 22 31 25 32 26 33 27 34 31 35 32 36 33 37
REMARK SMILES IDX 34 38 35 39 36 40 37 42 38 43 39 44 85 45 40 46 84 47 41 48
REMARK SMILES IDX 42 49 43 50 78 51 44 52 83 53 77 54 79 55 45 56 82 57 76 58
REMARK SMILES IDX 75 59 46 61 68 62 53 63 67 64 54 65 57 66 66 67 80 68 55 69
REMARK SMILES IDX 56 70 65 72 81 73 58 74 47 75 48 76 52 77 49 78 51 79 50 80
REMARK SMILES IDX 69 81 70 82 74 83 71 84 73 85 72 86 59 87 60 88 64 89 61 90
REMARK SMILES IDX 63 91 62 92
REMARK H PARENT 30 4 6 12 10 17 14 22 35 41 79 60 57 71
REMARK Flexibility Score: inf
ROOT
ATOM      1  C   UNL A   1      33.019  26.695  25.274  1.00  0.00     0.242 C 
ATOM      2  O   UNL A   1      34.221  26.516  25.075  1.00  0.00    -0.273 OA
ATOM      3  N   UNL A   1      32.598  26.974  26.581  1.00  0.00    -0.354 N 
ATOM      4  H   UNL A   1      32.588  26.230  27.227  1.00  0.00     0.163 HD
ENDROOT
BRANCH   1   5
ATOM      5  C   UNL A   1      31.916  26.260  24.233  1.00  0.00     0.171 C 
BRANCH   5   6
ATOM      6  C   UNL A   1      31.158  24.903  24.361  1.00  0.00     0.038 C 
BRANCH   6   7
ATOM      7  C   UNL A   1      30.872  24.287  25.789  1.00  0.00    -0.015 C 
ATOM      8  C   UNL A   1      29.618  24.851  26.491  1.00  0.00     0.007 C 
ATOM      9  C   UNL A   1      30.669  22.777  25.791  1.00  0.00     0.007 C 
ENDBRANCH   6   7
ENDBRANCH   5   6
BRANCH   5  10
ATOM     10  N   UNL A   1      32.438  26.405  22.917  1.00  0.00    -0.343 N 
ATOM     11  C   UNL A   1      33.104  25.445  22.235  1.00  0.00     0.240 C 
ATOM     12  H   UNL A   1      32.305  27.271  22.468  1.00  0.00     0.164 HD
ATOM     13  O   UNL A   1      33.273  25.647  21.026  1.00  0.00    -0.273 OA
BRANCH  11  14
ATOM     14  C   UNL A   1      33.653  24.123  22.893  1.00  0.00     0.216 C 
BRANCH  14  15
ATOM     15  N   UNL A   1      35.029  23.604  23.170  1.00  0.00    -0.345 N 
ATOM     16  C   UNL A   1      35.879  22.868  23.915  1.00  0.00     0.243 C 
ATOM     17  H   UNL A   1      35.592  23.991  22.459  1.00  0.00     0.164 HD
ATOM     18  O   UNL A   1      36.860  22.567  23.196  1.00  0.00    -0.273 OA
BRANCH  16  19
ATOM     19  C   UNL A   1      36.011  22.410  25.443  1.00  0.00     0.177 C 
BRANCH  19  20
ATOM     20  N   UNL A   1      36.946  23.263  26.221  1.00  0.00    -0.309 N 
ATOM     21  C   UNL A   1      38.287  23.237  26.481  1.00  0.00     0.408 C 
ATOM     22  H   UNL A   1      36.493  24.025  26.649  1.00  0.00     0.167 HD
ATOM     23  O   UNL A   1      38.778  24.022  27.288  1.00  0.00    -0.225 OA
BRANCH  21  24
ATOM     24  O   UNL A   1      38.983  22.254  25.862  1.00  0.00    -0.445 OA
BRANCH  24  25
ATOM     25  C   UNL A   1      39.973  21.575  26.659  1.00  0.00     0.270 C 
BRANCH  25  26
ATOM     26  C   UNL A   1      41.410  21.608  26.215  1.00  0.00    -0.011 A 
ATOM     27  C   UNL A   1      42.115  20.394  26.120  1.00  0.00     0.007 A 
ATOM     28  C   UNL A   1      42.028  22.788  25.796  1.00  0.00     0.007 A 
ATOM     29  C   UNL A   1      43.430  20.368  25.661  1.00  0.00     0.000 A 
ATOM     30  C   UNL A   1      43.347  22.760  25.340  1.00  0.00     0.000 A 
ATOM     31  C   UNL A   1      44.048  21.555  25.279  1.00  0.00     0.000 A 
ENDBRANCH  25  26
ENDBRANCH  24  25
ENDBRANCH  21  24
ENDBRANCH  19  20
BRANCH  19  32
ATOM     32  C   UNL A   1      34.875  21.691  26.204  1.00  0.00     0.015 C 
ATOM     33  C   UNL A   1      34.098  22.659  27.103  1.00  0.00     0.010 C 
ATOM     34  C   UNL A   1      33.844  21.058  25.238  1.00  0.00     0.010 C 
ENDBRANCH  19  32
ENDBRANCH  16  19
ENDBRANCH  14  15
ENDBRANCH  11  14
ENDBRANCH   5  10
ENDBRANCH   1   5
BRANCH   3  35
ATOM     35  C   UNL A   1      32.169  28.303  27.061  1.00  0.00     0.116 C 
BRANCH  35  36
ATOM     36  C   UNL A   1      33.037  29.489  26.615  1.00  0.00     0.023 C 
BRANCH  36  37
ATOM     37  C   UNL A   1      32.460  30.896  26.872  1.00  0.00     0.023 C 
BRANCH  37  38
ATOM     38  C   UNL A   1      33.407  32.046  27.223  1.00  0.00     0.116 C 
BRANCH  38  39
ATOM     39  N   UNL A   1      32.769  33.283  27.655  1.00  0.00    -0.352 N 
ATOM     40  C   UNL A   1      33.208  34.227  28.581  1.00  0.00     0.251 C 
ATOM     41  H   UNL A   1      31.901  33.480  27.232  1.00  0.00     0.163 HD
ATOM     42  O   UNL A   1      32.601  35.243  28.781  1.00  0.00    -0.269 OA
BRANCH  40  43
ATOM     43  C   UNL A   1      34.409  33.910  29.403  1.00  0.00     0.039 A 
ATOM     44  C   UNL A   1      34.236  33.086  30.520  1.00  0.00     0.014 A 
ATOM     45  C   UNL A   1      35.686  34.317  29.023  1.00  0.00     0.014 A 
ATOM     46  C   UNL A   1      35.355  32.557  31.170  1.00  0.00     0.010 A 
ATOM     47  C   UNL A   1      36.798  33.721  29.616  1.00  0.00     0.010 A 
ATOM     48  C   UNL A   1      36.644  32.809  30.674  1.00  0.00    -0.014 A 
BRANCH  48  49
ATOM     49  C   UNL A   1      37.831  32.092  31.215  1.00  0.00     0.031 A 
ATOM     50  C   UNL A   1      38.318  32.367  32.611  1.00  0.00     0.074 A 
ATOM     51  C   UNL A   1      38.526  31.251  30.420  1.00  0.00     0.049 A 
ATOM     52  N   UNL A   1      39.373  31.894  33.225  1.00  0.00    -0.248 NA
ATOM     53  C   UNL A   1      37.534  33.320  33.410  1.00  0.00     0.031 C 
ATOM     54  C   UNL A   1      38.200  30.929  29.028  1.00  0.00     0.029 A 
ATOM     55  N   UNL A   1      39.659  30.513  30.669  1.00  0.00    -0.354 N 
ATOM     56  C   UNL A   1      39.392  32.510  34.469  1.00  0.00     0.074 A 
ATOM     57  C   UNL A   1      38.272  33.426  34.505  1.00  0.00     0.031 C 
ATOM     58  C   UNL A   1      39.087  30.036  28.560  1.00  0.00     0.029 A 
ATOM     59  C   UNL A   1      40.069  29.752  29.601  1.00  0.00     0.049 A 
ATOM     60  H   UNL A   1      40.131  30.529  31.532  1.00  0.00     0.167 HD
ATOM     61  C   UNL A   1      40.249  32.319  35.501  1.00  0.00     0.031 A 
ATOM     62  C   UNL A   1      41.119  28.917  29.469  1.00  0.00     0.031 A 
ATOM     63  C   UNL A   1      41.349  31.393  35.481  1.00  0.00     0.049 A 
ATOM     64  C   UNL A   1      42.054  28.720  30.630  1.00  0.00     0.074 A 
ATOM     65  C   UNL A   1      42.228  31.079  36.504  1.00  0.00     0.029 A 
ATOM     66  N   UNL A   1      41.719  30.630  34.385  1.00  0.00    -0.354 N 
ATOM     67  N   UNL A   1      42.012  29.256  31.825  1.00  0.00    -0.248 NA
ATOM     68  C   UNL A   1      43.177  27.793  30.423  1.00  0.00     0.031 C 
ATOM     69  C   UNL A   1      43.160  30.158  36.011  1.00  0.00     0.029 A 
ATOM     70  C   UNL A   1      42.828  29.862  34.699  1.00  0.00     0.049 A 
ATOM     71  H   UNL A   1      41.262  30.633  33.514  1.00  0.00     0.167 HD
ATOM     72  C   UNL A   1      43.082  28.711  32.521  1.00  0.00     0.074 A 
ATOM     73  C   UNL A   1      43.747  27.793  31.621  1.00  0.00     0.031 C 
ATOM     74  C   UNL A   1      43.477  28.950  33.795  1.00  0.00     0.031 A 
BRANCH  61  75
ATOM     75  C   UNL A   1      40.028  33.138  36.741  1.00  0.00    -0.014 A 
ATOM     76  C   UNL A   1      39.136  32.716  37.741  1.00  0.00     0.009 A 
ATOM     77  C   UNL A   1      40.739  34.332  36.926  1.00  0.00     0.009 A 
ATOM     78  C   UNL A   1      38.932  33.494  38.881  1.00  0.00     0.001 A 
ATOM     79  C   UNL A   1      40.555  35.095  38.081  1.00  0.00     0.001 A 
ATOM     80  C   UNL A   1      39.644  34.681  39.052  1.00  0.00     0.000 A 
ENDBRANCH  61  75
BRANCH  62  81
ATOM     81  C   UNL A   1      41.337  28.181  28.195  1.00  0.00    -0.014 A 
ATOM     82  C   UNL A   1      40.775  26.908  28.008  1.00  0.00     0.009 A 
ATOM     83  C   UNL A   1      42.120  28.733  27.170  1.00  0.00     0.009 A 
ATOM     84  C   UNL A   1      41.016  26.193  26.832  1.00  0.00     0.001 A 
ATOM     85  C   UNL A   1      42.336  28.028  25.984  1.00  0.00     0.001 A 
ATOM     86  C   UNL A   1      41.791  26.754  25.820  1.00  0.00     0.000 A 
ENDBRANCH  62  81
BRANCH  74  87
ATOM     87  C   UNL A   1      44.661  28.179  34.304  1.00  0.00    -0.014 A 
ATOM     88  C   UNL A   1      45.964  28.689  34.201  1.00  0.00     0.009 A 
ATOM     89  C   UNL A   1      44.463  26.941  34.936  1.00  0.00     0.009 A 
ATOM     90  C   UNL A   1      47.048  27.961  34.695  1.00  0.00     0.001 A 
ATOM     91  C   UNL A   1      45.545  26.228  35.452  1.00  0.00     0.001 A 
ATOM     92  C   UNL A   1      46.837  26.734  35.323  1.00  0.00     0.000 A 
ENDBRANCH  74  87
ENDBRANCH  48  49
ENDBRANCH  40  43
ENDBRANCH  38  39
ENDBRANCH  37  38
ENDBRANCH  36  37
ENDBRANCH  35  36
ENDBRANCH   3  35
TORSDOF 22
ENDMDL
MODEL 3
REMARK VINA RESULT:      -9.5      7.096     12.511
REMARK SMILES CC(C)C[C@H](NC(=O)CNC(=O)[C@@H](NC(=O)OCc1ccccc1)C(C)C)C(=O)NCCCCNC(=O)c1ccc(-c2c3nc(c(-c4ccccc4)c4ccc([nH]4)c(-c4ccccc4)c4nc(c(-c5ccccc5)c5ccc2[nH]5)C=C4)C=C3)cc1
REMARK SMILES IDX 28 1 29 2 30 3 5 5 4 6 2 7 1 8 3 9 6 10 7 11 8 13 9 14 10 15
REMARK SMILES IDX 11 16 12 18 13 19 14 20 15 21 16 23 17 24 18 25 19 26 20 27
REMARK SMILES IDX 24 28 21 29 23 30 22 31 25 32 26 33 27 34 31 35 32 36 33 37
REMARK SMILES IDX 34 38 35 39 36 40 37 42 38 43 39 44 85 45 40 46 84 47 41 48
REMARK SMILES IDX 42 49 43 50 78 51 44 52 83 53 77 54 79 55 45 56 82 57 76 58
REMARK SMILES IDX 75 59 46 61 68 62 53 63 67 64 54 65 57 66 66 67 80 68 55 69
REMARK SMILES IDX 56 70 65 72 81 73 58 74 47 75 48 76 52 77 49 78 51 79 50 80
REMARK SMILES IDX 69 81 70 82 74 83 71 84 73 85 72 86 59 87 60 88 64 89 61 90
REMARK SMILES IDX 63 91 62 92
REMARK H PARENT 30 4 6 12 10 17 14 22 35 41 79 60 57 71
REMARK Flexibility Score: inf
ROOT
ATOM      1  C   UNL A   1      36.512  29.780  29.567  1.00  0.00     0.242 C 
ATOM      2  O   UNL A   1      36.265  30.106  30.728  1.00  0.00    -0.273 OA
ATOM      3  N   UNL A   1      37.836  29.461  29.235  1.00  0.00    -0.354 N 
ATOM      4  H   UNL A   1      38.479  30.202  29.158  1.00  0.00     0.163 HD
ENDROOT
BRANCH   1   5
ATOM      5  C   UNL A   1      35.514  30.066  28.377  1.00  0.00     0.171 C 
BRANCH   5   6
ATOM      6  C   UNL A   1      35.189  28.985  27.302  1.00  0.00     0.038 C 
BRANCH   6   7
ATOM      7  C   UNL A   1      33.827  29.048  26.502  1.00  0.00    -0.015 C 
ATOM      8  C   UNL A   1      33.811  28.226  25.196  1.00  0.00     0.007 C 
ATOM      9  C   UNL A   1      32.616  28.554  27.284  1.00  0.00     0.007 C 
ENDBRANCH   6   7
ENDBRANCH   5   6
BRANCH   5  10
ATOM     10  N   UNL A   1      35.886  31.286  27.746  1.00  0.00    -0.343 N 
ATOM     11  C   UNL A   1      35.509  32.519  28.156  1.00  0.00     0.240 C 
ATOM     12  H   UNL A   1      36.461  31.229  26.949  1.00  0.00     0.164 HD
ATOM     13  O   UNL A   1      36.111  33.474  27.650  1.00  0.00    -0.273 OA
BRANCH  11  14
ATOM     14  C   UNL A   1      34.374  32.782  29.217  1.00  0.00     0.216 C 
BRANCH  14  15
ATOM     15  N   UNL A   1      34.343  32.787  30.713  1.00  0.00    -0.345 N 
ATOM     16  C   UNL A   1      34.212  33.447  31.883  1.00  0.00     0.243 C 
ATOM     17  H   UNL A   1      34.489  31.847  30.971  1.00  0.00     0.164 HD
ATOM     18  O   UNL A   1      33.847  32.621  32.751  1.00  0.00    -0.273 OA
BRANCH  16  19
ATOM     19  C   UNL A   1      34.513  34.914  32.447  1.00  0.00     0.177 C 
BRANCH  19  20
ATOM     20  N   UNL A   1      35.883  35.046  33.005  1.00  0.00    -0.309 N 
ATOM     21  C   UNL A   1      37.140  34.743  32.560  1.00  0.00     0.408 C 
ATOM     22  H   UNL A   1      35.887  35.442  33.906  1.00  0.00     0.167 HD
ATOM     23  O   UNL A   1      38.105  34.845  33.312  1.00  0.00    -0.225 OA
BRANCH  21  24
ATOM     24  O   UNL A   1      37.211  34.260  31.297  1.00  0.00    -0.445 OA
BRANCH  24  25
ATOM     25  C   UNL A   1      38.132  33.173  31.082  1.00  0.00     0.270 C 
BRANCH  25  26
ATOM     26  C   UNL A   1      39.512  33.481  30.569  1.00  0.00    -0.011 A 
ATOM     27  C   UNL A   1      39.681  34.576  29.702  1.00  0.00     0.007 A 
ATOM     28  C   UNL A   1      40.638  32.784  31.010  1.00  0.00     0.007 A 
ATOM     29  C   UNL A   1      40.946  34.934  29.245  1.00  0.00     0.000 A 
ATOM     30  C   UNL A   1      41.905  33.142  30.548  1.00  0.00     0.000 A 
ATOM     31  C   UNL A   1      42.059  34.209  29.663  1.00  0.00     0.000 A 
ENDBRANCH  25  26
ENDBRANCH  24  25
ENDBRANCH  21  24
ENDBRANCH  19  20
BRANCH  19  32
ATOM     32  C   UNL A   1      33.825  36.182  31.894  1.00  0.00     0.015 C 
ATOM     33  C   UNL A   1      32.315  35.979  31.730  1.00  0.00     0.010 C 
ATOM     34  C   UNL A   1      34.010  37.396  32.836  1.00  0.00     0.010 C 
ENDBRANCH  19  32
ENDBRANCH  16  19
ENDBRANCH  14  15
ENDBRANCH  11  14
ENDBRANCH   5  10
ENDBRANCH   1   5
BRANCH   3  35
ATOM     35  C   UNL A   1      38.336  28.092  28.995  1.00  0.00     0.116 C 
BRANCH  35  36
ATOM     36  C   UNL A   1      39.814  27.981  28.591  1.00  0.00     0.023 C 
BRANCH  36  37
ATOM     37  C   UNL A   1      40.117  28.019  27.079  1.00  0.00     0.023 C 
BRANCH  37  38
ATOM     38  C   UNL A   1      40.791  26.815  26.416  1.00  0.00     0.116 C 
BRANCH  38  39
ATOM     39  N   UNL A   1      40.906  25.620  27.241  1.00  0.00    -0.352 N 
ATOM     40  C   UNL A   1      42.004  25.143  27.956  1.00  0.00     0.251 C 
ATOM     41  H   UNL A   1      40.093  25.068  27.301  1.00  0.00     0.163 HD
ATOM     42  O   UNL A   1      41.925  24.171  28.656  1.00  0.00    -0.269 OA
BRANCH  40  43
ATOM     43  C   UNL A   1      43.321  25.810  27.763  1.00  0.00     0.039 A 
ATOM     44  C   UNL A   1      43.793  25.954  26.454  1.00  0.00     0.014 A 
ATOM     45  C   UNL A   1      44.019  26.378  28.827  1.00  0.00     0.014 A 
ATOM     46  C   UNL A   1      44.887  26.787  26.201  1.00  0.00     0.010 A 
ATOM     47  C   UNL A   1      45.053  27.275  28.565  1.00  0.00     0.010 A 
ATOM     48  C   UNL A   1      45.478  27.515  27.247  1.00  0.00    -0.014 A 
BRANCH  48  49
ATOM     49  C   UNL A   1      46.499  28.563  26.975  1.00  0.00     0.031 A 
ATOM     50  C   UNL A   1      46.104  30.012  26.896  1.00  0.00     0.074 A 
ATOM     51  C   UNL A   1      47.775  28.205  26.715  1.00  0.00     0.049 A 
ATOM     52  N   UNL A   1      46.839  31.053  26.599  1.00  0.00    -0.248 NA
ATOM     53  C   UNL A   1      44.691  30.328  27.156  1.00  0.00     0.031 C 
ATOM     54  C   UNL A   1      48.289  26.832  26.704  1.00  0.00     0.029 A 
ATOM     55  N   UNL A   1      48.874  28.968  26.402  1.00  0.00    -0.354 N 
ATOM     56  C   UNL A   1      45.975  32.140  26.611  1.00  0.00     0.074 A 
ATOM     57  C   UNL A   1      44.653  31.626  26.898  1.00  0.00     0.031 C 
ATOM     58  C   UNL A   1      49.606  26.856  26.437  1.00  0.00     0.029 A 
ATOM     59  C   UNL A   1      50.022  28.236  26.216  1.00  0.00     0.049 A 
ATOM     60  H   UNL A   1      48.841  29.948  26.319  1.00  0.00     0.167 HD
ATOM     61  C   UNL A   1      46.256  33.452  26.424  1.00  0.00     0.031 A 
ATOM     62  C   UNL A   1      51.272  28.628  25.901  1.00  0.00     0.031 A 
ATOM     63  C   UNL A   1      47.570  33.972  26.163  1.00  0.00     0.049 A 
ATOM     64  C   UNL A   1      51.558  30.090  25.701  1.00  0.00     0.074 A 
ATOM     65  C   UNL A   1      47.963  35.293  26.029  1.00  0.00     0.029 A 
ATOM     66  N   UNL A   1      48.707  33.197  25.998  1.00  0.00    -0.354 N 
ATOM     67  N   UNL A   1      50.742  31.111  25.791  1.00  0.00    -0.248 NA
ATOM     68  C   UNL A   1      52.943  30.453  25.365  1.00  0.00     0.031 C 
ATOM     69  C   UNL A   1      49.332  35.315  25.739  1.00  0.00     0.029 A 
ATOM     70  C   UNL A   1      49.799  34.010  25.743  1.00  0.00     0.049 A 
ATOM     71  H   UNL A   1      48.735  32.215  26.056  1.00  0.00     0.167 HD
ATOM     72  C   UNL A   1      51.518  32.237  25.552  1.00  0.00     0.074 A 
ATOM     73  C   UNL A   1      52.871  31.777  25.326  1.00  0.00     0.031 C 
ATOM     74  C   UNL A   1      51.141  33.539  25.524  1.00  0.00     0.031 A 
BRANCH  61  75
ATOM     75  C   UNL A   1      45.107  34.418  26.491  1.00  0.00    -0.014 A 
ATOM     76  C   UNL A   1      45.059  35.424  27.471  1.00  0.00     0.009 A 
ATOM     77  C   UNL A   1      44.072  34.341  25.547  1.00  0.00     0.009 A 
ATOM     78  C   UNL A   1      43.979  36.305  27.528  1.00  0.00     0.001 A 
ATOM     79  C   UNL A   1      43.007  35.242  25.589  1.00  0.00     0.001 A 
ATOM     80  C   UNL A   1      42.955  36.216  26.585  1.00  0.00     0.000 A 
ENDBRANCH  61  75
BRANCH  62  81
ATOM     81  C   UNL A   1      52.364  27.625  25.777  1.00  0.00    -0.014 A 
ATOM     82  C   UNL A   1      52.627  27.015  24.541  1.00  0.00     0.009 A 
ATOM     83  C   UNL A   1      53.134  27.259  26.891  1.00  0.00     0.009 A 
ATOM     84  C   UNL A   1      53.619  26.038  24.429  1.00  0.00     0.001 A 
ATOM     85  C   UNL A   1      54.145  26.303  26.771  1.00  0.00     0.001 A 
ATOM     86  C   UNL A   1      54.380  25.686  25.542  1.00  0.00     0.000 A 
ENDBRANCH  62  81
BRANCH  74  87
ATOM     87  C   UNL A   1      52.213  34.560  25.277  1.00  0.00    -0.014 A 
ATOM     88  C   UNL A   1      52.509  35.009  23.980  1.00  0.00     0.009 A 
ATOM     89  C   UNL A   1      52.908  35.114  26.364  1.00  0.00     0.009 A 
ATOM     90  C   UNL A   1      53.501  35.970  23.776  1.00  0.00     0.001 A 
ATOM     91  C   UNL A   1      53.879  36.093  26.159  1.00  0.00     0.001 A 
ATOM     92  C   UNL A   1      54.181  36.514  24.865  1.00  0.00     0.000 A 
ENDBRANCH  74  87
ENDBRANCH  48  49
ENDBRANCH  40  43
ENDBRANCH  38  39
ENDBRANCH  37  38
ENDBRANCH  36  37
ENDBRANCH  35  36
ENDBRANCH   3  35
TORSDOF 22
ENDMDL
