MODEL 1
REMARK VINA RESULT:     -11.4      0.000      0.000
REMARK SMILES C[C@@H](C(=O)NCCCCNC(=O)c1ccc(-c2c3nc(c(-c4ccccc4)c4ccc([nH]4)c(-c4ccccc4)c4nc(c(-c5ccccc5)c5ccc2[nH]5)C=C4)C=C3)cc1)c1cc(C(=O)c2ccccc2)ccc1O
REMARK SMILES IDX 7 1 6 2 5 3 3 4 4 5 2 7 1 8 61 9 62 10 74 11 63 12 73 13
REMARK SMILES IDX 72 14 75 15 64 17 65 18 66 19 67 20 71 21 68 22 70 23 69 24
REMARK SMILES IDX 8 25 9 26 10 27 11 28 12 30 13 31 14 32 60 33 15 34 59 35
REMARK SMILES IDX 16 36 17 37 18 38 53 39 19 40 58 41 52 42 54 43 20 44 57 45
REMARK SMILES IDX 51 46 50 47 21 49 43 50 28 51 42 52 29 53 32 54 41 55 55 56
REMARK SMILES IDX 30 57 31 58 40 60 56 61 33 62 22 63 23 64 27 65 24 66 26 67
REMARK SMILES IDX 25 68 44 69 45 70 49 71 46 72 48 73 47 74 34 75 35 76 39 77
REMARK SMILES IDX 36 78 38 79 37 80
REMARK H PARENT 5 6 75 16 10 29 54 48 32 59
REMARK Flexibility Score: inf
ROOT
ATOM      1  C   UNL A   1      31.570  29.055  27.259  1.00  0.00     0.023 C 
ENDROOT
BRANCH   1   2
ATOM      2  C   UNL A   1      32.088  27.800  26.552  1.00  0.00     0.116 C 
BRANCH   2   3
ATOM      3  N   UNL A   1      31.209  26.668  26.750  1.00  0.00    -0.356 N 
ATOM      4  C   UNL A   1      30.282  26.097  25.931  1.00  0.00     0.227 C 
ATOM      5  O   UNL A   1      29.693  25.118  26.403  1.00  0.00    -0.274 OA
ATOM      6  H   UNL A   1      31.295  26.235  27.630  1.00  0.00     0.163 HD
BRANCH   4   7
ATOM      7  C   UNL A   1      30.025  26.623  24.506  1.00  0.00     0.109 C 
ATOM      8  C   UNL A   1      28.587  26.416  24.026  1.00  0.00     0.023 C 
BRANCH   7   9
ATOM      9  C   UNL A   1      30.948  26.047  23.423  1.00  0.00     0.007 A 
ATOM     10  C   UNL A   1      31.623  24.839  23.704  1.00  0.00     0.020 A 
ATOM     11  C   UNL A   1      31.291  26.711  22.236  1.00  0.00     0.119 A 
ATOM     12  C   UNL A   1      32.590  24.320  22.827  1.00  0.00     0.023 A 
ATOM     13  C   UNL A   1      32.213  26.179  21.337  1.00  0.00     0.047 A 
ATOM     14  C   UNL A   1      32.846  24.975  21.619  1.00  0.00     0.016 A 
BRANCH  11  15
ATOM     15  O   UNL A   1      30.769  27.921  21.884  1.00  0.00    -0.508 OA
ATOM     16  H   UNL A   1      30.368  28.033  21.045  1.00  0.00     0.293 HD
ENDBRANCH  11  15
BRANCH  12  17
ATOM     17  C   UNL A   1      33.326  23.083  23.218  1.00  0.00     0.193 C 
ATOM     18  O   UNL A   1      32.850  21.981  22.963  1.00  0.00    -0.289 OA
BRANCH  17  19
ATOM     19  C   UNL A   1      34.639  23.159  23.904  1.00  0.00     0.022 A 
ATOM     20  C   UNL A   1      34.662  23.469  25.267  1.00  0.00     0.012 A 
ATOM     21  C   UNL A   1      35.839  22.918  23.221  1.00  0.00     0.012 A 
ATOM     22  C   UNL A   1      35.875  23.479  25.957  1.00  0.00     0.001 A 
ATOM     23  C   UNL A   1      37.049  22.921  23.916  1.00  0.00     0.001 A 
ATOM     24  C   UNL A   1      37.065  23.192  25.285  1.00  0.00     0.000 A 
ENDBRANCH  17  19
ENDBRANCH  12  17
ENDBRANCH   7   9
ENDBRANCH   4   7
ENDBRANCH   2   3
ENDBRANCH   1   2
BRANCH   1  25
ATOM     25  C   UNL A   1      31.763  30.367  26.493  1.00  0.00     0.023 C 
BRANCH  25  26
ATOM     26  C   UNL A   1      32.902  31.257  26.977  1.00  0.00     0.116 C 
BRANCH  26  27
ATOM     27  N   UNL A   1      32.476  32.616  27.272  1.00  0.00    -0.352 N 
ATOM     28  C   UNL A   1      33.077  33.571  28.054  1.00  0.00     0.251 C 
ATOM     29  H   UNL A   1      31.631  32.892  26.849  1.00  0.00     0.163 HD
ATOM     30  O   UNL A   1      32.501  34.630  28.282  1.00  0.00    -0.269 OA
BRANCH  28  31
ATOM     31  C   UNL A   1      34.401  33.310  28.660  1.00  0.00     0.039 A 
ATOM     32  C   UNL A   1      34.455  32.654  29.892  1.00  0.00     0.014 A 
ATOM     33  C   UNL A   1      35.581  33.687  28.011  1.00  0.00     0.014 A 
ATOM     34  C   UNL A   1      35.691  32.294  30.431  1.00  0.00     0.010 A 
ATOM     35  C   UNL A   1      36.811  33.274  28.520  1.00  0.00     0.010 A 
ATOM     36  C   UNL A   1      36.877  32.556  29.724  1.00  0.00    -0.014 A 
BRANCH  36  37
ATOM     37  C   UNL A   1      38.182  32.025  30.194  1.00  0.00     0.031 A 
ATOM     38  C   UNL A   1      38.726  30.733  29.655  1.00  0.00     0.074 A 
ATOM     39  C   UNL A   1      38.841  32.678  31.172  1.00  0.00     0.049 A 
ATOM     40  N   UNL A   1      39.812  30.089  30.004  1.00  0.00    -0.248 NA
ATOM     41  C   UNL A   1      37.941  30.065  28.604  1.00  0.00     0.031 C 
ATOM     42  C   UNL A   1      38.399  33.921  31.810  1.00  0.00     0.029 A 
ATOM     43  N   UNL A   1      40.019  32.379  31.812  1.00  0.00    -0.354 N 
ATOM     44  C   UNL A   1      39.833  28.937  29.227  1.00  0.00     0.074 A 
ATOM     45  C   UNL A   1      38.636  28.952  28.414  1.00  0.00     0.031 C 
ATOM     46  C   UNL A   1      39.300  34.286  32.736  1.00  0.00     0.029 A 
ATOM     47  C   UNL A   1      40.360  33.283  32.790  1.00  0.00     0.049 A 
ATOM     48  H   UNL A   1      40.568  31.593  31.592  1.00  0.00     0.167 HD
ATOM     49  C   UNL A   1      40.774  27.963  29.187  1.00  0.00     0.031 A 
ATOM     50  C   UNL A   1      41.397  33.298  33.647  1.00  0.00     0.031 A 
ATOM     51  C   UNL A   1      41.969  27.952  29.987  1.00  0.00     0.049 A 
ATOM     52  C   UNL A   1      42.410  32.189  33.595  1.00  0.00     0.074 A 
ATOM     53  C   UNL A   1      43.014  27.042  29.959  1.00  0.00     0.029 A 
ATOM     54  N   UNL A   1      42.278  28.886  30.961  1.00  0.00    -0.354 N 
ATOM     55  N   UNL A   1      42.459  31.153  32.794  1.00  0.00    -0.248 NA
ATOM     56  C   UNL A   1      43.513  32.255  34.564  1.00  0.00     0.031 C 
ATOM     57  C   UNL A   1      43.928  27.395  30.957  1.00  0.00     0.029 A 
ATOM     58  C   UNL A   1      43.478  28.555  31.569  1.00  0.00     0.049 A 
ATOM     59  H   UNL A   1      41.726  29.668  31.190  1.00  0.00     0.167 HD
ATOM     60  C   UNL A   1      43.606  30.456  33.149  1.00  0.00     0.074 A 
ATOM     61  C   UNL A   1      44.236  31.198  34.220  1.00  0.00     0.031 C 
ATOM     62  C   UNL A   1      44.091  29.299  32.637  1.00  0.00     0.031 A 
BRANCH  49  63
ATOM     63  C   UNL A   1      40.549  26.813  28.247  1.00  0.00    -0.014 A 
ATOM     64  C   UNL A   1      39.763  25.712  28.621  1.00  0.00     0.009 A 
ATOM     65  C   UNL A   1      41.066  26.867  26.942  1.00  0.00     0.009 A 
ATOM     66  C   UNL A   1      39.517  24.678  27.715  1.00  0.00     0.001 A 
ATOM     67  C   UNL A   1      40.798  25.844  26.031  1.00  0.00     0.001 A 
ATOM     68  C   UNL A   1      40.029  24.748  26.419  1.00  0.00     0.000 A 
ENDBRANCH  49  63
BRANCH  50  69
ATOM     69  C   UNL A   1      41.530  34.391  34.646  1.00  0.00    -0.014 A 
ATOM     70  C   UNL A   1      40.945  34.273  35.916  1.00  0.00     0.009 A 
ATOM     71  C   UNL A   1      42.216  35.571  34.323  1.00  0.00     0.009 A 
ATOM     72  C   UNL A   1      41.016  35.327  36.829  1.00  0.00     0.001 A 
ATOM     73  C   UNL A   1      42.312  36.612  35.249  1.00  0.00     0.001 A 
ATOM     74  C   UNL A   1      41.702  36.494  36.496  1.00  0.00     0.000 A 
ENDBRANCH  50  69
BRANCH  62  75
ATOM     75  C   UNL A   1      45.374  28.778  33.217  1.00  0.00    -0.014 A 
ATOM     76  C   UNL A   1      46.618  29.176  32.702  1.00  0.00     0.009 A 
ATOM     77  C   UNL A   1      45.340  27.902  34.314  1.00  0.00     0.009 A 
ATOM     78  C   UNL A   1      47.801  28.683  33.255  1.00  0.00     0.001 A 
ATOM     79  C   UNL A   1      46.525  27.435  34.883  1.00  0.00     0.001 A 
ATOM     80  C   UNL A   1      47.753  27.818  34.347  1.00  0.00     0.000 A 
ENDBRANCH  62  75
ENDBRANCH  36  37
ENDBRANCH  28  31
ENDBRANCH  26  27
ENDBRANCH  25  26
ENDBRANCH   1  25
TORSDOF 15
ENDMDL
MODEL 2
REMARK VINA RESULT:     -11.4      3.552      8.597
REMARK SMILES C[C@@H](C(=O)NCCCCNC(=O)c1ccc(-c2c3nc(c(-c4ccccc4)c4ccc([nH]4)c(-c4ccccc4)c4nc(c(-c5ccccc5)c5ccc2[nH]5)C=C4)C=C3)cc1)c1cc(C(=O)c2ccccc2)ccc1O
REMARK SMILES IDX 7 1 6 2 5 3 3 4 4 5 2 7 1 8 61 9 62 10 74 11 63 12 73 13
REMARK SMILES IDX 72 14 75 15 64 17 65 18 66 19 67 20 71 21 68 22 70 23 69 24
REMARK SMILES IDX 8 25 9 26 10 27 11 28 12 30 13 31 14 32 60 33 15 34 59 35
REMARK SMILES IDX 16 36 17 37 18 38 53 39 19 40 58 41 52 42 54 43 20 44 57 45
REMARK SMILES IDX 51 46 50 47 21 49 43 50 28 51 42 52 29 53 32 54 41 55 55 56
REMARK SMILES IDX 30 57 31 58 40 60 56 61 33 62 22 63 23 64 27 65 24 66 26 67
REMARK SMILES IDX 25 68 44 69 45 70 49 71 46 72 48 73 47 74 34 75 35 76 39 77
REMARK SMILES IDX 36 78 38 79 37 80
REMARK H PARENT 5 6 75 16 10 29 54 48 32 59
REMARK Flexibility Score: inf
ROOT
ATOM      1  C   UNL A   1      37.016  22.160  24.040  1.00  0.00     0.023 C 
ENDROOT
BRANCH   1   2
ATOM      2  C   UNL A   1      35.585  22.629  24.311  1.00  0.00     0.116 C 
BRANCH   2   3
ATOM      3  N   UNL A   1      34.969  23.192  23.129  1.00  0.00    -0.356 N 
ATOM      4  C   UNL A   1      33.745  22.985  22.569  1.00  0.00     0.227 C 
ATOM      5  O   UNL A   1      33.516  23.640  21.546  1.00  0.00    -0.274 OA
ATOM      6  H   UNL A   1      35.534  23.837  22.645  1.00  0.00     0.163 HD
BRANCH   4   7
ATOM      7  C   UNL A   1      32.716  22.028  23.200  1.00  0.00     0.109 C 
ATOM      8  C   UNL A   1      31.783  21.373  22.180  1.00  0.00     0.023 C 
BRANCH   7   9
ATOM      9  C   UNL A   1      31.828  22.651  24.286  1.00  0.00     0.007 A 
ATOM     10  C   UNL A   1      31.497  24.019  24.166  1.00  0.00     0.020 A 
ATOM     11  C   UNL A   1      31.449  22.003  25.471  1.00  0.00     0.119 A 
ATOM     12  C   UNL A   1      30.810  24.698  25.185  1.00  0.00     0.023 A 
ATOM     13  C   UNL A   1      30.725  22.655  26.466  1.00  0.00     0.047 A 
ATOM     14  C   UNL A   1      30.384  23.994  26.316  1.00  0.00     0.016 A 
BRANCH  11  15
ATOM     15  O   UNL A   1      31.773  20.706  25.745  1.00  0.00    -0.508 OA
ATOM     16  H   UNL A   1      32.671  20.455  25.828  1.00  0.00     0.293 HD
ENDBRANCH  11  15
BRANCH  12  17
ATOM     17  C   UNL A   1      30.560  26.160  25.034  1.00  0.00     0.193 C 
ATOM     18  O   UNL A   1      29.474  26.557  24.620  1.00  0.00    -0.289 OA
BRANCH  17  19
ATOM     19  C   UNL A   1      31.602  27.155  25.388  1.00  0.00     0.022 A 
ATOM     20  C   UNL A   1      31.419  28.483  24.991  1.00  0.00     0.012 A 
ATOM     21  C   UNL A   1      32.746  26.792  26.112  1.00  0.00     0.012 A 
ATOM     22  C   UNL A   1      32.345  29.455  25.369  1.00  0.00     0.001 A 
ATOM     23  C   UNL A   1      33.666  27.769  26.494  1.00  0.00     0.001 A 
ATOM     24  C   UNL A   1      33.460  29.100  26.132  1.00  0.00     0.000 A 
ENDBRANCH  17  19
ENDBRANCH  12  17
ENDBRANCH   7   9
ENDBRANCH   4   7
ENDBRANCH   2   3
ENDBRANCH   1   2
BRANCH   1  25
ATOM     25  C   UNL A   1      37.418  20.849  24.723  1.00  0.00     0.023 C 
BRANCH  25  26
ATOM     26  C   UNL A   1      38.511  20.960  25.780  1.00  0.00     0.116 C 
BRANCH  26  27
ATOM     27  N   UNL A   1      39.463  19.861  25.732  1.00  0.00    -0.352 N 
ATOM     28  C   UNL A   1      40.801  19.848  26.039  1.00  0.00     0.251 C 
ATOM     29  H   UNL A   1      39.093  18.999  25.434  1.00  0.00     0.163 HD
ATOM     30  O   UNL A   1      41.472  18.844  25.820  1.00  0.00    -0.269 OA
BRANCH  28  31
ATOM     31  C   UNL A   1      41.447  21.057  26.594  1.00  0.00     0.039 A 
ATOM     32  C   UNL A   1      42.009  21.981  25.710  1.00  0.00     0.014 A 
ATOM     33  C   UNL A   1      41.483  21.291  27.972  1.00  0.00     0.014 A 
ATOM     34  C   UNL A   1      42.522  23.184  26.199  1.00  0.00     0.010 A 
ATOM     35  C   UNL A   1      41.941  22.516  28.454  1.00  0.00     0.010 A 
ATOM     36  C   UNL A   1      42.446  23.482  27.570  1.00  0.00    -0.014 A 
BRANCH  36  37
ATOM     37  C   UNL A   1      42.824  24.823  28.084  1.00  0.00     0.031 A 
ATOM     38  C   UNL A   1      41.783  25.883  28.308  1.00  0.00     0.074 A 
ATOM     39  C   UNL A   1      44.128  25.108  28.275  1.00  0.00     0.049 A 
ATOM     40  N   UNL A   1      41.943  27.127  28.684  1.00  0.00    -0.248 NA
ATOM     41  C   UNL A   1      40.383  25.505  28.059  1.00  0.00     0.031 C 
ATOM     42  C   UNL A   1      45.241  24.181  28.054  1.00  0.00     0.029 A 
ATOM     43  N   UNL A   1      44.740  26.267  28.686  1.00  0.00    -0.354 N 
ATOM     44  C   UNL A   1      40.671  27.683  28.703  1.00  0.00     0.074 A 
ATOM     45  C   UNL A   1      39.753  26.653  28.268  1.00  0.00     0.031 C 
ATOM     46  C   UNL A   1      46.395  24.801  28.346  1.00  0.00     0.029 A 
ATOM     47  C   UNL A   1      46.111  26.179  28.732  1.00  0.00     0.049 A 
ATOM     48  H   UNL A   1      44.245  27.083  28.925  1.00  0.00     0.167 HD
ATOM     49  C   UNL A   1      40.301  28.935  29.064  1.00  0.00     0.031 A 
ATOM     50  C   UNL A   1      47.039  27.106  29.035  1.00  0.00     0.031 A 
ATOM     51  C   UNL A   1      41.212  29.957  29.506  1.00  0.00     0.049 A 
ATOM     52  C   UNL A   1      46.599  28.494  29.406  1.00  0.00     0.074 A 
ATOM     53  C   UNL A   1      40.918  31.232  29.961  1.00  0.00     0.029 A 
ATOM     54  N   UNL A   1      42.590  29.827  29.542  1.00  0.00    -0.354 N 
ATOM     55  N   UNL A   1      45.384  28.977  29.502  1.00  0.00    -0.248 NA
ATOM     56  C   UNL A   1      47.659  29.464  29.715  1.00  0.00     0.031 C 
ATOM     57  C   UNL A   1      42.123  31.893  30.219  1.00  0.00     0.029 A 
ATOM     58  C   UNL A   1      43.164  31.011  29.976  1.00  0.00     0.049 A 
ATOM     59  H   UNL A   1      43.088  29.015  29.295  1.00  0.00     0.167 HD
ATOM     60  C   UNL A   1      45.533  30.298  29.900  1.00  0.00     0.074 A 
ATOM     61  C   UNL A   1      46.953  30.535  30.051  1.00  0.00     0.031 C 
ATOM     62  C   UNL A   1      44.578  31.235  30.116  1.00  0.00     0.031 A 
BRANCH  49  63
ATOM     63  C   UNL A   1      38.841  29.282  28.991  1.00  0.00    -0.014 A 
ATOM     64  C   UNL A   1      38.254  29.700  27.787  1.00  0.00     0.009 A 
ATOM     65  C   UNL A   1      38.026  29.112  30.122  1.00  0.00     0.009 A 
ATOM     66  C   UNL A   1      36.883  29.963  27.723  1.00  0.00     0.001 A 
ATOM     67  C   UNL A   1      36.654  29.352  30.048  1.00  0.00     0.001 A 
ATOM     68  C   UNL A   1      36.084  29.782  28.851  1.00  0.00     0.000 A 
ENDBRANCH  49  63
BRANCH  50  69
ATOM     69  C   UNL A   1      48.485  26.764  28.986  1.00  0.00    -0.014 A 
ATOM     70  C   UNL A   1      49.141  26.271  30.124  1.00  0.00     0.009 A 
ATOM     71  C   UNL A   1      49.224  26.960  27.809  1.00  0.00     0.009 A 
ATOM     72  C   UNL A   1      50.513  26.012  30.093  1.00  0.00     0.001 A 
ATOM     73  C   UNL A   1      50.590  26.672  27.773  1.00  0.00     0.001 A 
ATOM     74  C   UNL A   1      51.235  26.210  28.918  1.00  0.00     0.000 A 
ENDBRANCH  50  69
BRANCH  62  75
ATOM     75  C   UNL A   1      45.039  32.595  30.556  1.00  0.00    -0.014 A 
ATOM     76  C   UNL A   1      45.229  32.892  31.915  1.00  0.00     0.009 A 
ATOM     77  C   UNL A   1      45.319  33.582  29.597  1.00  0.00     0.009 A 
ATOM     78  C   UNL A   1      45.660  34.161  32.305  1.00  0.00     0.001 A 
ATOM     79  C   UNL A   1      45.778  34.839  29.990  1.00  0.00     0.001 A 
ATOM     80  C   UNL A   1      45.939  35.130  31.343  1.00  0.00     0.000 A 
ENDBRANCH  62  75
ENDBRANCH  36  37
ENDBRANCH  28  31
ENDBRANCH  26  27
ENDBRANCH  25  26
ENDBRANCH   1  25
TORSDOF 15
ENDMDL
MODEL 3
REMARK VINA RESULT:     -11.4      0.643      5.945
REMARK SMILES C[C@@H](C(=O)NCCCCNC(=O)c1ccc(-c2c3nc(c(-c4ccccc4)c4ccc([nH]4)c(-c4ccccc4)c4nc(c(-c5ccccc5)c5ccc2[nH]5)C=C4)C=C3)cc1)c1cc(C(=O)c2ccccc2)ccc1O
REMARK SMILES IDX 7 1 6 2 5 3 3 4 4 5 2 7 1 8 61 9 62 10 74 11 63 12 73 13
REMARK SMILES IDX 72 14 75 15 64 17 65 18 66 19 67 20 71 21 68 22 70 23 69 24
REMARK SMILES IDX 8 25 9 26 10 27 11 28 12 30 13 31 14 32 60 33 15 34 59 35
REMARK SMILES IDX 16 36 17 37 18 38 53 39 19 40 58 41 52 42 54 43 20 44 57 45
REMARK SMILES IDX 51 46 50 47 21 49 43 50 28 51 42 52 29 53 32 54 41 55 55 56
REMARK SMILES IDX 30 57 31 58 40 60 56 61 33 62 22 63 23 64 27 65 24 66 26 67
REMARK SMILES IDX 25 68 44 69 45 70 49 71 46 72 48 73 47 74 34 75 35 76 39 77
REMARK SMILES IDX 36 78 38 79 37 80
REMARK H PARENT 5 6 75 16 10 29 54 48 32 59
REMARK Flexibility Score: inf
ROOT
ATOM      1  C   UNL A   1      31.778  29.157  27.317  1.00  0.00     0.023 C 
ENDROOT
BRANCH   1   2
ATOM      2  C   UNL A   1      32.036  27.993  26.356  1.00  0.00     0.116 C 
BRANCH   2   3
ATOM      3  N   UNL A   1      31.182  26.860  26.641  1.00  0.00    -0.356 N 
ATOM      4  C   UNL A   1      30.269  26.209  25.868  1.00  0.00     0.227 C 
ATOM      5  O   UNL A   1      29.702  25.256  26.413  1.00  0.00    -0.274 OA
ATOM      6  H   UNL A   1      31.277  26.498  27.551  1.00  0.00     0.163 HD
BRANCH   4   7
ATOM      7  C   UNL A   1      30.002  26.619  24.407  1.00  0.00     0.109 C 
ATOM      8  C   UNL A   1      28.565  26.356  23.950  1.00  0.00     0.023 C 
BRANCH   7   9
ATOM      9  C   UNL A   1      30.929  25.974  23.369  1.00  0.00     0.007 A 
ATOM     10  C   UNL A   1      31.575  24.767  23.719  1.00  0.00     0.020 A 
ATOM     11  C   UNL A   1      31.306  26.573  22.158  1.00  0.00     0.119 A 
ATOM     12  C   UNL A   1      32.544  24.187  22.884  1.00  0.00     0.023 A 
ATOM     13  C   UNL A   1      32.231  25.981  21.302  1.00  0.00     0.047 A 
ATOM     14  C   UNL A   1      32.834  24.778  21.652  1.00  0.00     0.016 A 
BRANCH  11  15
ATOM     15  O   UNL A   1      30.816  27.776  21.740  1.00  0.00    -0.508 OA
ATOM     16  H   UNL A   1      30.399  27.847  20.904  1.00  0.00     0.293 HD
ENDBRANCH  11  15
BRANCH  12  17
ATOM     17  C   UNL A   1      33.247  22.955  23.346  1.00  0.00     0.193 C 
ATOM     18  O   UNL A   1      32.764  21.851  23.114  1.00  0.00    -0.289 OA
BRANCH  17  19
ATOM     19  C   UNL A   1      34.536  23.038  24.076  1.00  0.00     0.022 A 
ATOM     20  C   UNL A   1      35.724  22.961  23.342  1.00  0.00     0.012 A 
ATOM     21  C   UNL A   1      34.582  23.201  25.467  1.00  0.00     0.012 A 
ATOM     22  C   UNL A   1      36.951  23.107  23.991  1.00  0.00     0.001 A 
ATOM     23  C   UNL A   1      35.811  23.353  26.110  1.00  0.00     0.001 A 
ATOM     24  C   UNL A   1      36.993  23.316  25.370  1.00  0.00     0.000 A 
ENDBRANCH  17  19
ENDBRANCH  12  17
ENDBRANCH   7   9
ENDBRANCH   4   7
ENDBRANCH   2   3
ENDBRANCH   1   2
BRANCH   1  25
ATOM     25  C   UNL A   1      31.666  30.536  26.661  1.00  0.00     0.023 C 
BRANCH  25  26
ATOM     26  C   UNL A   1      32.839  31.481  26.896  1.00  0.00     0.116 C 
BRANCH  26  27
ATOM     27  N   UNL A   1      32.424  32.812  27.309  1.00  0.00    -0.352 N 
ATOM     28  C   UNL A   1      33.046  33.700  28.152  1.00  0.00     0.251 C 
ATOM     29  H   UNL A   1      31.571  33.123  26.928  1.00  0.00     0.163 HD
ATOM     30  O   UNL A   1      32.478  34.739  28.476  1.00  0.00    -0.269 OA
BRANCH  28  31
ATOM     31  C   UNL A   1      34.381  33.389  28.705  1.00  0.00     0.039 A 
ATOM     32  C   UNL A   1      34.458  32.714  29.926  1.00  0.00     0.014 A 
ATOM     33  C   UNL A   1      35.549  33.739  28.020  1.00  0.00     0.014 A 
ATOM     34  C   UNL A   1      35.701  32.307  30.415  1.00  0.00     0.010 A 
ATOM     35  C   UNL A   1      36.782  33.280  28.479  1.00  0.00     0.010 A 
ATOM     36  C   UNL A   1      36.868  32.543  29.669  1.00  0.00    -0.014 A 
BRANCH  36  37
ATOM     37  C   UNL A   1      38.172  31.965  30.084  1.00  0.00     0.031 A 
ATOM     38  C   UNL A   1      39.103  32.731  30.980  1.00  0.00     0.074 A 
ATOM     39  C   UNL A   1      38.549  30.771  29.583  1.00  0.00     0.049 A 
ATOM     40  N   UNL A   1      40.306  32.410  31.384  1.00  0.00    -0.248 NA
ATOM     41  C   UNL A   1      38.632  34.036  31.472  1.00  0.00     0.031 C 
ATOM     42  C   UNL A   1      37.755  29.945  28.669  1.00  0.00     0.029 A 
ATOM     43  N   UNL A   1      39.705  30.050  29.760  1.00  0.00    -0.354 N 
ATOM     44  C   UNL A   1      40.741  33.474  32.162  1.00  0.00     0.074 A 
ATOM     45  C   UNL A   1      39.688  34.467  32.147  1.00  0.00     0.031 C 
ATOM     46  C   UNL A   1      38.440  28.826  28.380  1.00  0.00     0.029 A 
ATOM     47  C   UNL A   1      39.735  28.874  29.051  1.00  0.00     0.049 A 
ATOM     48  H   UNL A   1      40.442  30.348  30.341  1.00  0.00     0.167 HD
ATOM     49  C   UNL A   1      41.907  33.606  32.839  1.00  0.00     0.031 A 
ATOM     50  C   UNL A   1      40.701  27.944  28.935  1.00  0.00     0.031 A 
ATOM     51  C   UNL A   1      42.950  32.616  32.863  1.00  0.00     0.049 A 
ATOM     52  C   UNL A   1      41.995  28.131  29.678  1.00  0.00     0.074 A 
ATOM     53  C   UNL A   1      44.135  32.633  33.580  1.00  0.00     0.029 A 
ATOM     54  N   UNL A   1      42.941  31.439  32.134  1.00  0.00    -0.354 N 
ATOM     55  N   UNL A   1      42.353  29.105  30.479  1.00  0.00    -0.248 NA
ATOM     56  C   UNL A   1      43.015  27.088  29.503  1.00  0.00     0.031 C 
ATOM     57  C   UNL A   1      44.869  31.491  33.241  1.00  0.00     0.029 A 
ATOM     58  C   UNL A   1      44.116  30.738  32.354  1.00  0.00     0.049 A 
ATOM     59  H   UNL A   1      42.209  31.144  31.546  1.00  0.00     0.167 HD
ATOM     60  C   UNL A   1      43.629  28.782  30.918  1.00  0.00     0.074 A 
ATOM     61  C   UNL A   1      43.974  27.512  30.314  1.00  0.00     0.031 C 
ATOM     62  C   UNL A   1      44.447  29.479  31.743  1.00  0.00     0.031 A 
BRANCH  49  63
ATOM     63  C   UNL A   1      42.128  34.875  33.612  1.00  0.00    -0.014 A 
ATOM     64  C   UNL A   1      41.640  35.024  34.919  1.00  0.00     0.009 A 
ATOM     65  C   UNL A   1      42.901  35.906  33.054  1.00  0.00     0.009 A 
ATOM     66  C   UNL A   1      41.904  36.188  35.644  1.00  0.00     0.001 A 
ATOM     67  C   UNL A   1      43.183  37.058  33.789  1.00  0.00     0.001 A 
ATOM     68  C   UNL A   1      42.681  37.201  35.081  1.00  0.00     0.000 A 
ENDBRANCH  49  63
BRANCH  50  69
ATOM     69  C   UNL A   1      40.498  26.754  28.069  1.00  0.00    -0.014 A 
ATOM     70  C   UNL A   1      39.836  25.618  28.561  1.00  0.00     0.009 A 
ATOM     71  C   UNL A   1      40.992  26.734  26.756  1.00  0.00     0.009 A 
ATOM     72  C   UNL A   1      39.703  24.477  27.767  1.00  0.00     0.001 A 
ATOM     73  C   UNL A   1      40.831  25.603  25.954  1.00  0.00     0.001 A 
ATOM     74  C   UNL A   1      40.198  24.471  26.464  1.00  0.00     0.000 A 
ENDBRANCH  50  69
BRANCH  62  75
ATOM     75  C   UNL A   1      45.785  28.871  32.055  1.00  0.00    -0.014 A 
ATOM     76  C   UNL A   1      45.948  27.991  33.136  1.00  0.00     0.009 A 
ATOM     77  C   UNL A   1      46.890  29.158  31.236  1.00  0.00     0.009 A 
ATOM     78  C   UNL A   1      47.199  27.435  33.410  1.00  0.00     0.001 A 
ATOM     79  C   UNL A   1      48.131  28.576  31.495  1.00  0.00     0.001 A 
ATOM     80  C   UNL A   1      48.287  27.724  32.587  1.00  0.00     0.000 A 
ENDBRANCH  62  75
ENDBRANCH  36  37
ENDBRANCH  28  31
ENDBRANCH  26  27
ENDBRANCH  25  26
ENDBRANCH   1  25
TORSDOF 15
ENDMDL
