MODEL 1
REMARK VINA RESULT:     -11.4      0.000      0.000
REMARK SMILES CC[C@@](C)(NC(=O)/C=C/c1cccc(F)c1)C(=O)NCCCCNC(=O)c1ccc(-c2c3nc(c(-c4ccccc4)c4ccc([nH]4)c(-c4ccccc4)c4nc(c(-c5ccccc5)c5ccc2[nH]5)C=C4)C=C3)cc1
REMARK SMILES IDX 21 1 20 2 19 3 17 4 18 5 3 7 4 8 2 9 1 10 5 11 6 12 7 14
REMARK SMILES IDX 8 15 9 16 10 17 11 18 16 19 12 20 14 21 13 22 15 23 22 24
REMARK SMILES IDX 23 25 24 26 25 27 26 29 27 30 28 31 74 32 29 33 73 34 30 35
REMARK SMILES IDX 31 36 32 37 67 38 33 39 72 40 66 41 68 42 34 43 71 44 65 45
REMARK SMILES IDX 64 46 35 48 57 49 42 50 56 51 43 52 46 53 55 54 69 55 44 56
REMARK SMILES IDX 45 57 54 59 70 60 47 61 36 62 37 63 41 64 38 65 40 66 39 67
REMARK SMILES IDX 58 68 59 69 63 70 60 71 62 72 61 73 48 74 49 75 53 76 50 77
REMARK SMILES IDX 52 78 51 79
REMARK H PARENT 19 6 5 13 24 28 68 47 46 58
REMARK Flexibility Score: inf
ROOT
ATOM      1  C   UNL A   1      36.648  20.126  24.964  1.00  0.00     0.023 C 
ENDROOT
BRANCH   1   2
ATOM      2  C   UNL A   1      36.798  21.591  25.373  1.00  0.00     0.116 C 
BRANCH   2   3
ATOM      3  N   UNL A   1      35.989  22.031  26.497  1.00  0.00    -0.354 N 
ATOM      4  C   UNL A   1      34.803  22.716  26.553  1.00  0.00     0.245 C 
ATOM      5  O   UNL A   1      34.172  22.612  27.611  1.00  0.00    -0.272 OA
ATOM      6  H   UNL A   1      36.359  21.795  27.378  1.00  0.00     0.163 HD
BRANCH   4   7
ATOM      7  C   UNL A   1      34.201  23.440  25.314  1.00  0.00     0.116 C 
ATOM      8  C   UNL A   1      34.787  24.874  25.375  1.00  0.00     0.045 C 
BRANCH   7   9
ATOM      9  C   UNL A   1      34.561  22.857  23.914  1.00  0.00     0.035 C 
ATOM     10  C   UNL A   1      34.018  23.554  22.676  1.00  0.00     0.007 C 
ENDBRANCH   7   9
BRANCH   7  11
ATOM     11  N   UNL A   1      32.721  23.495  25.372  1.00  0.00    -0.338 N 
ATOM     12  C   UNL A   1      31.774  22.587  24.989  1.00  0.00     0.244 C 
ATOM     13  H   UNL A   1      32.358  24.329  25.749  1.00  0.00     0.164 HD
ATOM     14  O   UNL A   1      30.626  22.988  24.796  1.00  0.00    -0.270 OA
BRANCH  12  15
ATOM     15  C   UNL A   1      32.006  21.118  25.058  1.00  0.00     0.072 C 
ATOM     16  C   UNL A   1      32.249  20.242  24.073  1.00  0.00     0.014 C 
BRANCH  16  17
ATOM     17  C   UNL A   1      32.698  18.868  24.340  1.00  0.00    -0.023 A 
ATOM     18  C   UNL A   1      32.533  18.240  25.581  1.00  0.00     0.008 A 
ATOM     19  C   UNL A   1      33.320  18.158  23.304  1.00  0.00     0.047 A 
ATOM     20  C   UNL A   1      32.983  16.926  25.773  1.00  0.00     0.004 A 
ATOM     21  C   UNL A   1      33.782  16.864  23.512  1.00  0.00     0.123 A 
ATOM     22  C   UNL A   1      33.614  16.238  24.736  1.00  0.00     0.039 A 
ATOM     23  F   UNL A   1      34.401  16.220  22.514  1.00  0.00    -0.207 F 
ENDBRANCH  16  17
ENDBRANCH  12  15
ENDBRANCH   7  11
ENDBRANCH   4   7
ENDBRANCH   2   3
ENDBRANCH   1   2
BRANCH   1  24
ATOM     24  C   UNL A   1      37.925  19.294  24.902  1.00  0.00     0.023 C 
BRANCH  24  25
ATOM     25  C   UNL A   1      39.098  19.844  25.697  1.00  0.00     0.116 C 
BRANCH  25  26
ATOM     26  N   UNL A   1      40.193  18.895  25.807  1.00  0.00    -0.352 N 
ATOM     27  C   UNL A   1      41.526  19.114  26.044  1.00  0.00     0.251 C 
ATOM     28  H   UNL A   1      39.940  17.950  25.695  1.00  0.00     0.163 HD
ATOM     29  O   UNL A   1      42.325  18.190  25.944  1.00  0.00    -0.269 OA
BRANCH  27  30
ATOM     30  C   UNL A   1      42.004  20.467  26.398  1.00  0.00     0.039 A 
ATOM     31  C   UNL A   1      42.369  21.339  25.369  1.00  0.00     0.014 A 
ATOM     32  C   UNL A   1      42.101  20.876  27.731  1.00  0.00     0.014 A 
ATOM     33  C   UNL A   1      42.773  22.640  25.675  1.00  0.00     0.010 A 
ATOM     34  C   UNL A   1      42.417  22.197  28.029  1.00  0.00     0.010 A 
ATOM     35  C   UNL A   1      42.767  23.089  27.006  1.00  0.00    -0.014 A 
BRANCH  35  36
ATOM     36  C   UNL A   1      43.131  24.487  27.345  1.00  0.00     0.031 A 
ATOM     37  C   UNL A   1      44.570  24.922  27.308  1.00  0.00     0.074 A 
ATOM     38  C   UNL A   1      42.173  25.346  27.743  1.00  0.00     0.049 A 
ATOM     39  N   UNL A   1      45.088  26.085  27.615  1.00  0.00    -0.248 NA
ATOM     40  C   UNL A   1      45.560  23.915  26.897  1.00  0.00     0.031 C 
ATOM     41  C   UNL A   1      40.746  25.035  27.854  1.00  0.00     0.029 A 
ATOM     42  N   UNL A   1      42.257  26.661  28.129  1.00  0.00    -0.354 N 
ATOM     43  C   UNL A   1      46.460  25.941  27.452  1.00  0.00     0.074 A 
ATOM     44  C   UNL A   1      46.700  24.566  27.072  1.00  0.00     0.031 C 
ATOM     45  C   UNL A   1      40.085  26.136  28.245  1.00  0.00     0.029 A 
ATOM     46  C   UNL A   1      41.044  27.215  28.459  1.00  0.00     0.049 A 
ATOM     47  H   UNL A   1      43.105  27.158  28.167  1.00  0.00     0.167 HD
ATOM     48  C   UNL A   1      47.433  26.872  27.588  1.00  0.00     0.031 A 
ATOM     49  C   UNL A   1      40.738  28.453  28.890  1.00  0.00     0.031 A 
ATOM     50  C   UNL A   1      47.192  28.241  27.961  1.00  0.00     0.049 A 
ATOM     51  C   UNL A   1      41.841  29.461  29.061  1.00  0.00     0.074 A 
ATOM     52  C   UNL A   1      48.102  29.277  28.069  1.00  0.00     0.029 A 
ATOM     53  N   UNL A   1      45.950  28.761  28.294  1.00  0.00    -0.354 N 
ATOM     54  N   UNL A   1      43.125  29.330  28.832  1.00  0.00    -0.248 NA
ATOM     55  C   UNL A   1      41.448  30.793  29.541  1.00  0.00     0.031 C 
ATOM     56  C   UNL A   1      47.421  30.408  28.530  1.00  0.00     0.029 A 
ATOM     57  C   UNL A   1      46.076  30.096  28.641  1.00  0.00     0.049 A 
ATOM     58  H   UNL A   1      45.105  28.256  28.285  1.00  0.00     0.167 HD
ATOM     59  C   UNL A   1      43.688  30.569  29.107  1.00  0.00     0.074 A 
ATOM     60  C   UNL A   1      42.603  31.442  29.505  1.00  0.00     0.031 C 
ATOM     61  C   UNL A   1      44.987  30.951  29.036  1.00  0.00     0.031 A 
BRANCH  48  62
ATOM     62  C   UNL A   1      48.853  26.436  27.349  1.00  0.00    -0.014 A 
ATOM     63  C   UNL A   1      49.667  25.984  28.401  1.00  0.00     0.009 A 
ATOM     64  C   UNL A   1      49.375  26.443  26.046  1.00  0.00     0.009 A 
ATOM     65  C   UNL A   1      50.984  25.588  28.159  1.00  0.00     0.001 A 
ATOM     66  C   UNL A   1      50.681  26.016  25.801  1.00  0.00     0.001 A 
ATOM     67  C   UNL A   1      51.489  25.600  26.859  1.00  0.00     0.000 A 
ENDBRANCH  48  62
BRANCH  49  68
ATOM     68  C   UNL A   1      39.326  28.817  29.178  1.00  0.00    -0.014 A 
ATOM     69  C   UNL A   1      38.516  29.376  28.177  1.00  0.00     0.009 A 
ATOM     70  C   UNL A   1      38.781  28.618  30.457  1.00  0.00     0.009 A 
ATOM     71  C   UNL A   1      37.201  29.756  28.459  1.00  0.00     0.001 A 
ATOM     72  C   UNL A   1      37.457  28.968  30.727  1.00  0.00     0.001 A 
ATOM     73  C   UNL A   1      36.672  29.548  29.732  1.00  0.00     0.000 A 
ENDBRANCH  49  68
BRANCH  61  74
ATOM     74  C   UNL A   1      45.300  32.386  29.356  1.00  0.00    -0.014 A 
ATOM     75  C   UNL A   1      45.819  32.763  30.604  1.00  0.00     0.009 A 
ATOM     76  C   UNL A   1      45.111  33.372  28.373  1.00  0.00     0.009 A 
ATOM     77  C   UNL A   1      46.107  34.103  30.874  1.00  0.00     0.001 A 
ATOM     78  C   UNL A   1      45.431  34.704  28.633  1.00  0.00     0.001 A 
ATOM     79  C   UNL A   1      45.918  35.071  29.887  1.00  0.00     0.000 A 
ENDBRANCH  61  74
ENDBRANCH  35  36
ENDBRANCH  27  30
ENDBRANCH  25  26
ENDBRANCH  24  25
ENDBRANCH   1  24
TORSDOF 15
ENDMDL
MODEL 2
REMARK VINA RESULT:     -11.2      2.631      4.131
REMARK SMILES CC[C@@](C)(NC(=O)/C=C/c1cccc(F)c1)C(=O)NCCCCNC(=O)c1ccc(-c2c3nc(c(-c4ccccc4)c4ccc([nH]4)c(-c4ccccc4)c4nc(c(-c5ccccc5)c5ccc2[nH]5)C=C4)C=C3)cc1
REMARK SMILES IDX 21 1 20 2 19 3 17 4 18 5 3 7 4 8 2 9 1 10 5 11 6 12 7 14
REMARK SMILES IDX 8 15 9 16 10 17 11 18 16 19 12 20 14 21 13 22 15 23 22 24
REMARK SMILES IDX 23 25 24 26 25 27 26 29 27 30 28 31 74 32 29 33 73 34 30 35
REMARK SMILES IDX 31 36 32 37 67 38 33 39 72 40 66 41 68 42 34 43 71 44 65 45
REMARK SMILES IDX 64 46 35 48 57 49 42 50 56 51 43 52 46 53 55 54 69 55 44 56
REMARK SMILES IDX 45 57 54 59 70 60 47 61 36 62 37 63 41 64 38 65 40 66 39 67
REMARK SMILES IDX 58 68 59 69 63 70 60 71 62 72 61 73 48 74 49 75 53 76 50 77
REMARK SMILES IDX 52 78 51 79
REMARK H PARENT 19 6 5 13 24 28 68 47 46 58
REMARK Flexibility Score: inf
ROOT
ATOM      1  C   UNL A   1      36.250  20.328  25.028  1.00  0.00     0.023 C 
ENDROOT
BRANCH   1   2
ATOM      2  C   UNL A   1      36.129  21.809  25.384  1.00  0.00     0.116 C 
BRANCH   2   3
ATOM      3  N   UNL A   1      35.394  22.120  26.599  1.00  0.00    -0.354 N 
ATOM      4  C   UNL A   1      34.057  22.065  26.894  1.00  0.00     0.245 C 
ATOM      5  O   UNL A   1      33.773  22.018  28.096  1.00  0.00    -0.272 OA
ATOM      6  H   UNL A   1      35.959  22.426  27.346  1.00  0.00     0.163 HD
BRANCH   4   7
ATOM      7  C   UNL A   1      32.968  21.901  25.794  1.00  0.00     0.116 C 
ATOM      8  C   UNL A   1      33.290  23.007  24.756  1.00  0.00     0.045 C 
BRANCH   7   9
ATOM      9  C   UNL A   1      32.942  20.546  25.025  1.00  0.00     0.035 C 
ATOM     10  C   UNL A   1      32.572  20.555  23.550  1.00  0.00     0.007 C 
ENDBRANCH   7   9
BRANCH   7  11
ATOM     11  N   UNL A   1      31.602  22.097  26.335  1.00  0.00    -0.338 N 
ATOM     12  C   UNL A   1      30.994  23.205  26.855  1.00  0.00     0.244 C 
ATOM     13  H   UNL A   1      31.037  21.291  26.318  1.00  0.00     0.164 HD
ATOM     14  O   UNL A   1      30.000  23.047  27.564  1.00  0.00    -0.270 OA
BRANCH  12  15
ATOM     15  C   UNL A   1      31.316  24.583  26.389  1.00  0.00     0.072 C 
ATOM     16  C   UNL A   1      30.540  25.478  25.763  1.00  0.00     0.014 C 
BRANCH  16  17
ATOM     17  C   UNL A   1      30.945  26.882  25.593  1.00  0.00    -0.023 A 
ATOM     18  C   UNL A   1      30.787  27.580  24.391  1.00  0.00     0.008 A 
ATOM     19  C   UNL A   1      31.517  27.545  26.687  1.00  0.00     0.047 A 
ATOM     20  C   UNL A   1      31.195  28.918  24.292  1.00  0.00     0.004 A 
ATOM     21  C   UNL A   1      31.937  28.864  26.572  1.00  0.00     0.123 A 
ATOM     22  C   UNL A   1      31.776  29.561  25.385  1.00  0.00     0.039 A 
ATOM     23  F   UNL A   1      32.510  29.465  27.624  1.00  0.00    -0.207 F 
ENDBRANCH  16  17
ENDBRANCH  12  15
ENDBRANCH   7  11
ENDBRANCH   4   7
ENDBRANCH   2   3
ENDBRANCH   1   2
BRANCH   1  24
ATOM     24  C   UNL A   1      37.649  19.811  24.703  1.00  0.00     0.023 C 
BRANCH  24  25
ATOM     25  C   UNL A   1      38.751  20.289  25.634  1.00  0.00     0.116 C 
BRANCH  25  26
ATOM     26  N   UNL A   1      39.870  19.365  25.696  1.00  0.00    -0.352 N 
ATOM     27  C   UNL A   1      41.179  19.590  26.039  1.00  0.00     0.251 C 
ATOM     28  H   UNL A   1      39.657  18.434  25.455  1.00  0.00     0.163 HD
ATOM     29  O   UNL A   1      42.014  18.708  25.877  1.00  0.00    -0.269 OA
BRANCH  27  30
ATOM     30  C   UNL A   1      41.588  20.903  26.582  1.00  0.00     0.039 A 
ATOM     31  C   UNL A   1      42.082  21.868  25.701  1.00  0.00     0.014 A 
ATOM     32  C   UNL A   1      41.494  21.183  27.948  1.00  0.00     0.014 A 
ATOM     33  C   UNL A   1      42.426  23.132  26.181  1.00  0.00     0.010 A 
ATOM     34  C   UNL A   1      41.751  22.469  28.410  1.00  0.00     0.010 A 
ATOM     35  C   UNL A   1      42.229  23.453  27.535  1.00  0.00    -0.014 A 
BRANCH  35  36
ATOM     36  C   UNL A   1      42.527  24.812  28.052  1.00  0.00     0.031 A 
ATOM     37  C   UNL A   1      43.926  25.169  28.474  1.00  0.00     0.074 A 
ATOM     38  C   UNL A   1      41.527  25.702  28.197  1.00  0.00     0.049 A 
ATOM     39  N   UNL A   1      44.371  26.287  28.991  1.00  0.00    -0.248 NA
ATOM     40  C   UNL A   1      44.954  24.130  28.316  1.00  0.00     0.031 C 
ATOM     41  C   UNL A   1      40.122  25.464  27.858  1.00  0.00     0.029 A 
ATOM     42  N   UNL A   1      41.539  26.991  28.670  1.00  0.00    -0.354 N 
ATOM     43  C   UNL A   1      45.722  26.076  29.236  1.00  0.00     0.074 A 
ATOM     44  C   UNL A   1      46.013  24.709  28.862  1.00  0.00     0.031 C 
ATOM     45  C   UNL A   1      39.416  26.580  28.100  1.00  0.00     0.029 A 
ATOM     46  C   UNL A   1      40.306  27.595  28.656  1.00  0.00     0.049 A 
ATOM     47  H   UNL A   1      42.355  27.439  28.990  1.00  0.00     0.167 HD
ATOM     48  C   UNL A   1      46.643  26.946  29.714  1.00  0.00     0.031 A 
ATOM     49  C   UNL A   1      39.931  28.826  29.051  1.00  0.00     0.031 A 
ATOM     50  C   UNL A   1      46.352  28.306  30.081  1.00  0.00     0.049 A 
ATOM     51  C   UNL A   1      40.969  29.763  29.604  1.00  0.00     0.074 A 
ATOM     52  C   UNL A   1      47.226  29.285  30.518  1.00  0.00     0.029 A 
ATOM     53  N   UNL A   1      45.089  28.877  30.058  1.00  0.00    -0.354 N 
ATOM     54  N   UNL A   1      42.256  29.573  29.761  1.00  0.00    -0.248 NA
ATOM     55  C   UNL A   1      40.500  31.091  30.026  1.00  0.00     0.031 C 
ATOM     56  C   UNL A   1      46.481  30.429  30.823  1.00  0.00     0.029 A 
ATOM     57  C   UNL A   1      45.154  30.186  30.508  1.00  0.00     0.049 A 
ATOM     58  H   UNL A   1      44.267  28.420  29.767  1.00  0.00     0.167 HD
ATOM     59  C   UNL A   1      42.756  30.766  30.268  1.00  0.00     0.074 A 
ATOM     60  C   UNL A   1      41.636  31.676  30.376  1.00  0.00     0.031 C 
ATOM     61  C   UNL A   1      44.030  31.080  30.611  1.00  0.00     0.031 A 
BRANCH  48  62
ATOM     62  C   UNL A   1      48.051  26.444  29.883  1.00  0.00    -0.014 A 
ATOM     63  C   UNL A   1      48.998  26.557  28.852  1.00  0.00     0.009 A 
ATOM     64  C   UNL A   1      48.448  25.880  31.106  1.00  0.00     0.009 A 
ATOM     65  C   UNL A   1      50.299  26.080  29.028  1.00  0.00     0.001 A 
ATOM     66  C   UNL A   1      49.757  25.434  31.291  1.00  0.00     0.001 A 
ATOM     67  C   UNL A   1      50.679  25.524  30.249  1.00  0.00     0.000 A 
ENDBRANCH  48  62
BRANCH  49  68
ATOM     68  C   UNL A   1      38.513  29.252  28.926  1.00  0.00    -0.014 A 
ATOM     69  C   UNL A   1      37.641  29.157  30.022  1.00  0.00     0.009 A 
ATOM     70  C   UNL A   1      38.017  29.746  27.709  1.00  0.00     0.009 A 
ATOM     71  C   UNL A   1      36.298  29.518  29.894  1.00  0.00     0.001 A 
ATOM     72  C   UNL A   1      36.682  30.138  27.592  1.00  0.00     0.001 A 
ATOM     73  C   UNL A   1      35.821  30.013  28.681  1.00  0.00     0.000 A 
ENDBRANCH  49  68
BRANCH  61  74
ATOM     74  C   UNL A   1      44.287  32.478  31.097  1.00  0.00    -0.014 A 
ATOM     75  C   UNL A   1      44.244  32.801  32.461  1.00  0.00     0.009 A 
ATOM     76  C   UNL A   1      44.619  33.482  30.172  1.00  0.00     0.009 A 
ATOM     77  C   UNL A   1      44.492  34.107  32.887  1.00  0.00     0.001 A 
ATOM     78  C   UNL A   1      44.899  34.779  30.602  1.00  0.00     0.001 A 
ATOM     79  C   UNL A   1      44.824  35.094  31.958  1.00  0.00     0.000 A 
ENDBRANCH  61  74
ENDBRANCH  35  36
ENDBRANCH  27  30
ENDBRANCH  25  26
ENDBRANCH  24  25
ENDBRANCH   1  24
TORSDOF 15
ENDMDL
MODEL 3
REMARK VINA RESULT:     -11.2      0.625      6.002
REMARK SMILES CC[C@@](C)(NC(=O)/C=C/c1cccc(F)c1)C(=O)NCCCCNC(=O)c1ccc(-c2c3nc(c(-c4ccccc4)c4ccc([nH]4)c(-c4ccccc4)c4nc(c(-c5ccccc5)c5ccc2[nH]5)C=C4)C=C3)cc1
REMARK SMILES IDX 21 1 20 2 19 3 17 4 18 5 3 7 4 8 2 9 1 10 5 11 6 12 7 14
REMARK SMILES IDX 8 15 9 16 10 17 11 18 16 19 12 20 14 21 13 22 15 23 22 24
REMARK SMILES IDX 23 25 24 26 25 27 26 29 27 30 28 31 74 32 29 33 73 34 30 35
REMARK SMILES IDX 31 36 32 37 67 38 33 39 72 40 66 41 68 42 34 43 71 44 65 45
REMARK SMILES IDX 64 46 35 48 57 49 42 50 56 51 43 52 46 53 55 54 69 55 44 56
REMARK SMILES IDX 45 57 54 59 70 60 47 61 36 62 37 63 41 64 38 65 40 66 39 67
REMARK SMILES IDX 58 68 59 69 63 70 60 71 62 72 61 73 48 74 49 75 53 76 50 77
REMARK SMILES IDX 52 78 51 79
REMARK H PARENT 19 6 5 13 24 28 68 47 46 58
REMARK Flexibility Score: inf
ROOT
ATOM      1  C   UNL A   1      36.815  20.323  25.009  1.00  0.00     0.023 C 
ENDROOT
BRANCH   1   2
ATOM      2  C   UNL A   1      36.907  21.810  25.347  1.00  0.00     0.116 C 
BRANCH   2   3
ATOM      3  N   UNL A   1      36.141  22.256  26.499  1.00  0.00    -0.354 N 
ATOM      4  C   UNL A   1      34.928  22.887  26.596  1.00  0.00     0.245 C 
ATOM      5  O   UNL A   1      34.362  22.796  27.691  1.00  0.00    -0.272 OA
ATOM      6  H   UNL A   1      36.570  22.073  27.366  1.00  0.00     0.163 HD
BRANCH   4   7
ATOM      7  C   UNL A   1      34.225  23.532  25.367  1.00  0.00     0.116 C 
ATOM      8  C   UNL A   1      34.731  24.998  25.350  1.00  0.00     0.045 C 
BRANCH   7   9
ATOM      9  C   UNL A   1      34.545  22.920  23.971  1.00  0.00     0.035 C 
ATOM     10  C   UNL A   1      34.044  23.642  22.729  1.00  0.00     0.007 C 
ENDBRANCH   7   9
BRANCH   7  11
ATOM     11  N   UNL A   1      32.748  23.509  25.501  1.00  0.00    -0.338 N 
ATOM     12  C   UNL A   1      31.833  22.549  25.171  1.00  0.00     0.244 C 
ATOM     13  H   UNL A   1      32.361  24.325  25.893  1.00  0.00     0.164 HD
ATOM     14  O   UNL A   1      30.657  22.887  25.035  1.00  0.00    -0.270 OA
BRANCH  12  15
ATOM     15  C   UNL A   1      32.147  21.095  25.233  1.00  0.00     0.072 C 
ATOM     16  C   UNL A   1      32.078  20.162  24.273  1.00  0.00     0.014 C 
BRANCH  16  17
ATOM     17  C   UNL A   1      32.658  18.822  24.442  1.00  0.00    -0.023 A 
ATOM     18  C   UNL A   1      32.634  18.128  25.657  1.00  0.00     0.008 A 
ATOM     19  C   UNL A   1      33.265  18.216  23.333  1.00  0.00     0.047 A 
ATOM     20  C   UNL A   1      33.205  16.851  25.754  1.00  0.00     0.004 A 
ATOM     21  C   UNL A   1      33.847  16.960  23.445  1.00  0.00     0.123 A 
ATOM     22  C   UNL A   1      33.818  16.267  24.645  1.00  0.00     0.039 A 
ATOM     23  F   UNL A   1      34.449  16.416  22.378  1.00  0.00    -0.207 F 
ENDBRANCH  16  17
ENDBRANCH  12  15
ENDBRANCH   7  11
ENDBRANCH   4   7
ENDBRANCH   2   3
ENDBRANCH   1   2
BRANCH   1  24
ATOM     24  C   UNL A   1      38.132  19.576  24.820  1.00  0.00     0.023 C 
BRANCH  24  25
ATOM     25  C   UNL A   1      39.258  19.998  25.751  1.00  0.00     0.116 C 
BRANCH  25  26
ATOM     26  N   UNL A   1      40.278  18.974  25.894  1.00  0.00    -0.352 N 
ATOM     27  C   UNL A   1      41.625  19.100  26.125  1.00  0.00     0.251 C 
ATOM     28  H   UNL A   1      39.955  18.048  25.814  1.00  0.00     0.163 HD
ATOM     29  O   UNL A   1      42.352  18.116  26.056  1.00  0.00    -0.269 OA
BRANCH  27  30
ATOM     30  C   UNL A   1      42.203  20.425  26.433  1.00  0.00     0.039 A 
ATOM     31  C   UNL A   1      42.681  21.209  25.380  1.00  0.00     0.014 A 
ATOM     32  C   UNL A   1      42.282  20.894  27.747  1.00  0.00     0.014 A 
ATOM     33  C   UNL A   1      43.184  22.485  25.640  1.00  0.00     0.010 A 
ATOM     34  C   UNL A   1      42.699  22.197  27.994  1.00  0.00     0.010 A 
ATOM     35  C   UNL A   1      43.164  23.002  26.946  1.00  0.00    -0.014 A 
BRANCH  35  36
ATOM     36  C   UNL A   1      43.634  24.380  27.232  1.00  0.00     0.031 A 
ATOM     37  C   UNL A   1      42.653  25.437  27.662  1.00  0.00     0.074 A 
ATOM     38  C   UNL A   1      44.930  24.693  27.047  1.00  0.00     0.049 A 
ATOM     39  N   UNL A   1      42.865  26.704  27.914  1.00  0.00    -0.248 NA
ATOM     40  C   UNL A   1      41.249  25.023  27.807  1.00  0.00     0.031 C 
ATOM     41  C   UNL A   1      45.972  23.766  26.599  1.00  0.00     0.029 A 
ATOM     42  N   UNL A   1      45.595  25.883  27.215  1.00  0.00    -0.354 N 
ATOM     43  C   UNL A   1      41.622  27.239  28.226  1.00  0.00     0.074 A 
ATOM     44  C   UNL A   1      40.654  26.174  28.081  1.00  0.00     0.031 C 
ATOM     45  C   UNL A   1      47.148  24.412  26.561  1.00  0.00     0.029 A 
ATOM     46  C   UNL A   1      46.938  25.807  26.934  1.00  0.00     0.049 A 
ATOM     47  H   UNL A   1      45.151  26.711  27.507  1.00  0.00     0.167 HD
ATOM     48  C   UNL A   1      41.314  28.499  28.615  1.00  0.00     0.031 A 
ATOM     49  C   UNL A   1      47.892  26.756  26.969  1.00  0.00     0.031 A 
ATOM     50  C   UNL A   1      42.279  29.555  28.763  1.00  0.00     0.049 A 
ATOM     51  C   UNL A   1      47.517  28.154  27.377  1.00  0.00     0.074 A 
ATOM     52  C   UNL A   1      42.077  30.849  29.208  1.00  0.00     0.029 A 
ATOM     53  N   UNL A   1      43.627  29.440  28.462  1.00  0.00    -0.354 N 
ATOM     54  N   UNL A   1      46.350  28.626  27.740  1.00  0.00    -0.248 NA
ATOM     55  C   UNL A   1      48.600  29.149  27.390  1.00  0.00     0.031 C 
ATOM     56  C   UNL A   1      43.292  31.536  29.115  1.00  0.00     0.029 A 
ATOM     57  C   UNL A   1      44.264  30.651  28.679  1.00  0.00     0.049 A 
ATOM     58  H   UNL A   1      44.066  28.620  28.141  1.00  0.00     0.167 HD
ATOM     59  C   UNL A   1      46.562  29.962  28.056  1.00  0.00     0.074 A 
ATOM     60  C   UNL A   1      47.973  30.219  27.856  1.00  0.00     0.031 C 
ATOM     61  C   UNL A   1      45.669  30.892  28.475  1.00  0.00     0.031 A 
BRANCH  48  62
ATOM     62  C   UNL A   1      39.867  28.807  28.891  1.00  0.00    -0.014 A 
ATOM     63  C   UNL A   1      39.024  29.319  27.891  1.00  0.00     0.009 A 
ATOM     64  C   UNL A   1      39.330  28.550  30.163  1.00  0.00     0.009 A 
ATOM     65  C   UNL A   1      37.685  29.604  28.170  1.00  0.00     0.001 A 
ATOM     66  C   UNL A   1      37.984  28.804  30.430  1.00  0.00     0.001 A 
ATOM     67  C   UNL A   1      37.165  29.342  29.437  1.00  0.00     0.000 A 
ENDBRANCH  48  62
BRANCH  49  68
ATOM     68  C   UNL A   1      49.296  26.417  26.621  1.00  0.00    -0.014 A 
ATOM     69  C   UNL A   1      50.160  25.879  27.588  1.00  0.00     0.009 A 
ATOM     70  C   UNL A   1      49.787  26.637  25.324  1.00  0.00     0.009 A 
ATOM     71  C   UNL A   1      51.492  25.599  27.273  1.00  0.00     0.001 A 
ATOM     72  C   UNL A   1      51.109  26.325  25.002  1.00  0.00     0.001 A 
ATOM     73  C   UNL A   1      51.964  25.818  25.980  1.00  0.00     0.000 A 
ENDBRANCH  49  68
BRANCH  61  74
ATOM     74  C   UNL A   1      46.199  32.264  28.785  1.00  0.00    -0.014 A 
ATOM     75  C   UNL A   1      46.694  32.589  30.057  1.00  0.00     0.009 A 
ATOM     76  C   UNL A   1      46.241  33.235  27.771  1.00  0.00     0.009 A 
ATOM     77  C   UNL A   1      47.185  33.870  30.317  1.00  0.00     0.001 A 
ATOM     78  C   UNL A   1      46.763  34.503  28.024  1.00  0.00     0.001 A 
ATOM     79  C   UNL A   1      47.225  34.824  29.300  1.00  0.00     0.000 A 
ENDBRANCH  61  74
ENDBRANCH  35  36
ENDBRANCH  27  30
ENDBRANCH  25  26
ENDBRANCH  24  25
ENDBRANCH   1  24
TORSDOF 15
ENDMDL
