MODEL 1
REMARK VINA RESULT:      -9.1      0.000      0.000
REMARK SMILES O=C(/C=C/c1c(Cl)cccc1Cl)NCC(=O)NCCCCNC(=O)c1ccc(-c2c3nc(c(-c4ccccc4)c4ccc([nH]4)c(-c4ccccc4)c4nc(c(-c5ccccc5)c5ccc2[nH]5)C=C4)C=C3)cc1
REMARK SMILES IDX 19 1 18 2 17 3 15 4 16 5 14 7 13 8 1 9 2 10 3 12 4 13 5 14
REMARK SMILES IDX 6 15 11 16 7 17 8 18 10 19 12 20 9 21 20 22 21 23 22 24
REMARK SMILES IDX 23 25 24 27 25 28 26 29 72 30 27 31 71 32 28 33 29 34 30 35
REMARK SMILES IDX 65 36 31 37 70 38 64 39 66 40 32 41 69 42 63 43 62 44 33 46
REMARK SMILES IDX 55 47 40 48 54 49 41 50 44 51 53 52 67 53 42 54 43 55 52 57
REMARK SMILES IDX 68 58 45 59 34 60 35 61 39 62 36 63 38 64 37 65 56 66 57 67
REMARK SMILES IDX 61 68 58 69 60 70 59 71 46 72 47 73 51 74 48 75 50 76 49 77
REMARK H PARENT 17 6 13 11 22 26 66 45 44 56
REMARK Flexibility Score: inf
ROOT
ATOM      1  C   UNL A   1      45.655  19.608  24.672  1.00  0.00     0.023 C 
ENDROOT
BRANCH   1   2
ATOM      2  C   UNL A   1      45.253  21.075  24.833  1.00  0.00     0.116 C 
BRANCH   2   3
ATOM      3  N   UNL A   1      46.230  21.963  24.233  1.00  0.00    -0.355 N 
ATOM      4  C   UNL A   1      46.265  23.329  24.252  1.00  0.00     0.239 C 
ATOM      5  O   UNL A   1      47.211  23.895  23.703  1.00  0.00    -0.273 OA
ATOM      6  H   UNL A   1      46.965  21.523  23.748  1.00  0.00     0.163 HD
BRANCH   4   7
ATOM      7  C   UNL A   1      45.187  24.119  25.001  1.00  0.00     0.216 C 
BRANCH   7   8
ATOM      8  N   UNL A   1      45.607  25.482  25.288  1.00  0.00    -0.343 N 
ATOM      9  O   UNL A   1      43.506  26.387  25.172  1.00  0.00    -0.270 OA
ATOM     10  C   UNL A   1      44.713  26.514  25.351  1.00  0.00     0.244 C 
ATOM     11  H   UNL A   1      46.562  25.666  25.441  1.00  0.00     0.164 HD
BRANCH  10  12
ATOM     12  C   UNL A   1      45.277  27.870  25.551  1.00  0.00     0.072 C 
ATOM     13  C   UNL A   1      45.618  28.415  26.728  1.00  0.00     0.017 C 
BRANCH  13  14
ATOM     14  C   UNL A   1      46.140  29.794  26.840  1.00  0.00     0.012 A 
ATOM     15  C   UNL A   1      45.290  30.917  26.912  1.00  0.00     0.049 A 
ATOM     16  C   UNL A   1      47.529  30.018  26.923  1.00  0.00     0.049 A 
ATOM     17  Cl  UNL A   1      43.563  30.780  26.887  1.00  0.00    -0.084 Cl
ATOM     18  C   UNL A   1      45.813  32.209  27.042  1.00  0.00     0.021 A 
ATOM     19  C   UNL A   1      48.045  31.313  27.065  1.00  0.00     0.021 A 
ATOM     20  Cl  UNL A   1      48.672  28.717  26.849  1.00  0.00    -0.084 Cl
ATOM     21  C   UNL A   1      47.188  32.408  27.122  1.00  0.00     0.003 A 
ENDBRANCH  13  14
ENDBRANCH  10  12
ENDBRANCH   7   8
ENDBRANCH   4   7
ENDBRANCH   2   3
ENDBRANCH   1   2
BRANCH   1  22
ATOM     22  C   UNL A   1      44.497  18.616  24.818  1.00  0.00     0.023 C 
BRANCH  22  23
ATOM     23  C   UNL A   1      43.609  18.828  26.039  1.00  0.00     0.116 C 
BRANCH  23  24
ATOM     24  N   UNL A   1      42.192  18.684  25.747  1.00  0.00    -0.352 N 
ATOM     25  C   UNL A   1      41.164  19.557  25.997  1.00  0.00     0.251 C 
ATOM     26  H   UNL A   1      41.934  17.841  25.309  1.00  0.00     0.163 HD
ATOM     27  O   UNL A   1      40.002  19.209  25.795  1.00  0.00    -0.269 OA
BRANCH  25  28
ATOM     28  C   UNL A   1      41.442  20.906  26.537  1.00  0.00     0.039 A 
ATOM     29  C   UNL A   1      41.349  21.104  27.918  1.00  0.00     0.014 A 
ATOM     30  C   UNL A   1      41.772  21.974  25.700  1.00  0.00     0.014 A 
ATOM     31  C   UNL A   1      41.631  22.359  28.460  1.00  0.00     0.010 A 
ATOM     32  C   UNL A   1      42.127  23.206  26.247  1.00  0.00     0.010 A 
ATOM     33  C   UNL A   1      42.048  23.415  27.632  1.00  0.00    -0.014 A 
BRANCH  33  34
ATOM     34  C   UNL A   1      42.383  24.743  28.205  1.00  0.00     0.031 A 
ATOM     35  C   UNL A   1      43.790  25.053  28.640  1.00  0.00     0.074 A 
ATOM     36  C   UNL A   1      41.411  25.663  28.367  1.00  0.00     0.049 A 
ATOM     37  N   UNL A   1      44.270  26.157  29.154  1.00  0.00    -0.248 NA
ATOM     38  C   UNL A   1      44.782  23.975  28.502  1.00  0.00     0.031 C 
ATOM     39  C   UNL A   1      39.999  25.473  28.031  1.00  0.00     0.029 A 
ATOM     40  N   UNL A   1      41.469  26.946  28.852  1.00  0.00    -0.354 N 
ATOM     41  C   UNL A   1      45.611  25.902  29.409  1.00  0.00     0.074 A 
ATOM     42  C   UNL A   1      45.856  24.523  29.048  1.00  0.00     0.031 C 
ATOM     43  C   UNL A   1      39.330  26.610  28.284  1.00  0.00     0.029 A 
ATOM     44  C   UNL A   1      40.258  27.596  28.831  1.00  0.00     0.049 A 
ATOM     45  H   UNL A   1      42.297  27.361  29.183  1.00  0.00     0.167 HD
ATOM     46  C   UNL A   1      46.563  26.745  29.880  1.00  0.00     0.031 A 
ATOM     47  C   UNL A   1      39.933  28.847  29.204  1.00  0.00     0.031 A 
ATOM     48  C   UNL A   1      46.325  28.119  30.231  1.00  0.00     0.049 A 
ATOM     49  C   UNL A   1      41.006  29.762  29.724  1.00  0.00     0.074 A 
ATOM     50  C   UNL A   1      47.235  29.068  30.665  1.00  0.00     0.029 A 
ATOM     51  N   UNL A   1      45.087  28.740  30.192  1.00  0.00    -0.354 N 
ATOM     52  N   UNL A   1      42.285  29.529  29.886  1.00  0.00    -0.248 NA
ATOM     53  C   UNL A   1      40.589  31.123  30.095  1.00  0.00     0.031 C 
ATOM     54  C   UNL A   1      46.537  30.250  30.936  1.00  0.00     0.029 A 
ATOM     55  C   UNL A   1      45.203  30.054  30.615  1.00  0.00     0.049 A 
ATOM     56  H   UNL A   1      44.248  28.311  29.906  1.00  0.00     0.167 HD
ATOM     57  C   UNL A   1      42.831  30.718  30.352  1.00  0.00     0.074 A 
ATOM     58  C   UNL A   1      41.747  31.676  30.425  1.00  0.00     0.031 C 
ATOM     59  C   UNL A   1      44.115  30.993  30.689  1.00  0.00     0.031 A 
BRANCH  46  60
ATOM     60  C   UNL A   1      47.952  26.193  30.046  1.00  0.00    -0.014 A 
ATOM     61  C   UNL A   1      48.829  26.085  28.953  1.00  0.00     0.009 A 
ATOM     62  C   UNL A   1      48.404  25.803  31.316  1.00  0.00     0.009 A 
ATOM     63  C   UNL A   1      50.111  25.560  29.122  1.00  0.00     0.001 A 
ATOM     64  C   UNL A   1      49.697  25.307  31.489  1.00  0.00     0.001 A 
ATOM     65  C   UNL A   1      50.546  25.176  30.390  1.00  0.00     0.000 A 
ENDBRANCH  46  60
BRANCH  47  66
ATOM     66  C   UNL A   1      38.530  29.323  29.074  1.00  0.00    -0.014 A 
ATOM     67  C   UNL A   1      37.666  29.303  30.180  1.00  0.00     0.009 A 
ATOM     68  C   UNL A   1      38.044  29.787  27.843  1.00  0.00     0.009 A 
ATOM     69  C   UNL A   1      36.336  29.710  30.048  1.00  0.00     0.001 A 
ATOM     70  C   UNL A   1      36.724  30.222  27.720  1.00  0.00     0.001 A 
ATOM     71  C   UNL A   1      35.868  30.172  28.819  1.00  0.00     0.000 A 
ENDBRANCH  47  66
BRANCH  59  72
ATOM     72  C   UNL A   1      44.420  32.397  31.135  1.00  0.00    -0.014 A 
ATOM     73  C   UNL A   1      44.290  32.780  32.480  1.00  0.00     0.009 A 
ATOM     74  C   UNL A   1      44.863  33.342  30.197  1.00  0.00     0.009 A 
ATOM     75  C   UNL A   1      44.558  34.095  32.867  1.00  0.00     0.001 A 
ATOM     76  C   UNL A   1      45.161  34.647  30.594  1.00  0.00     0.001 A 
ATOM     77  C   UNL A   1      44.995  35.026  31.924  1.00  0.00     0.000 A 
ENDBRANCH  59  72
ENDBRANCH  33  34
ENDBRANCH  25  28
ENDBRANCH  23  24
ENDBRANCH  22  23
ENDBRANCH   1  22
TORSDOF 14
ENDMDL
MODEL 2
REMARK VINA RESULT:      -8.5      0.533      6.192
REMARK SMILES O=C(/C=C/c1c(Cl)cccc1Cl)NCC(=O)NCCCCNC(=O)c1ccc(-c2c3nc(c(-c4ccccc4)c4ccc([nH]4)c(-c4ccccc4)c4nc(c(-c5ccccc5)c5ccc2[nH]5)C=C4)C=C3)cc1
REMARK SMILES IDX 19 1 18 2 17 3 15 4 16 5 14 7 13 8 1 9 2 10 3 12 4 13 5 14
REMARK SMILES IDX 6 15 11 16 7 17 8 18 10 19 12 20 9 21 20 22 21 23 22 24
REMARK SMILES IDX 23 25 24 27 25 28 26 29 72 30 27 31 71 32 28 33 29 34 30 35
REMARK SMILES IDX 65 36 31 37 70 38 64 39 66 40 32 41 69 42 63 43 62 44 33 46
REMARK SMILES IDX 55 47 40 48 54 49 41 50 44 51 53 52 67 53 42 54 43 55 52 57
REMARK SMILES IDX 68 58 45 59 34 60 35 61 39 62 36 63 38 64 37 65 56 66 57 67
REMARK SMILES IDX 61 68 58 69 60 70 59 71 46 72 47 73 51 74 48 75 50 76 49 77
REMARK H PARENT 17 6 13 11 22 26 66 45 44 56
REMARK Flexibility Score: inf
ROOT
ATOM      1  C   UNL A   1      45.355  19.628  24.620  1.00  0.00     0.023 C 
ENDROOT
BRANCH   1   2
ATOM      2  C   UNL A   1      45.115  21.071  25.069  1.00  0.00     0.116 C 
BRANCH   2   3
ATOM      3  N   UNL A   1      46.119  21.968  24.533  1.00  0.00    -0.355 N 
ATOM      4  C   UNL A   1      46.010  23.302  24.259  1.00  0.00     0.239 C 
ATOM      5  O   UNL A   1      47.004  23.893  23.834  1.00  0.00    -0.273 OA
ATOM      6  H   UNL A   1      46.995  21.563  24.340  1.00  0.00     0.163 HD
BRANCH   4   7
ATOM      7  C   UNL A   1      44.701  24.045  24.543  1.00  0.00     0.216 C 
BRANCH   7   8
ATOM      8  N   UNL A   1      44.919  25.274  25.291  1.00  0.00    -0.343 N 
ATOM      9  O   UNL A   1      42.895  26.209  24.769  1.00  0.00    -0.270 OA
ATOM     10  C   UNL A   1      43.978  26.265  25.340  1.00  0.00     0.244 C 
ATOM     11  H   UNL A   1      45.768  25.396  25.774  1.00  0.00     0.164 HD
BRANCH  10  12
ATOM     12  C   UNL A   1      44.361  27.509  26.050  1.00  0.00     0.072 C 
ATOM     13  C   UNL A   1      45.498  28.198  25.874  1.00  0.00     0.017 C 
BRANCH  13  14
ATOM     14  C   UNL A   1      45.817  29.411  26.655  1.00  0.00     0.012 A 
ATOM     15  C   UNL A   1      47.141  29.770  26.983  1.00  0.00     0.049 A 
ATOM     16  C   UNL A   1      44.785  30.280  27.063  1.00  0.00     0.049 A 
ATOM     17  Cl  UNL A   1      48.509  28.827  26.489  1.00  0.00    -0.084 Cl
ATOM     18  C   UNL A   1      47.415  30.938  27.704  1.00  0.00     0.021 A 
ATOM     19  C   UNL A   1      45.066  31.454  27.774  1.00  0.00     0.021 A 
ATOM     20  Cl  UNL A   1      43.119  29.947  26.716  1.00  0.00    -0.084 Cl
ATOM     21  C   UNL A   1      46.380  31.782  28.097  1.00  0.00     0.003 A 
ENDBRANCH  13  14
ENDBRANCH  10  12
ENDBRANCH   7   8
ENDBRANCH   4   7
ENDBRANCH   2   3
ENDBRANCH   1   2
BRANCH   1  22
ATOM     22  C   UNL A   1      44.100  18.749  24.620  1.00  0.00     0.023 C 
BRANCH  22  23
ATOM     23  C   UNL A   1      43.323  18.724  25.932  1.00  0.00     0.116 C 
BRANCH  23  24
ATOM     24  N   UNL A   1      41.882  18.722  25.742  1.00  0.00    -0.352 N 
ATOM     25  C   UNL A   1      40.959  19.666  26.115  1.00  0.00     0.251 C 
ATOM     26  H   UNL A   1      41.516  17.931  25.283  1.00  0.00     0.163 HD
ATOM     27  O   UNL A   1      39.758  19.433  25.985  1.00  0.00    -0.269 OA
BRANCH  25  28
ATOM     28  C   UNL A   1      41.398  20.952  26.700  1.00  0.00     0.039 A 
ATOM     29  C   UNL A   1      41.642  22.027  25.841  1.00  0.00     0.014 A 
ATOM     30  C   UNL A   1      41.588  21.100  28.076  1.00  0.00     0.014 A 
ATOM     31  C   UNL A   1      42.031  23.260  26.367  1.00  0.00     0.010 A 
ATOM     32  C   UNL A   1      41.903  22.350  28.606  1.00  0.00     0.010 A 
ATOM     33  C   UNL A   1      42.140  23.440  27.756  1.00  0.00    -0.014 A 
BRANCH  33  34
ATOM     34  C   UNL A   1      42.521  24.759  28.323  1.00  0.00     0.031 A 
ATOM     35  C   UNL A   1      41.490  25.841  28.494  1.00  0.00     0.074 A 
ATOM     36  C   UNL A   1      43.805  24.995  28.656  1.00  0.00     0.049 A 
ATOM     37  N   UNL A   1      41.634  27.049  28.978  1.00  0.00    -0.248 NA
ATOM     38  C   UNL A   1      40.123  25.536  28.041  1.00  0.00     0.031 C 
ATOM     39  C   UNL A   1      44.911  24.049  28.496  1.00  0.00     0.029 A 
ATOM     40  N   UNL A   1      44.395  26.108  29.203  1.00  0.00    -0.354 N 
ATOM     41  C   UNL A   1      40.385  27.648  28.877  1.00  0.00     0.074 A 
ATOM     42  C   UNL A   1      39.509  26.693  28.234  1.00  0.00     0.031 C 
ATOM     43  C   UNL A   1      46.038  24.606  28.970  1.00  0.00     0.029 A 
ATOM     44  C   UNL A   1      45.741  25.958  29.434  1.00  0.00     0.049 A 
ATOM     45  H   UNL A   1      43.902  26.934  29.409  1.00  0.00     0.167 HD
ATOM     46  C   UNL A   1      39.992  28.875  29.300  1.00  0.00     0.031 A 
ATOM     47  C   UNL A   1      46.636  26.812  29.965  1.00  0.00     0.031 A 
ATOM     48  C   UNL A   1      40.858  29.823  29.948  1.00  0.00     0.049 A 
ATOM     49  C   UNL A   1      46.176  28.166  30.427  1.00  0.00     0.074 A 
ATOM     50  C   UNL A   1      40.542  31.068  30.464  1.00  0.00     0.029 A 
ATOM     51  N   UNL A   1      42.213  29.631  30.167  1.00  0.00    -0.354 N 
ATOM     52  N   UNL A   1      44.974  28.687  30.394  1.00  0.00    -0.248 NA
ATOM     53  C   UNL A   1      47.198  29.043  31.018  1.00  0.00     0.031 C 
ATOM     54  C   UNL A   1      41.717  31.651  30.950  1.00  0.00     0.029 A 
ATOM     55  C   UNL A   1      42.754  30.745  30.790  1.00  0.00     0.049 A 
ATOM     56  H   UNL A   1      42.718  28.824  29.917  1.00  0.00     0.167 HD
ATOM     57  C   UNL A   1      45.088  29.940  30.982  1.00  0.00     0.074 A 
ATOM     58  C   UNL A   1      46.473  30.090  31.383  1.00  0.00     0.031 C 
ATOM     59  C   UNL A   1      44.133  30.883  31.176  1.00  0.00     0.031 A 
BRANCH  46  60
ATOM     60  C   UNL A   1      38.556  29.258  29.069  1.00  0.00    -0.014 A 
ATOM     61  C   UNL A   1      37.598  29.146  30.090  1.00  0.00     0.009 A 
ATOM     62  C   UNL A   1      38.160  29.765  27.821  1.00  0.00     0.009 A 
ATOM     63  C   UNL A   1      36.267  29.496  29.854  1.00  0.00     0.001 A 
ATOM     64  C   UNL A   1      36.835  30.143  27.597  1.00  0.00     0.001 A 
ATOM     65  C   UNL A   1      35.888  29.997  28.610  1.00  0.00     0.000 A 
ENDBRANCH  46  60
BRANCH  47  66
ATOM     66  C   UNL A   1      48.057  26.402  30.118  1.00  0.00    -0.014 A 
ATOM     67  C   UNL A   1      48.491  25.758  31.287  1.00  0.00     0.009 A 
ATOM     68  C   UNL A   1      48.989  26.663  29.103  1.00  0.00     0.009 A 
ATOM     69  C   UNL A   1      49.835  25.412  31.449  1.00  0.00     0.001 A 
ATOM     70  C   UNL A   1      50.325  26.289  29.253  1.00  0.00     0.001 A 
ATOM     71  C   UNL A   1      50.749  25.674  30.430  1.00  0.00     0.000 A 
ENDBRANCH  47  66
BRANCH  59  72
ATOM     72  C   UNL A   1      44.550  32.145  31.878  1.00  0.00    -0.014 A 
ATOM     73  C   UNL A   1      44.973  33.275  31.161  1.00  0.00     0.009 A 
ATOM     74  C   UNL A   1      44.496  32.209  33.279  1.00  0.00     0.009 A 
ATOM     75  C   UNL A   1      45.376  34.429  31.837  1.00  0.00     0.001 A 
ATOM     76  C   UNL A   1      44.869  33.375  33.950  1.00  0.00     0.001 A 
ATOM     77  C   UNL A   1      45.321  34.479  33.230  1.00  0.00     0.000 A 
ENDBRANCH  59  72
ENDBRANCH  33  34
ENDBRANCH  25  28
ENDBRANCH  23  24
ENDBRANCH  22  23
ENDBRANCH   1  22
TORSDOF 14
ENDMDL
MODEL 3
REMARK VINA RESULT:      -8.4      5.093     10.673
REMARK SMILES O=C(/C=C/c1c(Cl)cccc1Cl)NCC(=O)NCCCCNC(=O)c1ccc(-c2c3nc(c(-c4ccccc4)c4ccc([nH]4)c(-c4ccccc4)c4nc(c(-c5ccccc5)c5ccc2[nH]5)C=C4)C=C3)cc1
REMARK SMILES IDX 19 1 18 2 17 3 15 4 16 5 14 7 13 8 1 9 2 10 3 12 4 13 5 14
REMARK SMILES IDX 6 15 11 16 7 17 8 18 10 19 12 20 9 21 20 22 21 23 22 24
REMARK SMILES IDX 23 25 24 27 25 28 26 29 72 30 27 31 71 32 28 33 29 34 30 35
REMARK SMILES IDX 65 36 31 37 70 38 64 39 66 40 32 41 69 42 63 43 62 44 33 46
REMARK SMILES IDX 55 47 40 48 54 49 41 50 44 51 53 52 67 53 42 54 43 55 52 57
REMARK SMILES IDX 68 58 45 59 34 60 35 61 39 62 36 63 38 64 37 65 56 66 57 67
REMARK SMILES IDX 61 68 58 69 60 70 59 71 46 72 47 73 51 74 48 75 50 76 49 77
REMARK H PARENT 17 6 13 11 22 26 66 45 44 56
REMARK Flexibility Score: inf
ROOT
ATOM      1  C   UNL A   1      33.027  29.453  24.974  1.00  0.00     0.023 C 
ENDROOT
BRANCH   1   2
ATOM      2  C   UNL A   1      31.498  29.449  25.014  1.00  0.00     0.116 C 
BRANCH   2   3
ATOM      3  N   UNL A   1      30.931  29.485  23.680  1.00  0.00    -0.355 N 
ATOM      4  C   UNL A   1      30.109  28.574  23.079  1.00  0.00     0.239 C 
ATOM      5  O   UNL A   1      29.709  28.813  21.938  1.00  0.00    -0.273 OA
ATOM      6  H   UNL A   1      31.171  30.269  23.135  1.00  0.00     0.163 HD
BRANCH   4   7
ATOM      7  C   UNL A   1      29.649  27.328  23.840  1.00  0.00     0.216 C 
BRANCH   7   8
ATOM      8  N   UNL A   1      30.736  26.388  24.064  1.00  0.00    -0.343 N 
ATOM      9  O   UNL A   1      30.324  26.103  26.299  1.00  0.00    -0.270 OA
ATOM     10  C   UNL A   1      30.981  25.848  25.296  1.00  0.00     0.244 C 
ATOM     11  H   UNL A   1      31.313  26.135  23.307  1.00  0.00     0.164 HD
BRANCH  10  12
ATOM     12  C   UNL A   1      32.180  24.983  25.415  1.00  0.00     0.072 C 
ATOM     13  C   UNL A   1      32.263  23.697  25.045  1.00  0.00     0.017 C 
BRANCH  13  14
ATOM     14  C   UNL A   1      33.490  22.896  25.236  1.00  0.00     0.012 A 
ATOM     15  C   UNL A   1      33.842  22.344  26.485  1.00  0.00     0.049 A 
ATOM     16  C   UNL A   1      34.332  22.622  24.140  1.00  0.00     0.049 A 
ATOM     17  Cl  UNL A   1      32.863  22.548  27.901  1.00  0.00    -0.084 Cl
ATOM     18  C   UNL A   1      34.999  21.569  26.631  1.00  0.00     0.021 A 
ATOM     19  C   UNL A   1      35.482  21.836  24.289  1.00  0.00     0.021 A 
ATOM     20  Cl  UNL A   1      34.001  23.242  22.554  1.00  0.00    -0.084 Cl
ATOM     21  C   UNL A   1      35.817  21.312  25.535  1.00  0.00     0.003 A 
ENDBRANCH  13  14
ENDBRANCH  10  12
ENDBRANCH   7   8
ENDBRANCH   4   7
ENDBRANCH   2   3
ENDBRANCH   1   2
BRANCH   1  22
ATOM     22  C   UNL A   1      33.684  28.348  25.808  1.00  0.00     0.023 C 
BRANCH  22  23
ATOM     23  C   UNL A   1      33.623  28.550  27.318  1.00  0.00     0.116 C 
BRANCH  23  24
ATOM     24  N   UNL A   1      33.553  29.948  27.706  1.00  0.00    -0.352 N 
ATOM     25  C   UNL A   1      34.512  30.734  28.292  1.00  0.00     0.251 C 
ATOM     26  H   UNL A   1      32.694  30.395  27.524  1.00  0.00     0.163 HD
ATOM     27  O   UNL A   1      34.229  31.870  28.669  1.00  0.00    -0.269 OA
BRANCH  25  28
ATOM     28  C   UNL A   1      35.881  30.212  28.502  1.00  0.00     0.039 A 
ATOM     29  C   UNL A   1      36.795  30.293  27.447  1.00  0.00     0.014 A 
ATOM     30  C   UNL A   1      36.263  29.631  29.713  1.00  0.00     0.014 A 
ATOM     31  C   UNL A   1      38.101  29.834  27.624  1.00  0.00     0.010 A 
ATOM     32  C   UNL A   1      37.586  29.241  29.914  1.00  0.00     0.010 A 
ATOM     33  C   UNL A   1      38.515  29.327  28.867  1.00  0.00    -0.014 A 
BRANCH  33  34
ATOM     34  C   UNL A   1      39.913  28.868  29.073  1.00  0.00     0.031 A 
ATOM     35  C   UNL A   1      40.931  29.782  29.699  1.00  0.00     0.074 A 
ATOM     36  C   UNL A   1      40.276  27.636  28.664  1.00  0.00     0.049 A 
ATOM     37  N   UNL A   1      42.192  29.553  29.964  1.00  0.00    -0.248 NA
ATOM     38  C   UNL A   1      40.481  31.138  30.053  1.00  0.00     0.031 C 
ATOM     39  C   UNL A   1      39.400  26.670  28.001  1.00  0.00     0.029 A 
ATOM     40  N   UNL A   1      41.482  26.986  28.753  1.00  0.00    -0.354 N 
ATOM     41  C   UNL A   1      42.686  30.735  30.502  1.00  0.00     0.074 A 
ATOM     42  C   UNL A   1      41.605  31.696  30.474  1.00  0.00     0.031 C 
ATOM     43  C   UNL A   1      40.085  25.537  27.776  1.00  0.00     0.029 A 
ATOM     44  C   UNL A   1      41.456  25.709  28.248  1.00  0.00     0.049 A 
ATOM     45  H   UNL A   1      42.288  27.396  29.141  1.00  0.00     0.167 HD
ATOM     46  C   UNL A   1      43.921  30.995  30.998  1.00  0.00     0.031 A 
ATOM     47  C   UNL A   1      42.425  24.777  28.179  1.00  0.00     0.031 A 
ATOM     48  C   UNL A   1      44.994  30.039  31.037  1.00  0.00     0.049 A 
ATOM     49  C   UNL A   1      43.786  25.089  28.735  1.00  0.00     0.074 A 
ATOM     50  C   UNL A   1      46.263  30.188  31.569  1.00  0.00     0.029 A 
ATOM     51  N   UNL A   1      44.926  28.755  30.519  1.00  0.00    -0.354 N 
ATOM     52  N   UNL A   1      44.213  26.186  29.311  1.00  0.00    -0.248 NA
ATOM     53  C   UNL A   1      44.794  24.022  28.648  1.00  0.00     0.031 C 
ATOM     54  C   UNL A   1      46.980  29.010  31.328  1.00  0.00     0.029 A 
ATOM     55  C   UNL A   1      46.138  28.107  30.699  1.00  0.00     0.049 A 
ATOM     56  H   UNL A   1      44.133  28.361  30.087  1.00  0.00     0.167 HD
ATOM     57  C   UNL A   1      45.529  25.935  29.678  1.00  0.00     0.074 A 
ATOM     58  C   UNL A   1      45.821  24.572  29.279  1.00  0.00     0.031 C 
ATOM     59  C   UNL A   1      46.416  26.756  30.291  1.00  0.00     0.031 A 
BRANCH  46  60
ATOM     60  C   UNL A   1      44.172  32.376  31.536  1.00  0.00    -0.014 A 
ATOM     61  C   UNL A   1      43.933  32.688  32.885  1.00  0.00     0.009 A 
ATOM     62  C   UNL A   1      44.681  33.374  30.691  1.00  0.00     0.009 A 
ATOM     63  C   UNL A   1      44.161  33.979  33.365  1.00  0.00     0.001 A 
ATOM     64  C   UNL A   1      44.937  34.656  31.180  1.00  0.00     0.001 A 
ATOM     65  C   UNL A   1      44.667  34.960  32.514  1.00  0.00     0.000 A 
ENDBRANCH  46  60
BRANCH  47  66
ATOM     66  C   UNL A   1      42.138  23.446  27.583  1.00  0.00    -0.014 A 
ATOM     67  C   UNL A   1      41.590  22.418  28.366  1.00  0.00     0.009 A 
ATOM     68  C   UNL A   1      42.421  23.191  26.233  1.00  0.00     0.009 A 
ATOM     69  C   UNL A   1      41.360  21.154  27.817  1.00  0.00     0.001 A 
ATOM     70  C   UNL A   1      42.162  21.937  25.678  1.00  0.00     0.001 A 
ATOM     71  C   UNL A   1      41.642  20.916  26.473  1.00  0.00     0.000 A 
ENDBRANCH  47  66
BRANCH  59  72
ATOM     72  C   UNL A   1      47.776  26.189  30.595  1.00  0.00    -0.014 A 
ATOM     73  C   UNL A   1      48.771  26.109  29.609  1.00  0.00     0.009 A 
ATOM     74  C   UNL A   1      48.069  25.750  31.896  1.00  0.00     0.009 A 
ATOM     75  C   UNL A   1      50.019  25.559  29.909  1.00  0.00     0.001 A 
ATOM     76  C   UNL A   1      49.328  25.231  32.201  1.00  0.00     0.001 A 
ATOM     77  C   UNL A   1      50.297  25.123  31.205  1.00  0.00     0.000 A 
ENDBRANCH  59  72
ENDBRANCH  33  34
ENDBRANCH  25  28
ENDBRANCH  23  24
ENDBRANCH  22  23
ENDBRANCH   1  22
TORSDOF 14
ENDMDL
