MODEL 1
REMARK VINA RESULT:     -10.6      0.000      0.000
REMARK SMILES CC(C)C[C@H](NC(N)=O)C(=O)N[C@@H](C(=O)NCCCCNC(=O)c1ccc(-c2c3nc(c(-c4ccccc4)c4ccc([nH]4)c(-c4ccccc4)c4nc(c(-c5ccccc5)c5ccc2[nH]5)C=C4)C=C3)cc1)C(C)C
REMARK SMILES IDX 17 1 16 2 14 3 15 4 13 6 12 7 10 8 11 9 5 11 4 12 2 13 1 14
REMARK SMILES IDX 3 15 6 16 7 17 8 19 9 20 72 23 73 24 74 25 18 26 19 27 20 28
REMARK SMILES IDX 21 29 22 30 23 32 24 33 25 34 71 35 26 36 70 37 27 38 28 39
REMARK SMILES IDX 29 40 64 41 30 42 69 43 63 44 65 45 31 46 68 47 62 48 61 49
REMARK SMILES IDX 32 51 54 52 39 53 53 54 40 55 43 56 52 57 66 58 41 59 42 60
REMARK SMILES IDX 51 62 67 63 44 64 33 65 34 66 38 67 35 68 37 69 36 70 55 71
REMARK SMILES IDX 56 72 60 73 57 74 59 75 58 76 45 77 46 78 50 79 47 80 49 81
REMARK SMILES IDX 48 82
REMARK H PARENT 16 5 12 10 6 18 8 21 8 22 21 31 65 50 43 61
REMARK Flexibility Score: inf
ROOT
ATOM      1  C   UNL A   1      36.343  23.445  25.491  1.00  0.00     0.116 C 
ENDROOT
BRANCH   1   2
ATOM      2  N   UNL A   1      35.780  22.630  26.535  1.00  0.00    -0.354 N 
ATOM      3  C   UNL A   1      34.476  22.297  26.762  1.00  0.00     0.242 C 
ATOM      4  O   UNL A   1      34.282  21.525  27.706  1.00  0.00    -0.273 OA
ATOM      5  H   UNL A   1      36.427  22.260  27.177  1.00  0.00     0.163 HD
BRANCH   3   6
ATOM      6  C   UNL A   1      33.325  22.756  25.796  1.00  0.00     0.173 C 
BRANCH   6   7
ATOM      7  N   UNL A   1      32.057  22.832  26.534  1.00  0.00    -0.342 N 
ATOM      8  C   UNL A   1      31.062  23.763  26.601  1.00  0.00     0.243 C 
ATOM      9  O   UNL A   1      30.110  23.469  27.335  1.00  0.00    -0.273 OA
ATOM     10  H   UNL A   1      31.890  22.044  27.100  1.00  0.00     0.164 HD
BRANCH   8  11
ATOM     11  C   UNL A   1      31.023  25.078  25.762  1.00  0.00     0.173 C 
BRANCH  11  12
ATOM     12  C   UNL A   1      31.729  26.243  26.459  1.00  0.00     0.038 C 
BRANCH  12  13
ATOM     13  C   UNL A   1      33.209  26.392  26.074  1.00  0.00    -0.015 C 
ATOM     14  C   UNL A   1      33.425  26.121  24.582  1.00  0.00     0.007 C 
ATOM     15  C   UNL A   1      33.682  27.807  26.410  1.00  0.00     0.007 C 
ENDBRANCH  12  13
ENDBRANCH  11  12
BRANCH  11  16
ATOM     16  N   UNL A   1      29.705  25.537  25.315  1.00  0.00    -0.327 N 
ATOM     17  C   UNL A   1      29.488  25.960  24.039  1.00  0.00     0.312 C 
ATOM     18  H   UNL A   1      28.956  25.540  25.954  1.00  0.00     0.166 HD
ATOM     19  N   UNL A   1      28.232  26.415  23.830  1.00  0.00    -0.352 N 
ATOM     20  O   UNL A   1      30.305  25.928  23.131  1.00  0.00    -0.249 OA
ATOM     21  H   UNL A   1      27.586  26.434  24.573  1.00  0.00     0.161 HD
ATOM     22  H   UNL A   1      27.964  26.728  22.936  1.00  0.00     0.161 HD
ENDBRANCH  11  16
ENDBRANCH   8  11
ENDBRANCH   6   7
BRANCH   6  23
ATOM     23  C   UNL A   1      33.225  21.742  24.610  1.00  0.00     0.015 C 
ATOM     24  C   UNL A   1      32.247  20.581  24.816  1.00  0.00     0.010 C 
ATOM     25  C   UNL A   1      32.839  22.460  23.307  1.00  0.00     0.010 C 
ENDBRANCH   6  23
ENDBRANCH   3   6
ENDBRANCH   1   2
BRANCH   1  26
ATOM     26  C   UNL A   1      36.878  22.640  24.321  1.00  0.00     0.023 C 
BRANCH  26  27
ATOM     27  C   UNL A   1      37.417  21.272  24.721  1.00  0.00     0.023 C 
BRANCH  27  28
ATOM     28  C   UNL A   1      38.615  21.313  25.662  1.00  0.00     0.116 C 
BRANCH  28  29
ATOM     29  N   UNL A   1      39.437  20.111  25.612  1.00  0.00    -0.352 N 
ATOM     30  C   UNL A   1      40.754  19.962  25.980  1.00  0.00     0.251 C 
ATOM     31  H   UNL A   1      38.993  19.301  25.270  1.00  0.00     0.163 HD
ATOM     32  O   UNL A   1      41.352  18.910  25.791  1.00  0.00    -0.269 OA
BRANCH  30  33
ATOM     33  C   UNL A   1      41.458  21.114  26.578  1.00  0.00     0.039 A 
ATOM     34  C   UNL A   1      42.050  22.054  25.733  1.00  0.00     0.014 A 
ATOM     35  C   UNL A   1      41.450  21.305  27.963  1.00  0.00     0.014 A 
ATOM     36  C   UNL A   1      42.550  23.240  26.273  1.00  0.00     0.010 A 
ATOM     37  C   UNL A   1      41.873  22.521  28.487  1.00  0.00     0.010 A 
ATOM     38  C   UNL A   1      42.412  23.507  27.646  1.00  0.00    -0.014 A 
BRANCH  38  39
ATOM     39  C   UNL A   1      42.769  24.833  28.210  1.00  0.00     0.031 A 
ATOM     40  C   UNL A   1      41.716  25.886  28.406  1.00  0.00     0.074 A 
ATOM     41  C   UNL A   1      44.061  25.112  28.478  1.00  0.00     0.049 A 
ATOM     42  N   UNL A   1      41.852  27.119  28.825  1.00  0.00    -0.248 NA
ATOM     43  C   UNL A   1      40.334  25.515  28.063  1.00  0.00     0.031 C 
ATOM     44  C   UNL A   1      45.184  24.188  28.294  1.00  0.00     0.029 A 
ATOM     45  N   UNL A   1      44.649  26.257  28.953  1.00  0.00    -0.354 N 
ATOM     46  C   UNL A   1      40.579  27.671  28.789  1.00  0.00     0.074 A 
ATOM     47  C   UNL A   1      39.693  26.658  28.258  1.00  0.00     0.031 C 
ATOM     48  C   UNL A   1      46.318  24.793  28.683  1.00  0.00     0.029 A 
ATOM     49  C   UNL A   1      46.013  26.159  29.090  1.00  0.00     0.049 A 
ATOM     50  H   UNL A   1      44.141  27.070  29.176  1.00  0.00     0.167 HD
ATOM     51  C   UNL A   1      40.180  28.905  29.180  1.00  0.00     0.031 A 
ATOM     52  C   UNL A   1      46.921  27.073  29.486  1.00  0.00     0.031 A 
ATOM     53  C   UNL A   1      41.063  29.915  29.702  1.00  0.00     0.049 A 
ATOM     54  C   UNL A   1      46.457  28.450  29.868  1.00  0.00     0.074 A 
ATOM     55  C   UNL A   1      40.746  31.176  30.174  1.00  0.00     0.029 A 
ATOM     56  N   UNL A   1      42.440  29.782  29.810  1.00  0.00    -0.354 N 
ATOM     57  N   UNL A   1      45.238  28.932  29.901  1.00  0.00    -0.248 NA
ATOM     58  C   UNL A   1      47.495  29.408  30.272  1.00  0.00     0.031 C 
ATOM     59  C   UNL A   1      41.935  31.833  30.503  1.00  0.00     0.029 A 
ATOM     60  C   UNL A   1      42.989  30.956  30.302  1.00  0.00     0.049 A 
ATOM     61  H   UNL A   1      42.950  28.976  29.572  1.00  0.00     0.167 HD
ATOM     62  C   UNL A   1      45.361  30.241  30.349  1.00  0.00     0.074 A 
ATOM     63  C   UNL A   1      46.769  30.467  30.600  1.00  0.00     0.031 C 
ATOM     64  C   UNL A   1      44.394  31.173  30.534  1.00  0.00     0.031 A 
BRANCH  51  65
ATOM     65  C   UNL A   1      38.719  29.239  29.040  1.00  0.00    -0.014 A 
ATOM     66  C   UNL A   1      37.840  29.137  30.131  1.00  0.00     0.009 A 
ATOM     67  C   UNL A   1      38.224  29.704  27.813  1.00  0.00     0.009 A 
ATOM     68  C   UNL A   1      36.489  29.458  29.984  1.00  0.00     0.001 A 
ATOM     69  C   UNL A   1      36.880  30.056  27.677  1.00  0.00     0.001 A 
ATOM     70  C   UNL A   1      36.011  29.923  28.760  1.00  0.00     0.000 A 
ENDBRANCH  51  65
BRANCH  52  71
ATOM     71  C   UNL A   1      48.364  26.717  29.535  1.00  0.00    -0.014 A 
ATOM     72  C   UNL A   1      49.198  26.957  28.431  1.00  0.00     0.009 A 
ATOM     73  C   UNL A   1      48.915  26.123  30.683  1.00  0.00     0.009 A 
ATOM     74  C   UNL A   1      50.544  26.585  28.465  1.00  0.00     0.001 A 
ATOM     75  C   UNL A   1      50.269  25.784  30.726  1.00  0.00     0.001 A 
ATOM     76  C   UNL A   1      51.079  26.004  29.613  1.00  0.00     0.000 A 
ENDBRANCH  52  71
BRANCH  64  77
ATOM     77  C   UNL A   1      44.826  32.517  31.050  1.00  0.00    -0.014 A 
ATOM     78  C   UNL A   1      45.151  33.565  30.174  1.00  0.00     0.009 A 
ATOM     79  C   UNL A   1      44.875  32.750  32.434  1.00  0.00     0.009 A 
ATOM     80  C   UNL A   1      45.550  34.806  30.674  1.00  0.00     0.001 A 
ATOM     81  C   UNL A   1      45.242  34.002  32.931  1.00  0.00     0.001 A 
ATOM     82  C   UNL A   1      45.589  35.025  32.050  1.00  0.00     0.000 A 
ENDBRANCH  64  77
ENDBRANCH  38  39
ENDBRANCH  30  33
ENDBRANCH  28  29
ENDBRANCH  27  28
ENDBRANCH  26  27
ENDBRANCH   1  26
TORSDOF 17
ENDMDL
MODEL 2
REMARK VINA RESULT:     -10.5      0.336      5.949
REMARK SMILES CC(C)C[C@H](NC(N)=O)C(=O)N[C@@H](C(=O)NCCCCNC(=O)c1ccc(-c2c3nc(c(-c4ccccc4)c4ccc([nH]4)c(-c4ccccc4)c4nc(c(-c5ccccc5)c5ccc2[nH]5)C=C4)C=C3)cc1)C(C)C
REMARK SMILES IDX 17 1 16 2 14 3 15 4 13 6 12 7 10 8 11 9 5 11 4 12 2 13 1 14
REMARK SMILES IDX 3 15 6 16 7 17 8 19 9 20 72 23 73 24 74 25 18 26 19 27 20 28
REMARK SMILES IDX 21 29 22 30 23 32 24 33 25 34 71 35 26 36 70 37 27 38 28 39
REMARK SMILES IDX 29 40 64 41 30 42 69 43 63 44 65 45 31 46 68 47 62 48 61 49
REMARK SMILES IDX 32 51 54 52 39 53 53 54 40 55 43 56 52 57 66 58 41 59 42 60
REMARK SMILES IDX 51 62 67 63 44 64 33 65 34 66 38 67 35 68 37 69 36 70 55 71
REMARK SMILES IDX 56 72 60 73 57 74 59 75 58 76 45 77 46 78 50 79 47 80 49 81
REMARK SMILES IDX 48 82
REMARK H PARENT 16 5 12 10 6 18 8 21 8 22 21 31 65 50 43 61
REMARK Flexibility Score: inf
ROOT
ATOM      1  C   UNL A   1      36.404  22.967  25.113  1.00  0.00     0.116 C 
ENDROOT
BRANCH   1   2
ATOM      2  N   UNL A   1      35.849  22.356  26.292  1.00  0.00    -0.354 N 
ATOM      3  C   UNL A   1      34.544  22.238  26.670  1.00  0.00     0.242 C 
ATOM      4  O   UNL A   1      34.347  21.607  27.713  1.00  0.00    -0.273 OA
ATOM      5  H   UNL A   1      36.505  21.968  26.914  1.00  0.00     0.163 HD
BRANCH   3   6
ATOM      6  C   UNL A   1      33.369  22.751  25.760  1.00  0.00     0.173 C 
BRANCH   6   7
ATOM      7  N   UNL A   1      32.129  22.826  26.543  1.00  0.00    -0.342 N 
ATOM      8  C   UNL A   1      31.115  23.736  26.614  1.00  0.00     0.243 C 
ATOM      9  O   UNL A   1      30.199  23.449  27.396  1.00  0.00    -0.273 OA
ATOM     10  H   UNL A   1      32.003  22.057  27.145  1.00  0.00     0.164 HD
BRANCH   8  11
ATOM     11  C   UNL A   1      31.012  25.017  25.729  1.00  0.00     0.173 C 
BRANCH  11  12
ATOM     12  C   UNL A   1      31.700  26.228  26.361  1.00  0.00     0.038 C 
BRANCH  12  13
ATOM     13  C   UNL A   1      33.189  26.352  26.005  1.00  0.00    -0.015 C 
ATOM     14  C   UNL A   1      33.419  26.158  24.503  1.00  0.00     0.007 C 
ATOM     15  C   UNL A   1      33.699  27.731  26.425  1.00  0.00     0.007 C 
ENDBRANCH  12  13
ENDBRANCH  11  12
BRANCH  11  16
ATOM     16  N   UNL A   1      29.668  25.419  25.302  1.00  0.00    -0.327 N 
ATOM     17  C   UNL A   1      29.445  26.008  24.096  1.00  0.00     0.312 C 
ATOM     18  H   UNL A   1      28.906  25.257  25.905  1.00  0.00     0.166 HD
ATOM     19  N   UNL A   1      28.158  26.375  23.907  1.00  0.00    -0.352 N 
ATOM     20  O   UNL A   1      30.285  26.186  23.226  1.00  0.00    -0.249 OA
ATOM     21  H   UNL A   1      27.494  26.223  24.618  1.00  0.00     0.161 HD
ATOM     22  H   UNL A   1      27.884  26.794  23.059  1.00  0.00     0.161 HD
ENDBRANCH  11  16
ENDBRANCH   8  11
ENDBRANCH   6   7
BRANCH   6  23
ATOM     23  C   UNL A   1      33.209  21.779  24.546  1.00  0.00     0.015 C 
ATOM     24  C   UNL A   1      32.124  20.707  24.698  1.00  0.00     0.010 C 
ATOM     25  C   UNL A   1      32.923  22.561  23.253  1.00  0.00     0.010 C 
ENDBRANCH   6  23
ENDBRANCH   3   6
ENDBRANCH   1   2
BRANCH   1  26
ATOM     26  C   UNL A   1      37.177  21.996  24.239  1.00  0.00     0.023 C 
BRANCH  26  27
ATOM     27  C   UNL A   1      37.646  20.751  24.982  1.00  0.00     0.023 C 
BRANCH  27  28
ATOM     28  C   UNL A   1      38.913  20.945  25.808  1.00  0.00     0.116 C 
BRANCH  28  29
ATOM     29  N   UNL A   1      39.837  19.821  25.730  1.00  0.00    -0.352 N 
ATOM     30  C   UNL A   1      41.180  19.799  26.024  1.00  0.00     0.251 C 
ATOM     31  H   UNL A   1      39.450  18.967  25.428  1.00  0.00     0.163 HD
ATOM     32  O   UNL A   1      41.860  18.802  25.818  1.00  0.00    -0.269 OA
BRANCH  30  33
ATOM     33  C   UNL A   1      41.808  21.023  26.561  1.00  0.00     0.039 A 
ATOM     34  C   UNL A   1      42.331  21.960  25.669  1.00  0.00     0.014 A 
ATOM     35  C   UNL A   1      41.795  21.278  27.936  1.00  0.00     0.014 A 
ATOM     36  C   UNL A   1      42.753  23.200  26.149  1.00  0.00     0.010 A 
ATOM     37  C   UNL A   1      42.138  22.543  28.400  1.00  0.00     0.010 A 
ATOM     38  C   UNL A   1      42.605  23.522  27.508  1.00  0.00    -0.014 A 
BRANCH  38  39
ATOM     39  C   UNL A   1      42.875  24.894  28.008  1.00  0.00     0.031 A 
ATOM     40  C   UNL A   1      44.261  25.291  28.431  1.00  0.00     0.074 A 
ATOM     41  C   UNL A   1      41.851  25.760  28.150  1.00  0.00     0.049 A 
ATOM     42  N   UNL A   1      44.671  26.421  28.949  1.00  0.00    -0.248 NA
ATOM     43  C   UNL A   1      45.318  24.282  28.272  1.00  0.00     0.031 C 
ATOM     44  C   UNL A   1      40.452  25.483  27.813  1.00  0.00     0.029 A 
ATOM     45  N   UNL A   1      41.828  27.048  28.625  1.00  0.00    -0.354 N 
ATOM     46  C   UNL A   1      46.029  26.255  29.186  1.00  0.00     0.074 A 
ATOM     47  C   UNL A   1      46.362  24.900  28.804  1.00  0.00     0.031 C 
ATOM     48  C   UNL A   1      39.715  26.577  28.062  1.00  0.00     0.029 A 
ATOM     49  C   UNL A   1      40.575  27.612  28.624  1.00  0.00     0.049 A 
ATOM     50  H   UNL A   1      42.633  27.522  28.935  1.00  0.00     0.167 HD
ATOM     51  C   UNL A   1      46.922  27.155  29.662  1.00  0.00     0.031 A 
ATOM     52  C   UNL A   1      40.160  28.823  29.044  1.00  0.00     0.031 A 
ATOM     53  C   UNL A   1      46.588  28.501  30.049  1.00  0.00     0.049 A 
ATOM     54  C   UNL A   1      41.164  29.785  29.613  1.00  0.00     0.074 A 
ATOM     55  C   UNL A   1      47.432  29.503  30.492  1.00  0.00     0.029 A 
ATOM     56  N   UNL A   1      45.305  29.029  30.048  1.00  0.00    -0.354 N 
ATOM     57  N   UNL A   1      42.459  29.640  29.759  1.00  0.00    -0.248 NA
ATOM     58  C   UNL A   1      40.648  31.083  30.071  1.00  0.00     0.031 C 
ATOM     59  C   UNL A   1      46.653  30.615  30.826  1.00  0.00     0.029 A 
ATOM     60  C   UNL A   1      45.330  30.330  30.524  1.00  0.00     0.049 A 
ATOM     61  H   UNL A   1      44.498  28.550  29.754  1.00  0.00     0.167 HD
ATOM     62  C   UNL A   1      42.915  30.832  30.305  1.00  0.00     0.074 A 
ATOM     63  C   UNL A   1      41.762  31.699  30.440  1.00  0.00     0.031 C 
ATOM     64  C   UNL A   1      44.175  31.177  30.666  1.00  0.00     0.031 A 
BRANCH  51  65
ATOM     65  C   UNL A   1      48.350  26.705  29.809  1.00  0.00    -0.014 A 
ATOM     66  C   UNL A   1      48.794  26.056  30.972  1.00  0.00     0.009 A 
ATOM     67  C   UNL A   1      49.254  26.894  28.752  1.00  0.00     0.009 A 
ATOM     68  C   UNL A   1      50.123  25.639  31.087  1.00  0.00     0.001 A 
ATOM     69  C   UNL A   1      50.573  26.447  28.857  1.00  0.00     0.001 A 
ATOM     70  C   UNL A   1      51.008  25.829  30.028  1.00  0.00     0.000 A 
ENDBRANCH  51  65
BRANCH  52  71
ATOM     71  C   UNL A   1      38.722  29.193  28.948  1.00  0.00    -0.014 A 
ATOM     72  C   UNL A   1      37.869  29.039  30.052  1.00  0.00     0.009 A 
ATOM     73  C   UNL A   1      38.192  29.692  27.747  1.00  0.00     0.009 A 
ATOM     74  C   UNL A   1      36.511  29.349  29.946  1.00  0.00     0.001 A 
ATOM     75  C   UNL A   1      36.841  30.035  27.655  1.00  0.00     0.001 A 
ATOM     76  C   UNL A   1      36.000  29.852  28.751  1.00  0.00     0.000 A 
ENDBRANCH  52  71
BRANCH  64  77
ATOM     77  C   UNL A   1      44.375  32.559  31.222  1.00  0.00    -0.014 A 
ATOM     78  C   UNL A   1      44.636  33.654  30.382  1.00  0.00     0.009 A 
ATOM     79  C   UNL A   1      44.267  32.777  32.605  1.00  0.00     0.009 A 
ATOM     80  C   UNL A   1      44.818  34.930  30.919  1.00  0.00     0.001 A 
ATOM     81  C   UNL A   1      44.416  34.059  33.136  1.00  0.00     0.001 A 
ATOM     82  C   UNL A   1      44.702  35.132  32.294  1.00  0.00     0.000 A 
ENDBRANCH  64  77
ENDBRANCH  38  39
ENDBRANCH  30  33
ENDBRANCH  28  29
ENDBRANCH  27  28
ENDBRANCH  26  27
ENDBRANCH   1  26
TORSDOF 17
ENDMDL
MODEL 3
REMARK VINA RESULT:     -10.1      3.287      8.518
REMARK SMILES CC(C)C[C@H](NC(N)=O)C(=O)N[C@@H](C(=O)NCCCCNC(=O)c1ccc(-c2c3nc(c(-c4ccccc4)c4ccc([nH]4)c(-c4ccccc4)c4nc(c(-c5ccccc5)c5ccc2[nH]5)C=C4)C=C3)cc1)C(C)C
REMARK SMILES IDX 17 1 16 2 14 3 15 4 13 6 12 7 10 8 11 9 5 11 4 12 2 13 1 14
REMARK SMILES IDX 3 15 6 16 7 17 8 19 9 20 72 23 73 24 74 25 18 26 19 27 20 28
REMARK SMILES IDX 21 29 22 30 23 32 24 33 25 34 71 35 26 36 70 37 27 38 28 39
REMARK SMILES IDX 29 40 64 41 30 42 69 43 63 44 65 45 31 46 68 47 62 48 61 49
REMARK SMILES IDX 32 51 54 52 39 53 53 54 40 55 43 56 52 57 66 58 41 59 42 60
REMARK SMILES IDX 51 62 67 63 44 64 33 65 34 66 38 67 35 68 37 69 36 70 55 71
REMARK SMILES IDX 56 72 60 73 57 74 59 75 58 76 45 77 46 78 50 79 47 80 49 81
REMARK SMILES IDX 48 82
REMARK H PARENT 16 5 12 10 6 18 8 21 8 22 21 31 65 50 43 61
REMARK Flexibility Score: inf
ROOT
ATOM      1  C   UNL A   1      33.199  28.710  26.480  1.00  0.00     0.116 C 
ENDROOT
BRANCH   1   2
ATOM      2  N   UNL A   1      33.628  29.187  25.192  1.00  0.00    -0.354 N 
ATOM      3  C   UNL A   1      33.345  28.696  23.951  1.00  0.00     0.242 C 
ATOM      4  O   UNL A   1      33.801  29.346  23.005  1.00  0.00    -0.273 OA
ATOM      5  H   UNL A   1      34.207  29.983  25.208  1.00  0.00     0.163 HD
BRANCH   3   6
ATOM      6  C   UNL A   1      32.386  27.468  23.746  1.00  0.00     0.173 C 
BRANCH   6   7
ATOM      7  N   UNL A   1      32.728  26.772  22.499  1.00  0.00    -0.342 N 
ATOM      8  C   UNL A   1      33.105  25.493  22.209  1.00  0.00     0.243 C 
ATOM      9  O   UNL A   1      33.299  25.256  21.009  1.00  0.00    -0.273 OA
ATOM     10  H   UNL A   1      32.676  27.351  21.704  1.00  0.00     0.164 HD
BRANCH   8  11
ATOM     11  C   UNL A   1      33.207  24.341  23.257  1.00  0.00     0.173 C 
BRANCH  11  12
ATOM     12  C   UNL A   1      34.065  23.172  22.768  1.00  0.00     0.038 C 
BRANCH  12  13
ATOM     13  C   UNL A   1      35.197  22.787  23.732  1.00  0.00    -0.015 C 
ATOM     14  C   UNL A   1      35.575  23.959  24.643  1.00  0.00     0.007 C 
ATOM     15  C   UNL A   1      34.756  21.598  24.586  1.00  0.00     0.007 C 
ENDBRANCH  12  13
ENDBRANCH  11  12
BRANCH  11  16
ATOM     16  N   UNL A   1      31.944  23.803  23.772  1.00  0.00    -0.327 N 
ATOM     17  C   UNL A   1      31.651  23.811  25.101  1.00  0.00     0.312 C 
ATOM     18  H   UNL A   1      31.290  23.427  23.139  1.00  0.00     0.166 HD
ATOM     19  N   UNL A   1      30.478  23.208  25.396  1.00  0.00    -0.352 N 
ATOM     20  O   UNL A   1      32.334  24.322  25.977  1.00  0.00    -0.249 OA
ATOM     21  H   UNL A   1      29.939  22.802  24.679  1.00  0.00     0.161 HD
ATOM     22  H   UNL A   1      30.161  23.175  26.328  1.00  0.00     0.161 HD
ENDBRANCH  11  16
ENDBRANCH   8  11
ENDBRANCH   6   7
BRANCH   6  23
ATOM     23  C   UNL A   1      30.909  27.980  23.716  1.00  0.00     0.015 C 
ATOM     24  C   UNL A   1      30.423  28.513  22.365  1.00  0.00     0.010 C 
ATOM     25  C   UNL A   1      29.938  26.875  24.165  1.00  0.00     0.010 C 
ENDBRANCH   6  23
ENDBRANCH   3   6
ENDBRANCH   1   2
BRANCH   1  26
ATOM     26  C   UNL A   1      31.987  29.445  27.022  1.00  0.00     0.023 C 
BRANCH  26  27
ATOM     27  C   UNL A   1      31.936  30.913  26.619  1.00  0.00     0.023 C 
BRANCH  27  28
ATOM     28  C   UNL A   1      33.007  31.784  27.265  1.00  0.00     0.116 C 
BRANCH  28  29
ATOM     29  N   UNL A   1      32.549  33.130  27.585  1.00  0.00    -0.352 N 
ATOM     30  C   UNL A   1      33.150  34.066  28.394  1.00  0.00     0.251 C 
ATOM     31  H   UNL A   1      31.700  33.405  27.168  1.00  0.00     0.163 HD
ATOM     32  O   UNL A   1      32.600  35.129  28.654  1.00  0.00    -0.269 OA
BRANCH  30  33
ATOM     33  C   UNL A   1      34.466  33.751  28.986  1.00  0.00     0.039 A 
ATOM     34  C   UNL A   1      34.512  33.105  30.222  1.00  0.00     0.014 A 
ATOM     35  C   UNL A   1      35.640  34.015  28.275  1.00  0.00     0.014 A 
ATOM     36  C   UNL A   1      35.735  32.633  30.702  1.00  0.00     0.010 A 
ATOM     37  C   UNL A   1      36.843  33.472  28.715  1.00  0.00     0.010 A 
ATOM     38  C   UNL A   1      36.899  32.761  29.924  1.00  0.00    -0.014 A 
BRANCH  38  39
ATOM     39  C   UNL A   1      38.169  32.109  30.329  1.00  0.00     0.031 A 
ATOM     40  C   UNL A   1      39.114  32.800  31.271  1.00  0.00     0.074 A 
ATOM     41  C   UNL A   1      38.506  30.922  29.786  1.00  0.00     0.049 A 
ATOM     42  N   UNL A   1      40.294  32.412  31.685  1.00  0.00    -0.248 NA
ATOM     43  C   UNL A   1      38.689  34.106  31.798  1.00  0.00     0.031 C 
ATOM     44  C   UNL A   1      37.693  30.166  28.828  1.00  0.00     0.029 A 
ATOM     45  N   UNL A   1      39.625  30.145  29.955  1.00  0.00    -0.354 N 
ATOM     46  C   UNL A   1      40.755  33.429  32.512  1.00  0.00     0.074 A 
ATOM     47  C   UNL A   1      39.752  34.471  32.500  1.00  0.00     0.031 C 
ATOM     48  C   UNL A   1      38.326  29.023  28.521  1.00  0.00     0.029 A 
ATOM     49  C   UNL A   1      39.609  28.988  29.214  1.00  0.00     0.049 A 
ATOM     50  H   UNL A   1      40.367  30.394  30.551  1.00  0.00     0.167 HD
ATOM     51  C   UNL A   1      41.901  33.480  33.230  1.00  0.00     0.031 A 
ATOM     52  C   UNL A   1      40.531  28.013  29.092  1.00  0.00     0.031 A 
ATOM     53  C   UNL A   1      42.902  32.446  33.236  1.00  0.00     0.049 A 
ATOM     54  C   UNL A   1      41.816  28.120  29.864  1.00  0.00     0.074 A 
ATOM     55  C   UNL A   1      44.071  32.383  33.972  1.00  0.00     0.029 A 
ATOM     56  N   UNL A   1      42.856  31.296  32.460  1.00  0.00    -0.354 N 
ATOM     57  N   UNL A   1      42.203  29.051  30.702  1.00  0.00    -0.248 NA
ATOM     58  C   UNL A   1      42.790  27.036  29.677  1.00  0.00     0.031 C 
ATOM     59  C   UNL A   1      44.767  31.231  33.592  1.00  0.00     0.029 A 
ATOM     60  C   UNL A   1      43.998  30.540  32.669  1.00  0.00     0.049 A 
ATOM     61  H   UNL A   1      42.122  31.055  31.851  1.00  0.00     0.167 HD
ATOM     62  C   UNL A   1      43.453  28.655  31.157  1.00  0.00     0.074 A 
ATOM     63  C   UNL A   1      43.748  27.387  30.522  1.00  0.00     0.031 C 
ATOM     64  C   UNL A   1      44.285  29.287  32.022  1.00  0.00     0.031 A 
BRANCH  51  65
ATOM     65  C   UNL A   1      42.145  34.711  34.061  1.00  0.00    -0.014 A 
ATOM     66  C   UNL A   1      41.770  34.764  35.414  1.00  0.00     0.009 A 
ATOM     67  C   UNL A   1      42.797  35.817  33.496  1.00  0.00     0.009 A 
ATOM     68  C   UNL A   1      42.011  35.913  36.171  1.00  0.00     0.001 A 
ATOM     69  C   UNL A   1      43.066  36.952  34.264  1.00  0.00     0.001 A 
ATOM     70  C   UNL A   1      42.663  37.003  35.598  1.00  0.00     0.000 A 
ENDBRANCH  51  65
BRANCH  52  71
ATOM     71  C   UNL A   1      40.276  26.852  28.199  1.00  0.00    -0.014 A 
ATOM     72  C   UNL A   1      39.548  25.743  28.658  1.00  0.00     0.009 A 
ATOM     73  C   UNL A   1      40.770  26.840  26.884  1.00  0.00     0.009 A 
ATOM     74  C   UNL A   1      39.345  24.636  27.830  1.00  0.00     0.001 A 
ATOM     75  C   UNL A   1      40.535  25.747  26.047  1.00  0.00     0.001 A 
ATOM     76  C   UNL A   1      39.833  24.642  26.525  1.00  0.00     0.000 A 
ENDBRANCH  52  71
BRANCH  64  77
ATOM     77  C   UNL A   1      45.585  28.605  32.345  1.00  0.00    -0.014 A 
ATOM     78  C   UNL A   1      45.692  27.711  33.422  1.00  0.00     0.009 A 
ATOM     79  C   UNL A   1      46.713  28.833  31.539  1.00  0.00     0.009 A 
ATOM     80  C   UNL A   1      46.909  27.087  33.706  1.00  0.00     0.001 A 
ATOM     81  C   UNL A   1      47.918  28.182  31.804  1.00  0.00     0.001 A 
ATOM     82  C   UNL A   1      48.018  27.318  32.894  1.00  0.00     0.000 A 
ENDBRANCH  64  77
ENDBRANCH  38  39
ENDBRANCH  30  33
ENDBRANCH  28  29
ENDBRANCH  27  28
ENDBRANCH  26  27
ENDBRANCH   1  26
TORSDOF 17
ENDMDL
