MODEL 1
REMARK VINA RESULT:     -12.3      0.000      0.000
REMARK SMILES Cc1cc2cc(-c3ccc([C@@H](C)C(=O)NCCCCNC(=O)c4ccc(-c5c6nc(c(-c7ccccc7)c7ccc([nH]7)c(-c7ccccc7)c7nc(c(-c8ccccc8)c8ccc5[nH]8)C=C7)C=C6)cc4)cc3)ccc2[nH]1
REMARK SMILES IDX 17 1 16 2 15 3 13 4 14 5 11 7 12 8 10 9 7 10 8 11 72 12 9 13
REMARK SMILES IDX 71 14 6 15 1 16 2 17 3 18 76 19 4 20 75 21 5 23 74 24 73 25
REMARK SMILES IDX 18 26 19 27 20 28 21 29 22 31 23 32 24 33 70 34 25 35 69 36
REMARK SMILES IDX 26 37 27 38 28 39 63 40 29 41 68 42 62 43 64 44 30 45 67 46
REMARK SMILES IDX 61 47 60 48 31 50 53 51 38 52 52 53 39 54 42 55 51 56 65 57
REMARK SMILES IDX 40 58 41 59 50 61 66 62 43 63 32 64 33 65 37 66 34 67 36 68
REMARK SMILES IDX 35 69 54 70 55 71 59 72 56 73 58 74 57 75 44 76 45 77 49 78
REMARK SMILES IDX 46 79 48 80 47 81
REMARK H PARENT 15 6 76 22 20 30 64 49 42 60
REMARK Flexibility Score: inf
ROOT
ATOM      1  C   UNL A   1      31.433  27.974  26.553  1.00  0.00     0.023 C 
ENDROOT
BRANCH   1   2
ATOM      2  C   UNL A   1      31.311  29.075  25.498  1.00  0.00     0.116 C 
BRANCH   2   3
ATOM      3  N   UNL A   1      30.953  28.552  24.196  1.00  0.00    -0.356 N 
ATOM      4  C   UNL A   1      31.711  28.023  23.197  1.00  0.00     0.227 C 
ATOM      5  O   UNL A   1      31.111  27.716  22.158  1.00  0.00    -0.274 OA
ATOM      6  H   UNL A   1      29.989  28.586  23.998  1.00  0.00     0.163 HD
BRANCH   4   7
ATOM      7  C   UNL A   1      33.226  27.781  23.304  1.00  0.00     0.105 C 
ATOM      8  C   UNL A   1      34.045  28.534  22.255  1.00  0.00     0.023 C 
BRANCH   7   9
ATOM      9  C   UNL A   1      33.589  26.320  23.514  1.00  0.00    -0.036 A 
ATOM     10  C   UNL A   1      34.100  23.552  24.026  1.00  0.00    -0.018 A 
ATOM     11  C   UNL A   1      33.745  24.021  22.749  1.00  0.00     0.009 A 
ATOM     12  C   UNL A   1      34.225  24.516  25.036  1.00  0.00     0.009 A 
ATOM     13  C   UNL A   1      33.536  25.377  22.487  1.00  0.00     0.005 A 
ATOM     14  C   UNL A   1      33.956  25.871  24.791  1.00  0.00     0.005 A 
BRANCH  10  15
ATOM     15  C   UNL A   1      34.313  22.104  24.265  1.00  0.00    -0.018 A 
ATOM     16  C   UNL A   1      32.806  16.197  24.953  1.00  0.00     0.064 C 
ATOM     17  C   UNL A   1      33.235  17.605  24.783  1.00  0.00     0.013 A 
ATOM     18  C   UNL A   1      32.531  18.709  24.351  1.00  0.00     0.031 A 
ATOM     19  N   UNL A   1      34.515  18.020  25.061  1.00  0.00    -0.359 N 
ATOM     20  C   UNL A   1      33.406  19.825  24.385  1.00  0.00     0.000 A 
ATOM     21  C   UNL A   1      34.640  19.375  24.840  1.00  0.00     0.046 A 
ATOM     22  H   UNL A   1      35.241  17.433  25.375  1.00  0.00     0.166 HD
ATOM     23  C   UNL A   1      33.255  21.189  24.076  1.00  0.00     0.019 A 
ATOM     24  C   UNL A   1      35.733  20.230  25.007  1.00  0.00     0.027 A 
ATOM     25  C   UNL A   1      35.540  21.593  24.724  1.00  0.00     0.011 A 
ENDBRANCH  10  15
ENDBRANCH   7   9
ENDBRANCH   4   7
ENDBRANCH   2   3
ENDBRANCH   1   2
BRANCH   1  26
ATOM     26  C   UNL A   1      32.482  28.226  27.633  1.00  0.00     0.023 C 
BRANCH  26  27
ATOM     27  C   UNL A   1      33.644  29.119  27.216  1.00  0.00     0.116 C 
BRANCH  27  28
ATOM     28  N   UNL A   1      33.672  30.414  27.881  1.00  0.00    -0.352 N 
ATOM     29  C   UNL A   1      34.719  30.992  28.568  1.00  0.00     0.251 C 
ATOM     30  H   UNL A   1      32.842  30.941  27.835  1.00  0.00     0.163 HD
ATOM     31  O   UNL A   1      34.586  32.065  29.135  1.00  0.00    -0.269 OA
BRANCH  29  32
ATOM     32  C   UNL A   1      35.999  30.258  28.650  1.00  0.00     0.039 A 
ATOM     33  C   UNL A   1      36.870  30.298  27.559  1.00  0.00     0.014 A 
ATOM     34  C   UNL A   1      36.367  29.610  29.831  1.00  0.00     0.014 A 
ATOM     35  C   UNL A   1      38.154  29.761  27.685  1.00  0.00     0.010 A 
ATOM     36  C   UNL A   1      37.668  29.144  29.979  1.00  0.00     0.010 A 
ATOM     37  C   UNL A   1      38.577  29.224  28.911  1.00  0.00    -0.014 A 
BRANCH  37  38
ATOM     38  C   UNL A   1      39.967  28.747  29.113  1.00  0.00     0.031 A 
ATOM     39  C   UNL A   1      41.007  29.686  29.656  1.00  0.00     0.074 A 
ATOM     40  C   UNL A   1      40.313  27.505  28.723  1.00  0.00     0.049 A 
ATOM     41  N   UNL A   1      42.295  29.501  29.792  1.00  0.00    -0.248 NA
ATOM     42  C   UNL A   1      40.541  31.019  30.070  1.00  0.00     0.031 C 
ATOM     43  C   UNL A   1      39.408  26.510  28.143  1.00  0.00     0.029 A 
ATOM     44  N   UNL A   1      41.532  26.872  28.743  1.00  0.00    -0.354 N 
ATOM     45  C   UNL A   1      42.796  30.701  30.281  1.00  0.00     0.074 A 
ATOM     46  C   UNL A   1      41.682  31.620  30.375  1.00  0.00     0.031 C 
ATOM     47  C   UNL A   1      40.098  25.386  27.886  1.00  0.00     0.029 A 
ATOM     48  C   UNL A   1      41.497  25.594  28.242  1.00  0.00     0.049 A 
ATOM     49  H   UNL A   1      42.352  27.295  29.086  1.00  0.00     0.167 HD
ATOM     50  C   UNL A   1      44.065  31.006  30.638  1.00  0.00     0.031 A 
ATOM     51  C   UNL A   1      42.485  24.694  28.078  1.00  0.00     0.031 A 
ATOM     52  C   UNL A   1      45.168  30.089  30.567  1.00  0.00     0.049 A 
ATOM     53  C   UNL A   1      43.886  25.056  28.484  1.00  0.00     0.074 A 
ATOM     54  C   UNL A   1      46.481  30.286  30.959  1.00  0.00     0.029 A 
ATOM     55  N   UNL A   1      45.086  28.796  30.077  1.00  0.00    -0.354 N 
ATOM     56  N   UNL A   1      44.333  26.178  28.995  1.00  0.00    -0.248 NA
ATOM     57  C   UNL A   1      44.917  24.026  28.294  1.00  0.00     0.031 C 
ATOM     58  C   UNL A   1      47.201  29.121  30.673  1.00  0.00     0.029 A 
ATOM     59  C   UNL A   1      46.326  28.187  30.142  1.00  0.00     0.049 A 
ATOM     60  H   UNL A   1      44.265  28.373  29.732  1.00  0.00     0.167 HD
ATOM     61  C   UNL A   1      45.689  25.978  29.214  1.00  0.00     0.074 A 
ATOM     62  C   UNL A   1      45.990  24.627  28.791  1.00  0.00     0.031 C 
ATOM     63  C   UNL A   1      46.604  26.838  29.723  1.00  0.00     0.031 A 
BRANCH  50  64
ATOM     64  C   UNL A   1      44.322  32.401  31.136  1.00  0.00    -0.014 A 
ATOM     65  C   UNL A   1      44.184  32.721  32.496  1.00  0.00     0.009 A 
ATOM     66  C   UNL A   1      44.724  33.401  30.238  1.00  0.00     0.009 A 
ATOM     67  C   UNL A   1      44.406  34.026  32.941  1.00  0.00     0.001 A 
ATOM     68  C   UNL A   1      44.972  34.698  30.691  1.00  0.00     0.001 A 
ATOM     69  C   UNL A   1      44.803  35.012  32.039  1.00  0.00     0.000 A 
ENDBRANCH  50  64
BRANCH  51  70
ATOM     70  C   UNL A   1      42.184  23.350  27.521  1.00  0.00    -0.014 A 
ATOM     71  C   UNL A   1      41.525  22.391  28.304  1.00  0.00     0.009 A 
ATOM     72  C   UNL A   1      42.561  23.016  26.211  1.00  0.00     0.009 A 
ATOM     73  C   UNL A   1      41.272  21.115  27.797  1.00  0.00     0.001 A 
ATOM     74  C   UNL A   1      42.285  21.746  25.698  1.00  0.00     0.001 A 
ATOM     75  C   UNL A   1      41.649  20.795  26.494  1.00  0.00     0.000 A 
ENDBRANCH  51  70
BRANCH  63  76
ATOM     76  C   UNL A   1      48.007  26.331  29.887  1.00  0.00    -0.014 A 
ATOM     77  C   UNL A   1      48.948  26.448  28.853  1.00  0.00     0.009 A 
ATOM     78  C   UNL A   1      48.404  25.775  31.113  1.00  0.00     0.009 A 
ATOM     79  C   UNL A   1      50.255  25.994  29.036  1.00  0.00     0.001 A 
ATOM     80  C   UNL A   1      49.717  25.344  31.301  1.00  0.00     0.001 A 
ATOM     81  C   UNL A   1      50.640  25.448  30.261  1.00  0.00     0.000 A 
ENDBRANCH  63  76
ENDBRANCH  37  38
ENDBRANCH  29  32
ENDBRANCH  27  28
ENDBRANCH  26  27
ENDBRANCH   1  26
TORSDOF 13
ENDMDL
MODEL 2
REMARK VINA RESULT:     -12.2      2.748      8.391
REMARK SMILES Cc1cc2cc(-c3ccc([C@@H](C)C(=O)NCCCCNC(=O)c4ccc(-c5c6nc(c(-c7ccccc7)c7ccc([nH]7)c(-c7ccccc7)c7nc(c(-c8ccccc8)c8ccc5[nH]8)C=C7)C=C6)cc4)cc3)ccc2[nH]1
REMARK SMILES IDX 17 1 16 2 15 3 13 4 14 5 11 7 12 8 10 9 7 10 8 11 72 12 9 13
REMARK SMILES IDX 71 14 6 15 1 16 2 17 3 18 76 19 4 20 75 21 5 23 74 24 73 25
REMARK SMILES IDX 18 26 19 27 20 28 21 29 22 31 23 32 24 33 70 34 25 35 69 36
REMARK SMILES IDX 26 37 27 38 28 39 63 40 29 41 68 42 62 43 64 44 30 45 67 46
REMARK SMILES IDX 61 47 60 48 31 50 53 51 38 52 52 53 39 54 42 55 51 56 65 57
REMARK SMILES IDX 40 58 41 59 50 61 66 62 43 63 32 64 33 65 37 66 34 67 36 68
REMARK SMILES IDX 35 69 54 70 55 71 59 72 56 73 58 74 57 75 44 76 45 77 49 78
REMARK SMILES IDX 46 79 48 80 47 81
REMARK H PARENT 15 6 76 22 20 30 64 49 42 60
REMARK Flexibility Score: inf
ROOT
ATOM      1  C   UNL A   1      35.725  21.601  26.057  1.00  0.00     0.023 C 
ENDROOT
BRANCH   1   2
ATOM      2  C   UNL A   1      35.299  20.739  24.867  1.00  0.00     0.116 C 
BRANCH   2   3
ATOM      3  N   UNL A   1      34.333  19.727  25.239  1.00  0.00    -0.356 N 
ATOM      4  C   UNL A   1      32.984  19.658  25.061  1.00  0.00     0.227 C 
ATOM      5  O   UNL A   1      32.417  18.675  25.554  1.00  0.00    -0.274 OA
ATOM      6  H   UNL A   1      34.720  18.950  25.703  1.00  0.00     0.163 HD
BRANCH   4   7
ATOM      7  C   UNL A   1      32.166  20.705  24.286  1.00  0.00     0.105 C 
ATOM      8  C   UNL A   1      32.238  20.542  22.767  1.00  0.00     0.023 C 
BRANCH   7   9
ATOM      9  C   UNL A   1      32.344  22.119  24.815  1.00  0.00    -0.036 A 
ATOM     10  C   UNL A   1      32.506  24.833  25.704  1.00  0.00    -0.018 A 
ATOM     11  C   UNL A   1      32.205  23.778  26.583  1.00  0.00     0.009 A 
ATOM     12  C   UNL A   1      32.757  24.487  24.369  1.00  0.00     0.009 A 
ATOM     13  C   UNL A   1      32.167  22.448  26.160  1.00  0.00     0.005 A 
ATOM     14  C   UNL A   1      32.659  23.159  23.928  1.00  0.00     0.005 A 
BRANCH  10  15
ATOM     15  C   UNL A   1      32.537  26.234  26.191  1.00  0.00    -0.018 A 
ATOM     16  C   UNL A   1      34.999  31.631  27.755  1.00  0.00     0.064 C 
ATOM     17  C   UNL A   1      34.343  30.357  27.380  1.00  0.00     0.013 A 
ATOM     18  C   UNL A   1      34.846  29.248  26.733  1.00  0.00     0.031 A 
ATOM     19  N   UNL A   1      33.022  30.102  27.658  1.00  0.00    -0.359 N 
ATOM     20  C   UNL A   1      33.803  28.291  26.632  1.00  0.00     0.000 A 
ATOM     21  C   UNL A   1      32.673  28.842  27.225  1.00  0.00     0.046 A 
ATOM     22  H   UNL A   1      32.410  30.731  28.106  1.00  0.00     0.166 HD
ATOM     23  C   UNL A   1      33.722  26.994  26.095  1.00  0.00     0.019 A 
ATOM     24  C   UNL A   1      31.462  28.149  27.311  1.00  0.00     0.027 A 
ATOM     25  C   UNL A   1      31.423  26.842  26.797  1.00  0.00     0.011 A 
ENDBRANCH  10  15
ENDBRANCH   7   9
ENDBRANCH   4   7
ENDBRANCH   2   3
ENDBRANCH   1   2
BRANCH   1  26
ATOM     26  C   UNL A   1      35.868  23.091  25.759  1.00  0.00     0.023 C 
BRANCH  26  27
ATOM     27  C   UNL A   1      37.231  23.522  25.233  1.00  0.00     0.116 C 
BRANCH  27  28
ATOM     28  N   UNL A   1      38.323  22.631  25.597  1.00  0.00    -0.352 N 
ATOM     29  C   UNL A   1      39.464  22.934  26.312  1.00  0.00     0.251 C 
ATOM     30  H   UNL A   1      38.238  21.698  25.296  1.00  0.00     0.163 HD
ATOM     31  O   UNL A   1      40.335  22.098  26.494  1.00  0.00    -0.269 OA
BRANCH  29  32
ATOM     32  C   UNL A   1      39.636  24.314  26.811  1.00  0.00     0.039 A 
ATOM     33  C   UNL A   1      39.267  24.606  28.127  1.00  0.00     0.014 A 
ATOM     34  C   UNL A   1      40.239  25.286  26.009  1.00  0.00     0.014 A 
ATOM     35  C   UNL A   1      39.586  25.853  28.669  1.00  0.00     0.010 A 
ATOM     36  C   UNL A   1      40.622  26.496  26.573  1.00  0.00     0.010 A 
ATOM     37  C   UNL A   1      40.308  26.788  27.911  1.00  0.00    -0.014 A 
BRANCH  37  38
ATOM     38  C   UNL A   1      40.760  28.077  28.489  1.00  0.00     0.031 A 
ATOM     39  C   UNL A   1      42.228  28.345  28.659  1.00  0.00     0.074 A 
ATOM     40  C   UNL A   1      39.853  28.962  28.946  1.00  0.00     0.049 A 
ATOM     41  N   UNL A   1      42.822  29.351  29.250  1.00  0.00    -0.248 NA
ATOM     42  C   UNL A   1      43.151  27.333  28.120  1.00  0.00     0.031 C 
ATOM     43  C   UNL A   1      38.398  28.804  28.879  1.00  0.00     0.029 A 
ATOM     44  N   UNL A   1      40.026  30.171  29.574  1.00  0.00    -0.354 N 
ATOM     45  C   UNL A   1      44.182  29.078  29.179  1.00  0.00     0.074 A 
ATOM     46  C   UNL A   1      44.325  27.794  28.527  1.00  0.00     0.031 C 
ATOM     47  C   UNL A   1      37.813  29.885  29.422  1.00  0.00     0.029 A 
ATOM     48  C   UNL A   1      38.847  30.790  29.911  1.00  0.00     0.049 A 
ATOM     49  H   UNL A   1      40.912  30.558  29.764  1.00  0.00     0.167 HD
ATOM     50  C   UNL A   1      45.221  29.836  29.600  1.00  0.00     0.031 A 
ATOM     51  C   UNL A   1      38.625  31.954  30.551  1.00  0.00     0.031 A 
ATOM     52  C   UNL A   1      45.083  31.122  30.226  1.00  0.00     0.049 A 
ATOM     53  C   UNL A   1      39.795  32.779  31.007  1.00  0.00     0.074 A 
ATOM     54  C   UNL A   1      46.077  31.993  30.637  1.00  0.00     0.029 A 
ATOM     55  N   UNL A   1      43.872  31.724  30.526  1.00  0.00    -0.354 N 
ATOM     56  N   UNL A   1      41.077  32.532  30.884  1.00  0.00    -0.248 NA
ATOM     57  C   UNL A   1      39.487  34.045  31.687  1.00  0.00     0.031 C 
ATOM     58  C   UNL A   1      45.466  33.109  31.218  1.00  0.00     0.029 A 
ATOM     59  C   UNL A   1      44.092  32.950  31.130  1.00  0.00     0.049 A 
ATOM     60  H   UNL A   1      42.985  31.337  30.337  1.00  0.00     0.167 HD
ATOM     61  C   UNL A   1      41.727  33.624  31.442  1.00  0.00     0.074 A 
ATOM     62  C   UNL A   1      40.700  34.538  31.897  1.00  0.00     0.031 C 
ATOM     63  C   UNL A   1      43.057  33.849  31.567  1.00  0.00     0.031 A 
BRANCH  50  64
ATOM     64  C   UNL A   1      46.603  29.282  29.395  1.00  0.00    -0.014 A 
ATOM     65  C   UNL A   1      47.222  28.496  30.381  1.00  0.00     0.009 A 
ATOM     66  C   UNL A   1      47.286  29.535  28.196  1.00  0.00     0.009 A 
ATOM     67  C   UNL A   1      48.514  28.006  30.184  1.00  0.00     0.001 A 
ATOM     68  C   UNL A   1      48.567  29.019  27.992  1.00  0.00     0.001 A 
ATOM     69  C   UNL A   1      49.184  28.265  28.989  1.00  0.00     0.000 A 
ENDBRANCH  50  64
BRANCH  51  70
ATOM     70  C   UNL A   1      37.234  32.422  30.783  1.00  0.00    -0.014 A 
ATOM     71  C   UNL A   1      36.708  33.478  30.024  1.00  0.00     0.009 A 
ATOM     72  C   UNL A   1      36.432  31.828  31.769  1.00  0.00     0.009 A 
ATOM     73  C   UNL A   1      35.414  33.946  30.263  1.00  0.00     0.001 A 
ATOM     74  C   UNL A   1      35.130  32.281  31.989  1.00  0.00     0.001 A 
ATOM     75  C   UNL A   1      34.625  33.345  31.243  1.00  0.00     0.000 A 
ENDBRANCH  51  70
BRANCH  63  76
ATOM     76  C   UNL A   1      43.478  35.151  32.184  1.00  0.00    -0.014 A 
ATOM     77  C   UNL A   1      43.673  35.271  33.568  1.00  0.00     0.009 A 
ATOM     78  C   UNL A   1      43.732  36.258  31.360  1.00  0.00     0.009 A 
ATOM     79  C   UNL A   1      44.092  36.483  34.117  1.00  0.00     0.001 A 
ATOM     80  C   UNL A   1      44.172  37.462  31.909  1.00  0.00     0.001 A 
ATOM     81  C   UNL A   1      44.346  37.576  33.288  1.00  0.00     0.000 A 
ENDBRANCH  63  76
ENDBRANCH  37  38
ENDBRANCH  29  32
ENDBRANCH  27  28
ENDBRANCH  26  27
ENDBRANCH   1  26
TORSDOF 13
ENDMDL
MODEL 3
REMARK VINA RESULT:     -12.1      2.663      3.880
REMARK SMILES Cc1cc2cc(-c3ccc([C@@H](C)C(=O)NCCCCNC(=O)c4ccc(-c5c6nc(c(-c7ccccc7)c7ccc([nH]7)c(-c7ccccc7)c7nc(c(-c8ccccc8)c8ccc5[nH]8)C=C7)C=C6)cc4)cc3)ccc2[nH]1
REMARK SMILES IDX 17 1 16 2 15 3 13 4 14 5 11 7 12 8 10 9 7 10 8 11 72 12 9 13
REMARK SMILES IDX 71 14 6 15 1 16 2 17 3 18 76 19 4 20 75 21 5 23 74 24 73 25
REMARK SMILES IDX 18 26 19 27 20 28 21 29 22 31 23 32 24 33 70 34 25 35 69 36
REMARK SMILES IDX 26 37 27 38 28 39 63 40 29 41 68 42 62 43 64 44 30 45 67 46
REMARK SMILES IDX 61 47 60 48 31 50 53 51 38 52 52 53 39 54 42 55 51 56 65 57
REMARK SMILES IDX 40 58 41 59 50 61 66 62 43 63 32 64 33 65 37 66 34 67 36 68
REMARK SMILES IDX 35 69 54 70 55 71 59 72 56 73 58 74 57 75 44 76 45 77 49 78
REMARK SMILES IDX 46 79 48 80 47 81
REMARK H PARENT 15 6 76 22 20 30 64 49 42 60
REMARK Flexibility Score: inf
ROOT
ATOM      1  C   UNL A   1      34.986  30.800  27.824  1.00  0.00     0.023 C 
ENDROOT
BRANCH   1   2
ATOM      2  C   UNL A   1      34.640  29.373  27.396  1.00  0.00     0.116 C 
BRANCH   2   3
ATOM      3  N   UNL A   1      33.352  28.944  27.900  1.00  0.00    -0.356 N 
ATOM      4  C   UNL A   1      32.318  28.295  27.296  1.00  0.00     0.227 C 
ATOM      5  O   UNL A   1      31.305  28.119  27.985  1.00  0.00    -0.274 OA
ATOM      6  H   UNL A   1      33.196  29.160  28.847  1.00  0.00     0.163 HD
BRANCH   4   7
ATOM      7  C   UNL A   1      32.359  27.774  25.849  1.00  0.00     0.105 C 
ATOM      8  C   UNL A   1      31.088  28.070  25.053  1.00  0.00     0.023 C 
BRANCH   7   9
ATOM      9  C   UNL A   1      32.905  26.360  25.735  1.00  0.00    -0.036 A 
ATOM     10  C   UNL A   1      33.777  23.658  25.385  1.00  0.00    -0.018 A 
ATOM     11  C   UNL A   1      34.527  24.750  24.913  1.00  0.00     0.009 A 
ATOM     12  C   UNL A   1      32.591  23.958  26.069  1.00  0.00     0.009 A 
ATOM     13  C   UNL A   1      34.124  26.071  25.120  1.00  0.00     0.005 A 
ATOM     14  C   UNL A   1      32.152  25.282  26.224  1.00  0.00     0.005 A 
BRANCH  10  15
ATOM     15  C   UNL A   1      34.237  22.269  25.147  1.00  0.00    -0.018 A 
ATOM     16  C   UNL A   1      33.753  16.267  23.966  1.00  0.00     0.064 C 
ATOM     17  C   UNL A   1      33.937  17.712  24.240  1.00  0.00     0.013 A 
ATOM     18  C   UNL A   1      33.032  18.752  24.201  1.00  0.00     0.031 A 
ATOM     19  N   UNL A   1      35.153  18.242  24.599  1.00  0.00    -0.359 N 
ATOM     20  C   UNL A   1      33.719  19.941  24.562  1.00  0.00     0.000 A 
ATOM     21  C   UNL A   1      35.042  19.598  24.816  1.00  0.00     0.046 A 
ATOM     22  H   UNL A   1      35.986  17.725  24.689  1.00  0.00     0.166 HD
ATOM     23  C   UNL A   1      33.327  21.284  24.707  1.00  0.00     0.019 A 
ATOM     24  C   UNL A   1      35.994  20.540  25.214  1.00  0.00     0.027 A 
ATOM     25  C   UNL A   1      35.564  21.867  25.384  1.00  0.00     0.011 A 
ENDBRANCH  10  15
ENDBRANCH   7   9
ENDBRANCH   4   7
ENDBRANCH   2   3
ENDBRANCH   1   2
BRANCH   1  26
ATOM     26  C   UNL A   1      33.795  31.746  27.948  1.00  0.00     0.023 C 
BRANCH  26  27
ATOM     27  C   UNL A   1      34.129  33.229  27.853  1.00  0.00     0.116 C 
BRANCH  27  28
ATOM     28  N   UNL A   1      33.460  34.060  28.844  1.00  0.00    -0.352 N 
ATOM     29  C   UNL A   1      33.836  34.290  30.151  1.00  0.00     0.251 C 
ATOM     30  H   UNL A   1      32.638  34.511  28.545  1.00  0.00     0.163 HD
ATOM     31  O   UNL A   1      33.143  34.964  30.897  1.00  0.00    -0.269 OA
BRANCH  29  32
ATOM     32  C   UNL A   1      35.075  33.658  30.650  1.00  0.00     0.039 A 
ATOM     33  C   UNL A   1      34.974  32.577  31.530  1.00  0.00     0.014 A 
ATOM     34  C   UNL A   1      36.321  34.077  30.179  1.00  0.00     0.014 A 
ATOM     35  C   UNL A   1      36.122  31.858  31.868  1.00  0.00     0.010 A 
ATOM     36  C   UNL A   1      37.450  33.315  30.457  1.00  0.00     0.010 A 
ATOM     37  C   UNL A   1      37.360  32.193  31.296  1.00  0.00    -0.014 A 
BRANCH  37  38
ATOM     38  C   UNL A   1      38.578  31.384  31.547  1.00  0.00     0.031 A 
ATOM     39  C   UNL A   1      39.535  31.792  32.630  1.00  0.00     0.074 A 
ATOM     40  C   UNL A   1      38.870  30.344  30.742  1.00  0.00     0.049 A 
ATOM     41  N   UNL A   1      40.708  31.294  32.927  1.00  0.00    -0.248 NA
ATOM     42  C   UNL A   1      39.132  32.931  33.472  1.00  0.00     0.031 C 
ATOM     43  C   UNL A   1      38.046  29.870  29.628  1.00  0.00     0.029 A 
ATOM     44  N   UNL A   1      39.955  29.504  30.731  1.00  0.00    -0.354 N 
ATOM     45  C   UNL A   1      41.194  32.075  33.969  1.00  0.00     0.074 A 
ATOM     46  C   UNL A   1      40.211  33.105  34.223  1.00  0.00     0.031 C 
ATOM     47  C   UNL A   1      38.644  28.811  29.058  1.00  0.00     0.029 A 
ATOM     48  C   UNL A   1      39.909  28.556  29.737  1.00  0.00     0.049 A 
ATOM     49  H   UNL A   1      40.696  29.573  31.376  1.00  0.00     0.167 HD
ATOM     50  C   UNL A   1      42.346  31.936  34.664  1.00  0.00     0.031 A 
ATOM     51  C   UNL A   1      40.793  27.597  29.405  1.00  0.00     0.031 A 
ATOM     52  C   UNL A   1      43.313  30.900  34.430  1.00  0.00     0.049 A 
ATOM     53  C   UNL A   1      42.065  27.462  30.194  1.00  0.00     0.074 A 
ATOM     54  C   UNL A   1      44.485  30.641  35.119  1.00  0.00     0.029 A 
ATOM     55  N   UNL A   1      43.216  29.945  33.430  1.00  0.00    -0.354 N 
ATOM     56  N   UNL A   1      42.485  28.175  31.211  1.00  0.00    -0.248 NA
ATOM     57  C   UNL A   1      42.982  26.386  29.792  1.00  0.00     0.031 C 
ATOM     58  C   UNL A   1      45.116  29.549  34.512  1.00  0.00     0.029 A 
ATOM     59  C   UNL A   1      44.314  29.103  33.473  1.00  0.00     0.049 A 
ATOM     60  H   UNL A   1      42.476  29.876  32.783  1.00  0.00     0.167 HD
ATOM     61  C   UNL A   1      43.698  27.616  31.588  1.00  0.00     0.074 A 
ATOM     62  C   UNL A   1      43.943  26.501  30.698  1.00  0.00     0.031 C 
ATOM     63  C   UNL A   1      44.535  27.994  32.584  1.00  0.00     0.031 A 
BRANCH  50  64
ATOM     64  C   UNL A   1      42.620  32.940  35.748  1.00  0.00    -0.014 A 
ATOM     65  C   UNL A   1      43.467  34.037  35.522  1.00  0.00     0.009 A 
ATOM     66  C   UNL A   1      42.010  32.797  37.003  1.00  0.00     0.009 A 
ATOM     67  C   UNL A   1      43.727  34.951  36.545  1.00  0.00     0.001 A 
ATOM     68  C   UNL A   1      42.250  33.729  38.015  1.00  0.00     0.001 A 
ATOM     69  C   UNL A   1      43.116  34.798  37.789  1.00  0.00     0.000 A 
ENDBRANCH  50  64
BRANCH  51  70
ATOM     70  C   UNL A   1      40.499  26.670  28.282  1.00  0.00    -0.014 A 
ATOM     71  C   UNL A   1      39.746  25.507  28.502  1.00  0.00     0.009 A 
ATOM     72  C   UNL A   1      40.977  26.936  26.989  1.00  0.00     0.009 A 
ATOM     73  C   UNL A   1      39.498  24.615  27.457  1.00  0.00     0.001 A 
ATOM     74  C   UNL A   1      40.707  26.054  25.940  1.00  0.00     0.001 A 
ATOM     75  C   UNL A   1      39.975  24.891  26.177  1.00  0.00     0.000 A 
ENDBRANCH  51  70
BRANCH  63  76
ATOM     76  C   UNL A   1      45.774  27.170  32.790  1.00  0.00    -0.014 A 
ATOM     77  C   UNL A   1      45.769  26.049  33.633  1.00  0.00     0.009 A 
ATOM     78  C   UNL A   1      46.945  27.495  32.090  1.00  0.00     0.009 A 
ATOM     79  C   UNL A   1      46.924  25.282  33.789  1.00  0.00     0.001 A 
ATOM     80  C   UNL A   1      48.092  26.712  32.230  1.00  0.00     0.001 A 
ATOM     81  C   UNL A   1      48.082  25.611  33.084  1.00  0.00     0.000 A 
ENDBRANCH  63  76
ENDBRANCH  37  38
ENDBRANCH  29  32
ENDBRANCH  27  28
ENDBRANCH  26  27
ENDBRANCH   1  26
TORSDOF 13
ENDMDL
