MODEL 1
REMARK VINA RESULT:     -11.3      0.000      0.000
REMARK SMILES O=C(NCCCCNC(=O)[C@@H]1CN(c2nc(-c3ccccc3)no2)CC[NH2+]1)c1ccc(-c2c3nc(c(-c4ccccc4)c4ccc([nH]4)c(-c4ccccc4)c4nc(c(-c5ccccc5)c5ccc2[nH]5)C=C4)C=C3)cc1
REMARK SMILES IDX 5 1 4 2 3 3 1 4 2 5 28 7 29 8 75 9 30 10 74 11 31 12 32 13
REMARK SMILES IDX 33 14 68 15 34 16 73 17 67 18 69 19 35 20 72 21 66 22 65 23
REMARK SMILES IDX 36 25 58 26 43 27 57 28 44 29 47 30 56 31 70 32 45 33 46 34
REMARK SMILES IDX 55 36 71 37 48 38 37 39 38 40 42 41 39 42 41 43 40 44 59 45
REMARK SMILES IDX 60 46 64 47 61 48 63 49 62 50 49 51 50 52 54 53 51 54 53 55
REMARK SMILES IDX 52 56 6 57 7 58 8 59 9 60 10 62 11 63 12 64 27 65 13 66
REMARK SMILES IDX 26 67 25 70 14 71 15 72 24 73 16 74 23 75 17 76 18 77 22 78
REMARK SMILES IDX 19 79 21 80 20 81
REMARK H PARENT 3 6 69 24 47 35 8 61 27 68 27 69
REMARK Flexibility Score: inf
ROOT
ATOM      1  C   UNL A   1      35.852  23.095  25.614  1.00  0.00     0.023 C 
ENDROOT
BRANCH   1   2
ATOM      2  C   UNL A   1      37.193  23.704  25.224  1.00  0.00     0.116 C 
BRANCH   2   3
ATOM      3  N   UNL A   1      38.318  22.808  25.444  1.00  0.00    -0.352 N 
ATOM      4  O   UNL A   1      40.389  22.213  26.123  1.00  0.00    -0.269 OA
ATOM      5  C   UNL A   1      39.487  23.045  26.128  1.00  0.00     0.251 C 
ATOM      6  H   UNL A   1      38.230  21.911  25.049  1.00  0.00     0.163 HD
BRANCH   5   7
ATOM      7  C   UNL A   1      39.665  24.326  26.843  1.00  0.00     0.039 A 
ATOM      8  C   UNL A   1      40.378  25.374  26.256  1.00  0.00     0.014 A 
ATOM      9  C   UNL A   1      39.125  24.471  28.124  1.00  0.00     0.014 A 
ATOM     10  C   UNL A   1      40.672  26.507  27.002  1.00  0.00     0.010 A 
ATOM     11  C   UNL A   1      39.354  25.648  28.843  1.00  0.00     0.010 A 
ATOM     12  C   UNL A   1      40.157  26.662  28.300  1.00  0.00    -0.014 A 
BRANCH  12  13
ATOM     13  C   UNL A   1      40.431  27.919  29.040  1.00  0.00     0.031 A 
ATOM     14  C   UNL A   1      39.414  29.024  29.107  1.00  0.00     0.074 A 
ATOM     15  C   UNL A   1      41.600  28.035  29.697  1.00  0.00     0.049 A 
ATOM     16  N   UNL A   1      39.480  30.162  29.752  1.00  0.00    -0.248 NA
ATOM     17  C   UNL A   1      38.163  28.833  28.354  1.00  0.00     0.031 C 
ATOM     18  C   UNL A   1      42.668  27.031  29.703  1.00  0.00     0.029 A 
ATOM     19  N   UNL A   1      42.076  29.031  30.510  1.00  0.00    -0.354 N 
ATOM     20  C   UNL A   1      38.292  30.827  29.477  1.00  0.00     0.074 A 
ATOM     21  C   UNL A   1      37.532  29.977  28.584  1.00  0.00     0.031 C 
ATOM     22  C   UNL A   1      43.648  27.438  30.522  1.00  0.00     0.029 A 
ATOM     23  C   UNL A   1      43.308  28.753  31.051  1.00  0.00     0.049 A 
ATOM     24  H   UNL A   1      41.584  29.865  30.687  1.00  0.00     0.167 HD
ATOM     25  C   UNL A   1      37.869  32.031  29.933  1.00  0.00     0.031 A 
ATOM     26  C   UNL A   1      44.084  29.478  31.874  1.00  0.00     0.031 A 
ATOM     27  C   UNL A   1      38.627  32.878  30.817  1.00  0.00     0.049 A 
ATOM     28  C   UNL A   1      43.602  30.819  32.339  1.00  0.00     0.074 A 
ATOM     29  C   UNL A   1      38.280  34.114  31.337  1.00  0.00     0.029 A 
ATOM     30  N   UNL A   1      39.886  32.577  31.311  1.00  0.00    -0.354 N 
ATOM     31  N   UNL A   1      42.468  31.423  32.082  1.00  0.00    -0.248 NA
ATOM     32  C   UNL A   1      44.509  31.579  33.210  1.00  0.00     0.031 C 
ATOM     33  C   UNL A   1      39.347  34.578  32.114  1.00  0.00     0.029 A 
ATOM     34  C   UNL A   1      40.338  33.609  32.118  1.00  0.00     0.049 A 
ATOM     35  H   UNL A   1      40.387  31.752  31.118  1.00  0.00     0.167 HD
ATOM     36  C   UNL A   1      42.518  32.628  32.768  1.00  0.00     0.074 A 
ATOM     37  C   UNL A   1      43.784  32.657  33.473  1.00  0.00     0.031 C 
ATOM     38  C   UNL A   1      41.602  33.624  32.805  1.00  0.00     0.031 A 
BRANCH  25  39
ATOM     39  C   UNL A   1      36.524  32.516  29.470  1.00  0.00    -0.014 A 
ATOM     40  C   UNL A   1      35.364  32.268  30.222  1.00  0.00     0.009 A 
ATOM     41  C   UNL A   1      36.420  33.278  28.295  1.00  0.00     0.009 A 
ATOM     42  C   UNL A   1      34.125  32.751  29.793  1.00  0.00     0.001 A 
ATOM     43  C   UNL A   1      35.185  33.780  27.881  1.00  0.00     0.001 A 
ATOM     44  C   UNL A   1      34.038  33.510  28.626  1.00  0.00     0.000 A 
ENDBRANCH  25  39
BRANCH  26  45
ATOM     45  C   UNL A   1      45.408  28.951  32.296  1.00  0.00    -0.014 A 
ATOM     46  C   UNL A   1      45.530  28.156  33.444  1.00  0.00     0.009 A 
ATOM     47  C   UNL A   1      46.556  29.239  31.541  1.00  0.00     0.009 A 
ATOM     48  C   UNL A   1      46.781  27.679  33.841  1.00  0.00     0.001 A 
ATOM     49  C   UNL A   1      47.799  28.734  31.923  1.00  0.00     0.001 A 
ATOM     50  C   UNL A   1      47.912  27.963  33.078  1.00  0.00     0.000 A 
ENDBRANCH  26  45
BRANCH  38  51
ATOM     51  C   UNL A   1      41.934  34.817  33.654  1.00  0.00    -0.014 A 
ATOM     52  C   UNL A   1      42.702  35.877  33.147  1.00  0.00     0.009 A 
ATOM     53  C   UNL A   1      41.466  34.882  34.975  1.00  0.00     0.009 A 
ATOM     54  C   UNL A   1      43.024  36.964  33.961  1.00  0.00     0.001 A 
ATOM     55  C   UNL A   1      41.769  35.983  35.778  1.00  0.00     0.001 A 
ATOM     56  C   UNL A   1      42.556  37.017  35.273  1.00  0.00     0.000 A 
ENDBRANCH  38  51
ENDBRANCH  12  13
ENDBRANCH   5   7
ENDBRANCH   2   3
ENDBRANCH   1   2
BRANCH   1  57
ATOM     57  C   UNL A   1      35.906  21.639  26.084  1.00  0.00     0.023 C 
BRANCH  57  58
ATOM     58  C   UNL A   1      35.616  20.607  24.996  1.00  0.00     0.116 C 
BRANCH  58  59
ATOM     59  N   UNL A   1      34.354  19.931  25.222  1.00  0.00    -0.351 N 
ATOM     60  C   UNL A   1      33.079  20.387  25.075  1.00  0.00     0.280 C 
ATOM     61  H   UNL A   1      34.430  18.997  25.528  1.00  0.00     0.163 HD
ATOM     62  O   UNL A   1      32.153  19.625  25.372  1.00  0.00    -0.268 OA
BRANCH  60  63
ATOM     63  C   UNL A   1      32.807  21.810  24.565  1.00  0.00     0.292 C 
ATOM     64  C   UNL A   1      31.621  22.371  25.376  1.00  0.00     0.197 C 
ATOM     65  N   UNL A   1      32.543  21.734  23.094  1.00  0.00    -0.333 N 
ATOM     66  N   UNL A   1      31.163  23.639  24.811  1.00  0.00    -0.312 N 
ATOM     67  C   UNL A   1      32.108  23.058  22.610  1.00  0.00     0.283 C 
ATOM     68  H   UNL A   1      31.811  21.047  22.913  1.00  0.00     0.347 HD
ATOM     69  H   UNL A   1      33.395  21.455  22.607  1.00  0.00     0.347 HD
ATOM     70  C   UNL A   1      30.895  23.646  23.374  1.00  0.00     0.183 C 
BRANCH  66  71
ATOM     71  C   UNL A   1      31.294  24.789  25.501  1.00  0.00     0.324 A 
ATOM     72  N   UNL A   1      32.320  25.603  25.580  1.00  0.00    -0.171 NA
ATOM     73  O   UNL A   1      30.230  25.203  26.256  1.00  0.00    -0.315 OA
ATOM     74  C   UNL A   1      31.850  26.592  26.414  1.00  0.00     0.204 A 
ATOM     75  N   UNL A   1      30.608  26.388  26.877  1.00  0.00    -0.055 NA
BRANCH  74  76
ATOM     76  C   UNL A   1      32.588  27.808  26.689  1.00  0.00     0.023 A 
ATOM     77  C   UNL A   1      31.924  28.978  27.069  1.00  0.00     0.012 A 
ATOM     78  C   UNL A   1      33.977  27.829  26.500  1.00  0.00     0.012 A 
ATOM     79  C   UNL A   1      32.642  30.163  27.251  1.00  0.00     0.001 A 
ATOM     80  C   UNL A   1      34.690  29.016  26.672  1.00  0.00     0.001 A 
ATOM     81  C   UNL A   1      34.022  30.183  27.045  1.00  0.00     0.000 A 
ENDBRANCH  74  76
ENDBRANCH  66  71
ENDBRANCH  60  63
ENDBRANCH  58  59
ENDBRANCH  57  58
ENDBRANCH   1  57
TORSDOF 13
ENDMDL
MODEL 2
REMARK VINA RESULT:     -11.3      2.683      7.884
REMARK SMILES O=C(NCCCCNC(=O)[C@@H]1CN(c2nc(-c3ccccc3)no2)CC[NH2+]1)c1ccc(-c2c3nc(c(-c4ccccc4)c4ccc([nH]4)c(-c4ccccc4)c4nc(c(-c5ccccc5)c5ccc2[nH]5)C=C4)C=C3)cc1
REMARK SMILES IDX 5 1 4 2 3 3 1 4 2 5 28 7 29 8 75 9 30 10 74 11 31 12 32 13
REMARK SMILES IDX 33 14 68 15 34 16 73 17 67 18 69 19 35 20 72 21 66 22 65 23
REMARK SMILES IDX 36 25 58 26 43 27 57 28 44 29 47 30 56 31 70 32 45 33 46 34
REMARK SMILES IDX 55 36 71 37 48 38 37 39 38 40 42 41 39 42 41 43 40 44 59 45
REMARK SMILES IDX 60 46 64 47 61 48 63 49 62 50 49 51 50 52 54 53 51 54 53 55
REMARK SMILES IDX 52 56 6 57 7 58 8 59 9 60 10 62 11 63 12 64 27 65 13 66
REMARK SMILES IDX 26 67 25 70 14 71 15 72 24 73 16 74 23 75 17 76 18 77 22 78
REMARK SMILES IDX 19 79 21 80 20 81
REMARK H PARENT 3 6 69 24 47 35 8 61 27 68 27 69
REMARK Flexibility Score: inf
ROOT
ATOM      1  C   UNL A   1      33.653  28.437  25.753  1.00  0.00     0.023 C 
ENDROOT
BRANCH   1   2
ATOM      2  C   UNL A   1      33.622  28.566  27.270  1.00  0.00     0.116 C 
BRANCH   2   3
ATOM      3  N   UNL A   1      33.510  29.942  27.729  1.00  0.00    -0.352 N 
ATOM      4  O   UNL A   1      34.169  31.840  28.764  1.00  0.00    -0.269 OA
ATOM      5  C   UNL A   1      34.463  30.728  28.333  1.00  0.00     0.251 C 
ATOM      6  H   UNL A   1      32.635  30.368  27.588  1.00  0.00     0.163 HD
BRANCH   5   7
ATOM      7  C   UNL A   1      35.838  30.212  28.493  1.00  0.00     0.039 A 
ATOM      8  C   UNL A   1      36.237  29.612  29.689  1.00  0.00     0.014 A 
ATOM      9  C   UNL A   1      36.743  30.347  27.436  1.00  0.00     0.014 A 
ATOM     10  C   UNL A   1      37.572  29.279  29.879  1.00  0.00     0.010 A 
ATOM     11  C   UNL A   1      38.068  29.936  27.601  1.00  0.00     0.010 A 
ATOM     12  C   UNL A   1      38.501  29.428  28.836  1.00  0.00    -0.014 A 
BRANCH  12  13
ATOM     13  C   UNL A   1      39.903  28.993  29.051  1.00  0.00     0.031 A 
ATOM     14  C   UNL A   1      40.900  29.883  29.739  1.00  0.00     0.074 A 
ATOM     15  C   UNL A   1      40.259  27.755  28.659  1.00  0.00     0.049 A 
ATOM     16  N   UNL A   1      42.149  29.632  30.048  1.00  0.00    -0.248 NA
ATOM     17  C   UNL A   1      40.445  31.227  30.130  1.00  0.00     0.031 C 
ATOM     18  C   UNL A   1      39.380  26.801  27.977  1.00  0.00     0.029 A 
ATOM     19  N   UNL A   1      41.440  27.075  28.801  1.00  0.00    -0.354 N 
ATOM     20  C   UNL A   1      42.631  30.783  30.657  1.00  0.00     0.074 A 
ATOM     21  C   UNL A   1      41.550  31.746  30.651  1.00  0.00     0.031 C 
ATOM     22  C   UNL A   1      40.034  25.644  27.809  1.00  0.00     0.029 A 
ATOM     23  C   UNL A   1      41.394  25.791  28.315  1.00  0.00     0.049 A 
ATOM     24  H   UNL A   1      42.244  27.468  29.211  1.00  0.00     0.167 HD
ATOM     25  C   UNL A   1      43.859  31.014  31.180  1.00  0.00     0.031 A 
ATOM     26  C   UNL A   1      42.341  24.838  28.271  1.00  0.00     0.031 A 
ATOM     27  C   UNL A   1      44.937  30.059  31.181  1.00  0.00     0.049 A 
ATOM     28  C   UNL A   1      43.699  25.133  28.832  1.00  0.00     0.074 A 
ATOM     29  C   UNL A   1      46.215  30.200  31.692  1.00  0.00     0.029 A 
ATOM     30  N   UNL A   1      44.860  28.783  30.645  1.00  0.00    -0.354 N 
ATOM     31  N   UNL A   1      44.130  26.222  29.420  1.00  0.00    -0.248 NA
ATOM     32  C   UNL A   1      44.702  24.065  28.725  1.00  0.00     0.031 C 
ATOM     33  C   UNL A   1      46.926  29.023  31.429  1.00  0.00     0.029 A 
ATOM     34  C   UNL A   1      46.073  28.132  30.798  1.00  0.00     0.049 A 
ATOM     35  H   UNL A   1      44.062  28.396  30.218  1.00  0.00     0.167 HD
ATOM     36  C   UNL A   1      45.450  25.968  29.763  1.00  0.00     0.074 A 
ATOM     37  C   UNL A   1      45.740  24.612  29.342  1.00  0.00     0.031 C 
ATOM     38  C   UNL A   1      46.345  26.786  30.367  1.00  0.00     0.031 A 
BRANCH  25  39
ATOM     39  C   UNL A   1      44.113  32.367  31.785  1.00  0.00    -0.014 A 
ATOM     40  C   UNL A   1      43.906  32.599  33.155  1.00  0.00     0.009 A 
ATOM     41  C   UNL A   1      44.619  33.407  30.989  1.00  0.00     0.009 A 
ATOM     42  C   UNL A   1      44.175  33.854  33.708  1.00  0.00     0.001 A 
ATOM     43  C   UNL A   1      44.909  34.652  31.549  1.00  0.00     0.001 A 
ATOM     44  C   UNL A   1      44.681  34.877  32.906  1.00  0.00     0.000 A 
ENDBRANCH  25  39
BRANCH  26  45
ATOM     45  C   UNL A   1      42.036  23.521  27.656  1.00  0.00    -0.014 A 
ATOM     46  C   UNL A   1      41.450  22.496  28.412  1.00  0.00     0.009 A 
ATOM     47  C   UNL A   1      42.325  23.290  26.302  1.00  0.00     0.009 A 
ATOM     48  C   UNL A   1      41.181  21.255  27.829  1.00  0.00     0.001 A 
ATOM     49  C   UNL A   1      42.026  22.059  25.714  1.00  0.00     0.001 A 
ATOM     50  C   UNL A   1      41.464  21.041  26.480  1.00  0.00     0.000 A 
ENDBRANCH  26  45
BRANCH  38  51
ATOM     51  C   UNL A   1      47.712  26.221  30.621  1.00  0.00    -0.014 A 
ATOM     52  C   UNL A   1      48.680  26.178  29.606  1.00  0.00     0.009 A 
ATOM     53  C   UNL A   1      48.037  25.735  31.897  1.00  0.00     0.009 A 
ATOM     54  C   UNL A   1      49.937  25.622  29.855  1.00  0.00     0.001 A 
ATOM     55  C   UNL A   1      49.303  25.204  32.149  1.00  0.00     0.001 A 
ATOM     56  C   UNL A   1      50.248  25.139  31.125  1.00  0.00     0.000 A 
ENDBRANCH  38  51
ENDBRANCH  12  13
ENDBRANCH   5   7
ENDBRANCH   2   3
ENDBRANCH   1   2
BRANCH   1  57
ATOM     57  C   UNL A   1      33.066  29.623  24.983  1.00  0.00     0.023 C 
BRANCH  57  58
ATOM     58  C   UNL A   1      31.551  29.770  25.096  1.00  0.00     0.116 C 
BRANCH  58  59
ATOM     59  N   UNL A   1      30.900  29.619  23.810  1.00  0.00    -0.351 N 
ATOM     60  C   UNL A   1      30.620  28.492  23.098  1.00  0.00     0.280 C 
ATOM     61  H   UNL A   1      30.615  30.462  23.386  1.00  0.00     0.163 HD
ATOM     62  O   UNL A   1      30.087  28.622  21.992  1.00  0.00    -0.268 OA
BRANCH  60  63
ATOM     63  C   UNL A   1      30.968  27.104  23.655  1.00  0.00     0.292 C 
ATOM     64  C   UNL A   1      31.589  26.288  22.503  1.00  0.00     0.197 C 
ATOM     65  N   UNL A   1      29.718  26.498  24.212  1.00  0.00    -0.333 N 
ATOM     66  N   UNL A   1      31.755  24.889  22.893  1.00  0.00    -0.312 N 
ATOM     67  C   UNL A   1      29.985  25.099  24.595  1.00  0.00     0.283 C 
ATOM     68  H   UNL A   1      28.982  26.524  23.505  1.00  0.00     0.347 HD
ATOM     69  H   UNL A   1      29.417  27.026  25.031  1.00  0.00     0.347 HD
ATOM     70  C   UNL A   1      30.577  24.231  23.456  1.00  0.00     0.183 C 
BRANCH  66  71
ATOM     71  C   UNL A   1      32.983  24.350  23.025  1.00  0.00     0.324 A 
ATOM     72  N   UNL A   1      33.774  24.320  24.072  1.00  0.00    -0.171 NA
ATOM     73  O   UNL A   1      33.535  23.746  21.927  1.00  0.00    -0.315 OA
ATOM     74  C   UNL A   1      34.868  23.633  23.598  1.00  0.00     0.204 A 
ATOM     75  N   UNL A   1      34.793  23.289  22.304  1.00  0.00    -0.055 NA
BRANCH  74  76
ATOM     76  C   UNL A   1      35.966  23.218  24.446  1.00  0.00     0.023 A 
ATOM     77  C   UNL A   1      36.424  24.041  25.480  1.00  0.00     0.012 A 
ATOM     78  C   UNL A   1      36.623  22.009  24.180  1.00  0.00     0.012 A 
ATOM     79  C   UNL A   1      37.535  23.662  26.236  1.00  0.00     0.001 A 
ATOM     80  C   UNL A   1      37.740  21.637  24.931  1.00  0.00     0.001 A 
ATOM     81  C   UNL A   1      38.197  22.466  25.956  1.00  0.00     0.000 A 
ENDBRANCH  74  76
ENDBRANCH  66  71
ENDBRANCH  60  63
ENDBRANCH  58  59
ENDBRANCH  57  58
ENDBRANCH   1  57
TORSDOF 13
ENDMDL
MODEL 3
REMARK VINA RESULT:     -11.2      0.871      6.009
REMARK SMILES O=C(NCCCCNC(=O)[C@@H]1CN(c2nc(-c3ccccc3)no2)CC[NH2+]1)c1ccc(-c2c3nc(c(-c4ccccc4)c4ccc([nH]4)c(-c4ccccc4)c4nc(c(-c5ccccc5)c5ccc2[nH]5)C=C4)C=C3)cc1
REMARK SMILES IDX 5 1 4 2 3 3 1 4 2 5 28 7 29 8 75 9 30 10 74 11 31 12 32 13
REMARK SMILES IDX 33 14 68 15 34 16 73 17 67 18 69 19 35 20 72 21 66 22 65 23
REMARK SMILES IDX 36 25 58 26 43 27 57 28 44 29 47 30 56 31 70 32 45 33 46 34
REMARK SMILES IDX 55 36 71 37 48 38 37 39 38 40 42 41 39 42 41 43 40 44 59 45
REMARK SMILES IDX 60 46 64 47 61 48 63 49 62 50 49 51 50 52 54 53 51 54 53 55
REMARK SMILES IDX 52 56 6 57 7 58 8 59 9 60 10 62 11 63 12 64 27 65 13 66
REMARK SMILES IDX 26 67 25 70 14 71 15 72 24 73 16 74 23 75 17 76 18 77 22 78
REMARK SMILES IDX 19 79 21 80 20 81
REMARK H PARENT 3 6 69 24 47 35 8 61 27 68 27 69
REMARK Flexibility Score: inf
ROOT
ATOM      1  C   UNL A   1      35.768  23.300  26.096  1.00  0.00     0.023 C 
ENDROOT
BRANCH   1   2
ATOM      2  C   UNL A   1      37.017  23.688  25.314  1.00  0.00     0.116 C 
BRANCH   2   3
ATOM      3  N   UNL A   1      38.113  22.744  25.475  1.00  0.00    -0.352 N 
ATOM      4  O   UNL A   1      40.194  22.063  26.032  1.00  0.00    -0.269 OA
ATOM      5  C   UNL A   1      39.331  22.934  26.083  1.00  0.00     0.251 C 
ATOM      6  H   UNL A   1      37.962  21.849  25.096  1.00  0.00     0.163 HD
BRANCH   5   7
ATOM      7  C   UNL A   1      39.610  24.212  26.772  1.00  0.00     0.039 A 
ATOM      8  C   UNL A   1      40.330  25.222  26.130  1.00  0.00     0.014 A 
ATOM      9  C   UNL A   1      39.156  24.392  28.081  1.00  0.00     0.014 A 
ATOM     10  C   UNL A   1      40.720  26.347  26.845  1.00  0.00     0.010 A 
ATOM     11  C   UNL A   1      39.481  25.563  28.772  1.00  0.00     0.010 A 
ATOM     12  C   UNL A   1      40.292  26.535  28.170  1.00  0.00    -0.014 A 
BRANCH  12  13
ATOM     13  C   UNL A   1      40.667  27.785  28.877  1.00  0.00     0.031 A 
ATOM     14  C   UNL A   1      42.062  28.002  29.393  1.00  0.00     0.074 A 
ATOM     15  C   UNL A   1      39.739  28.752  29.008  1.00  0.00     0.049 A 
ATOM     16  N   UNL A   1      42.562  29.057  29.988  1.00  0.00    -0.248 NA
ATOM     17  C   UNL A   1      43.021  26.898  29.226  1.00  0.00     0.031 C 
ATOM     18  C   UNL A   1      38.350  28.655  28.552  1.00  0.00     0.029 A 
ATOM     19  N   UNL A   1      39.828  30.014  29.536  1.00  0.00    -0.354 N 
ATOM     20  C   UNL A   1      43.884  28.744  30.275  1.00  0.00     0.074 A 
ATOM     21  C   UNL A   1      44.104  27.389  29.814  1.00  0.00     0.031 C 
ATOM     22  C   UNL A   1      37.734  29.825  28.769  1.00  0.00     0.029 A 
ATOM     23  C   UNL A   1      38.662  30.732  29.433  1.00  0.00     0.049 A 
ATOM     24  H   UNL A   1      40.647  30.370  29.948  1.00  0.00     0.167 HD
ATOM     25  C   UNL A   1      44.830  29.516  30.861  1.00  0.00     0.031 A 
ATOM     26  C   UNL A   1      38.366  31.980  29.836  1.00  0.00     0.031 A 
ATOM     27  C   UNL A   1      44.610  30.862  31.325  1.00  0.00     0.049 A 
ATOM     28  C   UNL A   1      39.425  32.801  30.508  1.00  0.00     0.074 A 
ATOM     29  C   UNL A   1      45.509  31.725  31.928  1.00  0.00     0.029 A 
ATOM     30  N   UNL A   1      43.404  31.539  31.237  1.00  0.00    -0.354 N 
ATOM     31  N   UNL A   1      40.675  32.493  30.754  1.00  0.00    -0.248 NA
ATOM     32  C   UNL A   1      39.032  34.143  30.956  1.00  0.00     0.031 C 
ATOM     33  C   UNL A   1      44.836  32.912  32.241  1.00  0.00     0.029 A 
ATOM     34  C   UNL A   1      43.531  32.804  31.788  1.00  0.00     0.049 A 
ATOM     35  H   UNL A   1      42.579  31.175  30.841  1.00  0.00     0.167 HD
ATOM     36  C   UNL A   1      41.222  33.605  31.376  1.00  0.00     0.074 A 
ATOM     37  C   UNL A   1      40.175  34.605  31.444  1.00  0.00     0.031 C 
ATOM     38  C   UNL A   1      42.477  33.782  31.854  1.00  0.00     0.031 A 
BRANCH  25  39
ATOM     39  C   UNL A   1      46.196  28.918  31.052  1.00  0.00    -0.014 A 
ATOM     40  C   UNL A   1      47.196  29.067  30.077  1.00  0.00     0.009 A 
ATOM     41  C   UNL A   1      46.506  28.243  32.243  1.00  0.00     0.009 A 
ATOM     42  C   UNL A   1      48.470  28.530  30.283  1.00  0.00     0.001 A 
ATOM     43  C   UNL A   1      47.785  27.728  32.456  1.00  0.00     0.001 A 
ATOM     44  C   UNL A   1      48.764  27.866  31.473  1.00  0.00     0.000 A 
ENDBRANCH  25  39
BRANCH  26  45
ATOM     45  C   UNL A   1      36.998  32.519  29.627  1.00  0.00    -0.014 A 
ATOM     46  C   UNL A   1      36.692  33.277  28.488  1.00  0.00     0.009 A 
ATOM     47  C   UNL A   1      35.987  32.267  30.569  1.00  0.00     0.009 A 
ATOM     48  C   UNL A   1      35.407  33.793  28.308  1.00  0.00     0.001 A 
ATOM     49  C   UNL A   1      34.696  32.757  30.370  1.00  0.00     0.001 A 
ATOM     50  C   UNL A   1      34.409  33.527  29.245  1.00  0.00     0.000 A 
ENDBRANCH  26  45
BRANCH  38  51
ATOM     51  C   UNL A   1      42.783  35.115  32.472  1.00  0.00    -0.014 A 
ATOM     52  C   UNL A   1      42.441  35.392  33.805  1.00  0.00     0.009 A 
ATOM     53  C   UNL A   1      43.430  36.102  31.713  1.00  0.00     0.009 A 
ATOM     54  C   UNL A   1      42.709  36.648  34.353  1.00  0.00     0.001 A 
ATOM     55  C   UNL A   1      43.719  37.347  32.273  1.00  0.00     0.001 A 
ATOM     56  C   UNL A   1      43.349  37.622  33.589  1.00  0.00     0.000 A 
ENDBRANCH  38  51
ENDBRANCH  12  13
ENDBRANCH   5   7
ENDBRANCH   2   3
ENDBRANCH   1   2
BRANCH   1  57
ATOM     57  C   UNL A   1      35.599  21.801  26.358  1.00  0.00     0.023 C 
BRANCH  57  58
ATOM     58  C   UNL A   1      34.340  21.429  27.138  1.00  0.00     0.116 C 
BRANCH  58  59
ATOM     59  N   UNL A   1      33.490  20.528  26.386  1.00  0.00    -0.351 N 
ATOM     60  C   UNL A   1      32.619  20.790  25.371  1.00  0.00     0.280 C 
ATOM     61  H   UNL A   1      33.550  19.580  26.649  1.00  0.00     0.163 HD
ATOM     62  O   UNL A   1      31.967  19.849  24.909  1.00  0.00    -0.268 OA
BRANCH  60  63
ATOM     63  C   UNL A   1      32.452  22.217  24.828  1.00  0.00     0.292 C 
ATOM     64  C   UNL A   1      31.295  22.874  25.609  1.00  0.00     0.197 C 
ATOM     65  N   UNL A   1      32.206  22.129  23.355  1.00  0.00    -0.333 N 
ATOM     66  N   UNL A   1      30.933  24.157  25.011  1.00  0.00    -0.312 N 
ATOM     67  C   UNL A   1      31.869  23.469  22.838  1.00  0.00     0.283 C 
ATOM     68  H   UNL A   1      31.431  21.489  23.176  1.00  0.00     0.347 HD
ATOM     69  H   UNL A   1      33.044  21.783  22.887  1.00  0.00     0.347 HD
ATOM     70  C   UNL A   1      30.688  24.153  23.570  1.00  0.00     0.183 C 
BRANCH  66  71
ATOM     71  C   UNL A   1      31.131  25.310  25.680  1.00  0.00     0.324 A 
ATOM     72  N   UNL A   1      32.207  26.058  25.755  1.00  0.00    -0.171 NA
ATOM     73  O   UNL A   1      30.088  25.808  26.414  1.00  0.00    -0.315 OA
ATOM     74  C   UNL A   1      31.794  27.092  26.565  1.00  0.00     0.204 A 
ATOM     75  N   UNL A   1      30.537  26.978  27.016  1.00  0.00    -0.055 NA
BRANCH  74  76
ATOM     76  C   UNL A   1      32.607  28.262  26.824  1.00  0.00     0.023 A 
ATOM     77  C   UNL A   1      32.015  29.511  27.041  1.00  0.00     0.012 A 
ATOM     78  C   UNL A   1      34.003  28.154  26.785  1.00  0.00     0.012 A 
ATOM     79  C   UNL A   1      32.815  30.644  27.209  1.00  0.00     0.001 A 
ATOM     80  C   UNL A   1      34.800  29.289  26.943  1.00  0.00     0.001 A 
ATOM     81  C   UNL A   1      34.205  30.534  27.152  1.00  0.00     0.000 A 
ENDBRANCH  74  76
ENDBRANCH  66  71
ENDBRANCH  60  63
ENDBRANCH  58  59
ENDBRANCH  57  58
ENDBRANCH   1  57
TORSDOF 13
ENDMDL
