MODEL 1
REMARK VINA RESULT:     -11.0      0.000      0.000
REMARK SMILES O=C(NCCCCNC(=O)c1csc(-c2ccnc(N3CCOCC3)c2)n1)c1ccc(-c2c3nc(c(-c4ccccc4)c4ccc([nH]4)c(-c4ccccc4)c4nc(c(-c5ccccc5)c5ccc2[nH]5)C=C4)C=C3)cc1
REMARK SMILES IDX 5 1 4 2 3 3 1 4 2 5 28 7 29 8 75 9 30 10 74 11 31 12 32 13
REMARK SMILES IDX 33 14 68 15 34 16 73 17 67 18 69 19 35 20 72 21 66 22 65 23
REMARK SMILES IDX 36 25 58 26 43 27 57 28 44 29 47 30 56 31 70 32 45 33 46 34
REMARK SMILES IDX 55 36 71 37 48 38 37 39 38 40 42 41 39 42 41 43 40 44 59 45
REMARK SMILES IDX 60 46 64 47 61 48 63 49 62 50 49 51 50 52 54 53 51 54 53 55
REMARK SMILES IDX 52 56 6 57 7 58 8 59 9 60 10 62 11 63 12 64 27 65 13 66
REMARK SMILES IDX 14 67 15 68 16 69 26 70 17 71 19 72 18 73 20 74 21 75 25 76
REMARK SMILES IDX 22 77 24 78 23 79
REMARK H PARENT 3 6 69 24 47 35 8 61
REMARK Flexibility Score: inf
ROOT
ATOM      1  C   UNL A   1      33.890  28.437  25.764  1.00  0.00     0.023 C 
ENDROOT
BRANCH   1   2
ATOM      2  C   UNL A   1      33.749  28.622  27.269  1.00  0.00     0.116 C 
BRANCH   2   3
ATOM      3  N   UNL A   1      33.665  30.022  27.655  1.00  0.00    -0.352 N 
ATOM      4  O   UNL A   1      34.317  31.920  28.686  1.00  0.00    -0.269 OA
ATOM      5  C   UNL A   1      34.604  30.795  28.291  1.00  0.00     0.251 C 
ATOM      6  H   UNL A   1      32.821  30.476  27.431  1.00  0.00     0.163 HD
BRANCH   5   7
ATOM      7  C   UNL A   1      35.964  30.259  28.513  1.00  0.00     0.039 A 
ATOM      8  C   UNL A   1      36.934  30.338  27.509  1.00  0.00     0.014 A 
ATOM      9  C   UNL A   1      36.278  29.695  29.753  1.00  0.00     0.014 A 
ATOM     10  C   UNL A   1      38.184  29.763  27.706  1.00  0.00     0.010 A 
ATOM     11  C   UNL A   1      37.559  29.184  29.977  1.00  0.00     0.010 A 
ATOM     12  C   UNL A   1      38.518  29.207  28.952  1.00  0.00    -0.014 A 
BRANCH  12  13
ATOM     13  C   UNL A   1      39.915  28.778  29.204  1.00  0.00     0.031 A 
ATOM     14  C   UNL A   1      40.919  29.697  29.832  1.00  0.00     0.074 A 
ATOM     15  C   UNL A   1      40.267  27.530  28.838  1.00  0.00     0.049 A 
ATOM     16  N   UNL A   1      42.182  29.472  30.098  1.00  0.00    -0.248 NA
ATOM     17  C   UNL A   1      40.459  31.043  30.209  1.00  0.00     0.031 C 
ATOM     18  C   UNL A   1      39.376  26.554  28.201  1.00  0.00     0.029 A 
ATOM     19  N   UNL A   1      41.461  26.866  28.945  1.00  0.00    -0.354 N 
ATOM     20  C   UNL A   1      42.672  30.648  30.650  1.00  0.00     0.074 A 
ATOM     21  C   UNL A   1      41.575  31.592  30.674  1.00  0.00     0.031 C 
ATOM     22  C   UNL A   1      40.047  25.412  27.998  1.00  0.00     0.029 A 
ATOM     23  C   UNL A   1      41.427  25.594  28.427  1.00  0.00     0.049 A 
ATOM     24  H   UNL A   1      42.265  27.262  29.352  1.00  0.00     0.167 HD
ATOM     25  C   UNL A   1      43.925  30.909  31.093  1.00  0.00     0.031 A 
ATOM     26  C   UNL A   1      42.406  24.683  28.280  1.00  0.00     0.031 A 
ATOM     27  C   UNL A   1      45.008  29.961  31.073  1.00  0.00     0.049 A 
ATOM     28  C   UNL A   1      43.791  25.022  28.742  1.00  0.00     0.074 A 
ATOM     29  C   UNL A   1      46.292  30.111  31.570  1.00  0.00     0.029 A 
ATOM     30  N   UNL A   1      44.941  28.695  30.513  1.00  0.00    -0.354 N 
ATOM     31  N   UNL A   1      44.217  26.112  29.333  1.00  0.00    -0.248 NA
ATOM     32  C   UNL A   1      44.832  24.013  28.509  1.00  0.00     0.031 C 
ATOM     33  C   UNL A   1      47.020  28.960  31.255  1.00  0.00     0.029 A 
ATOM     34  C   UNL A   1      46.176  28.073  30.608  1.00  0.00     0.049 A 
ATOM     35  H   UNL A   1      44.137  28.297  30.108  1.00  0.00     0.167 HD
ATOM     36  C   UNL A   1      45.573  25.917  29.547  1.00  0.00     0.074 A 
ATOM     37  C   UNL A   1      45.893  24.594  29.051  1.00  0.00     0.031 C 
ATOM     38  C   UNL A   1      46.477  26.763  30.096  1.00  0.00     0.031 A 
BRANCH  25  39
ATOM     39  C   UNL A   1      44.219  32.286  31.618  1.00  0.00    -0.014 A 
ATOM     40  C   UNL A   1      44.089  32.591  32.981  1.00  0.00     0.009 A 
ATOM     41  C   UNL A   1      44.733  33.261  30.749  1.00  0.00     0.009 A 
ATOM     42  C   UNL A   1      44.456  33.852  33.460  1.00  0.00     0.001 A 
ATOM     43  C   UNL A   1      45.118  34.512  31.233  1.00  0.00     0.001 A 
ATOM     44  C   UNL A   1      44.977  34.807  32.588  1.00  0.00     0.000 A 
ENDBRANCH  25  39
BRANCH  26  45
ATOM     45  C   UNL A   1      42.117  23.386  27.615  1.00  0.00    -0.014 A 
ATOM     46  C   UNL A   1      41.562  22.318  28.334  1.00  0.00     0.009 A 
ATOM     47  C   UNL A   1      42.408  23.211  26.253  1.00  0.00     0.009 A 
ATOM     48  C   UNL A   1      41.327  21.092  27.705  1.00  0.00     0.001 A 
ATOM     49  C   UNL A   1      42.141  21.997  25.620  1.00  0.00     0.001 A 
ATOM     50  C   UNL A   1      41.612  20.935  26.349  1.00  0.00     0.000 A 
ENDBRANCH  26  45
BRANCH  38  51
ATOM     51  C   UNL A   1      47.894  26.277  30.186  1.00  0.00    -0.014 A 
ATOM     52  C   UNL A   1      48.761  26.381  29.089  1.00  0.00     0.009 A 
ATOM     53  C   UNL A   1      48.374  25.739  31.389  1.00  0.00     0.009 A 
ATOM     54  C   UNL A   1      50.078  25.927  29.185  1.00  0.00     0.001 A 
ATOM     55  C   UNL A   1      49.699  25.311  31.492  1.00  0.00     0.001 A 
ATOM     56  C   UNL A   1      50.547  25.399  30.387  1.00  0.00     0.000 A 
ENDBRANCH  38  51
ENDBRANCH  12  13
ENDBRANCH   5   7
ENDBRANCH   2   3
ENDBRANCH   1   2
BRANCH   1  57
ATOM     57  C   UNL A   1      33.124  29.452  24.917  1.00  0.00     0.023 C 
BRANCH  57  58
ATOM     58  C   UNL A   1      31.604  29.400  25.069  1.00  0.00     0.116 C 
BRANCH  58  59
ATOM     59  N   UNL A   1      30.949  29.124  23.800  1.00  0.00    -0.351 N 
ATOM     60  C   UNL A   1      30.663  27.910  23.228  1.00  0.00     0.270 C 
ATOM     61  H   UNL A   1      30.673  29.914  23.281  1.00  0.00     0.163 HD
ATOM     62  O   UNL A   1      30.329  27.876  22.038  1.00  0.00    -0.267 OA
BRANCH  60  63
ATOM     63  C   UNL A   1      30.790  26.698  24.032  1.00  0.00     0.139 A 
ATOM     64  C   UNL A   1      29.972  26.406  25.108  1.00  0.00     0.101 A 
ATOM     65  N   UNL A   1      31.779  25.744  23.788  1.00  0.00    -0.231 NA
ATOM     66  S   UNL A   1      30.365  24.870  25.752  1.00  0.00    -0.122 S 
ATOM     67  C   UNL A   1      31.623  24.715  24.589  1.00  0.00     0.124 A 
BRANCH  67  68
ATOM     68  C   UNL A   1      32.417  23.495  24.525  1.00  0.00     0.016 A 
ATOM     69  C   UNL A   1      31.902  22.332  23.967  1.00  0.00     0.031 A 
ATOM     70  C   UNL A   1      33.712  23.476  25.041  1.00  0.00     0.058 A 
ATOM     71  C   UNL A   1      32.738  21.235  23.886  1.00  0.00     0.114 A 
ATOM     72  C   UNL A   1      34.494  22.334  24.921  1.00  0.00     0.129 A 
ATOM     73  N   UNL A   1      34.020  21.226  24.320  1.00  0.00    -0.239 NA
BRANCH  72  74
ATOM     74  N   UNL A   1      35.796  22.383  25.351  1.00  0.00    -0.352 N 
ATOM     75  C   UNL A   1      36.266  23.499  26.170  1.00  0.00     0.146 C 
ATOM     76  C   UNL A   1      36.567  21.153  25.497  1.00  0.00     0.146 C 
ATOM     77  C   UNL A   1      37.745  23.750  25.838  1.00  0.00     0.181 C 
ATOM     78  C   UNL A   1      38.035  21.492  25.171  1.00  0.00     0.181 C 
ATOM     79  O   UNL A   1      38.536  22.558  26.003  1.00  0.00    -0.378 OA
ENDBRANCH  72  74
ENDBRANCH  67  68
ENDBRANCH  60  63
ENDBRANCH  58  59
ENDBRANCH  57  58
ENDBRANCH   1  57
TORSDOF 13
ENDMDL
MODEL 2
REMARK VINA RESULT:     -10.9      0.335      5.907
REMARK SMILES O=C(NCCCCNC(=O)c1csc(-c2ccnc(N3CCOCC3)c2)n1)c1ccc(-c2c3nc(c(-c4ccccc4)c4ccc([nH]4)c(-c4ccccc4)c4nc(c(-c5ccccc5)c5ccc2[nH]5)C=C4)C=C3)cc1
REMARK SMILES IDX 5 1 4 2 3 3 1 4 2 5 28 7 29 8 75 9 30 10 74 11 31 12 32 13
REMARK SMILES IDX 33 14 68 15 34 16 73 17 67 18 69 19 35 20 72 21 66 22 65 23
REMARK SMILES IDX 36 25 58 26 43 27 57 28 44 29 47 30 56 31 70 32 45 33 46 34
REMARK SMILES IDX 55 36 71 37 48 38 37 39 38 40 42 41 39 42 41 43 40 44 59 45
REMARK SMILES IDX 60 46 64 47 61 48 63 49 62 50 49 51 50 52 54 53 51 54 53 55
REMARK SMILES IDX 52 56 6 57 7 58 8 59 9 60 10 62 11 63 12 64 27 65 13 66
REMARK SMILES IDX 14 67 15 68 16 69 26 70 17 71 19 72 18 73 20 74 21 75 25 76
REMARK SMILES IDX 22 77 24 78 23 79
REMARK H PARENT 3 6 69 24 47 35 8 61
REMARK Flexibility Score: inf
ROOT
ATOM      1  C   UNL A   1      33.623  28.443  25.805  1.00  0.00     0.023 C 
ENDROOT
BRANCH   1   2
ATOM      2  C   UNL A   1      33.635  28.630  27.316  1.00  0.00     0.116 C 
BRANCH   2   3
ATOM      3  N   UNL A   1      33.570  30.028  27.709  1.00  0.00    -0.352 N 
ATOM      4  O   UNL A   1      34.266  31.921  28.719  1.00  0.00    -0.269 OA
ATOM      5  C   UNL A   1      34.535  30.797  28.311  1.00  0.00     0.251 C 
ATOM      6  H   UNL A   1      32.720  30.485  27.518  1.00  0.00     0.163 HD
BRANCH   5   7
ATOM      7  C   UNL A   1      35.900  30.256  28.481  1.00  0.00     0.039 A 
ATOM      8  C   UNL A   1      36.836  30.345  27.446  1.00  0.00     0.014 A 
ATOM      9  C   UNL A   1      36.255  29.677  29.703  1.00  0.00     0.014 A 
ATOM     10  C   UNL A   1      38.091  29.766  27.594  1.00  0.00     0.010 A 
ATOM     11  C   UNL A   1      37.542  29.161  29.878  1.00  0.00     0.010 A 
ATOM     12  C   UNL A   1      38.466  29.195  28.821  1.00  0.00    -0.014 A 
BRANCH  12  13
ATOM     13  C   UNL A   1      39.869  28.761  29.022  1.00  0.00     0.031 A 
ATOM     14  C   UNL A   1      40.343  27.406  28.586  1.00  0.00     0.074 A 
ATOM     15  C   UNL A   1      40.715  29.618  29.627  1.00  0.00     0.049 A 
ATOM     16  N   UNL A   1      41.535  26.876  28.712  1.00  0.00    -0.248 NA
ATOM     17  C   UNL A   1      39.363  26.527  27.930  1.00  0.00     0.031 C 
ATOM     18  C   UNL A   1      40.358  30.956  30.109  1.00  0.00     0.029 A 
ATOM     19  N   UNL A   1      42.043  29.498  29.940  1.00  0.00    -0.354 N 
ATOM     20  C   UNL A   1      41.444  25.600  28.173  1.00  0.00     0.074 A 
ATOM     21  C   UNL A   1      40.078  25.427  27.727  1.00  0.00     0.031 C 
ATOM     22  C   UNL A   1      41.445  31.540  30.633  1.00  0.00     0.029 A 
ATOM     23  C   UNL A   1      42.555  30.599  30.584  1.00  0.00     0.049 A 
ATOM     24  H   UNL A   1      42.580  28.700  29.724  1.00  0.00     0.167 HD
ATOM     25  C   UNL A   1      42.415  24.662  28.066  1.00  0.00     0.031 A 
ATOM     26  C   UNL A   1      43.773  30.817  31.110  1.00  0.00     0.031 A 
ATOM     27  C   UNL A   1      43.774  24.847  28.505  1.00  0.00     0.049 A 
ATOM     28  C   UNL A   1      44.811  29.740  31.011  1.00  0.00     0.074 A 
ATOM     29  C   UNL A   1      44.847  23.982  28.368  1.00  0.00     0.029 A 
ATOM     30  N   UNL A   1      44.243  25.963  29.179  1.00  0.00    -0.354 N 
ATOM     31  N   UNL A   1      44.729  28.569  30.428  1.00  0.00    -0.248 NA
ATOM     32  C   UNL A   1      46.107  30.010  31.649  1.00  0.00     0.031 C 
ATOM     33  C   UNL A   1      45.950  24.546  29.015  1.00  0.00     0.029 A 
ATOM     34  C   UNL A   1      45.577  25.785  29.510  1.00  0.00     0.049 A 
ATOM     35  H   UNL A   1      43.709  26.761  29.392  1.00  0.00     0.167 HD
ATOM     36  C   UNL A   1      45.961  27.964  30.626  1.00  0.00     0.074 A 
ATOM     37  C   UNL A   1      46.784  28.909  31.354  1.00  0.00     0.031 C 
ATOM     38  C   UNL A   1      46.373  26.731  30.246  1.00  0.00     0.031 A 
BRANCH  25  39
ATOM     39  C   UNL A   1      42.053  23.330  27.473  1.00  0.00    -0.014 A 
ATOM     40  C   UNL A   1      42.353  23.019  26.139  1.00  0.00     0.009 A 
ATOM     41  C   UNL A   1      41.497  22.337  28.295  1.00  0.00     0.009 A 
ATOM     42  C   UNL A   1      42.089  21.741  25.636  1.00  0.00     0.001 A 
ATOM     43  C   UNL A   1      41.254  21.056  27.797  1.00  0.00     0.001 A 
ATOM     44  C   UNL A   1      41.549  20.760  26.466  1.00  0.00     0.000 A 
ENDBRANCH  25  39
BRANCH  26  45
ATOM     45  C   UNL A   1      44.055  32.087  31.827  1.00  0.00    -0.014 A 
ATOM     46  C   UNL A   1      43.796  32.210  33.200  1.00  0.00     0.009 A 
ATOM     47  C   UNL A   1      44.578  33.189  31.132  1.00  0.00     0.009 A 
ATOM     48  C   UNL A   1      44.034  33.420  33.856  1.00  0.00     0.001 A 
ATOM     49  C   UNL A   1      44.845  34.386  31.797  1.00  0.00     0.001 A 
ATOM     50  C   UNL A   1      44.561  34.504  33.156  1.00  0.00     0.000 A 
ENDBRANCH  26  45
BRANCH  38  51
ATOM     51  C   UNL A   1      47.775  26.341  30.614  1.00  0.00    -0.014 A 
ATOM     52  C   UNL A   1      48.838  26.555  29.726  1.00  0.00     0.009 A 
ATOM     53  C   UNL A   1      48.038  25.782  31.874  1.00  0.00     0.009 A 
ATOM     54  C   UNL A   1      50.138  26.190  30.080  1.00  0.00     0.001 A 
ATOM     55  C   UNL A   1      49.342  25.443  32.237  1.00  0.00     0.001 A 
ATOM     56  C   UNL A   1      50.389  25.640  31.337  1.00  0.00     0.000 A 
ENDBRANCH  38  51
ENDBRANCH  12  13
ENDBRANCH   5   7
ENDBRANCH   2   3
ENDBRANCH   1   2
BRANCH   1  57
ATOM     57  C   UNL A   1      32.982  29.588  25.023  1.00  0.00     0.023 C 
BRANCH  57  58
ATOM     58  C   UNL A   1      31.454  29.621  25.065  1.00  0.00     0.116 C 
BRANCH  58  59
ATOM     59  N   UNL A   1      30.876  29.355  23.757  1.00  0.00    -0.351 N 
ATOM     60  C   UNL A   1      30.658  28.147  23.146  1.00  0.00     0.270 C 
ATOM     61  H   UNL A   1      30.604  30.148  23.241  1.00  0.00     0.163 HD
ATOM     62  O   UNL A   1      30.389  28.130  21.939  1.00  0.00    -0.267 OA
BRANCH  60  63
ATOM     63  C   UNL A   1      30.779  26.921  23.930  1.00  0.00     0.139 A 
ATOM     64  C   UNL A   1      29.983  26.632  25.023  1.00  0.00     0.101 A 
ATOM     65  N   UNL A   1      31.740  25.949  23.647  1.00  0.00    -0.231 NA
ATOM     66  S   UNL A   1      30.358  25.078  25.636  1.00  0.00    -0.122 S 
ATOM     67  C   UNL A   1      31.581  24.912  24.438  1.00  0.00     0.124 A 
BRANCH  67  68
ATOM     68  C   UNL A   1      32.346  23.676  24.337  1.00  0.00     0.016 A 
ATOM     69  C   UNL A   1      31.826  22.561  23.693  1.00  0.00     0.031 A 
ATOM     70  C   UNL A   1      33.617  23.592  24.903  1.00  0.00     0.058 A 
ATOM     71  C   UNL A   1      32.635  21.447  23.583  1.00  0.00     0.114 A 
ATOM     72  C   UNL A   1      34.374  22.437  24.749  1.00  0.00     0.129 A 
ATOM     73  N   UNL A   1      33.898  21.378  24.067  1.00  0.00    -0.239 NA
BRANCH  72  74
ATOM     74  N   UNL A   1      35.658  22.426  25.233  1.00  0.00    -0.352 N 
ATOM     75  C   UNL A   1      36.133  23.499  26.104  1.00  0.00     0.146 C 
ATOM     76  C   UNL A   1      36.378  21.165  25.373  1.00  0.00     0.146 C 
ATOM     77  C   UNL A   1      37.632  23.705  25.842  1.00  0.00     0.181 C 
ATOM     78  C   UNL A   1      37.869  21.459  25.118  1.00  0.00     0.181 C 
ATOM     79  O   UNL A   1      38.373  22.481  26.002  1.00  0.00    -0.378 OA
ENDBRANCH  72  74
ENDBRANCH  67  68
ENDBRANCH  60  63
ENDBRANCH  58  59
ENDBRANCH  57  58
ENDBRANCH   1  57
TORSDOF 13
ENDMDL
MODEL 3
REMARK VINA RESULT:     -10.7      2.200      7.941
REMARK SMILES O=C(NCCCCNC(=O)c1csc(-c2ccnc(N3CCOCC3)c2)n1)c1ccc(-c2c3nc(c(-c4ccccc4)c4ccc([nH]4)c(-c4ccccc4)c4nc(c(-c5ccccc5)c5ccc2[nH]5)C=C4)C=C3)cc1
REMARK SMILES IDX 5 1 4 2 3 3 1 4 2 5 28 7 29 8 75 9 30 10 74 11 31 12 32 13
REMARK SMILES IDX 33 14 68 15 34 16 73 17 67 18 69 19 35 20 72 21 66 22 65 23
REMARK SMILES IDX 36 25 58 26 43 27 57 28 44 29 47 30 56 31 70 32 45 33 46 34
REMARK SMILES IDX 55 36 71 37 48 38 37 39 38 40 42 41 39 42 41 43 40 44 59 45
REMARK SMILES IDX 60 46 64 47 61 48 63 49 62 50 49 51 50 52 54 53 51 54 53 55
REMARK SMILES IDX 52 56 6 57 7 58 8 59 9 60 10 62 11 63 12 64 27 65 13 66
REMARK SMILES IDX 14 67 15 68 16 69 26 70 17 71 19 72 18 73 20 74 21 75 25 76
REMARK SMILES IDX 22 77 24 78 23 79
REMARK H PARENT 3 6 69 24 47 35 8 61
REMARK Flexibility Score: inf
ROOT
ATOM      1  C   UNL A   1      35.711  23.073  25.334  1.00  0.00     0.023 C 
ENDROOT
BRANCH   1   2
ATOM      2  C   UNL A   1      37.093  23.708  25.263  1.00  0.00     0.116 C 
BRANCH   2   3
ATOM      3  N   UNL A   1      38.162  22.749  25.495  1.00  0.00    -0.352 N 
ATOM      4  O   UNL A   1      40.227  22.068  26.095  1.00  0.00    -0.269 OA
ATOM      5  C   UNL A   1      39.368  22.943  26.121  1.00  0.00     0.251 C 
ATOM      6  H   UNL A   1      37.999  21.840  25.157  1.00  0.00     0.163 HD
BRANCH   5   7
ATOM      7  C   UNL A   1      39.635  24.221  26.814  1.00  0.00     0.039 A 
ATOM      8  C   UNL A   1      39.190  24.428  28.123  1.00  0.00     0.014 A 
ATOM      9  C   UNL A   1      40.365  25.213  26.154  1.00  0.00     0.014 A 
ATOM     10  C   UNL A   1      39.384  25.661  28.735  1.00  0.00     0.010 A 
ATOM     11  C   UNL A   1      40.626  26.426  26.797  1.00  0.00     0.010 A 
ATOM     12  C   UNL A   1      40.129  26.661  28.089  1.00  0.00    -0.014 A 
BRANCH  12  13
ATOM     13  C   UNL A   1      40.491  27.891  28.833  1.00  0.00     0.031 A 
ATOM     14  C   UNL A   1      41.810  28.029  29.532  1.00  0.00     0.074 A 
ATOM     15  C   UNL A   1      39.587  28.890  28.878  1.00  0.00     0.049 A 
ATOM     16  N   UNL A   1      42.262  29.035  30.239  1.00  0.00    -0.248 NA
ATOM     17  C   UNL A   1      42.746  26.898  29.435  1.00  0.00     0.031 C 
ATOM     18  C   UNL A   1      38.263  28.859  28.249  1.00  0.00     0.029 A 
ATOM     19  N   UNL A   1      39.640  30.122  29.475  1.00  0.00    -0.354 N 
ATOM     20  C   UNL A   1      43.519  28.654  30.688  1.00  0.00     0.074 A 
ATOM     21  C   UNL A   1      43.759  27.318  30.184  1.00  0.00     0.031 C 
ATOM     22  C   UNL A   1      37.641  30.025  28.472  1.00  0.00     0.029 A 
ATOM     23  C   UNL A   1      38.491  30.858  29.312  1.00  0.00     0.049 A 
ATOM     24  H   UNL A   1      40.424  30.449  29.973  1.00  0.00     0.167 HD
ATOM     25  C   UNL A   1      44.387  29.357  31.452  1.00  0.00     0.031 A 
ATOM     26  C   UNL A   1      38.142  32.058  29.810  1.00  0.00     0.031 A 
ATOM     27  C   UNL A   1      44.143  30.689  31.942  1.00  0.00     0.049 A 
ATOM     28  C   UNL A   1      39.111  32.790  30.688  1.00  0.00     0.074 A 
ATOM     29  C   UNL A   1      44.995  31.511  32.660  1.00  0.00     0.029 A 
ATOM     30  N   UNL A   1      42.956  31.386  31.781  1.00  0.00    -0.354 N 
ATOM     31  N   UNL A   1      40.327  32.446  31.037  1.00  0.00    -0.248 NA
ATOM     32  C   UNL A   1      38.659  34.070  31.249  1.00  0.00     0.031 C 
ATOM     33  C   UNL A   1      44.303  32.680  32.988  1.00  0.00     0.029 A 
ATOM     34  C   UNL A   1      43.037  32.608  32.430  1.00  0.00     0.049 A 
ATOM     35  H   UNL A   1      42.173  31.062  31.281  1.00  0.00     0.167 HD
ATOM     36  C   UNL A   1      40.786  33.468  31.855  1.00  0.00     0.074 A 
ATOM     37  C   UNL A   1      39.731  34.459  31.923  1.00  0.00     0.031 C 
ATOM     38  C   UNL A   1      41.972  33.573  32.499  1.00  0.00     0.031 A 
BRANCH  25  39
ATOM     39  C   UNL A   1      45.683  28.703  31.840  1.00  0.00    -0.014 A 
ATOM     40  C   UNL A   1      45.774  27.872  32.965  1.00  0.00     0.009 A 
ATOM     41  C   UNL A   1      46.803  28.840  31.003  1.00  0.00     0.009 A 
ATOM     42  C   UNL A   1      46.967  27.202  33.253  1.00  0.00     0.001 A 
ATOM     43  C   UNL A   1      47.986  28.154  31.280  1.00  0.00     0.001 A 
ATOM     44  C   UNL A   1      48.067  27.336  32.407  1.00  0.00     0.000 A 
ENDBRANCH  25  39
BRANCH  26  45
ATOM     45  C   UNL A   1      36.791  32.611  29.534  1.00  0.00    -0.014 A 
ATOM     46  C   UNL A   1      35.738  32.419  30.440  1.00  0.00     0.009 A 
ATOM     47  C   UNL A   1      36.550  33.328  28.352  1.00  0.00     0.009 A 
ATOM     48  C   UNL A   1      34.464  32.916  30.153  1.00  0.00     0.001 A 
ATOM     49  C   UNL A   1      35.284  33.851  28.084  1.00  0.00     0.001 A 
ATOM     50  C   UNL A   1      34.240  33.634  28.979  1.00  0.00     0.000 A 
ENDBRANCH  26  45
BRANCH  38  51
ATOM     51  C   UNL A   1      42.186  34.803  33.332  1.00  0.00    -0.014 A 
ATOM     52  C   UNL A   1      41.696  34.877  34.644  1.00  0.00     0.009 A 
ATOM     53  C   UNL A   1      42.910  35.885  32.810  1.00  0.00     0.009 A 
ATOM     54  C   UNL A   1      41.903  36.025  35.410  1.00  0.00     0.001 A 
ATOM     55  C   UNL A   1      43.139  37.022  33.587  1.00  0.00     0.001 A 
ATOM     56  C   UNL A   1      42.628  37.093  34.884  1.00  0.00     0.000 A 
ENDBRANCH  38  51
ENDBRANCH  12  13
ENDBRANCH   5   7
ENDBRANCH   2   3
ENDBRANCH   1   2
BRANCH   1  57
ATOM     57  C   UNL A   1      35.671  21.692  25.988  1.00  0.00     0.023 C 
BRANCH  57  58
ATOM     58  C   UNL A   1      34.276  21.083  26.120  1.00  0.00     0.116 C 
BRANCH  58  59
ATOM     59  N   UNL A   1      33.743  20.681  24.828  1.00  0.00    -0.351 N 
ATOM     60  C   UNL A   1      32.565  21.056  24.232  1.00  0.00     0.270 C 
ATOM     61  H   UNL A   1      34.301  20.056  24.311  1.00  0.00     0.163 HD
ATOM     62  O   UNL A   1      32.167  20.421  23.248  1.00  0.00    -0.267 OA
BRANCH  60  63
ATOM     63  C   UNL A   1      31.807  22.170  24.793  1.00  0.00     0.139 A 
ATOM     64  C   UNL A   1      31.052  22.076  25.947  1.00  0.00     0.101 A 
ATOM     65  N   UNL A   1      31.766  23.424  24.181  1.00  0.00    -0.231 NA
ATOM     66  S   UNL A   1      30.375  23.599  26.339  1.00  0.00    -0.122 S 
ATOM     67  C   UNL A   1      31.093  24.270  24.928  1.00  0.00     0.124 A 
BRANCH  67  68
ATOM     68  C   UNL A   1      30.951  25.691  24.637  1.00  0.00     0.016 A 
ATOM     69  C   UNL A   1      29.953  26.153  23.790  1.00  0.00     0.031 A 
ATOM     70  C   UNL A   1      31.833  26.611  25.200  1.00  0.00     0.058 A 
ATOM     71  C   UNL A   1      29.843  27.519  23.612  1.00  0.00     0.114 A 
ATOM     72  C   UNL A   1      31.658  27.971  24.977  1.00  0.00     0.129 A 
ATOM     73  N   UNL A   1      30.650  28.427  24.210  1.00  0.00    -0.239 NA
BRANCH  72  74
ATOM     74  N   UNL A   1      32.485  28.853  25.627  1.00  0.00    -0.352 N 
ATOM     75  C   UNL A   1      33.923  28.605  25.703  1.00  0.00     0.146 C 
ATOM     76  C   UNL A   1      32.100  30.254  25.762  1.00  0.00     0.146 C 
ATOM     77  C   UNL A   1      34.441  29.178  27.031  1.00  0.00     0.181 C 
ATOM     78  C   UNL A   1      32.673  30.757  27.102  1.00  0.00     0.181 C 
ATOM     79  O   UNL A   1      34.101  30.569  27.179  1.00  0.00    -0.378 OA
ENDBRANCH  72  74
ENDBRANCH  67  68
ENDBRANCH  60  63
ENDBRANCH  58  59
ENDBRANCH  57  58
ENDBRANCH   1  57
TORSDOF 13
ENDMDL
