MODEL 1
REMARK VINA RESULT:     -11.0      0.000      0.000
REMARK SMILES CC1(C)CCC[C@H]1NS(=O)(=O)c1ccc(O)c(C(=O)NCCCCNC(=O)c2ccc(-c3c4nc(c(-c5ccccc5)c5ccc([nH]5)c(-c5ccccc5)c5nc(c(-c6ccccc6)c6ccc3[nH]6)C=C5)C=C4)cc2)c1
REMARK SMILES IDX 22 1 21 2 20 3 18 4 19 5 17 7 12 8 13 9 76 10 14 11 15 12
REMARK SMILES IDX 9 13 10 14 11 15 8 16 7 18 1 19 2 20 3 21 4 22 5 23 6 24
REMARK SMILES IDX 16 25 23 27 24 28 25 29 26 30 27 32 28 33 29 34 75 35 30 36
REMARK SMILES IDX 74 37 31 38 32 39 33 40 68 41 34 42 73 43 67 44 69 45 35 46
REMARK SMILES IDX 72 47 66 48 65 49 36 51 58 52 43 53 57 54 44 55 47 56 56 57
REMARK SMILES IDX 70 58 45 59 46 60 55 62 71 63 48 64 37 65 38 66 42 67 39 68
REMARK SMILES IDX 41 69 40 70 59 71 60 72 64 73 61 74 63 75 62 76 49 77 50 78
REMARK SMILES IDX 54 79 51 80 53 81 52 82
REMARK H PARENT 20 6 8 17 16 26 25 31 69 50 47 61
REMARK Flexibility Score: inf
ROOT
ATOM      1  C   UNL A   1      39.133  22.752  26.225  1.00  0.00     0.023 C 
ENDROOT
BRANCH   1   2
ATOM      2  C   UNL A   1      37.911  23.669  26.109  1.00  0.00     0.116 C 
BRANCH   2   3
ATOM      3  N   UNL A   1      37.394  23.618  24.762  1.00  0.00    -0.352 N 
ATOM      4  C   UNL A   1      36.259  23.060  24.237  1.00  0.00     0.255 C 
ATOM      5  O   UNL A   1      36.186  23.062  23.004  1.00  0.00    -0.269 OA
ATOM      6  H   UNL A   1      37.963  24.068  24.097  1.00  0.00     0.163 HD
BRANCH   4   7
ATOM      7  C   UNL A   1      35.085  22.552  25.021  1.00  0.00     0.082 A 
ATOM      8  C   UNL A   1      32.906  23.203  25.933  1.00  0.00     0.083 A 
ATOM      9  C   UNL A   1      32.793  21.991  26.597  1.00  0.00     0.025 A 
ATOM     10  C   UNL A   1      34.066  23.506  25.208  1.00  0.00     0.039 A 
ATOM     11  C   UNL A   1      33.748  21.009  26.363  1.00  0.00     0.048 A 
ATOM     12  C   UNL A   1      34.843  21.268  25.526  1.00  0.00     0.128 A 
BRANCH   8  13
ATOM     13  S   UNL A   1      31.559  24.344  25.801  1.00  0.00     0.240 S 
ATOM     14  O   UNL A   1      30.920  24.391  27.100  1.00  0.00    -0.207 OA
ATOM     15  O   UNL A   1      30.833  23.998  24.605  1.00  0.00    -0.207 OA
BRANCH  13  16
ATOM     16  N   UNL A   1      32.223  25.851  25.484  1.00  0.00    -0.208 NA
ATOM     17  H   UNL A   1      33.075  25.904  26.043  1.00  0.00     0.141 HD
BRANCH  16  18
ATOM     18  C   UNL A   1      31.508  27.116  25.718  1.00  0.00     0.075 C 
ATOM     19  C   UNL A   1      33.938  27.838  26.420  1.00  0.00     0.013 C 
ATOM     20  C   UNL A   1      32.515  28.273  26.027  1.00  0.00    -0.019 C 
ATOM     21  C   UNL A   1      31.970  29.143  27.181  1.00  0.00     0.013 C 
ATOM     22  C   UNL A   1      32.544  29.073  24.713  1.00  0.00     0.008 C 
ATOM     23  C   UNL A   1      31.113  29.007  24.210  1.00  0.00     0.002 C 
ATOM     24  C   UNL A   1      30.705  27.568  24.488  1.00  0.00     0.020 C 
ENDBRANCH  16  18
ENDBRANCH  13  16
ENDBRANCH   8  13
BRANCH  12  25
ATOM     25  O   UNL A   1      35.586  20.183  25.172  1.00  0.00    -0.507 OA
ATOM     26  H   UNL A   1      35.835  20.056  24.278  1.00  0.00     0.293 HD
ENDBRANCH  12  25
ENDBRANCH   4   7
ENDBRANCH   2   3
ENDBRANCH   1   2
BRANCH   1  27
ATOM     27  C   UNL A   1      38.949  21.368  25.606  1.00  0.00     0.023 C 
BRANCH  27  28
ATOM     28  C   UNL A   1      39.448  20.228  26.481  1.00  0.00     0.116 C 
BRANCH  28  29
ATOM     29  N   UNL A   1      40.564  19.495  25.897  1.00  0.00    -0.352 N 
ATOM     30  C   UNL A   1      41.884  19.862  25.836  1.00  0.00     0.251 C 
ATOM     31  H   UNL A   1      40.342  18.625  25.497  1.00  0.00     0.163 HD
ATOM     32  O   UNL A   1      42.699  19.168  25.239  1.00  0.00    -0.269 OA
BRANCH  30  33
ATOM     33  C   UNL A   1      42.300  21.139  26.448  1.00  0.00     0.039 A 
ATOM     34  C   UNL A   1      42.663  22.192  25.607  1.00  0.00     0.014 A 
ATOM     35  C   UNL A   1      42.277  21.309  27.835  1.00  0.00     0.014 A 
ATOM     36  C   UNL A   1      42.941  23.442  26.156  1.00  0.00     0.010 A 
ATOM     37  C   UNL A   1      42.484  22.572  28.374  1.00  0.00     0.010 A 
ATOM     38  C   UNL A   1      42.819  23.647  27.540  1.00  0.00    -0.014 A 
BRANCH  38  39
ATOM     39  C   UNL A   1      43.037  24.989  28.127  1.00  0.00     0.031 A 
ATOM     40  C   UNL A   1      44.411  25.407  28.563  1.00  0.00     0.074 A 
ATOM     41  C   UNL A   1      41.985  25.808  28.314  1.00  0.00     0.049 A 
ATOM     42  N   UNL A   1      44.797  26.537  29.097  1.00  0.00    -0.248 NA
ATOM     43  C   UNL A   1      45.488  24.417  28.403  1.00  0.00     0.031 C 
ATOM     44  C   UNL A   1      40.593  25.490  27.988  1.00  0.00     0.029 A 
ATOM     45  N   UNL A   1      41.926  27.079  28.824  1.00  0.00    -0.354 N 
ATOM     46  C   UNL A   1      46.152  26.387  29.353  1.00  0.00     0.074 A 
ATOM     47  C   UNL A   1      46.515  25.044  28.959  1.00  0.00     0.031 C 
ATOM     48  C   UNL A   1      39.821  26.552  28.275  1.00  0.00     0.029 A 
ATOM     49  C   UNL A   1      40.661  27.613  28.823  1.00  0.00     0.049 A 
ATOM     50  H   UNL A   1      42.715  27.563  29.159  1.00  0.00     0.167 HD
ATOM     51  C   UNL A   1      47.025  27.295  29.850  1.00  0.00     0.031 A 
ATOM     52  C   UNL A   1      40.229  28.827  29.208  1.00  0.00     0.031 A 
ATOM     53  C   UNL A   1      46.670  28.637  30.221  1.00  0.00     0.049 A 
ATOM     54  C   UNL A   1      41.222  29.830  29.720  1.00  0.00     0.074 A 
ATOM     55  C   UNL A   1      47.493  29.653  30.675  1.00  0.00     0.029 A 
ATOM     56  N   UNL A   1      45.384  29.151  30.176  1.00  0.00    -0.354 N 
ATOM     57  N   UNL A   1      42.516  29.700  29.882  1.00  0.00    -0.248 NA
ATOM     58  C   UNL A   1      40.696  31.152  30.085  1.00  0.00     0.031 C 
ATOM     59  C   UNL A   1      46.696  30.775  30.932  1.00  0.00     0.029 A 
ATOM     60  C   UNL A   1      45.386  30.466  30.604  1.00  0.00     0.049 A 
ATOM     61  H   UNL A   1      44.587  28.652  29.883  1.00  0.00     0.167 HD
ATOM     62  C   UNL A   1      42.963  30.929  30.346  1.00  0.00     0.074 A 
ATOM     63  C   UNL A   1      41.804  31.796  30.426  1.00  0.00     0.031 C 
ATOM     64  C   UNL A   1      44.222  31.309  30.675  1.00  0.00     0.031 A 
BRANCH  51  65
ATOM     65  C   UNL A   1      48.450  26.854  30.017  1.00  0.00    -0.014 A 
ATOM     66  C   UNL A   1      48.881  26.235  31.202  1.00  0.00     0.009 A 
ATOM     67  C   UNL A   1      49.369  27.045  28.974  1.00  0.00     0.009 A 
ATOM     68  C   UNL A   1      50.215  25.849  31.353  1.00  0.00     0.001 A 
ATOM     69  C   UNL A   1      50.696  26.635  29.119  1.00  0.00     0.001 A 
ATOM     70  C   UNL A   1      51.119  26.048  30.311  1.00  0.00     0.000 A 
ENDBRANCH  51  65
BRANCH  52  71
ATOM     71  C   UNL A   1      38.793  29.178  29.078  1.00  0.00    -0.014 A 
ATOM     72  C   UNL A   1      37.936  29.067  30.183  1.00  0.00     0.009 A 
ATOM     73  C   UNL A   1      38.274  29.629  27.855  1.00  0.00     0.009 A 
ATOM     74  C   UNL A   1      36.581  29.377  30.060  1.00  0.00     0.001 A 
ATOM     75  C   UNL A   1      36.922  29.960  27.742  1.00  0.00     0.001 A 
ATOM     76  C   UNL A   1      36.076  29.826  28.841  1.00  0.00     0.000 A 
ENDBRANCH  52  71
BRANCH  64  77
ATOM     77  C   UNL A   1      44.409  32.727  31.125  1.00  0.00    -0.014 A 
ATOM     78  C   UNL A   1      44.334  33.073  32.483  1.00  0.00     0.009 A 
ATOM     79  C   UNL A   1      44.695  33.724  30.179  1.00  0.00     0.009 A 
ATOM     80  C   UNL A   1      44.514  34.397  32.882  1.00  0.00     0.001 A 
ATOM     81  C   UNL A   1      44.895  35.043  30.585  1.00  0.00     0.001 A 
ATOM     82  C   UNL A   1      44.797  35.381  31.933  1.00  0.00     0.000 A 
ENDBRANCH  64  77
ENDBRANCH  38  39
ENDBRANCH  30  33
ENDBRANCH  28  29
ENDBRANCH  27  28
ENDBRANCH   1  27
TORSDOF 15
ENDMDL
MODEL 2
REMARK VINA RESULT:     -10.9      1.892      6.203
REMARK SMILES CC1(C)CCC[C@H]1NS(=O)(=O)c1ccc(O)c(C(=O)NCCCCNC(=O)c2ccc(-c3c4nc(c(-c5ccccc5)c5ccc([nH]5)c(-c5ccccc5)c5nc(c(-c6ccccc6)c6ccc3[nH]6)C=C5)C=C4)cc2)c1
REMARK SMILES IDX 22 1 21 2 20 3 18 4 19 5 17 7 12 8 13 9 76 10 14 11 15 12
REMARK SMILES IDX 9 13 10 14 11 15 8 16 7 18 1 19 2 20 3 21 4 22 5 23 6 24
REMARK SMILES IDX 16 25 23 27 24 28 25 29 26 30 27 32 28 33 29 34 75 35 30 36
REMARK SMILES IDX 74 37 31 38 32 39 33 40 68 41 34 42 73 43 67 44 69 45 35 46
REMARK SMILES IDX 72 47 66 48 65 49 36 51 58 52 43 53 57 54 44 55 47 56 56 57
REMARK SMILES IDX 70 58 45 59 46 60 55 62 71 63 48 64 37 65 38 66 42 67 39 68
REMARK SMILES IDX 41 69 40 70 59 71 60 72 64 73 61 74 63 75 62 76 49 77 50 78
REMARK SMILES IDX 54 79 51 80 53 81 52 82
REMARK H PARENT 20 6 8 17 16 26 25 31 69 50 47 61
REMARK Flexibility Score: inf
ROOT
ATOM      1  C   UNL A   1      37.229  21.260  24.437  1.00  0.00     0.023 C 
ENDROOT
BRANCH   1   2
ATOM      2  C   UNL A   1      37.032  22.391  25.451  1.00  0.00     0.116 C 
BRANCH   2   3
ATOM      3  N   UNL A   1      36.144  21.951  26.501  1.00  0.00    -0.352 N 
ATOM      4  C   UNL A   1      34.806  21.662  26.508  1.00  0.00     0.255 C 
ATOM      5  O   UNL A   1      34.312  21.455  27.621  1.00  0.00    -0.269 OA
ATOM      6  H   UNL A   1      36.583  21.836  27.375  1.00  0.00     0.163 HD
BRANCH   4   7
ATOM      7  C   UNL A   1      33.939  21.485  25.297  1.00  0.00     0.082 A 
ATOM      8  C   UNL A   1      32.684  22.712  23.587  1.00  0.00     0.083 A 
ATOM      9  C   UNL A   1      32.154  21.530  23.091  1.00  0.00     0.025 A 
ATOM     10  C   UNL A   1      33.514  22.695  24.716  1.00  0.00     0.039 A 
ATOM     11  C   UNL A   1      32.621  20.324  23.598  1.00  0.00     0.048 A 
ATOM     12  C   UNL A   1      33.558  20.306  24.641  1.00  0.00     0.128 A 
BRANCH   8  13
ATOM     13  S   UNL A   1      32.509  24.259  22.745  1.00  0.00     0.240 S 
ATOM     14  O   UNL A   1      31.096  24.578  22.742  1.00  0.00    -0.207 OA
ATOM     15  O   UNL A   1      33.273  24.163  21.528  1.00  0.00    -0.207 OA
BRANCH  13  16
ATOM     16  N   UNL A   1      33.307  25.411  23.667  1.00  0.00    -0.208 NA
ATOM     17  H   UNL A   1      33.392  25.011  24.602  1.00  0.00     0.141 HD
BRANCH  16  18
ATOM     18  C   UNL A   1      32.809  26.782  23.859  1.00  0.00     0.075 C 
ATOM     19  C   UNL A   1      32.331  25.794  26.249  1.00  0.00     0.013 C 
ATOM     20  C   UNL A   1      32.472  27.045  25.364  1.00  0.00    -0.019 C 
ATOM     21  C   UNL A   1      31.148  27.831  25.472  1.00  0.00     0.013 C 
ATOM     22  C   UNL A   1      33.654  27.906  25.842  1.00  0.00     0.008 C 
ATOM     23  C   UNL A   1      33.974  28.788  24.648  1.00  0.00     0.002 C 
ATOM     24  C   UNL A   1      33.850  27.842  23.463  1.00  0.00     0.020 C 
ENDBRANCH  16  18
ENDBRANCH  13  16
ENDBRANCH   8  13
BRANCH  12  25
ATOM     25  O   UNL A   1      34.126  19.098  24.906  1.00  0.00    -0.507 OA
ATOM     26  H   UNL A   1      35.047  18.976  24.785  1.00  0.00     0.293 HD
ENDBRANCH  12  25
ENDBRANCH   4   7
ENDBRANCH   2   3
ENDBRANCH   1   2
BRANCH   1  27
ATOM     27  C   UNL A   1      37.915  20.016  25.000  1.00  0.00     0.023 C 
BRANCH  27  28
ATOM     28  C   UNL A   1      39.185  20.312  25.784  1.00  0.00     0.116 C 
BRANCH  28  29
ATOM     29  N   UNL A   1      40.111  19.189  25.831  1.00  0.00    -0.352 N 
ATOM     30  C   UNL A   1      41.456  19.206  26.103  1.00  0.00     0.251 C 
ATOM     31  H   UNL A   1      39.722  18.306  25.645  1.00  0.00     0.163 HD
ATOM     32  O   UNL A   1      42.121  18.179  26.029  1.00  0.00    -0.269 OA
BRANCH  30  33
ATOM     33  C   UNL A   1      42.103  20.491  26.427  1.00  0.00     0.039 A 
ATOM     34  C   UNL A   1      42.546  21.297  25.376  1.00  0.00     0.014 A 
ATOM     35  C   UNL A   1      42.221  20.920  27.752  1.00  0.00     0.014 A 
ATOM     36  C   UNL A   1      43.048  22.567  25.651  1.00  0.00     0.010 A 
ATOM     37  C   UNL A   1      42.655  22.212  28.019  1.00  0.00     0.010 A 
ATOM     38  C   UNL A   1      43.073  23.044  26.971  1.00  0.00    -0.014 A 
BRANCH  38  39
ATOM     39  C   UNL A   1      43.533  24.420  27.269  1.00  0.00     0.031 A 
ATOM     40  C   UNL A   1      42.545  25.471  27.684  1.00  0.00     0.074 A 
ATOM     41  C   UNL A   1      44.833  24.731  27.112  1.00  0.00     0.049 A 
ATOM     42  N   UNL A   1      42.758  26.727  27.984  1.00  0.00    -0.248 NA
ATOM     43  C   UNL A   1      41.131  25.067  27.744  1.00  0.00     0.031 C 
ATOM     44  C   UNL A   1      45.877  23.812  26.654  1.00  0.00     0.029 A 
ATOM     45  N   UNL A   1      45.498  25.911  27.324  1.00  0.00    -0.354 N 
ATOM     46  C   UNL A   1      41.507  27.265  28.250  1.00  0.00     0.074 A 
ATOM     47  C   UNL A   1      40.536  26.216  28.033  1.00  0.00     0.031 C 
ATOM     48  C   UNL A   1      47.057  24.454  26.652  1.00  0.00     0.029 A 
ATOM     49  C   UNL A   1      46.848  25.831  27.087  1.00  0.00     0.049 A 
ATOM     50  H   UNL A   1      45.050  26.737  27.618  1.00  0.00     0.167 HD
ATOM     51  C   UNL A   1      41.194  28.517  28.661  1.00  0.00     0.031 A 
ATOM     52  C   UNL A   1      47.811  26.761  27.220  1.00  0.00     0.031 A 
ATOM     53  C   UNL A   1      42.160  29.554  28.898  1.00  0.00     0.049 A 
ATOM     54  C   UNL A   1      47.445  28.130  27.714  1.00  0.00     0.074 A 
ATOM     55  C   UNL A   1      41.951  30.835  29.377  1.00  0.00     0.029 A 
ATOM     56  N   UNL A   1      43.522  29.424  28.677  1.00  0.00    -0.354 N 
ATOM     57  N   UNL A   1      46.265  28.602  28.038  1.00  0.00    -0.248 NA
ATOM     58  C   UNL A   1      48.546  29.089  27.878  1.00  0.00     0.031 C 
ATOM     59  C   UNL A   1      43.186  31.491  29.418  1.00  0.00     0.029 A 
ATOM     60  C   UNL A   1      44.166  30.605  28.998  1.00  0.00     0.049 A 
ATOM     61  H   UNL A   1      43.964  28.612  28.340  1.00  0.00     0.167 HD
ATOM     62  C   UNL A   1      46.485  29.903  28.466  1.00  0.00     0.074 A 
ATOM     63  C   UNL A   1      47.911  30.142  28.374  1.00  0.00     0.031 C 
ATOM     64  C   UNL A   1      45.585  30.820  28.899  1.00  0.00     0.031 A 
BRANCH  51  65
ATOM     65  C   UNL A   1      39.741  28.822  28.879  1.00  0.00    -0.014 A 
ATOM     66  C   UNL A   1      39.140  28.623  30.133  1.00  0.00     0.009 A 
ATOM     67  C   UNL A   1      38.965  29.327  27.824  1.00  0.00     0.009 A 
ATOM     68  C   UNL A   1      37.782  28.890  30.317  1.00  0.00     0.001 A 
ATOM     69  C   UNL A   1      37.613  29.616  28.018  1.00  0.00     0.001 A 
ATOM     70  C   UNL A   1      37.021  29.388  29.260  1.00  0.00     0.000 A 
ENDBRANCH  51  65
BRANCH  52  71
ATOM     71  C   UNL A   1      49.223  26.413  26.924  1.00  0.00    -0.014 A 
ATOM     72  C   UNL A   1      49.739  26.595  25.633  1.00  0.00     0.009 A 
ATOM     73  C   UNL A   1      50.059  25.902  27.928  1.00  0.00     0.009 A 
ATOM     74  C   UNL A   1      51.062  26.250  25.345  1.00  0.00     0.001 A 
ATOM     75  C   UNL A   1      51.388  25.579  27.642  1.00  0.00     0.001 A 
ATOM     76  C   UNL A   1      51.885  25.745  26.351  1.00  0.00     0.000 A 
ENDBRANCH  52  71
BRANCH  64  77
ATOM     77  C   UNL A   1      46.125  32.152  29.328  1.00  0.00    -0.014 A 
ATOM     78  C   UNL A   1      46.539  32.375  30.649  1.00  0.00     0.009 A 
ATOM     79  C   UNL A   1      46.248  33.187  28.387  1.00  0.00     0.009 A 
ATOM     80  C   UNL A   1      47.041  33.620  31.028  1.00  0.00     0.001 A 
ATOM     81  C   UNL A   1      46.771  34.424  28.765  1.00  0.00     0.001 A 
ATOM     82  C   UNL A   1      47.159  34.643  30.086  1.00  0.00     0.000 A 
ENDBRANCH  64  77
ENDBRANCH  38  39
ENDBRANCH  30  33
ENDBRANCH  28  29
ENDBRANCH  27  28
ENDBRANCH   1  27
TORSDOF 15
ENDMDL
MODEL 3
REMARK VINA RESULT:     -10.9      1.336      1.998
REMARK SMILES CC1(C)CCC[C@H]1NS(=O)(=O)c1ccc(O)c(C(=O)NCCCCNC(=O)c2ccc(-c3c4nc(c(-c5ccccc5)c5ccc([nH]5)c(-c5ccccc5)c5nc(c(-c6ccccc6)c6ccc3[nH]6)C=C5)C=C4)cc2)c1
REMARK SMILES IDX 22 1 21 2 20 3 18 4 19 5 17 7 12 8 13 9 76 10 14 11 15 12
REMARK SMILES IDX 9 13 10 14 11 15 8 16 7 18 1 19 2 20 3 21 4 22 5 23 6 24
REMARK SMILES IDX 16 25 23 27 24 28 25 29 26 30 27 32 28 33 29 34 75 35 30 36
REMARK SMILES IDX 74 37 31 38 32 39 33 40 68 41 34 42 73 43 67 44 69 45 35 46
REMARK SMILES IDX 72 47 66 48 65 49 36 51 58 52 43 53 57 54 44 55 47 56 56 57
REMARK SMILES IDX 70 58 45 59 46 60 55 62 71 63 48 64 37 65 38 66 42 67 39 68
REMARK SMILES IDX 41 69 40 70 59 71 60 72 64 73 61 74 63 75 62 76 49 77 50 78
REMARK SMILES IDX 54 79 51 80 53 81 52 82
REMARK H PARENT 20 6 8 17 16 26 25 31 69 50 47 61
REMARK Flexibility Score: inf
ROOT
ATOM      1  C   UNL A   1      36.853  21.917  24.309  1.00  0.00     0.023 C 
ENDROOT
BRANCH   1   2
ATOM      2  C   UNL A   1      35.506  22.222  24.974  1.00  0.00     0.116 C 
BRANCH   2   3
ATOM      3  N   UNL A   1      34.479  21.392  24.390  1.00  0.00    -0.352 N 
ATOM      4  C   UNL A   1      33.114  21.497  24.377  1.00  0.00     0.255 C 
ATOM      5  O   UNL A   1      32.509  20.525  23.914  1.00  0.00    -0.269 OA
ATOM      6  H   UNL A   1      34.824  20.604  23.912  1.00  0.00     0.163 HD
BRANCH   4   7
ATOM      7  C   UNL A   1      32.322  22.707  24.778  1.00  0.00     0.082 A 
ATOM      8  C   UNL A   1      32.051  25.104  24.349  1.00  0.00     0.083 A 
ATOM      9  C   UNL A   1      31.147  25.215  25.395  1.00  0.00     0.025 A 
ATOM     10  C   UNL A   1      32.679  23.880  24.085  1.00  0.00     0.039 A 
ATOM     11  C   UNL A   1      30.724  24.059  26.038  1.00  0.00     0.048 A 
ATOM     12  C   UNL A   1      31.255  22.812  25.681  1.00  0.00     0.128 A 
BRANCH   8  13
ATOM     13  S   UNL A   1      32.326  26.411  23.187  1.00  0.00     0.240 S 
ATOM     14  O   UNL A   1      31.070  26.631  22.498  1.00  0.00    -0.207 OA
ATOM     15  O   UNL A   1      33.540  26.094  22.479  1.00  0.00    -0.207 OA
BRANCH  13  16
ATOM     16  N   UNL A   1      32.688  27.787  24.074  1.00  0.00    -0.208 NA
ATOM     17  H   UNL A   1      33.577  27.595  24.537  1.00  0.00     0.141 HD
BRANCH  16  18
ATOM     18  C   UNL A   1      31.803  28.336  25.114  1.00  0.00     0.075 C 
ATOM     19  C   UNL A   1      33.972  27.924  26.544  1.00  0.00     0.013 C 
ATOM     20  C   UNL A   1      32.600  28.612  26.432  1.00  0.00    -0.019 C 
ATOM     21  C   UNL A   1      31.765  28.162  27.650  1.00  0.00     0.013 C 
ATOM     22  C   UNL A   1      32.769  30.142  26.426  1.00  0.00     0.008 C 
ATOM     23  C   UNL A   1      31.466  30.653  25.837  1.00  0.00     0.002 C 
ATOM     24  C   UNL A   1      31.183  29.680  24.702  1.00  0.00     0.020 C 
ENDBRANCH  16  18
ENDBRANCH  13  16
ENDBRANCH   8  13
BRANCH  12  25
ATOM     25  O   UNL A   1      30.614  21.726  26.195  1.00  0.00    -0.507 OA
ATOM     26  H   UNL A   1      30.616  21.574  27.119  1.00  0.00     0.293 HD
ENDBRANCH  12  25
ENDBRANCH   4   7
ENDBRANCH   2   3
ENDBRANCH   1   2
BRANCH   1  27
ATOM     27  C   UNL A   1      37.497  20.605  24.755  1.00  0.00     0.023 C 
BRANCH  27  28
ATOM     28  C   UNL A   1      38.632  20.783  25.754  1.00  0.00     0.116 C 
BRANCH  28  29
ATOM     29  N   UNL A   1      39.657  19.753  25.654  1.00  0.00    -0.352 N 
ATOM     30  C   UNL A   1      40.980  19.832  26.005  1.00  0.00     0.251 C 
ATOM     31  H   UNL A   1      39.361  18.889  25.289  1.00  0.00     0.163 HD
ATOM     32  O   UNL A   1      41.742  18.897  25.788  1.00  0.00    -0.269 OA
BRANCH  30  33
ATOM     33  C   UNL A   1      41.489  21.086  26.594  1.00  0.00     0.039 A 
ATOM     34  C   UNL A   1      41.927  22.095  25.734  1.00  0.00     0.014 A 
ATOM     35  C   UNL A   1      41.481  21.282  27.977  1.00  0.00     0.014 A 
ATOM     36  C   UNL A   1      42.296  23.330  26.260  1.00  0.00     0.010 A 
ATOM     37  C   UNL A   1      41.780  22.537  28.493  1.00  0.00     0.010 A 
ATOM     38  C   UNL A   1      42.192  23.569  27.640  1.00  0.00    -0.014 A 
BRANCH  38  39
ATOM     39  C   UNL A   1      42.508  24.902  28.202  1.00  0.00     0.031 A 
ATOM     40  C   UNL A   1      43.913  25.233  28.610  1.00  0.00     0.074 A 
ATOM     41  C   UNL A   1      41.516  25.792  28.392  1.00  0.00     0.049 A 
ATOM     42  N   UNL A   1      44.382  26.343  29.121  1.00  0.00    -0.248 NA
ATOM     43  C   UNL A   1      44.920  24.171  28.450  1.00  0.00     0.031 C 
ATOM     44  C   UNL A   1      40.100  25.563  28.092  1.00  0.00     0.029 A 
ATOM     45  N   UNL A   1      41.550  27.072  28.883  1.00  0.00    -0.354 N 
ATOM     46  C   UNL A   1      45.729  26.107  29.359  1.00  0.00     0.074 A 
ATOM     47  C   UNL A   1      45.994  24.737  28.980  1.00  0.00     0.031 C 
ATOM     48  C   UNL A   1      39.406  26.678  28.374  1.00  0.00     0.029 A 
ATOM     49  C   UNL A   1      40.323  27.688  28.892  1.00  0.00     0.049 A 
ATOM     50  H   UNL A   1      42.375  27.506  29.198  1.00  0.00     0.167 HD
ATOM     51  C   UNL A   1      46.668  26.962  29.829  1.00  0.00     0.031 A 
ATOM     52  C   UNL A   1      39.980  28.935  29.265  1.00  0.00     0.031 A 
ATOM     53  C   UNL A   1      46.409  28.330  30.183  1.00  0.00     0.049 A 
ATOM     54  C   UNL A   1      41.044  29.876  29.746  1.00  0.00     0.074 A 
ATOM     55  C   UNL A   1      47.304  29.295  30.608  1.00  0.00     0.029 A 
ATOM     56  N   UNL A   1      45.159  28.927  30.149  1.00  0.00    -0.354 N 
ATOM     57  N   UNL A   1      42.330  29.662  29.891  1.00  0.00    -0.248 NA
ATOM     58  C   UNL A   1      40.614  31.235  30.098  1.00  0.00     0.031 C 
ATOM     59  C   UNL A   1      46.589  30.471  30.860  1.00  0.00     0.029 A 
ATOM     60  C   UNL A   1      45.256  30.246  30.557  1.00  0.00     0.049 A 
ATOM     61  H   UNL A   1      44.326  28.479  29.876  1.00  0.00     0.167 HD
ATOM     62  C   UNL A   1      42.865  30.866  30.328  1.00  0.00     0.074 A 
ATOM     63  C   UNL A   1      41.768  31.809  30.411  1.00  0.00     0.031 C 
ATOM     64  C   UNL A   1      44.152  31.165  30.632  1.00  0.00     0.031 A 
BRANCH  51  65
ATOM     65  C   UNL A   1      48.062  26.429  29.981  1.00  0.00    -0.014 A 
ATOM     66  C   UNL A   1      49.002  26.553  28.944  1.00  0.00     0.009 A 
ATOM     67  C   UNL A   1      48.448  25.808  31.179  1.00  0.00     0.009 A 
ATOM     68  C   UNL A   1      50.289  26.034  29.090  1.00  0.00     0.001 A 
ATOM     69  C   UNL A   1      49.744  25.311  31.330  1.00  0.00     0.001 A 
ATOM     70  C   UNL A   1      50.660  25.416  30.284  1.00  0.00     0.000 A 
ENDBRANCH  51  65
BRANCH  52  71
ATOM     71  C   UNL A   1      38.568  29.379  29.151  1.00  0.00    -0.014 A 
ATOM     72  C   UNL A   1      37.702  29.266  30.248  1.00  0.00     0.009 A 
ATOM     73  C   UNL A   1      38.082  29.920  27.951  1.00  0.00     0.009 A 
ATOM     74  C   UNL A   1      36.368  29.664  30.140  1.00  0.00     0.001 A 
ATOM     75  C   UNL A   1      36.753  30.338  27.853  1.00  0.00     0.001 A 
ATOM     76  C   UNL A   1      35.896  30.202  28.944  1.00  0.00     0.000 A 
ENDBRANCH  52  71
BRANCH  64  77
ATOM     77  C   UNL A   1      44.440  32.574  31.057  1.00  0.00    -0.014 A 
ATOM     78  C   UNL A   1      44.755  33.565  30.115  1.00  0.00     0.009 A 
ATOM     79  C   UNL A   1      44.363  32.920  32.415  1.00  0.00     0.009 A 
ATOM     80  C   UNL A   1      45.017  34.871  30.530  1.00  0.00     0.001 A 
ATOM     81  C   UNL A   1      44.604  34.231  32.823  1.00  0.00     0.001 A 
ATOM     82  C   UNL A   1      44.939  35.204  31.883  1.00  0.00     0.000 A 
ENDBRANCH  64  77
ENDBRANCH  38  39
ENDBRANCH  30  33
ENDBRANCH  28  29
ENDBRANCH  27  28
ENDBRANCH   1  27
TORSDOF 15
ENDMDL
