MODEL 1
REMARK VINA RESULT:     -12.8      0.000      0.000
REMARK SMILES C[C@@]12CC[C@@H]3c4ccc(O)cc4/C(=N/OCC(=O)NCCCCNC(=O)c4ccc(-c5c6nc(c(-c7ccccc7)c7ccc([nH]7)c(-c7ccccc7)c7nc(c(-c8ccccc8)c8ccc5[nH]8)C=C7)C=C6)cc4)C[C@H]3[C@@H]1C[C@@H](O)[C@@H]2O
REMARK SMILES IDX 21 1 20 2 19 3 17 4 18 5 16 7 15 8 14 9 1 10 2 11 3 12 77 13
REMARK SMILES IDX 81 14 4 15 76 16 78 17 79 18 5 19 75 20 6 21 13 22 7 23
REMARK SMILES IDX 12 24 8 25 11 26 9 27 82 28 80 30 10 32 22 34 23 35 24 36
REMARK SMILES IDX 25 37 26 39 27 40 28 41 74 42 29 43 73 44 30 45 31 46 32 47
REMARK SMILES IDX 67 48 33 49 72 50 66 51 68 52 34 53 71 54 65 55 64 56 35 58
REMARK SMILES IDX 57 59 42 60 56 61 43 62 46 63 55 64 69 65 44 66 45 67 54 69
REMARK SMILES IDX 70 70 47 71 36 72 37 73 41 74 38 75 40 76 39 77 58 78 59 79
REMARK SMILES IDX 63 80 60 81 62 82 61 83 48 84 49 85 53 86 50 87 52 88 51 89
REMARK H PARENT 19 6 82 29 80 31 10 33 24 38 68 57 46 68
REMARK Flexibility Score: inf
ROOT
ATOM      1  C   UNL A   1      35.075  34.242  29.521  1.00  0.00     0.023 C 
ENDROOT
BRANCH   1   2
ATOM      2  C   UNL A   1      34.529  33.459  28.324  1.00  0.00     0.116 C 
BRANCH   2   3
ATOM      3  N   UNL A   1      35.305  32.268  28.045  1.00  0.00    -0.353 N 
ATOM      4  C   UNL A   1      34.823  31.060  27.616  1.00  0.00     0.260 C 
ATOM      5  O   UNL A   1      35.619  30.145  27.399  1.00  0.00    -0.271 OA
ATOM      6  H   UNL A   1      36.278  32.334  28.176  1.00  0.00     0.163 HD
BRANCH   4   7
ATOM      7  C   UNL A   1      33.333  30.926  27.345  1.00  0.00     0.363 C 
BRANCH   7   8
ATOM      8  O   UNL A   1      32.945  29.552  27.363  1.00  0.00    -0.385 OA
BRANCH   8   9
ATOM      9  N   UNL A   1      32.234  29.293  26.214  1.00  0.00    -0.090 NA
ATOM     10  C   UNL A   1      33.620  22.127  27.520  1.00  0.00     0.014 C 
ATOM     11  C   UNL A   1      33.002  23.038  26.421  1.00  0.00    -0.001 C 
ATOM     12  C   UNL A   1      31.523  23.160  26.789  1.00  0.00     0.010 C 
ATOM     13  C   UNL A   1      33.740  24.401  26.374  1.00  0.00     0.004 C 
ATOM     14  C   UNL A   1      33.282  22.452  25.007  1.00  0.00     0.149 C 
ATOM     15  C   UNL A   1      30.744  24.130  25.940  1.00  0.00     0.009 C 
ATOM     16  C   UNL A   1      32.915  25.574  25.726  1.00  0.00     0.006 C 
ATOM     17  C   UNL A   1      35.047  24.032  25.586  1.00  0.00     0.039 C 
ATOM     18  C   UNL A   1      34.776  22.724  24.796  1.00  0.00     0.144 C 
ATOM     19  C   UNL A   1      31.372  25.515  25.956  1.00  0.00     0.024 C 
ATOM     20  C   UNL A   1      33.346  26.996  26.222  1.00  0.00     0.065 C 
ATOM     21  C   UNL A   1      30.714  26.477  24.975  1.00  0.00    -0.035 A 
ATOM     22  C   UNL A   1      32.374  28.092  25.747  1.00  0.00     0.088 C 
ATOM     23  C   UNL A   1      29.488  26.247  24.341  1.00  0.00     0.008 A 
ATOM     24  C   UNL A   1      31.325  27.720  24.776  1.00  0.00     0.006 A 
ATOM     25  C   UNL A   1      28.898  27.233  23.542  1.00  0.00     0.046 A 
ATOM     26  C   UNL A   1      30.763  28.701  23.952  1.00  0.00     0.056 A 
ATOM     27  C   UNL A   1      29.543  28.450  23.351  1.00  0.00     0.116 A 
BRANCH  14  28
ATOM     28  O   UNL A   1      32.546  23.082  23.961  1.00  0.00    -0.390 OA
ATOM     29  H   UNL A   1      33.086  23.111  23.157  1.00  0.00     0.211 HD
ENDBRANCH  14  28
BRANCH  18  30
ATOM     30  O   UNL A   1      35.566  21.648  25.294  1.00  0.00    -0.390 OA
ATOM     31  H   UNL A   1      35.686  20.986  24.596  1.00  0.00     0.211 HD
ENDBRANCH  18  30
BRANCH  27  32
ATOM     32  O   UNL A   1      28.972  29.451  22.626  1.00  0.00    -0.508 OA
ATOM     33  H   UNL A   1      29.449  29.855  21.928  1.00  0.00     0.293 HD
ENDBRANCH  27  32
ENDBRANCH   8   9
ENDBRANCH   7   8
ENDBRANCH   4   7
ENDBRANCH   2   3
ENDBRANCH   1   2
BRANCH   1  34
ATOM     34  C   UNL A   1      34.349  33.987  30.832  1.00  0.00     0.023 C 
BRANCH  34  35
ATOM     35  C   UNL A   1      34.705  32.671  31.491  1.00  0.00     0.116 C 
BRANCH  35  36
ATOM     36  N   UNL A   1      35.250  32.820  32.833  1.00  0.00    -0.352 N 
ATOM     37  C   UNL A   1      36.408  32.264  33.337  1.00  0.00     0.251 C 
ATOM     38  H   UNL A   1      34.731  33.382  33.453  1.00  0.00     0.163 HD
ATOM     39  O   UNL A   1      36.717  32.386  34.507  1.00  0.00    -0.269 OA
BRANCH  37  40
ATOM     40  C   UNL A   1      37.232  31.462  32.409  1.00  0.00     0.039 A 
ATOM     41  C   UNL A   1      38.103  30.498  32.919  1.00  0.00     0.014 A 
ATOM     42  C   UNL A   1      37.252  31.803  31.056  1.00  0.00     0.014 A 
ATOM     43  C   UNL A   1      39.137  30.034  32.120  1.00  0.00     0.010 A 
ATOM     44  C   UNL A   1      38.228  31.246  30.228  1.00  0.00     0.010 A 
ATOM     45  C   UNL A   1      39.218  30.408  30.768  1.00  0.00    -0.014 A 
BRANCH  45  46
ATOM     46  C   UNL A   1      40.356  29.923  29.948  1.00  0.00     0.031 A 
ATOM     47  C   UNL A   1      40.308  28.580  29.270  1.00  0.00     0.074 A 
ATOM     48  C   UNL A   1      41.419  30.732  29.767  1.00  0.00     0.049 A 
ATOM     49  N   UNL A   1      41.215  28.008  28.518  1.00  0.00    -0.248 NA
ATOM     50  C   UNL A   1      39.092  27.770  29.453  1.00  0.00     0.031 C 
ATOM     51  C   UNL A   1      41.565  32.069  30.346  1.00  0.00     0.029 A 
ATOM     52  N   UNL A   1      42.558  30.565  29.022  1.00  0.00    -0.354 N 
ATOM     53  C   UNL A   1      40.693  26.771  28.161  1.00  0.00     0.074 A 
ATOM     54  C   UNL A   1      39.399  26.659  28.798  1.00  0.00     0.031 C 
ATOM     55  C   UNL A   1      42.694  32.624  29.888  1.00  0.00     0.029 A 
ATOM     56  C   UNL A   1      43.394  31.654  29.053  1.00  0.00     0.049 A 
ATOM     57  H   UNL A   1      42.757  29.745  28.516  1.00  0.00     0.167 HD
ATOM     58  C   UNL A   1      41.241  25.820  27.368  1.00  0.00     0.031 A 
ATOM     59  C   UNL A   1      44.602  31.851  28.493  1.00  0.00     0.031 A 
ATOM     60  C   UNL A   1      42.521  25.946  26.719  1.00  0.00     0.049 A 
ATOM     61  C   UNL A   1      45.209  30.760  27.662  1.00  0.00     0.074 A 
ATOM     62  C   UNL A   1      43.146  25.041  25.879  1.00  0.00     0.029 A 
ATOM     63  N   UNL A   1      43.364  27.040  26.832  1.00  0.00    -0.354 N 
ATOM     64  N   UNL A   1      44.702  29.596  27.339  1.00  0.00    -0.248 NA
ATOM     65  C   UNL A   1      46.553  31.006  27.121  1.00  0.00     0.031 C 
ATOM     66  C   UNL A   1      44.396  25.559  25.535  1.00  0.00     0.029 A 
ATOM     67  C   UNL A   1      44.518  26.817  26.100  1.00  0.00     0.049 A 
ATOM     68  H   UNL A   1      43.171  27.852  27.354  1.00  0.00     0.167 HD
ATOM     69  C   UNL A   1      45.658  28.973  26.548  1.00  0.00     0.074 A 
ATOM     70  C   UNL A   1      46.765  29.898  26.422  1.00  0.00     0.031 C 
ATOM     71  C   UNL A   1      45.617  27.743  25.982  1.00  0.00     0.031 A 
BRANCH  58  72
ATOM     72  C   UNL A   1      40.478  24.541  27.149  1.00  0.00    -0.014 A 
ATOM     73  C   UNL A   1      41.012  23.327  27.610  1.00  0.00     0.009 A 
ATOM     74  C   UNL A   1      39.298  24.517  26.390  1.00  0.00     0.009 A 
ATOM     75  C   UNL A   1      40.395  22.114  27.297  1.00  0.00     0.001 A 
ATOM     76  C   UNL A   1      38.666  23.304  26.103  1.00  0.00     0.001 A 
ATOM     77  C   UNL A   1      39.222  22.103  26.546  1.00  0.00     0.000 A 
ENDBRANCH  58  72
BRANCH  59  78
ATOM     78  C   UNL A   1      45.302  33.143  28.720  1.00  0.00    -0.014 A 
ATOM     79  C   UNL A   1      45.142  34.207  27.815  1.00  0.00     0.009 A 
ATOM     80  C   UNL A   1      46.189  33.296  29.795  1.00  0.00     0.009 A 
ATOM     81  C   UNL A   1      45.881  35.382  27.961  1.00  0.00     0.001 A 
ATOM     82  C   UNL A   1      46.901  34.487  29.957  1.00  0.00     0.001 A 
ATOM     83  C   UNL A   1      46.757  35.522  29.034  1.00  0.00     0.000 A 
ENDBRANCH  59  78
BRANCH  71  84
ATOM     84  C   UNL A   1      46.797  27.306  25.161  1.00  0.00    -0.014 A 
ATOM     85  C   UNL A   1      47.809  26.532  25.752  1.00  0.00     0.009 A 
ATOM     86  C   UNL A   1      46.966  27.755  23.843  1.00  0.00     0.009 A 
ATOM     87  C   UNL A   1      48.976  26.235  25.049  1.00  0.00     0.001 A 
ATOM     88  C   UNL A   1      48.123  27.430  23.130  1.00  0.00     0.001 A 
ATOM     89  C   UNL A   1      49.131  26.681  23.738  1.00  0.00     0.000 A 
ENDBRANCH  71  84
ENDBRANCH  45  46
ENDBRANCH  37  40
ENDBRANCH  35  36
ENDBRANCH  34  35
ENDBRANCH   1  34
TORSDOF 16
ENDMDL
MODEL 2
REMARK VINA RESULT:     -12.8      4.236      6.681
REMARK SMILES C[C@@]12CC[C@@H]3c4ccc(O)cc4/C(=N/OCC(=O)NCCCCNC(=O)c4ccc(-c5c6nc(c(-c7ccccc7)c7ccc([nH]7)c(-c7ccccc7)c7nc(c(-c8ccccc8)c8ccc5[nH]8)C=C7)C=C6)cc4)C[C@H]3[C@@H]1C[C@@H](O)[C@@H]2O
REMARK SMILES IDX 21 1 20 2 19 3 17 4 18 5 16 7 15 8 14 9 1 10 2 11 3 12 77 13
REMARK SMILES IDX 81 14 4 15 76 16 78 17 79 18 5 19 75 20 6 21 13 22 7 23
REMARK SMILES IDX 12 24 8 25 11 26 9 27 82 28 80 30 10 32 22 34 23 35 24 36
REMARK SMILES IDX 25 37 26 39 27 40 28 41 74 42 29 43 73 44 30 45 31 46 32 47
REMARK SMILES IDX 67 48 33 49 72 50 66 51 68 52 34 53 71 54 65 55 64 56 35 58
REMARK SMILES IDX 57 59 42 60 56 61 43 62 46 63 55 64 69 65 44 66 45 67 54 69
REMARK SMILES IDX 70 70 47 71 36 72 37 73 41 74 38 75 40 76 39 77 58 78 59 79
REMARK SMILES IDX 63 80 60 81 62 82 61 83 48 84 49 85 53 86 50 87 52 88 51 89
REMARK H PARENT 19 6 82 29 80 31 10 33 24 38 68 57 46 68
REMARK Flexibility Score: inf
ROOT
ATOM      1  C   UNL A   1      34.732  33.253  29.248  1.00  0.00     0.023 C 
ENDROOT
BRANCH   1   2
ATOM      2  C   UNL A   1      35.477  32.889  27.960  1.00  0.00     0.116 C 
BRANCH   2   3
ATOM      3  N   UNL A   1      35.853  31.490  27.917  1.00  0.00    -0.353 N 
ATOM      4  C   UNL A   1      35.043  30.435  27.592  1.00  0.00     0.260 C 
ATOM      5  O   UNL A   1      35.521  29.300  27.580  1.00  0.00    -0.271 OA
ATOM      6  H   UNL A   1      36.787  31.277  28.145  1.00  0.00     0.163 HD
BRANCH   4   7
ATOM      7  C   UNL A   1      33.608  30.721  27.180  1.00  0.00     0.363 C 
BRANCH   7   8
ATOM      8  O   UNL A   1      32.791  29.570  27.389  1.00  0.00    -0.385 OA
BRANCH   8   9
ATOM      9  N   UNL A   1      32.106  29.312  26.223  1.00  0.00    -0.090 NA
ATOM     10  C   UNL A   1      33.440  22.142  27.559  1.00  0.00     0.014 C 
ATOM     11  C   UNL A   1      32.850  23.055  26.447  1.00  0.00    -0.001 C 
ATOM     12  C   UNL A   1      31.364  23.182  26.779  1.00  0.00     0.010 C 
ATOM     13  C   UNL A   1      33.594  24.416  26.418  1.00  0.00     0.004 C 
ATOM     14  C   UNL A   1      33.163  22.468  25.040  1.00  0.00     0.149 C 
ATOM     15  C   UNL A   1      30.608  24.154  25.912  1.00  0.00     0.009 C 
ATOM     16  C   UNL A   1      32.788  25.592  25.750  1.00  0.00     0.006 C 
ATOM     17  C   UNL A   1      34.918  24.043  25.661  1.00  0.00     0.039 C 
ATOM     18  C   UNL A   1      34.662  22.736  24.864  1.00  0.00     0.144 C 
ATOM     19  C   UNL A   1      31.240  25.537  25.943  1.00  0.00     0.024 C 
ATOM     20  C   UNL A   1      33.212  27.012  26.257  1.00  0.00     0.065 C 
ATOM     21  C   UNL A   1      30.608  26.501  24.947  1.00  0.00    -0.035 A 
ATOM     22  C   UNL A   1      32.254  28.111  25.759  1.00  0.00     0.088 C 
ATOM     23  C   UNL A   1      29.397  26.276  24.285  1.00  0.00     0.008 A 
ATOM     24  C   UNL A   1      31.227  27.743  24.763  1.00  0.00     0.006 A 
ATOM     25  C   UNL A   1      28.829  27.263  23.472  1.00  0.00     0.046 A 
ATOM     26  C   UNL A   1      30.688  28.725  23.926  1.00  0.00     0.056 A 
ATOM     27  C   UNL A   1      29.482  28.478  23.297  1.00  0.00     0.116 A 
BRANCH  14  28
ATOM     28  O   UNL A   1      32.453  23.101  23.976  1.00  0.00    -0.390 OA
ATOM     29  H   UNL A   1      31.503  22.937  24.079  1.00  0.00     0.211 HD
ENDBRANCH  14  28
BRANCH  18  30
ATOM     30  O   UNL A   1      35.436  21.657  25.380  1.00  0.00    -0.390 OA
ATOM     31  H   UNL A   1      35.344  20.887  24.799  1.00  0.00     0.211 HD
ENDBRANCH  18  30
BRANCH  27  32
ATOM     32  O   UNL A   1      28.931  29.481  22.558  1.00  0.00    -0.508 OA
ATOM     33  H   UNL A   1      28.358  30.101  22.963  1.00  0.00     0.293 HD
ENDBRANCH  27  32
ENDBRANCH   8   9
ENDBRANCH   7   8
ENDBRANCH   4   7
ENDBRANCH   2   3
ENDBRANCH   1   2
BRANCH   1  34
ATOM     34  C   UNL A   1      33.613  34.265  29.069  1.00  0.00     0.023 C 
BRANCH  34  35
ATOM     35  C   UNL A   1      33.846  35.578  29.786  1.00  0.00     0.116 C 
BRANCH  35  36
ATOM     36  N   UNL A   1      32.734  35.985  30.634  1.00  0.00    -0.352 N 
ATOM     37  C   UNL A   1      32.594  35.784  31.992  1.00  0.00     0.251 C 
ATOM     38  H   UNL A   1      31.996  36.458  30.186  1.00  0.00     0.163 HD
ATOM     39  O   UNL A   1      31.574  36.089  32.581  1.00  0.00    -0.269 OA
BRANCH  37  40
ATOM     40  C   UNL A   1      33.714  35.125  32.696  1.00  0.00     0.039 A 
ATOM     41  C   UNL A   1      34.929  35.798  32.838  1.00  0.00     0.014 A 
ATOM     42  C   UNL A   1      33.592  33.782  33.051  1.00  0.00     0.014 A 
ATOM     43  C   UNL A   1      36.072  35.070  33.131  1.00  0.00     0.010 A 
ATOM     44  C   UNL A   1      34.728  33.078  33.454  1.00  0.00     0.010 A 
ATOM     45  C   UNL A   1      35.988  33.699  33.434  1.00  0.00    -0.014 A 
BRANCH  45  46
ATOM     46  C   UNL A   1      37.233  32.939  33.708  1.00  0.00     0.031 A 
ATOM     47  C   UNL A   1      37.793  31.976  32.696  1.00  0.00     0.074 A 
ATOM     48  C   UNL A   1      37.895  33.168  34.860  1.00  0.00     0.049 A 
ATOM     49  N   UNL A   1      38.871  31.235  32.778  1.00  0.00    -0.248 NA
ATOM     50  C   UNL A   1      37.059  31.817  31.430  1.00  0.00     0.031 C 
ATOM     51  C   UNL A   1      37.467  34.104  35.902  1.00  0.00     0.029 A 
ATOM     52  N   UNL A   1      39.078  32.661  35.331  1.00  0.00    -0.354 N 
ATOM     53  C   UNL A   1      38.929  30.511  31.594  1.00  0.00     0.074 A 
ATOM     54  C   UNL A   1      37.766  30.878  30.817  1.00  0.00     0.031 C 
ATOM     55  C   UNL A   1      38.402  34.150  36.860  1.00  0.00     0.029 A 
ATOM     56  C   UNL A   1      39.452  33.187  36.544  1.00  0.00     0.049 A 
ATOM     57  H   UNL A   1      39.607  31.987  34.848  1.00  0.00     0.167 HD
ATOM     58  C   UNL A   1      39.872  29.627  31.190  1.00  0.00     0.031 A 
ATOM     59  C   UNL A   1      40.508  32.915  37.332  1.00  0.00     0.031 A 
ATOM     60  C   UNL A   1      41.039  29.281  31.960  1.00  0.00     0.049 A 
ATOM     61  C   UNL A   1      41.510  31.893  36.884  1.00  0.00     0.074 A 
ATOM     62  C   UNL A   1      42.060  28.411  31.619  1.00  0.00     0.029 A 
ATOM     63  N   UNL A   1      41.343  29.788  33.213  1.00  0.00    -0.354 N 
ATOM     64  N   UNL A   1      41.546  31.216  35.763  1.00  0.00    -0.248 NA
ATOM     65  C   UNL A   1      42.613  31.593  37.808  1.00  0.00     0.031 C 
ATOM     66  C   UNL A   1      42.949  28.341  32.694  1.00  0.00     0.029 A 
ATOM     67  C   UNL A   1      42.522  29.224  33.672  1.00  0.00     0.049 A 
ATOM     68  H   UNL A   1      40.803  30.449  33.703  1.00  0.00     0.167 HD
ATOM     69  C   UNL A   1      42.680  30.418  35.839  1.00  0.00     0.074 A 
ATOM     70  C   UNL A   1      43.316  30.712  37.106  1.00  0.00     0.031 C 
ATOM     71  C   UNL A   1      43.146  29.521  34.937  1.00  0.00     0.031 A 
BRANCH  58  72
ATOM     72  C   UNL A   1      39.696  28.949  29.858  1.00  0.00    -0.014 A 
ATOM     73  C   UNL A   1      39.224  27.627  29.809  1.00  0.00     0.009 A 
ATOM     74  C   UNL A   1      40.105  29.567  28.666  1.00  0.00     0.009 A 
ATOM     75  C   UNL A   1      39.186  26.930  28.600  1.00  0.00     0.001 A 
ATOM     76  C   UNL A   1      40.039  28.876  27.453  1.00  0.00     0.001 A 
ATOM     77  C   UNL A   1      39.591  27.555  27.423  1.00  0.00     0.000 A 
ENDBRANCH  58  72
BRANCH  59  78
ATOM     78  C   UNL A   1      40.648  33.632  38.627  1.00  0.00    -0.014 A 
ATOM     79  C   UNL A   1      40.025  33.135  39.785  1.00  0.00     0.009 A 
ATOM     80  C   UNL A   1      41.339  34.850  38.699  1.00  0.00     0.009 A 
ATOM     81  C   UNL A   1      40.058  33.860  40.977  1.00  0.00     0.001 A 
ATOM     82  C   UNL A   1      41.399  35.555  39.903  1.00  0.00     0.001 A 
ATOM     83  C   UNL A   1      40.749  35.068  41.036  1.00  0.00     0.000 A 
ENDBRANCH  59  78
BRANCH  71  84
ATOM     84  C   UNL A   1      44.413  28.783  35.267  1.00  0.00    -0.014 A 
ATOM     85  C   UNL A   1      45.649  29.296  34.839  1.00  0.00     0.009 A 
ATOM     86  C   UNL A   1      44.377  27.530  35.895  1.00  0.00     0.009 A 
ATOM     87  C   UNL A   1      46.820  28.560  35.013  1.00  0.00     0.001 A 
ATOM     88  C   UNL A   1      45.556  26.807  36.095  1.00  0.00     0.001 A 
ATOM     89  C   UNL A   1      46.773  27.317  35.643  1.00  0.00     0.000 A 
ENDBRANCH  71  84
ENDBRANCH  45  46
ENDBRANCH  37  40
ENDBRANCH  35  36
ENDBRANCH  34  35
ENDBRANCH   1  34
TORSDOF 16
ENDMDL
MODEL 3
REMARK VINA RESULT:     -12.7      4.195      7.918
REMARK SMILES C[C@@]12CC[C@@H]3c4ccc(O)cc4/C(=N/OCC(=O)NCCCCNC(=O)c4ccc(-c5c6nc(c(-c7ccccc7)c7ccc([nH]7)c(-c7ccccc7)c7nc(c(-c8ccccc8)c8ccc5[nH]8)C=C7)C=C6)cc4)C[C@H]3[C@@H]1C[C@@H](O)[C@@H]2O
REMARK SMILES IDX 21 1 20 2 19 3 17 4 18 5 16 7 15 8 14 9 1 10 2 11 3 12 77 13
REMARK SMILES IDX 81 14 4 15 76 16 78 17 79 18 5 19 75 20 6 21 13 22 7 23
REMARK SMILES IDX 12 24 8 25 11 26 9 27 82 28 80 30 10 32 22 34 23 35 24 36
REMARK SMILES IDX 25 37 26 39 27 40 28 41 74 42 29 43 73 44 30 45 31 46 32 47
REMARK SMILES IDX 67 48 33 49 72 50 66 51 68 52 34 53 71 54 65 55 64 56 35 58
REMARK SMILES IDX 57 59 42 60 56 61 43 62 46 63 55 64 69 65 44 66 45 67 54 69
REMARK SMILES IDX 70 70 47 71 36 72 37 73 41 74 38 75 40 76 39 77 58 78 59 79
REMARK SMILES IDX 63 80 60 81 62 82 61 83 48 84 49 85 53 86 50 87 52 88 51 89
REMARK H PARENT 19 6 82 29 80 31 10 33 24 38 68 57 46 68
REMARK Flexibility Score: inf
ROOT
ATOM      1  C   UNL A   1      34.882  33.184  29.285  1.00  0.00     0.023 C 
ENDROOT
BRANCH   1   2
ATOM      2  C   UNL A   1      35.589  32.808  27.979  1.00  0.00     0.116 C 
BRANCH   2   3
ATOM      3  N   UNL A   1      35.935  31.402  27.925  1.00  0.00    -0.353 N 
ATOM      4  C   UNL A   1      35.110  30.370  27.568  1.00  0.00     0.260 C 
ATOM      5  O   UNL A   1      35.564  29.225  27.550  1.00  0.00    -0.271 OA
ATOM      6  H   UNL A   1      36.859  31.166  28.169  1.00  0.00     0.163 HD
BRANCH   4   7
ATOM      7  C   UNL A   1      33.691  30.692  27.129  1.00  0.00     0.363 C 
BRANCH   7   8
ATOM      8  O   UNL A   1      32.831  29.576  27.363  1.00  0.00    -0.385 OA
BRANCH   8   9
ATOM      9  N   UNL A   1      32.140  29.316  26.202  1.00  0.00    -0.090 NA
ATOM     10  C   UNL A   1      33.431  22.146  27.578  1.00  0.00     0.014 C 
ATOM     11  C   UNL A   1      32.843  23.056  26.462  1.00  0.00    -0.001 C 
ATOM     12  C   UNL A   1      31.359  23.195  26.800  1.00  0.00     0.010 C 
ATOM     13  C   UNL A   1      33.595  24.412  26.421  1.00  0.00     0.004 C 
ATOM     14  C   UNL A   1      33.145  22.458  25.057  1.00  0.00     0.149 C 
ATOM     15  C   UNL A   1      30.606  24.167  25.930  1.00  0.00     0.009 C 
ATOM     16  C   UNL A   1      32.794  25.588  25.750  1.00  0.00     0.006 C 
ATOM     17  C   UNL A   1      34.914  24.025  25.661  1.00  0.00     0.039 C 
ATOM     18  C   UNL A   1      34.645  22.715  24.873  1.00  0.00     0.144 C 
ATOM     19  C   UNL A   1      31.247  25.546  25.950  1.00  0.00     0.024 C 
ATOM     20  C   UNL A   1      33.230  27.009  26.246  1.00  0.00     0.065 C 
ATOM     21  C   UNL A   1      30.618  26.508  24.951  1.00  0.00    -0.035 A 
ATOM     22  C   UNL A   1      32.277  28.111  25.745  1.00  0.00     0.088 C 
ATOM     23  C   UNL A   1      29.402  26.286  24.295  1.00  0.00     0.008 A 
ATOM     24  C   UNL A   1      31.244  27.744  24.756  1.00  0.00     0.006 A 
ATOM     25  C   UNL A   1      28.837  27.272  23.478  1.00  0.00     0.046 A 
ATOM     26  C   UNL A   1      30.707  28.724  23.915  1.00  0.00     0.056 A 
ATOM     27  C   UNL A   1      29.497  28.482  23.292  1.00  0.00     0.116 A 
BRANCH  14  28
ATOM     28  O   UNL A   1      32.435  23.090  23.993  1.00  0.00    -0.390 OA
ATOM     29  H   UNL A   1      31.558  23.361  24.305  1.00  0.00     0.211 HD
ENDBRANCH  14  28
BRANCH  18  30
ATOM     30  O   UNL A   1      35.415  21.634  25.393  1.00  0.00    -0.390 OA
ATOM     31  H   UNL A   1      35.180  21.488  26.322  1.00  0.00     0.211 HD
ENDBRANCH  18  30
BRANCH  27  32
ATOM     32  O   UNL A   1      28.950  29.483  22.550  1.00  0.00    -0.508 OA
ATOM     33  H   UNL A   1      29.123  30.378  22.769  1.00  0.00     0.293 HD
ENDBRANCH  27  32
ENDBRANCH   8   9
ENDBRANCH   7   8
ENDBRANCH   4   7
ENDBRANCH   2   3
ENDBRANCH   1   2
BRANCH   1  34
ATOM     34  C   UNL A   1      33.679  34.097  29.116  1.00  0.00     0.023 C 
BRANCH  34  35
ATOM     35  C   UNL A   1      33.824  35.443  29.793  1.00  0.00     0.116 C 
BRANCH  35  36
ATOM     36  N   UNL A   1      32.710  35.778  30.669  1.00  0.00    -0.352 N 
ATOM     37  C   UNL A   1      32.619  35.573  32.031  1.00  0.00     0.251 C 
ATOM     38  H   UNL A   1      31.931  36.201  30.240  1.00  0.00     0.163 HD
ATOM     39  O   UNL A   1      31.597  35.813  32.645  1.00  0.00    -0.269 OA
BRANCH  37  40
ATOM     40  C   UNL A   1      33.797  34.992  32.707  1.00  0.00     0.039 A 
ATOM     41  C   UNL A   1      35.003  35.697  32.717  1.00  0.00     0.014 A 
ATOM     42  C   UNL A   1      33.732  33.678  33.169  1.00  0.00     0.014 A 
ATOM     43  C   UNL A   1      36.179  35.015  32.987  1.00  0.00     0.010 A 
ATOM     44  C   UNL A   1      34.908  33.029  33.548  1.00  0.00     0.010 A 
ATOM     45  C   UNL A   1      36.148  33.671  33.397  1.00  0.00    -0.014 A 
BRANCH  45  46
ATOM     46  C   UNL A   1      37.426  32.959  33.645  1.00  0.00     0.031 A 
ATOM     47  C   UNL A   1      38.189  33.155  34.928  1.00  0.00     0.074 A 
ATOM     48  C   UNL A   1      37.870  32.079  32.724  1.00  0.00     0.049 A 
ATOM     49  N   UNL A   1      39.320  32.608  35.301  1.00  0.00    -0.248 NA
ATOM     50  C   UNL A   1      37.620  34.080  35.921  1.00  0.00     0.031 C 
ATOM     51  C   UNL A   1      37.199  31.780  31.457  1.00  0.00     0.029 A 
ATOM     52  N   UNL A   1      38.966  31.256  32.725  1.00  0.00    -0.354 N 
ATOM     53  C   UNL A   1      39.606  33.137  36.554  1.00  0.00     0.074 A 
ATOM     54  C   UNL A   1      38.545  34.069  36.871  1.00  0.00     0.031 C 
ATOM     55  C   UNL A   1      37.862  30.798  30.832  1.00  0.00     0.029 A 
ATOM     56  C   UNL A   1      39.049  30.459  31.609  1.00  0.00     0.049 A 
ATOM     57  H   UNL A   1      39.628  31.238  33.452  1.00  0.00     0.167 HD
ATOM     58  C   UNL A   1      40.652  32.863  37.368  1.00  0.00     0.031 A 
ATOM     59  C   UNL A   1      39.984  29.566  31.234  1.00  0.00     0.031 A 
ATOM     60  C   UNL A   1      41.694  31.918  37.056  1.00  0.00     0.049 A 
ATOM     61  C   UNL A   1      41.161  29.320  32.131  1.00  0.00     0.074 A 
ATOM     62  C   UNL A   1      42.782  31.560  37.832  1.00  0.00     0.029 A 
ATOM     63  N   UNL A   1      41.773  31.182  35.885  1.00  0.00    -0.354 N 
ATOM     64  N   UNL A   1      41.416  29.833  33.309  1.00  0.00    -0.248 NA
ATOM     65  C   UNL A   1      42.180  28.378  31.647  1.00  0.00     0.031 C 
ATOM     66  C   UNL A   1      43.557  30.656  37.103  1.00  0.00     0.029 A 
ATOM     67  C   UNL A   1      42.911  30.393  35.905  1.00  0.00     0.049 A 
ATOM     68  H   UNL A   1      41.119  31.214  35.150  1.00  0.00     0.167 HD
ATOM     69  C   UNL A   1      42.617  29.269  33.716  1.00  0.00     0.074 A 
ATOM     70  C   UNL A   1      43.029  28.358  32.667  1.00  0.00     0.031 C 
ATOM     71  C   UNL A   1      43.315  29.492  34.856  1.00  0.00     0.031 A 
BRANCH  58  72
ATOM     72  C   UNL A   1      40.750  33.592  38.681  1.00  0.00    -0.014 A 
ATOM     73  C   UNL A   1      41.491  34.783  38.760  1.00  0.00     0.009 A 
ATOM     74  C   UNL A   1      40.216  33.048  39.858  1.00  0.00     0.009 A 
ATOM     75  C   UNL A   1      41.715  35.401  39.991  1.00  0.00     0.001 A 
ATOM     76  C   UNL A   1      40.416  33.685  41.086  1.00  0.00     0.001 A 
ATOM     77  C   UNL A   1      41.175  34.854  41.153  1.00  0.00     0.000 A 
ENDBRANCH  58  72
BRANCH  59  78
ATOM     78  C   UNL A   1      39.826  28.854  29.938  1.00  0.00    -0.014 A 
ATOM     79  C   UNL A   1      39.332  27.539  29.906  1.00  0.00     0.009 A 
ATOM     80  C   UNL A   1      40.235  29.453  28.739  1.00  0.00     0.009 A 
ATOM     81  C   UNL A   1      39.285  26.825  28.708  1.00  0.00     0.001 A 
ATOM     82  C   UNL A   1      40.154  28.749  27.536  1.00  0.00     0.001 A 
ATOM     83  C   UNL A   1      39.693  27.432  27.523  1.00  0.00     0.000 A 
ENDBRANCH  59  78
BRANCH  71  84
ATOM     84  C   UNL A   1      44.601  28.740  35.053  1.00  0.00    -0.014 A 
ATOM     85  C   UNL A   1      44.589  27.505  35.723  1.00  0.00     0.009 A 
ATOM     86  C   UNL A   1      45.831  29.302  34.684  1.00  0.00     0.009 A 
ATOM     87  C   UNL A   1      45.784  26.860  36.039  1.00  0.00     0.001 A 
ATOM     88  C   UNL A   1      47.025  28.639  34.975  1.00  0.00     0.001 A 
ATOM     89  C   UNL A   1      47.001  27.425  35.663  1.00  0.00     0.000 A 
ENDBRANCH  71  84
ENDBRANCH  45  46
ENDBRANCH  37  40
ENDBRANCH  35  36
ENDBRANCH  34  35
ENDBRANCH   1  34
TORSDOF 16
ENDMDL
