MODEL 1
REMARK VINA RESULT:     -12.3      0.000      0.000
REMARK SMILES Cc1ccc(-c2cc(Cl)ccc2Cl)c(C(=O)NCCCCNC(=O)c2ccc(-c3c4nc(c(-c5ccccc5)c5ccc([nH]5)c(-c5ccccc5)c5nc(c(-c6ccccc6)c6ccc3[nH]6)C=C5)C=C4)cc2)c1
REMARK SMILES IDX 20 1 19 2 18 3 17 4 15 5 16 6 14 8 1 9 2 10 3 11 73 12 4 13
REMARK SMILES IDX 5 14 6 15 7 16 12 17 8 18 11 19 13 20 9 21 10 22 21 23 22 24
REMARK SMILES IDX 23 25 24 27 25 28 26 29 72 30 27 31 71 32 28 33 29 34 30 35
REMARK SMILES IDX 65 36 31 37 70 38 64 39 66 40 32 41 69 42 63 43 62 44 33 46
REMARK SMILES IDX 55 47 40 48 54 49 41 50 44 51 53 52 67 53 42 54 43 55 52 57
REMARK SMILES IDX 68 58 45 59 34 60 35 61 39 62 36 63 38 64 37 65 56 66 57 67
REMARK SMILES IDX 61 68 58 69 60 70 59 71 46 72 47 73 51 74 48 75 50 76 49 77
REMARK H PARENT 17 7 22 26 66 45 44 56
REMARK Flexibility Score: inf
ROOT
ATOM      1  C   UNL A   1      38.845  22.085  25.940  1.00  0.00     0.023 C 
ENDROOT
BRANCH   1   2
ATOM      2  C   UNL A   1      38.346  23.459  26.405  1.00  0.00     0.023 C 
BRANCH   2   3
ATOM      3  C   UNL A   1      36.938  23.832  25.911  1.00  0.00     0.116 C 
BRANCH   3   4
ATOM      4  N   UNL A   1      36.748  23.535  24.502  1.00  0.00    -0.352 N 
ATOM      5  C   UNL A   1      35.739  23.033  23.716  1.00  0.00     0.251 C 
ATOM      6  O   UNL A   1      36.021  23.017  22.515  1.00  0.00    -0.269 OA
ATOM      7  H   UNL A   1      37.549  23.750  23.972  1.00  0.00     0.163 HD
BRANCH   5   8
ATOM      8  C   UNL A   1      34.391  22.546  24.197  1.00  0.00     0.047 A 
ATOM      9  C   UNL A   1      32.718  19.223  25.132  1.00  0.00     0.044 C 
ATOM     10  C   UNL A   1      32.923  20.694  24.911  1.00  0.00    -0.050 A 
ATOM     11  C   UNL A   1      31.922  21.598  25.236  1.00  0.00     0.004 A 
ATOM     12  C   UNL A   1      34.125  21.176  24.369  1.00  0.00     0.018 A 
ATOM     13  C   UNL A   1      32.123  22.957  25.014  1.00  0.00     0.010 A 
ATOM     14  C   UNL A   1      33.343  23.463  24.500  1.00  0.00    -0.004 A 
BRANCH  14  15
ATOM     15  C   UNL A   1      33.404  24.928  24.284  1.00  0.00     0.003 A 
ATOM     16  C   UNL A   1      33.663  25.774  25.383  1.00  0.00     0.030 A 
ATOM     17  C   UNL A   1      33.262  25.528  23.015  1.00  0.00     0.049 A 
ATOM     18  C   UNL A   1      33.730  27.159  25.226  1.00  0.00     0.041 A 
ATOM     19  C   UNL A   1      33.360  26.918  22.860  1.00  0.00     0.023 A 
ATOM     20  Cl  UNL A   1      32.963  24.596  21.587  1.00  0.00    -0.084 Cl
ATOM     21  Cl  UNL A   1      33.991  28.164  26.599  1.00  0.00    -0.084 Cl
ATOM     22  C   UNL A   1      33.585  27.734  23.968  1.00  0.00     0.022 A 
ENDBRANCH  14  15
ENDBRANCH   5   8
ENDBRANCH   3   4
ENDBRANCH   2   3
ENDBRANCH   1   2
BRANCH   1  23
ATOM     23  C   UNL A   1      39.916  21.475  26.836  1.00  0.00     0.116 C 
BRANCH  23  24
ATOM     24  N   UNL A   1      40.868  20.608  26.157  1.00  0.00    -0.352 N 
ATOM     25  C   UNL A   1      42.246  20.727  26.031  1.00  0.00     0.251 C 
ATOM     26  H   UNL A   1      40.475  19.819  25.719  1.00  0.00     0.163 HD
ATOM     27  O   UNL A   1      42.863  19.941  25.336  1.00  0.00    -0.269 OA
BRANCH  25  28
ATOM     28  C   UNL A   1      42.982  21.714  26.868  1.00  0.00     0.039 A 
ATOM     29  C   UNL A   1      42.734  21.695  28.246  1.00  0.00     0.014 A 
ATOM     30  C   UNL A   1      43.684  22.774  26.304  1.00  0.00     0.014 A 
ATOM     31  C   UNL A   1      42.915  22.858  28.987  1.00  0.00     0.010 A 
ATOM     32  C   UNL A   1      43.765  23.961  27.006  1.00  0.00     0.010 A 
ATOM     33  C   UNL A   1      43.295  24.020  28.320  1.00  0.00    -0.014 A 
BRANCH  33  34
ATOM     34  C   UNL A   1      43.062  25.356  28.857  1.00  0.00     0.031 A 
ATOM     35  C   UNL A   1      41.887  26.143  28.438  1.00  0.00     0.074 A 
ATOM     36  C   UNL A   1      43.914  25.856  29.780  1.00  0.00     0.049 A 
ATOM     37  N   UNL A   1      41.802  27.424  28.561  1.00  0.00    -0.248 NA
ATOM     38  C   UNL A   1      40.739  25.554  27.754  1.00  0.00     0.031 C 
ATOM     39  C   UNL A   1      43.721  27.017  30.645  1.00  0.00     0.029 A 
ATOM     40  N   UNL A   1      45.246  25.520  29.971  1.00  0.00    -0.354 N 
ATOM     41  C   UNL A   1      40.509  27.780  28.267  1.00  0.00     0.074 A 
ATOM     42  C   UNL A   1      39.934  26.616  27.641  1.00  0.00     0.031 C 
ATOM     43  C   UNL A   1      44.917  27.432  31.094  1.00  0.00     0.029 A 
ATOM     44  C   UNL A   1      45.936  26.654  30.408  1.00  0.00     0.049 A 
ATOM     45  H   UNL A   1      45.641  24.629  29.823  1.00  0.00     0.167 HD
ATOM     46  C   UNL A   1      40.033  28.972  28.722  1.00  0.00     0.031 A 
ATOM     47  C   UNL A   1      46.944  27.195  29.661  1.00  0.00     0.031 A 
ATOM     48  C   UNL A   1      41.111  29.821  29.234  1.00  0.00     0.049 A 
ATOM     49  C   UNL A   1      46.650  28.595  29.158  1.00  0.00     0.074 A 
ATOM     50  C   UNL A   1      41.518  30.180  30.507  1.00  0.00     0.029 A 
ATOM     51  N   UNL A   1      42.127  30.215  28.369  1.00  0.00    -0.354 N 
ATOM     52  N   UNL A   1      45.463  29.136  29.150  1.00  0.00    -0.248 NA
ATOM     53  C   UNL A   1      47.664  29.476  28.582  1.00  0.00     0.031 C 
ATOM     54  C   UNL A   1      42.839  30.701  30.410  1.00  0.00     0.029 A 
ATOM     55  C   UNL A   1      43.208  30.703  29.076  1.00  0.00     0.049 A 
ATOM     56  H   UNL A   1      42.081  30.153  27.388  1.00  0.00     0.167 HD
ATOM     57  C   UNL A   1      45.524  30.374  28.566  1.00  0.00     0.074 A 
ATOM     58  C   UNL A   1      46.929  30.552  28.249  1.00  0.00     0.031 C 
ATOM     59  C   UNL A   1      44.409  31.137  28.370  1.00  0.00     0.031 A 
BRANCH  46  60
ATOM     60  C   UNL A   1      38.566  29.289  28.916  1.00  0.00    -0.014 A 
ATOM     61  C   UNL A   1      37.826  29.826  27.844  1.00  0.00     0.009 A 
ATOM     62  C   UNL A   1      37.877  29.199  30.141  1.00  0.00     0.009 A 
ATOM     63  C   UNL A   1      36.501  30.266  27.997  1.00  0.00     0.001 A 
ATOM     64  C   UNL A   1      36.547  29.614  30.297  1.00  0.00     0.001 A 
ATOM     65  C   UNL A   1      35.861  30.160  29.226  1.00  0.00     0.000 A 
ENDBRANCH  46  60
BRANCH  47  66
ATOM     66  C   UNL A   1      47.745  26.184  28.914  1.00  0.00    -0.014 A 
ATOM     67  C   UNL A   1      47.538  26.065  27.525  1.00  0.00     0.009 A 
ATOM     68  C   UNL A   1      48.911  25.636  29.466  1.00  0.00     0.009 A 
ATOM     69  C   UNL A   1      48.524  25.519  26.698  1.00  0.00     0.001 A 
ATOM     70  C   UNL A   1      49.892  25.081  28.634  1.00  0.00     0.001 A 
ATOM     71  C   UNL A   1      49.715  25.056  27.251  1.00  0.00     0.000 A 
ENDBRANCH  47  66
BRANCH  59  72
ATOM     72  C   UNL A   1      44.335  32.390  27.531  1.00  0.00    -0.014 A 
ATOM     73  C   UNL A   1      44.473  32.418  26.137  1.00  0.00     0.009 A 
ATOM     74  C   UNL A   1      43.969  33.606  28.153  1.00  0.00     0.009 A 
ATOM     75  C   UNL A   1      44.302  33.605  25.409  1.00  0.00     0.001 A 
ATOM     76  C   UNL A   1      43.752  34.780  27.427  1.00  0.00     0.001 A 
ATOM     77  C   UNL A   1      43.931  34.782  26.052  1.00  0.00     0.000 A 
ENDBRANCH  59  72
ENDBRANCH  33  34
ENDBRANCH  25  28
ENDBRANCH  23  24
ENDBRANCH   1  23
TORSDOF 12
ENDMDL
MODEL 2
REMARK VINA RESULT:     -12.2      4.257      9.154
REMARK SMILES Cc1ccc(-c2cc(Cl)ccc2Cl)c(C(=O)NCCCCNC(=O)c2ccc(-c3c4nc(c(-c5ccccc5)c5ccc([nH]5)c(-c5ccccc5)c5nc(c(-c6ccccc6)c6ccc3[nH]6)C=C5)C=C4)cc2)c1
REMARK SMILES IDX 20 1 19 2 18 3 17 4 15 5 16 6 14 8 1 9 2 10 3 11 73 12 4 13
REMARK SMILES IDX 5 14 6 15 7 16 12 17 8 18 11 19 13 20 9 21 10 22 21 23 22 24
REMARK SMILES IDX 23 25 24 27 25 28 26 29 72 30 27 31 71 32 28 33 29 34 30 35
REMARK SMILES IDX 65 36 31 37 70 38 64 39 66 40 32 41 69 42 63 43 62 44 33 46
REMARK SMILES IDX 55 47 40 48 54 49 41 50 44 51 53 52 67 53 42 54 43 55 52 57
REMARK SMILES IDX 68 58 45 59 34 60 35 61 39 62 36 63 38 64 37 65 56 66 57 67
REMARK SMILES IDX 61 68 58 69 60 70 59 71 46 72 47 73 51 74 48 75 50 76 49 77
REMARK H PARENT 17 7 22 26 66 45 44 56
REMARK Flexibility Score: inf
ROOT
ATOM      1  C   UNL A   1      34.669  29.932  27.970  1.00  0.00     0.023 C 
ENDROOT
BRANCH   1   2
ATOM      2  C   UNL A   1      34.109  29.073  26.829  1.00  0.00     0.023 C 
BRANCH   2   3
ATOM      3  C   UNL A   1      33.158  29.813  25.874  1.00  0.00     0.116 C 
BRANCH   3   4
ATOM      4  N   UNL A   1      33.412  29.494  24.480  1.00  0.00    -0.352 N 
ATOM      5  C   UNL A   1      32.689  29.003  23.421  1.00  0.00     0.251 C 
ATOM      6  O   UNL A   1      33.334  28.958  22.371  1.00  0.00    -0.269 OA
ATOM      7  H   UNL A   1      34.346  29.680  24.229  1.00  0.00     0.163 HD
BRANCH   5   8
ATOM      8  C   UNL A   1      31.244  28.558  23.457  1.00  0.00     0.047 A 
ATOM      9  C   UNL A   1      27.795  29.966  22.543  1.00  0.00     0.044 C 
ATOM     10  C   UNL A   1      28.860  29.015  23.008  1.00  0.00    -0.050 A 
ATOM     11  C   UNL A   1      28.531  27.717  23.371  1.00  0.00     0.004 A 
ATOM     12  C   UNL A   1      30.201  29.424  23.086  1.00  0.00     0.018 A 
ATOM     13  C   UNL A   1      29.528  26.851  23.810  1.00  0.00     0.010 A 
ATOM     14  C   UNL A   1      30.890  27.238  23.862  1.00  0.00    -0.004 A 
BRANCH  14  15
ATOM     15  C   UNL A   1      31.839  26.224  24.381  1.00  0.00     0.003 A 
ATOM     16  C   UNL A   1      32.537  25.405  23.469  1.00  0.00     0.030 A 
ATOM     17  C   UNL A   1      32.119  26.060  25.754  1.00  0.00     0.049 A 
ATOM     18  C   UNL A   1      33.439  24.438  23.913  1.00  0.00     0.041 A 
ATOM     19  C   UNL A   1      33.049  25.107  26.191  1.00  0.00     0.023 A 
ATOM     20  Cl  UNL A   1      31.343  27.019  26.970  1.00  0.00    -0.084 Cl
ATOM     21  Cl  UNL A   1      34.231  23.419  22.773  1.00  0.00    -0.084 Cl
ATOM     22  C   UNL A   1      33.703  24.289  25.270  1.00  0.00     0.022 A 
ENDBRANCH  14  15
ENDBRANCH   5   8
ENDBRANCH   3   4
ENDBRANCH   2   3
ENDBRANCH   1   2
BRANCH   1  23
ATOM     23  C   UNL A   1      35.059  31.344  27.552  1.00  0.00     0.116 C 
BRANCH  23  24
ATOM     24  N   UNL A   1      34.159  32.393  28.012  1.00  0.00    -0.352 N 
ATOM     25  C   UNL A   1      34.265  33.237  29.110  1.00  0.00     0.251 C 
ATOM     26  H   UNL A   1      33.353  32.522  27.463  1.00  0.00     0.163 HD
ATOM     27  O   UNL A   1      33.353  33.994  29.385  1.00  0.00    -0.269 OA
BRANCH  25  28
ATOM     28  C   UNL A   1      35.552  33.325  29.853  1.00  0.00     0.039 A 
ATOM     29  C   UNL A   1      36.619  33.966  29.210  1.00  0.00     0.014 A 
ATOM     30  C   UNL A   1      35.780  32.592  31.013  1.00  0.00     0.014 A 
ATOM     31  C   UNL A   1      37.923  33.624  29.550  1.00  0.00     0.010 A 
ATOM     32  C   UNL A   1      37.067  32.167  31.283  1.00  0.00     0.010 A 
ATOM     33  C   UNL A   1      38.125  32.616  30.490  1.00  0.00    -0.014 A 
BRANCH  33  34
ATOM     34  C   UNL A   1      39.363  31.852  30.581  1.00  0.00     0.031 A 
ATOM     35  C   UNL A   1      39.511  30.565  29.878  1.00  0.00     0.074 A 
ATOM     36  C   UNL A   1      40.400  32.356  31.288  1.00  0.00     0.049 A 
ATOM     37  N   UNL A   1      40.387  29.672  30.191  1.00  0.00    -0.248 NA
ATOM     38  C   UNL A   1      38.610  30.134  28.813  1.00  0.00     0.031 C 
ATOM     39  C   UNL A   1      41.793  31.917  31.276  1.00  0.00     0.029 A 
ATOM     40  N   UNL A   1      40.347  33.258  32.341  1.00  0.00    -0.354 N 
ATOM     41  C   UNL A   1      40.372  28.716  29.207  1.00  0.00     0.074 A 
ATOM     42  C   UNL A   1      39.166  28.972  28.458  1.00  0.00     0.031 C 
ATOM     43  C   UNL A   1      42.402  32.363  32.388  1.00  0.00     0.029 A 
ATOM     44  C   UNL A   1      41.384  32.968  33.232  1.00  0.00     0.049 A 
ATOM     45  H   UNL A   1      39.688  33.983  32.444  1.00  0.00     0.167 HD
ATOM     46  C   UNL A   1      41.458  27.910  29.052  1.00  0.00     0.031 A 
ATOM     47  C   UNL A   1      41.120  32.582  34.516  1.00  0.00     0.031 A 
ATOM     48  C   UNL A   1      42.381  28.028  30.182  1.00  0.00     0.049 A 
ATOM     49  C   UNL A   1      41.574  31.170  34.836  1.00  0.00     0.074 A 
ATOM     50  C   UNL A   1      43.610  28.643  30.349  1.00  0.00     0.029 A 
ATOM     51  N   UNL A   1      41.935  27.687  31.455  1.00  0.00    -0.354 N 
ATOM     52  N   UNL A   1      41.897  30.283  33.937  1.00  0.00    -0.248 NA
ATOM     53  C   UNL A   1      41.653  30.637  36.195  1.00  0.00     0.031 C 
ATOM     54  C   UNL A   1      43.849  28.761  31.747  1.00  0.00     0.029 A 
ATOM     55  C   UNL A   1      42.792  28.174  32.421  1.00  0.00     0.049 A 
ATOM     56  H   UNL A   1      41.118  27.169  31.641  1.00  0.00     0.167 HD
ATOM     57  C   UNL A   1      42.187  29.091  34.548  1.00  0.00     0.074 A 
ATOM     58  C   UNL A   1      42.044  29.370  35.965  1.00  0.00     0.031 C 
ATOM     59  C   UNL A   1      42.496  27.969  33.834  1.00  0.00     0.031 A 
BRANCH  46  60
ATOM     60  C   UNL A   1      41.805  27.180  27.772  1.00  0.00    -0.014 A 
ATOM     61  C   UNL A   1      42.728  27.753  26.876  1.00  0.00     0.009 A 
ATOM     62  C   UNL A   1      41.185  25.997  27.326  1.00  0.00     0.009 A 
ATOM     63  C   UNL A   1      42.990  27.195  25.614  1.00  0.00     0.001 A 
ATOM     64  C   UNL A   1      41.457  25.420  26.078  1.00  0.00     0.001 A 
ATOM     65  C   UNL A   1      42.353  26.026  25.215  1.00  0.00     0.000 A 
ENDBRANCH  46  60
BRANCH  47  66
ATOM     66  C   UNL A   1      39.913  33.230  35.100  1.00  0.00    -0.014 A 
ATOM     67  C   UNL A   1      38.671  32.582  34.950  1.00  0.00     0.009 A 
ATOM     68  C   UNL A   1      40.031  34.231  36.074  1.00  0.00     0.009 A 
ATOM     69  C   UNL A   1      37.613  32.846  35.826  1.00  0.00     0.001 A 
ATOM     70  C   UNL A   1      38.966  34.498  36.945  1.00  0.00     0.001 A 
ATOM     71  C   UNL A   1      37.774  33.782  36.844  1.00  0.00     0.000 A 
ENDBRANCH  47  66
BRANCH  59  72
ATOM     72  C   UNL A   1      42.593  26.569  34.392  1.00  0.00    -0.014 A 
ATOM     73  C   UNL A   1      41.597  25.954  35.162  1.00  0.00     0.009 A 
ATOM     74  C   UNL A   1      43.688  25.760  34.013  1.00  0.00     0.009 A 
ATOM     75  C   UNL A   1      41.712  24.617  35.572  1.00  0.00     0.001 A 
ATOM     76  C   UNL A   1      43.784  24.414  34.379  1.00  0.00     0.001 A 
ATOM     77  C   UNL A   1      42.798  23.845  35.171  1.00  0.00     0.000 A 
ENDBRANCH  59  72
ENDBRANCH  33  34
ENDBRANCH  25  28
ENDBRANCH  23  24
ENDBRANCH   1  23
TORSDOF 12
ENDMDL
MODEL 3
REMARK VINA RESULT:     -12.1      2.498      3.878
REMARK SMILES Cc1ccc(-c2cc(Cl)ccc2Cl)c(C(=O)NCCCCNC(=O)c2ccc(-c3c4nc(c(-c5ccccc5)c5ccc([nH]5)c(-c5ccccc5)c5nc(c(-c6ccccc6)c6ccc3[nH]6)C=C5)C=C4)cc2)c1
REMARK SMILES IDX 20 1 19 2 18 3 17 4 15 5 16 6 14 8 1 9 2 10 3 11 73 12 4 13
REMARK SMILES IDX 5 14 6 15 7 16 12 17 8 18 11 19 13 20 9 21 10 22 21 23 22 24
REMARK SMILES IDX 23 25 24 27 25 28 26 29 72 30 27 31 71 32 28 33 29 34 30 35
REMARK SMILES IDX 65 36 31 37 70 38 64 39 66 40 32 41 69 42 63 43 62 44 33 46
REMARK SMILES IDX 55 47 40 48 54 49 41 50 44 51 53 52 67 53 42 54 43 55 52 57
REMARK SMILES IDX 68 58 45 59 34 60 35 61 39 62 36 63 38 64 37 65 56 66 57 67
REMARK SMILES IDX 61 68 58 69 60 70 59 71 46 72 47 73 51 74 48 75 50 76 49 77
REMARK H PARENT 17 7 22 26 66 45 44 56
REMARK Flexibility Score: inf
ROOT
ATOM      1  C   UNL A   1      38.822  20.950  25.462  1.00  0.00     0.023 C 
ENDROOT
BRANCH   1   2
ATOM      2  C   UNL A   1      37.403  20.966  24.880  1.00  0.00     0.023 C 
BRANCH   2   3
ATOM      3  C   UNL A   1      36.563  22.195  25.265  1.00  0.00     0.116 C 
BRANCH   3   4
ATOM      4  N   UNL A   1      35.540  21.883  26.247  1.00  0.00    -0.352 N 
ATOM      5  C   UNL A   1      34.343  21.208  26.261  1.00  0.00     0.251 C 
ATOM      6  O   UNL A   1      33.834  21.146  27.382  1.00  0.00    -0.269 OA
ATOM      7  H   UNL A   1      35.762  22.249  27.133  1.00  0.00     0.163 HD
BRANCH   5   8
ATOM      8  C   UNL A   1      33.667  20.566  25.071  1.00  0.00     0.047 A 
ATOM      9  C   UNL A   1      33.323  17.077  23.515  1.00  0.00     0.044 C 
ATOM     10  C   UNL A   1      33.148  18.551  23.743  1.00  0.00    -0.050 A 
ATOM     11  C   UNL A   1      32.300  19.290  22.931  1.00  0.00     0.004 A 
ATOM     12  C   UNL A   1      33.840  19.202  24.776  1.00  0.00     0.018 A 
ATOM     13  C   UNL A   1      32.157  20.657  23.149  1.00  0.00     0.010 A 
ATOM     14  C   UNL A   1      32.821  21.323  24.209  1.00  0.00    -0.004 A 
BRANCH  14  15
ATOM     15  C   UNL A   1      32.602  22.786  24.301  1.00  0.00     0.003 A 
ATOM     16  C   UNL A   1      31.528  23.272  25.077  1.00  0.00     0.030 A 
ATOM     17  C   UNL A   1      33.445  23.734  23.684  1.00  0.00     0.049 A 
ATOM     18  C   UNL A   1      31.285  24.641  25.193  1.00  0.00     0.041 A 
ATOM     19  C   UNL A   1      33.211  25.109  23.829  1.00  0.00     0.023 A 
ATOM     20  Cl  UNL A   1      34.807  23.264  22.723  1.00  0.00    -0.084 Cl
ATOM     21  Cl  UNL A   1      29.932  25.195  26.103  1.00  0.00    -0.084 Cl
ATOM     22  C   UNL A   1      32.125  25.562  24.577  1.00  0.00     0.022 A 
ENDBRANCH  14  15
ENDBRANCH   5   8
ENDBRANCH   3   4
ENDBRANCH   2   3
ENDBRANCH   1   2
BRANCH   1  23
ATOM     23  C   UNL A   1      39.184  22.201  26.252  1.00  0.00     0.116 C 
BRANCH  23  24
ATOM     24  N   UNL A   1      40.610  22.485  26.336  1.00  0.00    -0.352 N 
ATOM     25  C   UNL A   1      41.268  23.700  26.487  1.00  0.00     0.251 C 
ATOM     26  H   UNL A   1      41.197  21.698  26.276  1.00  0.00     0.163 HD
ATOM     27  O   UNL A   1      42.483  23.743  26.441  1.00  0.00    -0.269 OA
BRANCH  25  28
ATOM     28  C   UNL A   1      40.495  24.916  26.860  1.00  0.00     0.039 A 
ATOM     29  C   UNL A   1      40.776  26.094  26.157  1.00  0.00     0.014 A 
ATOM     30  C   UNL A   1      39.719  24.965  28.014  1.00  0.00     0.014 A 
ATOM     31  C   UNL A   1      40.544  27.323  26.765  1.00  0.00     0.010 A 
ATOM     32  C   UNL A   1      39.584  26.175  28.668  1.00  0.00     0.010 A 
ATOM     33  C   UNL A   1      40.081  27.340  28.078  1.00  0.00    -0.014 A 
BRANCH  33  34
ATOM     34  C   UNL A   1      40.248  28.485  28.964  1.00  0.00     0.031 A 
ATOM     35  C   UNL A   1      39.188  29.502  29.093  1.00  0.00     0.074 A 
ATOM     36  C   UNL A   1      41.374  28.588  29.705  1.00  0.00     0.049 A 
ATOM     37  N   UNL A   1      39.388  30.695  29.540  1.00  0.00    -0.248 NA
ATOM     38  C   UNL A   1      37.818  29.283  28.636  1.00  0.00     0.031 C 
ATOM     39  C   UNL A   1      41.623  29.469  30.844  1.00  0.00     0.029 A 
ATOM     40  N   UNL A   1      42.621  28.045  29.431  1.00  0.00    -0.354 N 
ATOM     41  C   UNL A   1      38.160  31.281  29.714  1.00  0.00     0.074 A 
ATOM     42  C   UNL A   1      37.235  30.426  29.012  1.00  0.00     0.031 C 
ATOM     43  C   UNL A   1      42.948  29.584  31.027  1.00  0.00     0.029 A 
ATOM     44  C   UNL A   1      43.604  28.910  29.918  1.00  0.00     0.049 A 
ATOM     45  H   UNL A   1      42.786  27.191  28.968  1.00  0.00     0.167 HD
ATOM     46  C   UNL A   1      38.049  32.344  30.558  1.00  0.00     0.031 A 
ATOM     47  C   UNL A   1      44.495  29.509  29.073  1.00  0.00     0.031 A 
ATOM     48  C   UNL A   1      39.362  32.868  30.938  1.00  0.00     0.049 A 
ATOM     49  C   UNL A   1      44.374  31.020  29.026  1.00  0.00     0.074 A 
ATOM     50  C   UNL A   1      40.119  32.794  32.094  1.00  0.00     0.029 A 
ATOM     51  N   UNL A   1      40.205  33.360  29.946  1.00  0.00    -0.354 N 
ATOM     52  N   UNL A   1      43.350  31.688  29.481  1.00  0.00    -0.248 NA
ATOM     53  C   UNL A   1      45.379  31.892  28.421  1.00  0.00     0.031 C 
ATOM     54  C   UNL A   1      41.456  33.149  31.761  1.00  0.00     0.029 A 
ATOM     55  C   UNL A   1      41.496  33.484  30.419  1.00  0.00     0.049 A 
ATOM     56  H   UNL A   1      39.919  33.586  29.031  1.00  0.00     0.167 HD
ATOM     57  C   UNL A   1      43.516  33.022  29.220  1.00  0.00     0.074 A 
ATOM     58  C   UNL A   1      44.814  33.104  28.575  1.00  0.00     0.031 C 
ATOM     59  C   UNL A   1      42.559  33.945  29.533  1.00  0.00     0.031 A 
BRANCH  46  60
ATOM     60  C   UNL A   1      36.760  32.777  31.224  1.00  0.00    -0.014 A 
ATOM     61  C   UNL A   1      35.882  33.637  30.537  1.00  0.00     0.009 A 
ATOM     62  C   UNL A   1      36.400  32.478  32.552  1.00  0.00     0.009 A 
ATOM     63  C   UNL A   1      34.740  34.181  31.149  1.00  0.00     0.001 A 
ATOM     64  C   UNL A   1      35.251  32.998  33.163  1.00  0.00     0.001 A 
ATOM     65  C   UNL A   1      34.424  33.861  32.463  1.00  0.00     0.000 A 
ENDBRANCH  46  60
BRANCH  47  66
ATOM     66  C   UNL A   1      44.883  28.660  27.911  1.00  0.00    -0.014 A 
ATOM     67  C   UNL A   1      45.757  27.579  28.139  1.00  0.00     0.009 A 
ATOM     68  C   UNL A   1      44.139  28.681  26.723  1.00  0.00     0.009 A 
ATOM     69  C   UNL A   1      45.798  26.492  27.260  1.00  0.00     0.001 A 
ATOM     70  C   UNL A   1      44.190  27.593  25.841  1.00  0.00     0.001 A 
ATOM     71  C   UNL A   1      44.989  26.487  26.126  1.00  0.00     0.000 A 
ENDBRANCH  47  66
BRANCH  59  72
ATOM     72  C   UNL A   1      42.541  35.384  29.076  1.00  0.00    -0.014 A 
ATOM     73  C   UNL A   1      43.252  36.420  29.695  1.00  0.00     0.009 A 
ATOM     74  C   UNL A   1      41.880  35.706  27.868  1.00  0.00     0.009 A 
ATOM     75  C   UNL A   1      43.263  37.719  29.163  1.00  0.00     0.001 A 
ATOM     76  C   UNL A   1      41.927  36.986  27.309  1.00  0.00     0.001 A 
ATOM     77  C   UNL A   1      42.610  37.998  27.966  1.00  0.00     0.000 A 
ENDBRANCH  59  72
ENDBRANCH  33  34
ENDBRANCH  25  28
ENDBRANCH  23  24
ENDBRANCH   1  23
TORSDOF 12
ENDMDL
