MODEL 1
REMARK VINA RESULT:     -12.4      0.000      0.000
REMARK SMILES Cc1ccc(CN(CC(=O)NCCCCNC(=O)c2ccc(-c3c4nc(c(-c5ccccc5)c5ccc([nH]5)c(-c5ccccc5)c5nc(c(-c6ccccc6)c6ccc3[nH]6)C=C5)C=C4)cc2)C(=O)c2cc3c(s2)CCOC3)cc1
REMARK SMILES IDX 13 1 12 2 11 3 9 4 10 5 8 7 7 8 6 9 5 10 1 11 2 12 3 13
REMARK SMILES IDX 79 14 4 15 78 16 67 17 68 18 69 19 70 20 73 21 71 22 72 23
REMARK SMILES IDX 77 24 74 25 76 26 75 27 14 28 15 29 16 30 17 31 18 33 19 34
REMARK SMILES IDX 20 35 66 36 21 37 65 38 22 39 23 40 24 41 59 42 25 43 64 44
REMARK SMILES IDX 58 45 60 46 26 47 63 48 57 49 56 50 27 52 49 53 34 54 48 55
REMARK SMILES IDX 35 56 38 57 47 58 61 59 36 60 37 61 46 63 62 64 39 65 28 66
REMARK SMILES IDX 29 67 33 68 30 69 32 70 31 71 50 72 51 73 55 74 52 75 54 76
REMARK SMILES IDX 53 77 40 78 41 79 45 80 42 81 44 82 43 83
REMARK H PARENT 11 6 16 32 60 51 38 62
REMARK Flexibility Score: inf
ROOT
ATOM      1  C   UNL A   1      31.796  29.833  25.696  1.00  0.00     0.023 C 
ENDROOT
BRANCH   1   2
ATOM      2  C   UNL A   1      32.165  28.348  25.578  1.00  0.00     0.116 C 
BRANCH   2   3
ATOM      3  N   UNL A   1      31.054  27.418  25.650  1.00  0.00    -0.355 N 
ATOM      4  C   UNL A   1      31.021  26.076  25.886  1.00  0.00     0.239 C 
ATOM      5  O   UNL A   1      29.947  25.615  26.292  1.00  0.00    -0.273 OA
ATOM      6  H   UNL A   1      30.171  27.827  25.503  1.00  0.00     0.163 HD
BRANCH   4   7
ATOM      7  C   UNL A   1      32.250  25.155  25.771  1.00  0.00     0.220 C 
BRANCH   7   8
ATOM      8  N   UNL A   1      32.466  24.516  24.473  1.00  0.00    -0.324 N 
BRANCH   8   9
ATOM      9  C   UNL A   1      33.694  24.850  23.753  1.00  0.00     0.156 C 
BRANCH   9  10
ATOM     10  C   UNL A   1      34.913  24.093  24.216  1.00  0.00    -0.029 A 
ATOM     11  C   UNL A   1      38.378  21.970  25.658  1.00  0.00     0.044 C 
ATOM     12  C   UNL A   1      37.164  22.698  25.166  1.00  0.00    -0.051 A 
ATOM     13  C   UNL A   1      36.691  22.485  23.864  1.00  0.00     0.004 A 
ATOM     14  C   UNL A   1      36.505  23.613  25.989  1.00  0.00     0.004 A 
ATOM     15  C   UNL A   1      35.572  23.175  23.392  1.00  0.00     0.006 A 
ATOM     16  C   UNL A   1      35.390  24.303  25.518  1.00  0.00     0.006 A 
ENDBRANCH   9  10
ENDBRANCH   8   9
BRANCH   8  17
ATOM     17  C   UNL A   1      31.612  23.544  23.918  1.00  0.00     0.264 C 
ATOM     18  O   UNL A   1      30.555  23.876  23.379  1.00  0.00    -0.268 OA
BRANCH  17  19
ATOM     19  C   UNL A   1      32.027  22.149  23.974  1.00  0.00     0.093 A 
ATOM     20  C   UNL A   1      32.215  21.217  22.968  1.00  0.00     0.032 A 
ATOM     21  S   UNL A   1      32.393  21.477  25.514  1.00  0.00    -0.135 S 
ATOM     22  C   UNL A   1      32.419  19.902  23.484  1.00  0.00    -0.008 A 
ATOM     23  C   UNL A   1      32.579  19.931  24.851  1.00  0.00     0.013 A 
ATOM     24  C   UNL A   1      32.423  18.608  22.727  1.00  0.00     0.196 C 
ATOM     25  C   UNL A   1      32.863  18.701  25.648  1.00  0.00     0.075 C 
ATOM     26  O   UNL A   1      32.876  17.489  23.522  1.00  0.00    -0.376 OA
ATOM     27  C   UNL A   1      32.327  17.500  24.853  1.00  0.00     0.166 C 
ENDBRANCH  17  19
ENDBRANCH   8  17
ENDBRANCH   7   8
ENDBRANCH   4   7
ENDBRANCH   2   3
ENDBRANCH   1   2
BRANCH   1  28
ATOM     28  C   UNL A   1      32.272  30.573  26.941  1.00  0.00     0.023 C 
BRANCH  28  29
ATOM     29  C   UNL A   1      33.718  30.304  27.317  1.00  0.00     0.116 C 
BRANCH  29  30
ATOM     30  N   UNL A   1      34.346  31.326  28.133  1.00  0.00    -0.352 N 
ATOM     31  C   UNL A   1      35.532  31.258  28.880  1.00  0.00     0.251 C 
ATOM     32  H   UNL A   1      33.872  32.188  28.168  1.00  0.00     0.163 HD
ATOM     33  O   UNL A   1      35.886  32.186  29.555  1.00  0.00    -0.269 OA
BRANCH  31  34
ATOM     34  C   UNL A   1      36.414  30.072  28.696  1.00  0.00     0.039 A 
ATOM     35  C   UNL A   1      36.657  29.277  29.822  1.00  0.00     0.014 A 
ATOM     36  C   UNL A   1      37.172  29.901  27.545  1.00  0.00     0.014 A 
ATOM     37  C   UNL A   1      37.836  28.539  29.889  1.00  0.00     0.010 A 
ATOM     38  C   UNL A   1      38.395  29.268  27.649  1.00  0.00     0.010 A 
ATOM     39  C   UNL A   1      38.760  28.662  28.852  1.00  0.00    -0.014 A 
BRANCH  39  40
ATOM     40  C   UNL A   1      40.165  28.303  28.999  1.00  0.00     0.031 A 
ATOM     41  C   UNL A   1      40.653  27.000  28.493  1.00  0.00     0.074 A 
ATOM     42  C   UNL A   1      41.031  29.171  29.574  1.00  0.00     0.049 A 
ATOM     43  N   UNL A   1      41.702  26.394  28.941  1.00  0.00    -0.248 NA
ATOM     44  C   UNL A   1      39.940  26.233  27.475  1.00  0.00     0.031 C 
ATOM     45  C   UNL A   1      42.490  29.067  29.606  1.00  0.00     0.029 A 
ATOM     46  N   UNL A   1      40.798  30.280  30.381  1.00  0.00    -0.354 N 
ATOM     47  C   UNL A   1      41.976  25.354  28.083  1.00  0.00     0.074 A 
ATOM     48  C   UNL A   1      40.786  25.217  27.277  1.00  0.00     0.031 C 
ATOM     49  C   UNL A   1      42.953  29.816  30.620  1.00  0.00     0.029 A 
ATOM     50  C   UNL A   1      41.797  30.288  31.360  1.00  0.00     0.049 A 
ATOM     51  H   UNL A   1      40.070  30.935  30.283  1.00  0.00     0.167 HD
ATOM     52  C   UNL A   1      43.235  24.833  28.049  1.00  0.00     0.031 A 
ATOM     53  C   UNL A   1      41.589  30.066  32.694  1.00  0.00     0.031 A 
ATOM     54  C   UNL A   1      44.069  25.365  29.131  1.00  0.00     0.049 A 
ATOM     55  C   UNL A   1      42.381  28.887  33.242  1.00  0.00     0.074 A 
ATOM     56  C   UNL A   1      45.083  26.308  29.170  1.00  0.00     0.029 A 
ATOM     57  N   UNL A   1      43.708  25.122  30.452  1.00  0.00    -0.354 N 
ATOM     58  N   UNL A   1      42.936  27.974  32.492  1.00  0.00    -0.248 NA
ATOM     59  C   UNL A   1      42.562  28.607  34.667  1.00  0.00     0.031 C 
ATOM     60  C   UNL A   1      45.264  26.700  30.524  1.00  0.00     0.029 A 
ATOM     61  C   UNL A   1      44.388  25.968  31.306  1.00  0.00     0.049 A 
ATOM     62  H   UNL A   1      43.057  24.442  30.738  1.00  0.00     0.167 HD
ATOM     63  C   UNL A   1      43.518  27.014  33.277  1.00  0.00     0.074 A 
ATOM     64  C   UNL A   1      43.270  27.463  34.635  1.00  0.00     0.031 C 
ATOM     65  C   UNL A   1      44.137  25.920  32.742  1.00  0.00     0.031 A 
BRANCH  52  66
ATOM     66  C   UNL A   1      43.800  24.060  26.872  1.00  0.00    -0.014 A 
ATOM     67  C   UNL A   1      44.897  23.198  27.070  1.00  0.00     0.009 A 
ATOM     68  C   UNL A   1      43.377  24.194  25.538  1.00  0.00     0.009 A 
ATOM     69  C   UNL A   1      45.567  22.580  26.003  1.00  0.00     0.001 A 
ATOM     70  C   UNL A   1      44.048  23.593  24.463  1.00  0.00     0.001 A 
ATOM     71  C   UNL A   1      45.155  22.794  24.695  1.00  0.00     0.000 A 
ENDBRANCH  52  66
BRANCH  53  72
ATOM     72  C   UNL A   1      40.247  30.468  33.192  1.00  0.00    -0.014 A 
ATOM     73  C   UNL A   1      39.933  31.841  33.232  1.00  0.00     0.009 A 
ATOM     74  C   UNL A   1      39.202  29.539  33.281  1.00  0.00     0.009 A 
ATOM     75  C   UNL A   1      38.604  32.270  33.228  1.00  0.00     0.001 A 
ATOM     76  C   UNL A   1      37.871  29.975  33.290  1.00  0.00     0.001 A 
ATOM     77  C   UNL A   1      37.572  31.336  33.223  1.00  0.00     0.000 A 
ENDBRANCH  53  72
BRANCH  65  78
ATOM     78  C   UNL A   1      44.623  24.718  33.513  1.00  0.00    -0.014 A 
ATOM     79  C   UNL A   1      43.814  23.632  33.872  1.00  0.00     0.009 A 
ATOM     80  C   UNL A   1      46.006  24.595  33.780  1.00  0.00     0.009 A 
ATOM     81  C   UNL A   1      44.351  22.504  34.509  1.00  0.00     0.001 A 
ATOM     82  C   UNL A   1      46.551  23.454  34.374  1.00  0.00     0.001 A 
ATOM     83  C   UNL A   1      45.719  22.410  34.750  1.00  0.00     0.000 A 
ENDBRANCH  65  78
ENDBRANCH  39  40
ENDBRANCH  31  34
ENDBRANCH  29  30
ENDBRANCH  28  29
ENDBRANCH   1  28
TORSDOF 16
ENDMDL
MODEL 2
REMARK VINA RESULT:     -12.4      3.187      8.615
REMARK SMILES Cc1ccc(CN(CC(=O)NCCCCNC(=O)c2ccc(-c3c4nc(c(-c5ccccc5)c5ccc([nH]5)c(-c5ccccc5)c5nc(c(-c6ccccc6)c6ccc3[nH]6)C=C5)C=C4)cc2)C(=O)c2cc3c(s2)CCOC3)cc1
REMARK SMILES IDX 13 1 12 2 11 3 9 4 10 5 8 7 7 8 6 9 5 10 1 11 2 12 3 13
REMARK SMILES IDX 79 14 4 15 78 16 67 17 68 18 69 19 70 20 73 21 71 22 72 23
REMARK SMILES IDX 77 24 74 25 76 26 75 27 14 28 15 29 16 30 17 31 18 33 19 34
REMARK SMILES IDX 20 35 66 36 21 37 65 38 22 39 23 40 24 41 59 42 25 43 64 44
REMARK SMILES IDX 58 45 60 46 26 47 63 48 57 49 56 50 27 52 49 53 34 54 48 55
REMARK SMILES IDX 35 56 38 57 47 58 61 59 36 60 37 61 46 63 62 64 39 65 28 66
REMARK SMILES IDX 29 67 33 68 30 69 32 70 31 71 50 72 51 73 55 74 52 75 54 76
REMARK SMILES IDX 53 77 40 78 41 79 45 80 42 81 44 82 43 83
REMARK H PARENT 11 6 16 32 60 51 38 62
REMARK Flexibility Score: inf
ROOT
ATOM      1  C   UNL A   1      37.639  23.628  25.692  1.00  0.00     0.023 C 
ENDROOT
BRANCH   1   2
ATOM      2  C   UNL A   1      36.108  23.737  25.699  1.00  0.00     0.116 C 
BRANCH   2   3
ATOM      3  N   UNL A   1      35.437  23.211  24.525  1.00  0.00    -0.355 N 
ATOM      4  C   UNL A   1      34.634  23.815  23.604  1.00  0.00     0.239 C 
ATOM      5  O   UNL A   1      34.533  23.250  22.508  1.00  0.00    -0.273 OA
ATOM      6  H   UNL A   1      35.587  22.251  24.367  1.00  0.00     0.163 HD
BRANCH   4   7
ATOM      7  C   UNL A   1      33.951  25.178  23.825  1.00  0.00     0.220 C 
BRANCH   7   8
ATOM      8  N   UNL A   1      32.698  25.163  24.580  1.00  0.00    -0.324 N 
BRANCH   8   9
ATOM      9  C   UNL A   1      32.771  25.433  26.015  1.00  0.00     0.156 C 
BRANCH   9  10
ATOM     10  C   UNL A   1      32.787  26.897  26.373  1.00  0.00    -0.029 A 
ATOM     11  C   UNL A   1      32.944  31.096  27.342  1.00  0.00     0.044 C 
ATOM     12  C   UNL A   1      32.889  29.641  26.989  1.00  0.00    -0.051 A 
ATOM     13  C   UNL A   1      31.707  28.912  27.177  1.00  0.00     0.004 A 
ATOM     14  C   UNL A   1      34.020  28.990  26.492  1.00  0.00     0.004 A 
ATOM     15  C   UNL A   1      31.654  27.550  26.869  1.00  0.00     0.006 A 
ATOM     16  C   UNL A   1      33.967  27.631  26.187  1.00  0.00     0.006 A 
ENDBRANCH   9  10
ENDBRANCH   8   9
BRANCH   8  17
ATOM     17  C   UNL A   1      31.427  24.989  23.999  1.00  0.00     0.264 C 
ATOM     18  O   UNL A   1      30.907  23.873  23.958  1.00  0.00    -0.268 OA
BRANCH  17  19
ATOM     19  C   UNL A   1      30.740  26.164  23.481  1.00  0.00     0.093 A 
ATOM     20  C   UNL A   1      31.187  27.196  22.674  1.00  0.00     0.032 A 
ATOM     21  S   UNL A   1      29.075  26.363  23.870  1.00  0.00    -0.135 S 
ATOM     22  C   UNL A   1      30.239  28.258  22.583  1.00  0.00    -0.008 A 
ATOM     23  C   UNL A   1      29.040  27.896  23.155  1.00  0.00     0.013 A 
ATOM     24  C   UNL A   1      30.445  29.628  22.010  1.00  0.00     0.196 C 
ATOM     25  C   UNL A   1      27.849  28.797  23.152  1.00  0.00     0.075 C 
ATOM     26  O   UNL A   1      29.217  30.378  21.878  1.00  0.00    -0.376 OA
ATOM     27  C   UNL A   1      28.361  30.241  23.029  1.00  0.00     0.166 C 
ENDBRANCH  17  19
ENDBRANCH   8  17
ENDBRANCH   7   8
ENDBRANCH   4   7
ENDBRANCH   2   3
ENDBRANCH   1   2
BRANCH   1  28
ATOM     28  C   UNL A   1      38.238  22.227  25.752  1.00  0.00     0.023 C 
BRANCH  28  29
ATOM     29  C   UNL A   1      39.615  22.159  26.388  1.00  0.00     0.116 C 
BRANCH  29  30
ATOM     30  N   UNL A   1      40.432  21.032  25.977  1.00  0.00    -0.352 N 
ATOM     31  C   UNL A   1      41.821  20.864  26.074  1.00  0.00     0.251 C 
ATOM     32  H   UNL A   1      39.941  20.280  25.572  1.00  0.00     0.163 HD
ATOM     33  O   UNL A   1      42.353  19.884  25.628  1.00  0.00    -0.269 OA
BRANCH  31  34
ATOM     34  C   UNL A   1      42.597  21.853  26.873  1.00  0.00     0.039 A 
ATOM     35  C   UNL A   1      42.439  21.816  28.263  1.00  0.00     0.014 A 
ATOM     36  C   UNL A   1      43.238  22.929  26.273  1.00  0.00     0.014 A 
ATOM     37  C   UNL A   1      42.652  22.977  29.001  1.00  0.00     0.010 A 
ATOM     38  C   UNL A   1      43.339  24.114  26.976  1.00  0.00     0.010 A 
ATOM     39  C   UNL A   1      42.961  24.154  28.320  1.00  0.00    -0.014 A 
BRANCH  39  40
ATOM     40  C   UNL A   1      42.783  25.477  28.905  1.00  0.00     0.031 A 
ATOM     41  C   UNL A   1      41.612  26.300  28.531  1.00  0.00     0.074 A 
ATOM     42  C   UNL A   1      43.675  25.942  29.813  1.00  0.00     0.049 A 
ATOM     43  N   UNL A   1      41.576  27.589  28.609  1.00  0.00    -0.248 NA
ATOM     44  C   UNL A   1      40.396  25.728  27.960  1.00  0.00     0.031 C 
ATOM     45  C   UNL A   1      43.536  27.135  30.649  1.00  0.00     0.029 A 
ATOM     46  N   UNL A   1      44.972  25.530  30.100  1.00  0.00    -0.354 N 
ATOM     47  C   UNL A   1      40.271  27.978  28.414  1.00  0.00     0.074 A 
ATOM     48  C   UNL A   1      39.612  26.808  27.885  1.00  0.00     0.031 C 
ATOM     49  C   UNL A   1      44.758  27.522  31.052  1.00  0.00     0.029 A 
ATOM     50  C   UNL A   1      45.719  26.686  30.356  1.00  0.00     0.049 A 
ATOM     51  H   UNL A   1      45.302  24.604  30.122  1.00  0.00     0.167 HD
ATOM     52  C   UNL A   1      39.865  29.198  28.869  1.00  0.00     0.031 A 
ATOM     53  C   UNL A   1      46.724  27.161  29.558  1.00  0.00     0.031 A 
ATOM     54  C   UNL A   1      40.996  30.006  29.333  1.00  0.00     0.049 A 
ATOM     55  C   UNL A   1      46.476  28.575  29.051  1.00  0.00     0.074 A 
ATOM     56  C   UNL A   1      41.471  30.337  30.591  1.00  0.00     0.029 A 
ATOM     57  N   UNL A   1      41.991  30.368  28.430  1.00  0.00    -0.354 N 
ATOM     58  N   UNL A   1      45.310  29.161  29.075  1.00  0.00    -0.248 NA
ATOM     59  C   UNL A   1      47.497  29.416  28.424  1.00  0.00     0.031 C 
ATOM     60  C   UNL A   1      42.801  30.817  30.444  1.00  0.00     0.029 A 
ATOM     61  C   UNL A   1      43.116  30.811  29.097  1.00  0.00     0.049 A 
ATOM     62  H   UNL A   1      41.904  30.315  27.451  1.00  0.00     0.167 HD
ATOM     63  C   UNL A   1      45.395  30.397  28.491  1.00  0.00     0.074 A 
ATOM     64  C   UNL A   1      46.791  30.518  28.112  1.00  0.00     0.031 C 
ATOM     65  C   UNL A   1      44.305  31.207  28.351  1.00  0.00     0.031 A 
BRANCH  52  66
ATOM     66  C   UNL A   1      38.418  29.554  29.159  1.00  0.00    -0.014 A 
ATOM     67  C   UNL A   1      37.702  30.349  28.243  1.00  0.00     0.009 A 
ATOM     68  C   UNL A   1      37.727  29.230  30.340  1.00  0.00     0.009 A 
ATOM     69  C   UNL A   1      36.420  30.848  28.524  1.00  0.00     0.001 A 
ATOM     70  C   UNL A   1      36.453  29.734  30.637  1.00  0.00     0.001 A 
ATOM     71  C   UNL A   1      35.803  30.556  29.733  1.00  0.00     0.000 A 
ENDBRANCH  52  66
BRANCH  53  72
ATOM     72  C   UNL A   1      47.457  26.120  28.792  1.00  0.00    -0.014 A 
ATOM     73  C   UNL A   1      47.074  25.877  27.459  1.00  0.00     0.009 A 
ATOM     74  C   UNL A   1      48.702  25.646  29.228  1.00  0.00     0.009 A 
ATOM     75  C   UNL A   1      47.964  25.292  26.554  1.00  0.00     0.001 A 
ATOM     76  C   UNL A   1      49.586  25.049  28.320  1.00  0.00     0.001 A 
ATOM     77  C   UNL A   1      49.233  24.909  26.978  1.00  0.00     0.000 A 
ENDBRANCH  53  72
BRANCH  65  78
ATOM     78  C   UNL A   1      44.252  32.484  27.548  1.00  0.00    -0.014 A 
ATOM     79  C   UNL A   1      44.461  32.554  26.165  1.00  0.00     0.009 A 
ATOM     80  C   UNL A   1      43.835  33.672  28.189  1.00  0.00     0.009 A 
ATOM     81  C   UNL A   1      44.307  33.761  25.466  1.00  0.00     0.001 A 
ATOM     82  C   UNL A   1      43.637  34.866  27.489  1.00  0.00     0.001 A 
ATOM     83  C   UNL A   1      43.886  34.912  26.125  1.00  0.00     0.000 A 
ENDBRANCH  65  78
ENDBRANCH  39  40
ENDBRANCH  31  34
ENDBRANCH  29  30
ENDBRANCH  28  29
ENDBRANCH   1  28
TORSDOF 16
ENDMDL
MODEL 3
REMARK VINA RESULT:     -12.2      3.453      8.907
REMARK SMILES Cc1ccc(CN(CC(=O)NCCCCNC(=O)c2ccc(-c3c4nc(c(-c5ccccc5)c5ccc([nH]5)c(-c5ccccc5)c5nc(c(-c6ccccc6)c6ccc3[nH]6)C=C5)C=C4)cc2)C(=O)c2cc3c(s2)CCOC3)cc1
REMARK SMILES IDX 13 1 12 2 11 3 9 4 10 5 8 7 7 8 6 9 5 10 1 11 2 12 3 13
REMARK SMILES IDX 79 14 4 15 78 16 67 17 68 18 69 19 70 20 73 21 71 22 72 23
REMARK SMILES IDX 77 24 74 25 76 26 75 27 14 28 15 29 16 30 17 31 18 33 19 34
REMARK SMILES IDX 20 35 66 36 21 37 65 38 22 39 23 40 24 41 59 42 25 43 64 44
REMARK SMILES IDX 58 45 60 46 26 47 63 48 57 49 56 50 27 52 49 53 34 54 48 55
REMARK SMILES IDX 35 56 38 57 47 58 61 59 36 60 37 61 46 63 62 64 39 65 28 66
REMARK SMILES IDX 29 67 33 68 30 69 32 70 31 71 50 72 51 73 55 74 52 75 54 76
REMARK SMILES IDX 53 77 40 78 41 79 45 80 42 81 44 82 43 83
REMARK H PARENT 11 6 16 32 60 51 38 62
REMARK Flexibility Score: inf
ROOT
ATOM      1  C   UNL A   1      36.329  21.528  24.538  1.00  0.00     0.023 C 
ENDROOT
BRANCH   1   2
ATOM      2  C   UNL A   1      35.862  22.968  24.283  1.00  0.00     0.116 C 
BRANCH   2   3
ATOM      3  N   UNL A   1      34.821  23.121  23.284  1.00  0.00    -0.355 N 
ATOM      4  C   UNL A   1      33.974  24.157  23.022  1.00  0.00     0.239 C 
ATOM      5  O   UNL A   1      33.482  24.190  21.887  1.00  0.00    -0.273 OA
ATOM      6  H   UNL A   1      34.707  22.342  22.693  1.00  0.00     0.163 HD
BRANCH   4   7
ATOM      7  C   UNL A   1      33.693  25.304  24.009  1.00  0.00     0.220 C 
BRANCH   7   8
ATOM      8  N   UNL A   1      32.381  25.298  24.657  1.00  0.00    -0.324 N 
BRANCH   8   9
ATOM      9  C   UNL A   1      32.333  25.603  26.086  1.00  0.00     0.156 C 
BRANCH   9  10
ATOM     10  C   UNL A   1      32.651  27.037  26.428  1.00  0.00    -0.029 A 
ATOM     11  C   UNL A   1      33.443  31.149  27.455  1.00  0.00     0.044 C 
ATOM     12  C   UNL A   1      33.166  29.716  27.114  1.00  0.00    -0.051 A 
ATOM     13  C   UNL A   1      34.208  28.872  26.707  1.00  0.00     0.004 A 
ATOM     14  C   UNL A   1      31.865  29.213  27.175  1.00  0.00     0.004 A 
ATOM     15  C   UNL A   1      33.954  27.540  26.369  1.00  0.00     0.006 A 
ATOM     16  C   UNL A   1      31.612  27.886  26.836  1.00  0.00     0.006 A 
ENDBRANCH   9  10
ENDBRANCH   8   9
BRANCH   8  17
ATOM     17  C   UNL A   1      31.164  25.102  23.977  1.00  0.00     0.264 C 
ATOM     18  O   UNL A   1      30.695  23.970  23.851  1.00  0.00    -0.268 OA
BRANCH  17  19
ATOM     19  C   UNL A   1      30.467  26.271  23.459  1.00  0.00     0.093 A 
ATOM     20  C   UNL A   1      30.907  27.308  22.653  1.00  0.00     0.032 A 
ATOM     21  S   UNL A   1      28.801  26.456  23.845  1.00  0.00    -0.135 S 
ATOM     22  C   UNL A   1      29.950  28.362  22.561  1.00  0.00    -0.008 A 
ATOM     23  C   UNL A   1      28.753  27.990  23.131  1.00  0.00     0.013 A 
ATOM     24  C   UNL A   1      30.146  29.734  21.989  1.00  0.00     0.196 C 
ATOM     25  C   UNL A   1      27.556  28.881  23.127  1.00  0.00     0.075 C 
ATOM     26  O   UNL A   1      28.912  30.473  21.856  1.00  0.00    -0.376 OA
ATOM     27  C   UNL A   1      28.056  30.329  23.005  1.00  0.00     0.166 C 
ENDBRANCH  17  19
ENDBRANCH   8  17
ENDBRANCH   7   8
ENDBRANCH   4   7
ENDBRANCH   2   3
ENDBRANCH   1   2
BRANCH   1  28
ATOM     28  C   UNL A   1      37.719  21.343  25.136  1.00  0.00     0.023 C 
BRANCH  28  29
ATOM     29  C   UNL A   1      38.367  22.624  25.629  1.00  0.00     0.116 C 
BRANCH  29  30
ATOM     30  N   UNL A   1      39.726  22.483  26.119  1.00  0.00    -0.352 N 
ATOM     31  C   UNL A   1      40.559  23.445  26.708  1.00  0.00     0.251 C 
ATOM     32  H   UNL A   1      40.117  21.585  26.023  1.00  0.00     0.163 HD
ATOM     33  O   UNL A   1      41.690  23.177  27.007  1.00  0.00    -0.269 OA
BRANCH  31  34
ATOM     34  C   UNL A   1      39.963  24.756  27.089  1.00  0.00     0.039 A 
ATOM     35  C   UNL A   1      40.399  25.885  26.386  1.00  0.00     0.014 A 
ATOM     36  C   UNL A   1      39.215  24.904  28.250  1.00  0.00     0.014 A 
ATOM     37  C   UNL A   1      40.343  27.131  27.004  1.00  0.00     0.010 A 
ATOM     38  C   UNL A   1      39.261  26.113  28.916  1.00  0.00     0.010 A 
ATOM     39  C   UNL A   1      39.904  27.203  28.325  1.00  0.00    -0.014 A 
BRANCH  39  40
ATOM     40  C   UNL A   1      40.199  28.333  29.197  1.00  0.00     0.031 A 
ATOM     41  C   UNL A   1      39.184  29.390  29.408  1.00  0.00     0.074 A 
ATOM     42  C   UNL A   1      41.391  28.404  29.835  1.00  0.00     0.049 A 
ATOM     43  N   UNL A   1      39.460  30.602  29.758  1.00  0.00    -0.248 NA
ATOM     44  C   UNL A   1      37.760  29.176  29.164  1.00  0.00     0.031 C 
ATOM     45  C   UNL A   1      41.765  29.339  30.898  1.00  0.00     0.029 A 
ATOM     46  N   UNL A   1      42.591  27.745  29.589  1.00  0.00    -0.354 N 
ATOM     47  C   UNL A   1      38.274  31.217  30.088  1.00  0.00     0.074 A 
ATOM     48  C   UNL A   1      37.249  30.339  29.576  1.00  0.00     0.031 C 
ATOM     49  C   UNL A   1      43.105  29.420  30.947  1.00  0.00     0.029 A 
ATOM     50  C   UNL A   1      43.617  28.668  29.817  1.00  0.00     0.049 A 
ATOM     51  H   UNL A   1      42.698  26.808  29.308  1.00  0.00     0.167 HD
ATOM     52  C   UNL A   1      38.296  32.317  30.893  1.00  0.00     0.031 A 
ATOM     53  C   UNL A   1      44.435  29.185  28.849  1.00  0.00     0.031 A 
ATOM     54  C   UNL A   1      39.663  32.797  31.116  1.00  0.00     0.049 A 
ATOM     55  C   UNL A   1      44.375  30.704  28.755  1.00  0.00     0.074 A 
ATOM     56  C   UNL A   1      40.536  32.708  32.187  1.00  0.00     0.029 A 
ATOM     57  N   UNL A   1      40.416  33.236  30.031  1.00  0.00    -0.354 N 
ATOM     58  N   UNL A   1      43.425  31.427  29.283  1.00  0.00    -0.248 NA
ATOM     59  C   UNL A   1      45.337  31.522  28.016  1.00  0.00     0.031 C 
ATOM     60  C   UNL A   1      41.842  33.008  31.713  1.00  0.00     0.029 A 
ATOM     61  C   UNL A   1      41.753  33.315  30.367  1.00  0.00     0.049 A 
ATOM     62  H   UNL A   1      40.046  33.459  29.146  1.00  0.00     0.167 HD
ATOM     63  C   UNL A   1      43.615  32.747  28.972  1.00  0.00     0.074 A 
ATOM     64  C   UNL A   1      44.836  32.758  28.188  1.00  0.00     0.031 C 
ATOM     65  C   UNL A   1      42.739  33.716  29.370  1.00  0.00     0.031 A 
BRANCH  52  66
ATOM     66  C   UNL A   1      37.109  32.791  31.711  1.00  0.00    -0.014 A 
ATOM     67  C   UNL A   1      36.101  33.557  31.091  1.00  0.00     0.009 A 
ATOM     68  C   UNL A   1      36.956  32.610  33.096  1.00  0.00     0.009 A 
ATOM     69  C   UNL A   1      35.064  34.161  31.819  1.00  0.00     0.001 A 
ATOM     70  C   UNL A   1      35.933  33.220  33.835  1.00  0.00     0.001 A 
ATOM     71  C   UNL A   1      34.991  34.009  33.197  1.00  0.00     0.000 A 
ENDBRANCH  52  66
BRANCH  53  72
ATOM     72  C   UNL A   1      44.670  28.289  27.687  1.00  0.00    -0.014 A 
ATOM     73  C   UNL A   1      45.419  27.114  27.889  1.00  0.00     0.009 A 
ATOM     74  C   UNL A   1      43.896  28.398  26.524  1.00  0.00     0.009 A 
ATOM     75  C   UNL A   1      45.293  26.027  27.020  1.00  0.00     0.001 A 
ATOM     76  C   UNL A   1      43.784  27.311  25.647  1.00  0.00     0.001 A 
ATOM     77  C   UNL A   1      44.449  26.115  25.916  1.00  0.00     0.000 A 
ENDBRANCH  53  72
BRANCH  65  78
ATOM     78  C   UNL A   1      42.747  35.154  28.911  1.00  0.00    -0.014 A 
ATOM     79  C   UNL A   1      42.036  35.632  27.803  1.00  0.00     0.009 A 
ATOM     80  C   UNL A   1      43.397  36.119  29.714  1.00  0.00     0.009 A 
ATOM     81  C   UNL A   1      42.015  36.998  27.486  1.00  0.00     0.001 A 
ATOM     82  C   UNL A   1      43.341  37.486  29.427  1.00  0.00     0.001 A 
ATOM     83  C   UNL A   1      42.658  37.925  28.302  1.00  0.00     0.000 A 
ENDBRANCH  65  78
ENDBRANCH  39  40
ENDBRANCH  31  34
ENDBRANCH  29  30
ENDBRANCH  28  29
ENDBRANCH   1  28
TORSDOF 16
ENDMDL
