MODEL 1
REMARK VINA RESULT:     -11.7      0.000      0.000
REMARK SMILES COc1cc(C)cc2c1O[C@H](C(F)(F)F)C(C(=O)NCCCCNC(=O)c1ccc(-c3c4nc(c(-c5ccccc5)c5ccc([nH]5)c(-c5ccccc5)c5nc(c(-c6ccccc6)c6ccc3[nH]6)C=C5)C=C4)cc1)=C2
REMARK SMILES IDX 22 1 21 2 20 3 19 4 17 5 18 6 16 8 3 9 4 10 9 11 5 12 8 13
REMARK SMILES IDX 10 14 6 15 7 16 75 17 11 18 2 19 1 20 12 21 13 22 14 23
REMARK SMILES IDX 15 24 23 25 24 26 25 27 26 29 27 30 28 31 74 32 29 33 73 34
REMARK SMILES IDX 30 35 31 36 32 37 67 38 33 39 72 40 66 41 68 42 34 43 71 44
REMARK SMILES IDX 65 45 64 46 35 48 57 49 42 50 56 51 43 52 46 53 55 54 69 55
REMARK SMILES IDX 44 56 45 57 54 59 70 60 47 61 36 62 37 63 41 64 38 65 40 66
REMARK SMILES IDX 39 67 58 68 59 69 63 70 60 71 62 72 61 73 48 74 49 75 53 76
REMARK SMILES IDX 50 77 52 78 51 79
REMARK H PARENT 19 7 24 28 68 47 46 58
REMARK Flexibility Score: inf
ROOT
ATOM      1  C   UNL A   1      37.331  21.276  24.977  1.00  0.00     0.023 C 
ENDROOT
BRANCH   1   2
ATOM      2  C   UNL A   1      36.638  19.911  24.958  1.00  0.00     0.023 C 
BRANCH   2   3
ATOM      3  C   UNL A   1      35.113  19.982  24.975  1.00  0.00     0.116 C 
BRANCH   3   4
ATOM      4  N   UNL A   1      34.610  20.638  26.169  1.00  0.00    -0.352 N 
ATOM      5  C   UNL A   1      34.139  21.865  26.496  1.00  0.00     0.251 C 
ATOM      6  O   UNL A   1      33.818  22.002  27.681  1.00  0.00    -0.270 OA
ATOM      7  H   UNL A   1      34.613  20.032  26.945  1.00  0.00     0.163 HD
BRANCH   5   8
ATOM      8  C   UNL A   1      33.991  23.014  25.553  1.00  0.00     0.067 C 
ATOM      9  C   UNL A   1      33.759  26.372  23.042  1.00  0.00     0.161 A 
ATOM     10  C   UNL A   1      33.594  27.644  23.593  1.00  0.00     0.054 A 
ATOM     11  C   UNL A   1      33.887  25.258  23.874  1.00  0.00     0.169 A 
ATOM     12  C   UNL A   1      33.603  27.813  24.984  1.00  0.00    -0.047 A 
ATOM     13  C   UNL A   1      33.893  25.411  25.262  1.00  0.00     0.021 A 
ATOM     14  O   UNL A   1      34.070  24.038  23.283  1.00  0.00    -0.471 OA
ATOM     15  C   UNL A   1      33.431  29.173  25.594  1.00  0.00     0.044 C 
ATOM     16  C   UNL A   1      33.755  26.690  25.813  1.00  0.00     0.015 A 
ATOM     17  C   UNL A   1      34.070  24.238  26.110  1.00  0.00     0.025 C 
ATOM     18  C   UNL A   1      33.720  22.878  24.080  1.00  0.00     0.314 C 
BRANCH   9  19
ATOM     19  O   UNL A   1      33.708  26.171  21.686  1.00  0.00    -0.493 OA
ATOM     20  C   UNL A   1      32.368  26.047  21.218  1.00  0.00     0.278 C 
ENDBRANCH   9  19
BRANCH  18  21
ATOM     21  C   UNL A   1      32.267  22.465  23.775  1.00  0.00     0.429 C 
ATOM     22  F   UNL A   1      31.989  22.644  22.461  1.00  0.00    -0.167 F 
ATOM     23  F   UNL A   1      32.041  21.154  24.035  1.00  0.00    -0.167 F 
ATOM     24  F   UNL A   1      31.359  23.167  24.487  1.00  0.00    -0.167 F 
ENDBRANCH  18  21
ENDBRANCH   5   8
ENDBRANCH   3   4
ENDBRANCH   2   3
ENDBRANCH   1   2
BRANCH   1  25
ATOM     25  C   UNL A   1      38.657  21.328  25.732  1.00  0.00     0.116 C 
BRANCH  25  26
ATOM     26  N   UNL A   1      39.469  20.123  25.612  1.00  0.00    -0.352 N 
ATOM     27  C   UNL A   1      40.782  19.954  25.997  1.00  0.00     0.251 C 
ATOM     28  H   UNL A   1      39.029  19.340  25.210  1.00  0.00     0.163 HD
ATOM     29  O   UNL A   1      41.375  18.904  25.785  1.00  0.00    -0.269 OA
BRANCH  27  30
ATOM     30  C   UNL A   1      41.479  21.097  26.617  1.00  0.00     0.039 A 
ATOM     31  C   UNL A   1      41.437  21.272  28.001  1.00  0.00     0.014 A 
ATOM     32  C   UNL A   1      42.064  22.060  25.792  1.00  0.00     0.014 A 
ATOM     33  C   UNL A   1      41.813  22.496  28.541  1.00  0.00     0.010 A 
ATOM     34  C   UNL A   1      42.512  23.259  26.348  1.00  0.00     0.010 A 
ATOM     35  C   UNL A   1      42.330  23.510  27.716  1.00  0.00    -0.014 A 
BRANCH  35  36
ATOM     36  C   UNL A   1      42.631  24.838  28.305  1.00  0.00     0.031 A 
ATOM     37  C   UNL A   1      44.047  25.226  28.640  1.00  0.00     0.074 A 
ATOM     38  C   UNL A   1      41.634  25.729  28.462  1.00  0.00     0.049 A 
ATOM     39  N   UNL A   1      44.496  26.359  29.121  1.00  0.00    -0.248 NA
ATOM     40  C   UNL A   1      45.095  24.219  28.407  1.00  0.00     0.031 C 
ATOM     41  C   UNL A   1      40.227  25.480  28.142  1.00  0.00     0.029 A 
ATOM     42  N   UNL A   1      41.655  27.030  28.893  1.00  0.00    -0.354 N 
ATOM     43  C   UNL A   1      45.868  26.192  29.268  1.00  0.00     0.074 A 
ATOM     44  C   UNL A   1      46.179  24.845  28.844  1.00  0.00     0.031 C 
ATOM     45  C   UNL A   1      39.531  26.612  28.325  1.00  0.00     0.029 A 
ATOM     46  C   UNL A   1      40.429  27.644  28.834  1.00  0.00     0.049 A 
ATOM     47  H   UNL A   1      42.469  27.480  29.213  1.00  0.00     0.167 HD
ATOM     48  C   UNL A   1      46.786  27.085  29.709  1.00  0.00     0.031 A 
ATOM     49  C   UNL A   1      40.060  28.898  29.157  1.00  0.00     0.031 A 
ATOM     50  C   UNL A   1      46.480  28.431  30.113  1.00  0.00     0.049 A 
ATOM     51  C   UNL A   1      41.090  29.855  29.680  1.00  0.00     0.074 A 
ATOM     52  C   UNL A   1      47.348  29.410  30.563  1.00  0.00     0.029 A 
ATOM     53  N   UNL A   1      45.211  28.990  30.109  1.00  0.00    -0.354 N 
ATOM     54  N   UNL A   1      42.379  29.674  29.828  1.00  0.00    -0.248 NA
ATOM     55  C   UNL A   1      40.613  31.183  30.091  1.00  0.00     0.031 C 
ATOM     56  C   UNL A   1      46.599  30.549  30.874  1.00  0.00     0.029 A 
ATOM     57  C   UNL A   1      45.272  30.294  30.569  1.00  0.00     0.049 A 
ATOM     58  H   UNL A   1      44.391  28.527  29.821  1.00  0.00     0.167 HD
ATOM     59  C   UNL A   1      42.870  30.864  30.346  1.00  0.00     0.074 A 
ATOM     60  C   UNL A   1      41.744  31.768  30.465  1.00  0.00     0.031 C 
ATOM     61  C   UNL A   1      44.141  31.175  30.694  1.00  0.00     0.031 A 
BRANCH  48  62
ATOM     62  C   UNL A   1      48.216  26.636  29.801  1.00  0.00    -0.014 A 
ATOM     63  C   UNL A   1      49.074  26.818  28.705  1.00  0.00     0.009 A 
ATOM     64  C   UNL A   1      48.693  25.957  30.933  1.00  0.00     0.009 A 
ATOM     65  C   UNL A   1      50.379  26.322  28.735  1.00  0.00     0.001 A 
ATOM     66  C   UNL A   1      50.006  25.481  30.969  1.00  0.00     0.001 A 
ATOM     67  C   UNL A   1      50.844  25.657  29.868  1.00  0.00     0.000 A 
ENDBRANCH  48  62
BRANCH  49  68
ATOM     68  C   UNL A   1      38.643  29.304  28.987  1.00  0.00    -0.014 A 
ATOM     69  C   UNL A   1      37.735  29.181  30.052  1.00  0.00     0.009 A 
ATOM     70  C   UNL A   1      38.177  29.755  27.744  1.00  0.00     0.009 A 
ATOM     71  C   UNL A   1      36.383  29.477  29.867  1.00  0.00     0.001 A 
ATOM     72  C   UNL A   1      36.829  30.075  27.570  1.00  0.00     0.001 A 
ATOM     73  C   UNL A   1      35.932  29.926  28.627  1.00  0.00     0.000 A 
ENDBRANCH  49  68
BRANCH  61  74
ATOM     74  C   UNL A   1      44.394  32.549  31.242  1.00  0.00    -0.014 A 
ATOM     75  C   UNL A   1      44.270  32.785  32.620  1.00  0.00     0.009 A 
ATOM     76  C   UNL A   1      44.666  33.626  30.385  1.00  0.00     0.009 A 
ATOM     77  C   UNL A   1      44.406  34.077  33.130  1.00  0.00     0.001 A 
ATOM     78  C   UNL A   1      44.823  34.914  30.901  1.00  0.00     0.001 A 
ATOM     79  C   UNL A   1      44.685  35.139  32.271  1.00  0.00     0.000 A 
ENDBRANCH  61  74
ENDBRANCH  35  36
ENDBRANCH  27  30
ENDBRANCH  25  26
ENDBRANCH   1  25
TORSDOF 13
ENDMDL
MODEL 2
REMARK VINA RESULT:     -11.6      0.299      5.970
REMARK SMILES COc1cc(C)cc2c1O[C@H](C(F)(F)F)C(C(=O)NCCCCNC(=O)c1ccc(-c3c4nc(c(-c5ccccc5)c5ccc([nH]5)c(-c5ccccc5)c5nc(c(-c6ccccc6)c6ccc3[nH]6)C=C5)C=C4)cc1)=C2
REMARK SMILES IDX 22 1 21 2 20 3 19 4 17 5 18 6 16 8 3 9 4 10 9 11 5 12 8 13
REMARK SMILES IDX 10 14 6 15 7 16 75 17 11 18 2 19 1 20 12 21 13 22 14 23
REMARK SMILES IDX 15 24 23 25 24 26 25 27 26 29 27 30 28 31 74 32 29 33 73 34
REMARK SMILES IDX 30 35 31 36 32 37 67 38 33 39 72 40 66 41 68 42 34 43 71 44
REMARK SMILES IDX 65 45 64 46 35 48 57 49 42 50 56 51 43 52 46 53 55 54 69 55
REMARK SMILES IDX 44 56 45 57 54 59 70 60 47 61 36 62 37 63 41 64 38 65 40 66
REMARK SMILES IDX 39 67 58 68 59 69 63 70 60 71 62 72 61 73 48 74 49 75 53 76
REMARK SMILES IDX 50 77 52 78 51 79
REMARK H PARENT 19 7 24 28 68 47 46 58
REMARK Flexibility Score: inf
ROOT
ATOM      1  C   UNL A   1      37.528  21.332  24.955  1.00  0.00     0.023 C 
ENDROOT
BRANCH   1   2
ATOM      2  C   UNL A   1      36.813  19.979  24.960  1.00  0.00     0.023 C 
BRANCH   2   3
ATOM      3  C   UNL A   1      35.289  20.073  24.954  1.00  0.00     0.116 C 
BRANCH   3   4
ATOM      4  N   UNL A   1      34.780  20.740  26.139  1.00  0.00    -0.352 N 
ATOM      5  C   UNL A   1      34.271  21.958  26.443  1.00  0.00     0.251 C 
ATOM      6  O   UNL A   1      33.960  22.112  27.628  1.00  0.00    -0.270 OA
ATOM      7  H   UNL A   1      34.814  20.153  26.929  1.00  0.00     0.163 HD
BRANCH   5   8
ATOM      8  C   UNL A   1      34.070  23.078  25.475  1.00  0.00     0.067 C 
ATOM      9  C   UNL A   1      33.691  26.363  22.887  1.00  0.00     0.161 A 
ATOM     10  C   UNL A   1      33.499  27.643  23.410  1.00  0.00     0.054 A 
ATOM     11  C   UNL A   1      33.869  25.275  23.744  1.00  0.00     0.169 A 
ATOM     12  C   UNL A   1      33.528  27.848  24.796  1.00  0.00    -0.047 A 
ATOM     13  C   UNL A   1      33.895  25.463  25.127  1.00  0.00     0.021 A 
ATOM     14  O   UNL A   1      34.077  24.046  23.179  1.00  0.00    -0.471 OA
ATOM     15  C   UNL A   1      33.327  29.217  25.375  1.00  0.00     0.044 C 
ATOM     16  C   UNL A   1      33.730  26.751  25.649  1.00  0.00     0.015 A 
ATOM     17  C   UNL A   1      34.123  24.317  25.999  1.00  0.00     0.025 C 
ATOM     18  C   UNL A   1      33.776  22.897  24.012  1.00  0.00     0.314 C 
BRANCH   9  19
ATOM     19  O   UNL A   1      33.621  26.127  21.537  1.00  0.00    -0.493 OA
ATOM     20  C   UNL A   1      32.278  25.933  21.102  1.00  0.00     0.278 C 
ENDBRANCH   9  19
BRANCH  18  21
ATOM     21  C   UNL A   1      32.331  22.434  23.745  1.00  0.00     0.429 C 
ATOM     22  F   UNL A   1      31.472  23.044  24.597  1.00  0.00    -0.167 F 
ATOM     23  F   UNL A   1      31.913  22.752  22.495  1.00  0.00    -0.167 F 
ATOM     24  F   UNL A   1      32.171  21.100  23.883  1.00  0.00    -0.167 F 
ENDBRANCH  18  21
ENDBRANCH   5   8
ENDBRANCH   3   4
ENDBRANCH   2   3
ENDBRANCH   1   2
BRANCH   1  25
ATOM     25  C   UNL A   1      38.840  21.384  25.733  1.00  0.00     0.116 C 
BRANCH  25  26
ATOM     26  N   UNL A   1      39.628  20.159  25.674  1.00  0.00    -0.352 N 
ATOM     27  C   UNL A   1      40.942  19.987  26.052  1.00  0.00     0.251 C 
ATOM     28  H   UNL A   1      39.168  19.363  25.323  1.00  0.00     0.163 HD
ATOM     29  O   UNL A   1      41.512  18.914  25.894  1.00  0.00    -0.269 OA
BRANCH  27  30
ATOM     30  C   UNL A   1      41.669  21.150  26.596  1.00  0.00     0.039 A 
ATOM     31  C   UNL A   1      41.646  21.407  27.967  1.00  0.00     0.014 A 
ATOM     32  C   UNL A   1      42.263  22.050  25.709  1.00  0.00     0.014 A 
ATOM     33  C   UNL A   1      42.053  22.652  28.430  1.00  0.00     0.010 A 
ATOM     34  C   UNL A   1      42.741  23.270  26.189  1.00  0.00     0.010 A 
ATOM     35  C   UNL A   1      42.580  23.605  27.542  1.00  0.00    -0.014 A 
BRANCH  35  36
ATOM     36  C   UNL A   1      42.914  24.960  28.049  1.00  0.00     0.031 A 
ATOM     37  C   UNL A   1      41.831  25.983  28.273  1.00  0.00     0.074 A 
ATOM     38  C   UNL A   1      44.186  25.240  28.385  1.00  0.00     0.049 A 
ATOM     39  N   UNL A   1      41.937  27.199  28.750  1.00  0.00    -0.248 NA
ATOM     40  C   UNL A   1      40.455  25.597  27.922  1.00  0.00     0.031 C 
ATOM     41  C   UNL A   1      45.315  24.319  28.244  1.00  0.00     0.029 A 
ATOM     42  N   UNL A   1      44.736  26.363  28.948  1.00  0.00    -0.354 N 
ATOM     43  C   UNL A   1      40.652  27.727  28.733  1.00  0.00     0.074 A 
ATOM     44  C   UNL A   1      39.783  26.709  28.184  1.00  0.00     0.031 C 
ATOM     45  C   UNL A   1      46.411  24.889  28.768  1.00  0.00     0.029 A 
ATOM     46  C   UNL A   1      46.076  26.235  29.222  1.00  0.00     0.049 A 
ATOM     47  H   UNL A   1      44.223  27.180  29.136  1.00  0.00     0.167 HD
ATOM     48  C   UNL A   1      40.233  28.946  29.146  1.00  0.00     0.031 A 
ATOM     49  C   UNL A   1      46.944  27.102  29.773  1.00  0.00     0.031 A 
ATOM     50  C   UNL A   1      41.094  29.952  29.710  1.00  0.00     0.049 A 
ATOM     51  C   UNL A   1      46.463  28.462  30.186  1.00  0.00     0.074 A 
ATOM     52  C   UNL A   1      40.756  31.213  30.167  1.00  0.00     0.029 A 
ATOM     53  N   UNL A   1      42.459  29.808  29.901  1.00  0.00    -0.354 N 
ATOM     54  N   UNL A   1      45.247  28.949  30.147  1.00  0.00    -0.248 NA
ATOM     55  C   UNL A   1      47.472  29.393  30.708  1.00  0.00     0.031 C 
ATOM     56  C   UNL A   1      41.924  31.851  30.594  1.00  0.00     0.029 A 
ATOM     57  C   UNL A   1      42.981  30.967  30.450  1.00  0.00     0.049 A 
ATOM     58  H   UNL A   1      42.979  29.002  29.679  1.00  0.00     0.167 HD
ATOM     59  C   UNL A   1      45.343  30.243  30.641  1.00  0.00     0.074 A 
ATOM     60  C   UNL A   1      46.732  30.456  30.994  1.00  0.00     0.031 C 
ATOM     61  C   UNL A   1      44.366  31.169  30.784  1.00  0.00     0.031 A 
BRANCH  48  62
ATOM     62  C   UNL A   1      38.778  29.282  28.988  1.00  0.00    -0.014 A 
ATOM     63  C   UNL A   1      37.901  29.100  30.070  1.00  0.00     0.009 A 
ATOM     64  C   UNL A   1      38.256  29.692  27.751  1.00  0.00     0.009 A 
ATOM     65  C   UNL A   1      36.530  29.313  29.916  1.00  0.00     0.001 A 
ATOM     66  C   UNL A   1      36.887  29.926  27.606  1.00  0.00     0.001 A 
ATOM     67  C   UNL A   1      36.026  29.730  28.685  1.00  0.00     0.000 A 
ENDBRANCH  48  62
BRANCH  49  68
ATOM     68  C   UNL A   1      48.358  26.694  29.961  1.00  0.00    -0.014 A 
ATOM     69  C   UNL A   1      49.320  26.988  28.980  1.00  0.00     0.009 A 
ATOM     70  C   UNL A   1      48.740  25.953  31.088  1.00  0.00     0.009 A 
ATOM     71  C   UNL A   1      50.630  26.525  29.112  1.00  0.00     0.001 A 
ATOM     72  C   UNL A   1      50.058  25.514  31.230  1.00  0.00     0.001 A 
ATOM     73  C   UNL A   1      50.999  25.791  30.238  1.00  0.00     0.000 A 
ENDBRANCH  49  68
BRANCH  61  74
ATOM     74  C   UNL A   1      44.753  32.506  31.344  1.00  0.00    -0.014 A 
ATOM     75  C   UNL A   1      45.183  33.527  30.481  1.00  0.00     0.009 A 
ATOM     76  C   UNL A   1      44.779  32.725  32.729  1.00  0.00     0.009 A 
ATOM     77  C   UNL A   1      45.639  34.740  30.996  1.00  0.00     0.001 A 
ATOM     78  C   UNL A   1      45.215  33.949  33.240  1.00  0.00     0.001 A 
ATOM     79  C   UNL A   1      45.652  34.951  32.374  1.00  0.00     0.000 A 
ENDBRANCH  61  74
ENDBRANCH  35  36
ENDBRANCH  27  30
ENDBRANCH  25  26
ENDBRANCH   1  25
TORSDOF 13
ENDMDL
MODEL 3
REMARK VINA RESULT:     -11.5      4.578      9.398
REMARK SMILES COc1cc(C)cc2c1O[C@H](C(F)(F)F)C(C(=O)NCCCCNC(=O)c1ccc(-c3c4nc(c(-c5ccccc5)c5ccc([nH]5)c(-c5ccccc5)c5nc(c(-c6ccccc6)c6ccc3[nH]6)C=C5)C=C4)cc1)=C2
REMARK SMILES IDX 22 1 21 2 20 3 19 4 17 5 18 6 16 8 3 9 4 10 9 11 5 12 8 13
REMARK SMILES IDX 10 14 6 15 7 16 75 17 11 18 2 19 1 20 12 21 13 22 14 23
REMARK SMILES IDX 15 24 23 25 24 26 25 27 26 29 27 30 28 31 74 32 29 33 73 34
REMARK SMILES IDX 30 35 31 36 32 37 67 38 33 39 72 40 66 41 68 42 34 43 71 44
REMARK SMILES IDX 65 45 64 46 35 48 57 49 42 50 56 51 43 52 46 53 55 54 69 55
REMARK SMILES IDX 44 56 45 57 54 59 70 60 47 61 36 62 37 63 41 64 38 65 40 66
REMARK SMILES IDX 39 67 58 68 59 69 63 70 60 71 62 72 61 73 48 74 49 75 53 76
REMARK SMILES IDX 50 77 52 78 51 79
REMARK H PARENT 19 7 24 28 68 47 46 58
REMARK Flexibility Score: inf
ROOT
ATOM      1  C   UNL A   1      32.082  31.552  27.004  1.00  0.00     0.023 C 
ENDROOT
BRANCH   1   2
ATOM      2  C   UNL A   1      32.527  30.109  27.256  1.00  0.00     0.023 C 
BRANCH   2   3
ATOM      3  C   UNL A   1      33.958  29.807  26.818  1.00  0.00     0.116 C 
BRANCH   3   4
ATOM      4  N   UNL A   1      34.028  29.401  25.426  1.00  0.00    -0.352 N 
ATOM      5  C   UNL A   1      33.637  28.334  24.689  1.00  0.00     0.251 C 
ATOM      6  O   UNL A   1      33.919  28.398  23.489  1.00  0.00    -0.270 OA
ATOM      7  H   UNL A   1      34.479  30.079  24.872  1.00  0.00     0.163 HD
BRANCH   5   8
ATOM      8  C   UNL A   1      32.915  27.137  25.216  1.00  0.00     0.067 C 
ATOM      9  C   UNL A   1      31.101  23.717  26.843  1.00  0.00     0.161 A 
ATOM     10  C   UNL A   1      31.778  22.496  26.829  1.00  0.00     0.054 A 
ATOM     11  C   UNL A   1      31.719  24.868  26.350  1.00  0.00     0.169 A 
ATOM     12  C   UNL A   1      33.097  22.429  26.362  1.00  0.00    -0.047 A 
ATOM     13  C   UNL A   1      33.032  24.815  25.876  1.00  0.00     0.021 A 
ATOM     14  O   UNL A   1      31.021  26.043  26.409  1.00  0.00    -0.471 OA
ATOM     15  C   UNL A   1      33.841  21.126  26.343  1.00  0.00     0.044 C 
ATOM     16  C   UNL A   1      33.718  23.596  25.888  1.00  0.00     0.015 A 
ATOM     17  C   UNL A   1      33.670  26.038  25.404  1.00  0.00     0.025 C 
ATOM     18  C   UNL A   1      31.438  27.085  25.490  1.00  0.00     0.314 C 
BRANCH   9  19
ATOM     19  O   UNL A   1      29.794  23.803  27.252  1.00  0.00    -0.493 OA
ATOM     20  C   UNL A   1      29.153  22.530  27.250  1.00  0.00     0.278 C 
ENDBRANCH   9  19
BRANCH  18  21
ATOM     21  C   UNL A   1      30.593  27.003  24.204  1.00  0.00     0.429 C 
ATOM     22  F   UNL A   1      29.401  26.410  24.456  1.00  0.00    -0.167 F 
ATOM     23  F   UNL A   1      30.308  28.228  23.699  1.00  0.00    -0.167 F 
ATOM     24  F   UNL A   1      31.199  26.306  23.218  1.00  0.00    -0.167 F 
ENDBRANCH  18  21
ENDBRANCH   5   8
ENDBRANCH   3   4
ENDBRANCH   2   3
ENDBRANCH   1   2
BRANCH   1  25
ATOM     25  C   UNL A   1      33.099  32.627  27.381  1.00  0.00     0.116 C 
BRANCH  25  26
ATOM     26  N   UNL A   1      32.524  33.943  27.629  1.00  0.00    -0.352 N 
ATOM     27  C   UNL A   1      32.969  34.900  28.516  1.00  0.00     0.251 C 
ATOM     28  H   UNL A   1      31.726  34.175  27.102  1.00  0.00     0.163 HD
ATOM     29  O   UNL A   1      32.357  35.949  28.677  1.00  0.00    -0.269 OA
BRANCH  27  30
ATOM     30  C   UNL A   1      34.169  34.601  29.319  1.00  0.00     0.039 A 
ATOM     31  C   UNL A   1      35.437  34.707  28.744  1.00  0.00     0.014 A 
ATOM     32  C   UNL A   1      34.010  34.091  30.609  1.00  0.00     0.014 A 
ATOM     33  C   UNL A   1      36.524  34.130  29.388  1.00  0.00     0.010 A 
ATOM     34  C   UNL A   1      35.118  33.580  31.286  1.00  0.00     0.010 A 
ATOM     35  C   UNL A   1      36.370  33.538  30.653  1.00  0.00    -0.014 A 
BRANCH  35  36
ATOM     36  C   UNL A   1      37.526  32.843  31.272  1.00  0.00     0.031 A 
ATOM     37  C   UNL A   1      38.027  33.251  32.633  1.00  0.00     0.074 A 
ATOM     38  C   UNL A   1      38.074  31.788  30.641  1.00  0.00     0.049 A 
ATOM     39  N   UNL A   1      38.997  32.727  33.341  1.00  0.00    -0.248 NA
ATOM     40  C   UNL A   1      37.357  34.388  33.286  1.00  0.00     0.031 C 
ATOM     41  C   UNL A   1      37.653  31.279  29.335  1.00  0.00     0.029 A 
ATOM     42  N   UNL A   1      39.074  30.934  31.028  1.00  0.00    -0.354 N 
ATOM     43  C   UNL A   1      39.068  33.482  34.506  1.00  0.00     0.074 A 
ATOM     44  C   UNL A   1      38.057  34.512  34.405  1.00  0.00     0.031 C 
ATOM     45  C   UNL A   1      38.343  30.163  29.058  1.00  0.00     0.029 A 
ATOM     46  C   UNL A   1      39.297  29.915  30.135  1.00  0.00     0.049 A 
ATOM     47  H   UNL A   1      39.582  31.040  31.863  1.00  0.00     0.167 HD
ATOM     48  C   UNL A   1      39.895  33.326  35.566  1.00  0.00     0.031 A 
ATOM     49  C   UNL A   1      40.173  28.894  30.171  1.00  0.00     0.031 A 
ATOM     50  C   UNL A   1      40.888  32.291  35.675  1.00  0.00     0.049 A 
ATOM     51  C   UNL A   1      41.105  28.766  31.340  1.00  0.00     0.074 A 
ATOM     52  C   UNL A   1      41.764  32.048  36.719  1.00  0.00     0.029 A 
ATOM     53  N   UNL A   1      41.131  31.323  34.713  1.00  0.00    -0.354 N 
ATOM     54  N   UNL A   1      41.168  29.500  32.423  1.00  0.00    -0.248 NA
ATOM     55  C   UNL A   1      42.092  27.679  31.285  1.00  0.00     0.031 C 
ATOM     56  C   UNL A   1      42.569  30.960  36.369  1.00  0.00     0.029 A 
ATOM     57  C   UNL A   1      42.159  30.495  35.130  1.00  0.00     0.049 A 
ATOM     58  H   UNL A   1      40.645  31.239  33.861  1.00  0.00     0.167 HD
ATOM     59  C   UNL A   1      42.199  28.963  33.183  1.00  0.00     0.074 A 
ATOM     60  C   UNL A   1      42.718  27.829  32.445  1.00  0.00     0.031 C 
ATOM     61  C   UNL A   1      42.672  29.379  34.381  1.00  0.00     0.031 A 
BRANCH  48  62
ATOM     62  C   UNL A   1      39.784  34.308  36.697  1.00  0.00    -0.014 A 
ATOM     63  C   UNL A   1      40.603  35.449  36.711  1.00  0.00     0.009 A 
ATOM     64  C   UNL A   1      38.937  34.065  37.790  1.00  0.00     0.009 A 
ATOM     65  C   UNL A   1      40.584  36.323  37.800  1.00  0.00     0.001 A 
ATOM     66  C   UNL A   1      38.904  34.953  38.868  1.00  0.00     0.001 A 
ATOM     67  C   UNL A   1      39.732  36.075  38.875  1.00  0.00     0.000 A 
ENDBRANCH  48  62
BRANCH  49  68
ATOM     68  C   UNL A   1      40.196  27.918  29.054  1.00  0.00    -0.014 A 
ATOM     69  C   UNL A   1      40.927  28.190  27.886  1.00  0.00     0.009 A 
ATOM     70  C   UNL A   1      39.437  26.741  29.123  1.00  0.00     0.009 A 
ATOM     71  C   UNL A   1      40.877  27.315  26.799  1.00  0.00     0.001 A 
ATOM     72  C   UNL A   1      39.409  25.856  28.044  1.00  0.00     0.001 A 
ATOM     73  C   UNL A   1      40.120  26.147  26.880  1.00  0.00     0.000 A 
ENDBRANCH  49  68
BRANCH  61  74
ATOM     74  C   UNL A   1      43.814  28.611  34.980  1.00  0.00    -0.014 A 
ATOM     75  C   UNL A   1      43.555  27.534  35.844  1.00  0.00     0.009 A 
ATOM     76  C   UNL A   1      45.141  29.009  34.762  1.00  0.00     0.009 A 
ATOM     77  C   UNL A   1      44.605  26.876  36.484  1.00  0.00     0.001 A 
ATOM     78  C   UNL A   1      46.190  28.333  35.387  1.00  0.00     0.001 A 
ATOM     79  C   UNL A   1      45.920  27.273  36.253  1.00  0.00     0.000 A 
ENDBRANCH  61  74
ENDBRANCH  35  36
ENDBRANCH  27  30
ENDBRANCH  25  26
ENDBRANCH   1  25
TORSDOF 13
ENDMDL
