MODEL 1
REMARK VINA RESULT:     -11.6      0.000      0.000
REMARK SMILES O=C(NCCCCNC(=O)[C@H]1C[NH2+]CCN1c1ncc(C(F)(F)F)cc1Cl)c1ccc(-c2c3nc(c(-c4ccccc4)c4ccc([nH]4)c(-c4ccccc4)c4nc(c(-c5ccccc5)c5ccc2[nH]5)C=C4)C=C3)cc1
REMARK SMILES IDX 5 1 4 2 3 3 1 4 2 5 28 7 29 8 75 9 30 10 74 11 31 12 32 13
REMARK SMILES IDX 33 14 68 15 34 16 73 17 67 18 69 19 35 20 72 21 66 22 65 23
REMARK SMILES IDX 36 25 58 26 43 27 57 28 44 29 47 30 56 31 70 32 45 33 46 34
REMARK SMILES IDX 55 36 71 37 48 38 37 39 38 40 42 41 39 42 41 43 40 44 59 45
REMARK SMILES IDX 60 46 64 47 61 48 63 49 62 50 49 51 50 52 54 53 51 54 53 55
REMARK SMILES IDX 52 56 6 57 7 58 8 59 9 60 10 62 11 63 12 64 16 65 13 66
REMARK SMILES IDX 15 67 14 68 17 71 18 72 26 73 19 74 25 75 27 76 20 77 21 78
REMARK SMILES IDX 22 79 23 80 24 81
REMARK H PARENT 3 6 69 24 47 35 8 61 13 69 13 70
REMARK Flexibility Score: inf
ROOT
ATOM      1  C   UNL A   1      37.435  19.724  24.971  1.00  0.00     0.023 C 
ENDROOT
BRANCH   1   2
ATOM      2  C   UNL A   1      38.663  20.299  25.666  1.00  0.00     0.116 C 
BRANCH   2   3
ATOM      3  N   UNL A   1      39.788  19.378  25.692  1.00  0.00    -0.352 N 
ATOM      4  O   UNL A   1      41.941  18.737  25.890  1.00  0.00    -0.269 OA
ATOM      5  C   UNL A   1      41.093  19.608  26.056  1.00  0.00     0.251 C 
ATOM      6  H   UNL A   1      39.586  18.459  25.406  1.00  0.00     0.163 HD
BRANCH   5   7
ATOM      7  C   UNL A   1      41.482  20.917  26.626  1.00  0.00     0.039 A 
ATOM      8  C   UNL A   1      41.387  21.158  27.998  1.00  0.00     0.014 A 
ATOM      9  C   UNL A   1      41.960  21.913  25.769  1.00  0.00     0.014 A 
ATOM     10  C   UNL A   1      41.640  22.434  28.493  1.00  0.00     0.010 A 
ATOM     11  C   UNL A   1      42.288  23.172  26.280  1.00  0.00     0.010 A 
ATOM     12  C   UNL A   1      42.103  23.451  27.643  1.00  0.00    -0.014 A 
BRANCH  12  13
ATOM     13  C   UNL A   1      42.449  24.777  28.214  1.00  0.00     0.031 A 
ATOM     14  C   UNL A   1      43.863  25.121  28.590  1.00  0.00     0.074 A 
ATOM     15  C   UNL A   1      41.471  25.691  28.361  1.00  0.00     0.049 A 
ATOM     16  N   UNL A   1      44.334  26.243  29.075  1.00  0.00    -0.248 NA
ATOM     17  C   UNL A   1      44.879  24.073  28.406  1.00  0.00     0.031 C 
ATOM     18  C   UNL A   1      40.060  25.476  28.030  1.00  0.00     0.029 A 
ATOM     19  N   UNL A   1      41.514  26.987  28.806  1.00  0.00    -0.354 N 
ATOM     20  C   UNL A   1      45.695  26.033  29.268  1.00  0.00     0.074 A 
ATOM     21  C   UNL A   1      45.970  24.669  28.870  1.00  0.00     0.031 C 
ATOM     22  C   UNL A   1      39.383  26.616  28.232  1.00  0.00     0.029 A 
ATOM     23  C   UNL A   1      40.296  27.619  28.767  1.00  0.00     0.049 A 
ATOM     24  H   UNL A   1      42.339  27.422  29.123  1.00  0.00     0.167 HD
ATOM     25  C   UNL A   1      46.628  26.901  29.729  1.00  0.00     0.031 A 
ATOM     26  C   UNL A   1      39.945  28.866  29.132  1.00  0.00     0.031 A 
ATOM     27  C   UNL A   1      46.352  28.257  30.127  1.00  0.00     0.049 A 
ATOM     28  C   UNL A   1      40.991  29.790  29.678  1.00  0.00     0.074 A 
ATOM     29  C   UNL A   1      47.237  29.218  30.586  1.00  0.00     0.029 A 
ATOM     30  N   UNL A   1      45.096  28.844  30.119  1.00  0.00    -0.354 N 
ATOM     31  N   UNL A   1      42.276  29.582  29.831  1.00  0.00    -0.248 NA
ATOM     32  C   UNL A   1      40.537  31.119  30.107  1.00  0.00     0.031 C 
ATOM     33  C   UNL A   1      46.508  30.371  30.901  1.00  0.00     0.029 A 
ATOM     34  C   UNL A   1      45.178  30.145  30.587  1.00  0.00     0.049 A 
ATOM     35  H   UNL A   1      44.268  28.400  29.824  1.00  0.00     0.167 HD
ATOM     36  C   UNL A   1      42.788  30.759  30.357  1.00  0.00     0.074 A 
ATOM     37  C   UNL A   1      41.679  31.683  30.478  1.00  0.00     0.031 C 
ATOM     38  C   UNL A   1      44.064  31.048  30.710  1.00  0.00     0.031 A 
BRANCH  25  39
ATOM     39  C   UNL A   1      48.041  26.402  29.853  1.00  0.00    -0.014 A 
ATOM     40  C   UNL A   1      48.503  25.810  31.039  1.00  0.00     0.009 A 
ATOM     41  C   UNL A   1      48.906  26.477  28.750  1.00  0.00     0.009 A 
ATOM     42  C   UNL A   1      49.813  25.329  31.125  1.00  0.00     0.001 A 
ATOM     43  C   UNL A   1      50.206  25.974  28.831  1.00  0.00     0.001 A 
ATOM     44  C   UNL A   1      50.661  25.407  30.021  1.00  0.00     0.000 A 
ENDBRANCH  25  39
BRANCH  26  45
ATOM     45  C   UNL A   1      38.531  29.303  28.998  1.00  0.00    -0.014 A 
ATOM     46  C   UNL A   1      38.050  29.791  27.774  1.00  0.00     0.009 A 
ATOM     47  C   UNL A   1      37.654  29.217  30.090  1.00  0.00     0.009 A 
ATOM     48  C   UNL A   1      36.721  30.201  27.653  1.00  0.00     0.001 A 
ATOM     49  C   UNL A   1      36.319  29.600  29.956  1.00  0.00     0.001 A 
ATOM     50  C   UNL A   1      35.856  30.100  28.741  1.00  0.00     0.000 A 
ENDBRANCH  26  45
BRANCH  38  51
ATOM     51  C   UNL A   1      44.326  32.430  31.237  1.00  0.00    -0.014 A 
ATOM     52  C   UNL A   1      44.267  32.706  32.612  1.00  0.00     0.009 A 
ATOM     53  C   UNL A   1      44.657  33.462  30.347  1.00  0.00     0.009 A 
ATOM     54  C   UNL A   1      44.503  34.000  33.081  1.00  0.00     0.001 A 
ATOM     55  C   UNL A   1      44.919  34.748  30.821  1.00  0.00     0.001 A 
ATOM     56  C   UNL A   1      44.831  35.019  32.186  1.00  0.00     0.000 A 
ENDBRANCH  38  51
ENDBRANCH  12  13
ENDBRANCH   5   7
ENDBRANCH   2   3
ENDBRANCH   1   2
BRANCH   1  57
ATOM     57  C   UNL A   1      36.206  20.636  24.928  1.00  0.00     0.023 C 
BRANCH  57  58
ATOM     58  C   UNL A   1      36.314  21.923  25.743  1.00  0.00     0.116 C 
BRANCH  58  59
ATOM     59  N   UNL A   1      35.410  21.929  26.875  1.00  0.00    -0.354 N 
ATOM     60  C   UNL A   1      34.132  22.391  26.989  1.00  0.00     0.248 C 
ATOM     61  H   UNL A   1      35.779  21.533  27.698  1.00  0.00     0.163 HD
ATOM     62  O   UNL A   1      33.590  22.242  28.090  1.00  0.00    -0.272 OA
BRANCH  60  63
ATOM     63  C   UNL A   1      33.408  23.057  25.793  1.00  0.00     0.228 C 
ATOM     64  C   UNL A   1      32.754  21.940  24.929  1.00  0.00     0.296 C 
ATOM     65  N   UNL A   1      32.357  23.984  26.256  1.00  0.00    -0.333 N 
ATOM     66  N   UNL A   1      31.582  21.266  25.542  1.00  0.00    -0.343 N 
ATOM     67  C   UNL A   1      31.184  23.386  26.896  1.00  0.00     0.180 C 
ATOM     68  C   UNL A   1      30.602  22.288  25.969  1.00  0.00     0.282 C 
ATOM     69  H   UNL A   1      31.886  20.725  26.352  1.00  0.00     0.346 HD
ATOM     70  H   UNL A   1      31.152  20.640  24.861  1.00  0.00     0.346 HD
BRANCH  65  71
ATOM     71  C   UNL A   1      32.489  25.350  26.268  1.00  0.00     0.148 A 
ATOM     72  N   UNL A   1      31.482  26.051  26.847  1.00  0.00    -0.237 NA
ATOM     73  C   UNL A   1      33.548  26.029  25.642  1.00  0.00     0.084 A 
ATOM     74  C   UNL A   1      31.518  27.406  26.821  1.00  0.00     0.126 A 
ATOM     75  C   UNL A   1      33.560  27.427  25.621  1.00  0.00     0.039 A 
ATOM     76  Cl  UNL A   1      34.805  25.228  24.766  1.00  0.00    -0.080 Cl
ATOM     77  C   UNL A   1      32.524  28.142  26.221  1.00  0.00     0.075 A 
BRANCH  77  78
ATOM     78  C   UNL A   1      32.465  29.637  26.220  1.00  0.00     0.417 C 
ATOM     79  F   UNL A   1      31.817  30.135  25.134  1.00  0.00    -0.166 F 
ATOM     80  F   UNL A   1      31.812  30.130  27.307  1.00  0.00    -0.166 F 
ATOM     81  F   UNL A   1      33.693  30.225  26.223  1.00  0.00    -0.166 F 
ENDBRANCH  77  78
ENDBRANCH  65  71
ENDBRANCH  60  63
ENDBRANCH  58  59
ENDBRANCH  57  58
ENDBRANCH   1  57
TORSDOF 13
ENDMDL
MODEL 2
REMARK VINA RESULT:     -11.5      3.182      4.149
REMARK SMILES O=C(NCCCCNC(=O)[C@H]1C[NH2+]CCN1c1ncc(C(F)(F)F)cc1Cl)c1ccc(-c2c3nc(c(-c4ccccc4)c4ccc([nH]4)c(-c4ccccc4)c4nc(c(-c5ccccc5)c5ccc2[nH]5)C=C4)C=C3)cc1
REMARK SMILES IDX 5 1 4 2 3 3 1 4 2 5 28 7 29 8 75 9 30 10 74 11 31 12 32 13
REMARK SMILES IDX 33 14 68 15 34 16 73 17 67 18 69 19 35 20 72 21 66 22 65 23
REMARK SMILES IDX 36 25 58 26 43 27 57 28 44 29 47 30 56 31 70 32 45 33 46 34
REMARK SMILES IDX 55 36 71 37 48 38 37 39 38 40 42 41 39 42 41 43 40 44 59 45
REMARK SMILES IDX 60 46 64 47 61 48 63 49 62 50 49 51 50 52 54 53 51 54 53 55
REMARK SMILES IDX 52 56 6 57 7 58 8 59 9 60 10 62 11 63 12 64 16 65 13 66
REMARK SMILES IDX 15 67 14 68 17 71 18 72 26 73 19 74 25 75 27 76 20 77 21 78
REMARK SMILES IDX 22 79 23 80 24 81
REMARK H PARENT 3 6 69 24 47 35 8 61 13 69 13 70
REMARK Flexibility Score: inf
ROOT
ATOM      1  C   UNL A   1      37.482  19.717  24.938  1.00  0.00     0.023 C 
ENDROOT
BRANCH   1   2
ATOM      2  C   UNL A   1      38.708  20.292  25.638  1.00  0.00     0.116 C 
BRANCH   2   3
ATOM      3  N   UNL A   1      39.826  19.363  25.684  1.00  0.00    -0.352 N 
ATOM      4  O   UNL A   1      41.973  18.709  25.909  1.00  0.00    -0.269 OA
ATOM      5  C   UNL A   1      41.129  19.588  26.059  1.00  0.00     0.251 C 
ATOM      6  H   UNL A   1      39.621  18.442  25.404  1.00  0.00     0.163 HD
BRANCH   5   7
ATOM      7  C   UNL A   1      41.521  20.899  26.620  1.00  0.00     0.039 A 
ATOM      8  C   UNL A   1      41.438  21.145  27.992  1.00  0.00     0.014 A 
ATOM      9  C   UNL A   1      41.990  21.893  25.756  1.00  0.00     0.014 A 
ATOM     10  C   UNL A   1      41.694  22.423  28.481  1.00  0.00     0.010 A 
ATOM     11  C   UNL A   1      42.321  23.155  26.260  1.00  0.00     0.010 A 
ATOM     12  C   UNL A   1      42.148  23.438  27.623  1.00  0.00    -0.014 A 
BRANCH  12  13
ATOM     13  C   UNL A   1      42.497  24.766  28.185  1.00  0.00     0.031 A 
ATOM     14  C   UNL A   1      43.914  25.115  28.544  1.00  0.00     0.074 A 
ATOM     15  C   UNL A   1      41.519  25.678  28.342  1.00  0.00     0.049 A 
ATOM     16  N   UNL A   1      44.388  26.240  29.020  1.00  0.00    -0.248 NA
ATOM     17  C   UNL A   1      44.932  24.069  28.350  1.00  0.00     0.031 C 
ATOM     18  C   UNL A   1      40.104  25.458  28.029  1.00  0.00     0.029 A 
ATOM     19  N   UNL A   1      41.563  26.975  28.783  1.00  0.00    -0.354 N 
ATOM     20  C   UNL A   1      45.752  26.034  29.196  1.00  0.00     0.074 A 
ATOM     21  C   UNL A   1      46.026  24.670  28.799  1.00  0.00     0.031 C 
ATOM     22  C   UNL A   1      39.426  26.597  28.237  1.00  0.00     0.029 A 
ATOM     23  C   UNL A   1      40.343  27.604  28.758  1.00  0.00     0.049 A 
ATOM     24  H   UNL A   1      42.390  27.413  29.089  1.00  0.00     0.167 HD
ATOM     25  C   UNL A   1      46.688  26.906  29.643  1.00  0.00     0.031 A 
ATOM     26  C   UNL A   1      39.992  28.851  29.123  1.00  0.00     0.031 A 
ATOM     27  C   UNL A   1      46.413  28.263  30.041  1.00  0.00     0.049 A 
ATOM     28  C   UNL A   1      41.043  29.779  29.654  1.00  0.00     0.074 A 
ATOM     29  C   UNL A   1      47.301  29.228  30.487  1.00  0.00     0.029 A 
ATOM     30  N   UNL A   1      45.156  28.846  30.047  1.00  0.00    -0.354 N 
ATOM     31  N   UNL A   1      42.330  29.575  29.791  1.00  0.00    -0.248 NA
ATOM     32  C   UNL A   1      40.590  31.108  30.085  1.00  0.00     0.031 C 
ATOM     33  C   UNL A   1      46.573  30.379  30.807  1.00  0.00     0.029 A 
ATOM     34  C   UNL A   1      45.240  30.149  30.510  1.00  0.00     0.049 A 
ATOM     35  H   UNL A   1      44.325  28.399  29.763  1.00  0.00     0.167 HD
ATOM     36  C   UNL A   1      42.845  30.755  30.308  1.00  0.00     0.074 A 
ATOM     37  C   UNL A   1      41.735  31.676  30.440  1.00  0.00     0.031 C 
ATOM     38  C   UNL A   1      44.124  31.049  30.644  1.00  0.00     0.031 A 
BRANCH  25  39
ATOM     39  C   UNL A   1      48.104  26.411  29.751  1.00  0.00    -0.014 A 
ATOM     40  C   UNL A   1      49.011  26.561  28.690  1.00  0.00     0.009 A 
ATOM     41  C   UNL A   1      48.553  25.836  30.950  1.00  0.00     0.009 A 
ATOM     42  C   UNL A   1      50.330  26.119  28.820  1.00  0.00     0.001 A 
ATOM     43  C   UNL A   1      49.877  25.417  31.086  1.00  0.00     0.001 A 
ATOM     44  C   UNL A   1      50.763  25.552  30.018  1.00  0.00     0.000 A 
ENDBRANCH  25  39
BRANCH  26  45
ATOM     45  C   UNL A   1      38.576  29.283  29.005  1.00  0.00    -0.014 A 
ATOM     46  C   UNL A   1      38.075  29.756  27.783  1.00  0.00     0.009 A 
ATOM     47  C   UNL A   1      37.716  29.209  30.111  1.00  0.00     0.009 A 
ATOM     48  C   UNL A   1      36.744  30.162  27.678  1.00  0.00     0.001 A 
ATOM     49  C   UNL A   1      36.378  29.588  29.994  1.00  0.00     0.001 A 
ATOM     50  C   UNL A   1      35.895  30.072  28.780  1.00  0.00     0.000 A 
ENDBRANCH  26  45
BRANCH  38  51
ATOM     51  C   UNL A   1      44.389  32.432  31.164  1.00  0.00    -0.014 A 
ATOM     52  C   UNL A   1      44.337  32.715  32.538  1.00  0.00     0.009 A 
ATOM     53  C   UNL A   1      44.716  33.462  30.268  1.00  0.00     0.009 A 
ATOM     54  C   UNL A   1      44.575  34.010  33.001  1.00  0.00     0.001 A 
ATOM     55  C   UNL A   1      44.980  34.749  30.736  1.00  0.00     0.001 A 
ATOM     56  C   UNL A   1      44.898  35.025  32.100  1.00  0.00     0.000 A 
ENDBRANCH  38  51
ENDBRANCH  12  13
ENDBRANCH   5   7
ENDBRANCH   2   3
ENDBRANCH   1   2
BRANCH   1  57
ATOM     57  C   UNL A   1      36.284  20.662  24.813  1.00  0.00     0.023 C 
BRANCH  57  58
ATOM     58  C   UNL A   1      36.289  21.860  25.760  1.00  0.00     0.116 C 
BRANCH  58  59
ATOM     59  N   UNL A   1      35.790  23.061  25.122  1.00  0.00    -0.354 N 
ATOM     60  C   UNL A   1      34.539  23.604  25.106  1.00  0.00     0.248 C 
ATOM     61  H   UNL A   1      36.466  23.569  24.618  1.00  0.00     0.163 HD
ATOM     62  O   UNL A   1      34.409  24.665  24.485  1.00  0.00    -0.272 OA
BRANCH  60  63
ATOM     63  C   UNL A   1      33.357  22.921  25.837  1.00  0.00     0.228 C 
ATOM     64  C   UNL A   1      32.465  24.028  26.471  1.00  0.00     0.296 C 
ATOM     65  N   UNL A   1      32.540  22.125  24.900  1.00  0.00    -0.333 N 
ATOM     66  N   UNL A   1      31.682  24.844  25.509  1.00  0.00    -0.343 N 
ATOM     67  C   UNL A   1      31.763  22.868  23.905  1.00  0.00     0.180 C 
ATOM     68  C   UNL A   1      30.911  23.944  24.624  1.00  0.00     0.282 C 
ATOM     69  H   UNL A   1      32.318  25.412  24.948  1.00  0.00     0.346 HD
ATOM     70  H   UNL A   1      31.044  25.456  26.017  1.00  0.00     0.346 HD
BRANCH  65  71
ATOM     71  C   UNL A   1      32.594  20.757  24.806  1.00  0.00     0.148 A 
ATOM     72  N   UNL A   1      32.963  20.087  25.926  1.00  0.00    -0.237 NA
ATOM     73  C   UNL A   1      32.379  20.057  23.606  1.00  0.00     0.084 A 
ATOM     74  C   UNL A   1      33.109  18.740  25.873  1.00  0.00     0.126 A 
ATOM     75  C   UNL A   1      32.543  18.669  23.574  1.00  0.00     0.039 A 
ATOM     76  Cl  UNL A   1      32.036  20.834  22.099  1.00  0.00    -0.080 Cl
ATOM     77  C   UNL A   1      32.919  17.985  24.729  1.00  0.00     0.075 A 
BRANCH  77  78
ATOM     78  C   UNL A   1      33.129  16.504  24.761  1.00  0.00     0.417 C 
ATOM     79  F   UNL A   1      33.395  15.986  23.533  1.00  0.00    -0.166 F 
ATOM     80  F   UNL A   1      34.174  16.146  25.555  1.00  0.00    -0.166 F 
ATOM     81  F   UNL A   1      32.051  15.816  25.231  1.00  0.00    -0.166 F 
ENDBRANCH  77  78
ENDBRANCH  65  71
ENDBRANCH  60  63
ENDBRANCH  58  59
ENDBRANCH  57  58
ENDBRANCH   1  57
TORSDOF 13
ENDMDL
MODEL 3
REMARK VINA RESULT:     -11.5      3.708      8.622
REMARK SMILES O=C(NCCCCNC(=O)[C@H]1C[NH2+]CCN1c1ncc(C(F)(F)F)cc1Cl)c1ccc(-c2c3nc(c(-c4ccccc4)c4ccc([nH]4)c(-c4ccccc4)c4nc(c(-c5ccccc5)c5ccc2[nH]5)C=C4)C=C3)cc1
REMARK SMILES IDX 5 1 4 2 3 3 1 4 2 5 28 7 29 8 75 9 30 10 74 11 31 12 32 13
REMARK SMILES IDX 33 14 68 15 34 16 73 17 67 18 69 19 35 20 72 21 66 22 65 23
REMARK SMILES IDX 36 25 58 26 43 27 57 28 44 29 47 30 56 31 70 32 45 33 46 34
REMARK SMILES IDX 55 36 71 37 48 38 37 39 38 40 42 41 39 42 41 43 40 44 59 45
REMARK SMILES IDX 60 46 64 47 61 48 63 49 62 50 49 51 50 52 54 53 51 54 53 55
REMARK SMILES IDX 52 56 6 57 7 58 8 59 9 60 10 62 11 63 12 64 16 65 13 66
REMARK SMILES IDX 15 67 14 68 17 71 18 72 26 73 19 74 25 75 27 76 20 77 21 78
REMARK SMILES IDX 22 79 23 80 24 81
REMARK H PARENT 3 6 69 24 47 35 8 61 13 69 13 70
REMARK Flexibility Score: inf
ROOT
ATOM      1  C   UNL A   1      31.285  31.539  26.147  1.00  0.00     0.023 C 
ENDROOT
BRANCH   1   2
ATOM      2  C   UNL A   1      32.498  32.100  26.880  1.00  0.00     0.116 C 
BRANCH   2   3
ATOM      3  N   UNL A   1      32.292  33.452  27.373  1.00  0.00    -0.352 N 
ATOM      4  O   UNL A   1      32.658  35.274  28.652  1.00  0.00    -0.269 OA
ATOM      5  C   UNL A   1      33.059  34.187  28.245  1.00  0.00     0.251 C 
ATOM      6  H   UNL A   1      31.487  33.906  27.034  1.00  0.00     0.163 HD
BRANCH   5   7
ATOM      7  C   UNL A   1      34.357  33.657  28.715  1.00  0.00     0.039 A 
ATOM      8  C   UNL A   1      35.542  33.958  28.040  1.00  0.00     0.014 A 
ATOM      9  C   UNL A   1      34.386  32.852  29.858  1.00  0.00     0.014 A 
ATOM     10  C   UNL A   1      36.731  33.349  28.427  1.00  0.00     0.010 A 
ATOM     11  C   UNL A   1      35.596  32.302  30.292  1.00  0.00     0.010 A 
ATOM     12  C   UNL A   1      36.774  32.524  29.562  1.00  0.00    -0.014 A 
BRANCH  12  13
ATOM     13  C   UNL A   1      38.073  31.957  30.004  1.00  0.00     0.031 A 
ATOM     14  C   UNL A   1      38.916  32.648  31.039  1.00  0.00     0.074 A 
ATOM     15  C   UNL A   1      38.476  30.783  29.480  1.00  0.00     0.049 A 
ATOM     16  N   UNL A   1      40.061  32.270  31.551  1.00  0.00    -0.248 NA
ATOM     17  C   UNL A   1      38.416  33.928  31.565  1.00  0.00     0.031 C 
ATOM     18  C   UNL A   1      37.745  30.016  28.468  1.00  0.00     0.029 A 
ATOM     19  N   UNL A   1      39.586  30.020  29.737  1.00  0.00    -0.354 N 
ATOM     20  C   UNL A   1      40.426  33.269  32.446  1.00  0.00     0.074 A 
ATOM     21  C   UNL A   1      39.392  34.281  32.390  1.00  0.00     0.031 C 
ATOM     22  C   UNL A   1      38.397  28.868  28.231  1.00  0.00     0.029 A 
ATOM     23  C   UNL A   1      39.621  28.848  29.022  1.00  0.00     0.049 A 
ATOM     24  H   UNL A   1      40.289  30.287  30.373  1.00  0.00     0.167 HD
ATOM     25  C   UNL A   1      41.519  33.333  33.244  1.00  0.00     0.031 A 
ATOM     26  C   UNL A   1      40.542  27.867  28.995  1.00  0.00     0.031 A 
ATOM     27  C   UNL A   1      42.548  32.326  33.296  1.00  0.00     0.049 A 
ATOM     28  C   UNL A   1      41.762  27.986  29.857  1.00  0.00     0.074 A 
ATOM     29  C   UNL A   1      43.683  32.294  34.090  1.00  0.00     0.029 A 
ATOM     30  N   UNL A   1      42.572  31.179  32.520  1.00  0.00    -0.354 N 
ATOM     31  N   UNL A   1      42.078  28.925  30.714  1.00  0.00    -0.248 NA
ATOM     32  C   UNL A   1      42.754  26.909  29.745  1.00  0.00     0.031 C 
ATOM     33  C   UNL A   1      44.416  31.148  33.759  1.00  0.00     0.029 A 
ATOM     34  C   UNL A   1      43.712  30.442  32.798  1.00  0.00     0.049 A 
ATOM     35  H   UNL A   1      41.879  30.924  31.867  1.00  0.00     0.167 HD
ATOM     36  C   UNL A   1      43.297  28.546  31.256  1.00  0.00     0.074 A 
ATOM     37  C   UNL A   1      43.654  27.281  30.646  1.00  0.00     0.031 C 
ATOM     38  C   UNL A   1      44.055  29.190  32.176  1.00  0.00     0.031 A 
BRANCH  25  39
ATOM     39  C   UNL A   1      41.675  34.549  34.115  1.00  0.00    -0.014 A 
ATOM     40  C   UNL A   1      42.343  35.694  33.653  1.00  0.00     0.009 A 
ATOM     41  C   UNL A   1      41.101  34.569  35.395  1.00  0.00     0.009 A 
ATOM     42  C   UNL A   1      42.455  36.824  34.468  1.00  0.00     0.001 A 
ATOM     43  C   UNL A   1      41.193  35.707  36.198  1.00  0.00     0.001 A 
ATOM     44  C   UNL A   1      41.877  36.831  35.737  1.00  0.00     0.000 A 
ENDBRANCH  25  39
BRANCH  26  45
ATOM     45  C   UNL A   1      40.341  26.693  28.108  1.00  0.00    -0.014 A 
ATOM     46  C   UNL A   1      40.876  26.680  26.810  1.00  0.00     0.009 A 
ATOM     47  C   UNL A   1      39.626  25.573  28.560  1.00  0.00     0.009 A 
ATOM     48  C   UNL A   1      40.683  25.575  25.980  1.00  0.00     0.001 A 
ATOM     49  C   UNL A   1      39.461  24.458  27.738  1.00  0.00     0.001 A 
ATOM     50  C   UNL A   1      39.983  24.463  26.446  1.00  0.00     0.000 A 
ENDBRANCH  26  45
BRANCH  38  51
ATOM     51  C   UNL A   1      45.332  28.519  32.593  1.00  0.00    -0.014 A 
ATOM     52  C   UNL A   1      46.552  28.828  31.972  1.00  0.00     0.009 A 
ATOM     53  C   UNL A   1      45.316  27.581  33.637  1.00  0.00     0.009 A 
ATOM     54  C   UNL A   1      47.727  28.184  32.366  1.00  0.00     0.001 A 
ATOM     55  C   UNL A   1      46.496  26.959  34.047  1.00  0.00     0.001 A 
ATOM     56  C   UNL A   1      47.698  27.253  33.404  1.00  0.00     0.000 A 
ENDBRANCH  38  51
ENDBRANCH  12  13
ENDBRANCH   5   7
ENDBRANCH   2   3
ENDBRANCH   1   2
BRANCH   1  57
ATOM     57  C   UNL A   1      31.398  30.082  25.693  1.00  0.00     0.023 C 
BRANCH  57  58
ATOM     58  C   UNL A   1      32.810  29.601  25.369  1.00  0.00     0.116 C 
BRANCH  58  59
ATOM     59  N   UNL A   1      33.049  28.253  25.842  1.00  0.00    -0.354 N 
ATOM     60  C   UNL A   1      33.075  27.067  25.170  1.00  0.00     0.248 C 
ATOM     61  H   UNL A   1      33.221  28.182  26.809  1.00  0.00     0.163 HD
ATOM     62  O   UNL A   1      33.328  26.060  25.842  1.00  0.00    -0.272 OA
BRANCH  60  63
ATOM     63  C   UNL A   1      32.808  27.001  23.646  1.00  0.00     0.228 C 
ATOM     64  C   UNL A   1      33.605  25.800  23.058  1.00  0.00     0.296 C 
ATOM     65  N   UNL A   1      31.372  26.807  23.365  1.00  0.00    -0.333 N 
ATOM     66  N   UNL A   1      33.094  24.456  23.426  1.00  0.00    -0.343 N 
ATOM     67  C   UNL A   1      30.796  25.510  23.728  1.00  0.00     0.180 C 
ATOM     68  C   UNL A   1      31.652  24.380  23.104  1.00  0.00     0.282 C 
ATOM     69  H   UNL A   1      33.230  24.301  24.425  1.00  0.00     0.346 HD
ATOM     70  H   UNL A   1      33.601  23.742  22.903  1.00  0.00     0.346 HD
BRANCH  65  71
ATOM     71  C   UNL A   1      30.530  27.806  22.944  1.00  0.00     0.148 A 
ATOM     72  N   UNL A   1      31.110  28.872  22.338  1.00  0.00    -0.237 NA
ATOM     73  C   UNL A   1      29.147  27.805  23.192  1.00  0.00     0.084 A 
ATOM     74  C   UNL A   1      30.339  29.924  21.969  1.00  0.00     0.126 A 
ATOM     75  C   UNL A   1      28.373  28.905  22.809  1.00  0.00     0.039 A 
ATOM     76  Cl  UNL A   1      28.339  26.555  24.073  1.00  0.00    -0.080 Cl
ATOM     77  C   UNL A   1      28.974  29.996  22.184  1.00  0.00     0.075 A 
BRANCH  77  78
ATOM     78  C   UNL A   1      28.210  31.212  21.765  1.00  0.00     0.417 C 
ATOM     79  F   UNL A   1      29.008  32.298  21.588  1.00  0.00    -0.166 F 
ATOM     80  F   UNL A   1      27.555  31.031  20.586  1.00  0.00    -0.166 F 
ATOM     81  F   UNL A   1      27.260  31.589  22.665  1.00  0.00    -0.166 F 
ENDBRANCH  77  78
ENDBRANCH  65  71
ENDBRANCH  60  63
ENDBRANCH  58  59
ENDBRANCH  57  58
ENDBRANCH   1  57
TORSDOF 13
ENDMDL
