MODEL 1
REMARK VINA RESULT:     -11.9      0.000      0.000
REMARK SMILES O=C(NCCCCNC(=O)c1cc2c(c(S(=O)(=O)Nc3cc(C(F)(F)F)ccc3-n3cccn3)c1)CCC2)c1ccc(-c2c3nc(c(-c4ccccc4)c4ccc([nH]4)c(-c4ccccc4)c4nc(c(-c5ccccc5)c5ccc2[nH]5)C=C4)C=C3)cc1
REMARK SMILES IDX 6 1 5 2 4 3 3 4 1 5 2 6 39 8 40 9 86 10 41 11 85 12 42 13
REMARK SMILES IDX 43 14 44 15 79 16 45 17 84 18 78 19 80 20 46 21 83 22 77 23
REMARK SMILES IDX 76 24 47 26 69 27 54 28 68 29 55 30 58 31 67 32 81 33 56 34
REMARK SMILES IDX 57 35 66 37 82 38 59 39 48 40 49 41 53 42 50 43 52 44 51 45
REMARK SMILES IDX 70 46 71 47 75 48 72 49 74 50 73 51 60 52 61 53 65 54 62 55
REMARK SMILES IDX 64 56 63 57 7 58 8 59 9 60 10 62 11 63 12 64 35 65 13 66
REMARK SMILES IDX 15 67 14 68 38 69 36 70 37 71 16 72 17 73 18 74 19 75 20 77
REMARK SMILES IDX 21 78 29 79 22 80 28 81 27 82 30 83 31 84 34 85 32 86 33 87
REMARK SMILES IDX 23 88 24 89 25 90 26 91
REMARK H PARENT 3 7 80 25 58 36 8 61 19 76
REMARK Flexibility Score: inf
ROOT
ATOM      1  C   UNL A   1      38.142  23.619  26.111  1.00  0.00     0.023 C 
ENDROOT
BRANCH   1   2
ATOM      2  C   UNL A   1      38.733  22.214  26.025  1.00  0.00     0.023 C 
BRANCH   2   3
ATOM      3  C   UNL A   1      40.104  22.026  26.675  1.00  0.00     0.116 C 
BRANCH   3   4
ATOM      4  N   UNL A   1      41.245  22.372  25.847  1.00  0.00    -0.352 N 
ATOM      5  O   UNL A   1      43.092  23.304  25.059  1.00  0.00    -0.269 OA
ATOM      6  C   UNL A   1      42.110  23.430  25.795  1.00  0.00     0.251 C 
ATOM      7  H   UNL A   1      41.441  21.686  25.167  1.00  0.00     0.163 HD
BRANCH   6   8
ATOM      8  C   UNL A   1      41.916  24.725  26.503  1.00  0.00     0.039 A 
ATOM      9  C   UNL A   1      42.420  25.035  27.765  1.00  0.00     0.014 A 
ATOM     10  C   UNL A   1      41.160  25.700  25.825  1.00  0.00     0.014 A 
ATOM     11  C   UNL A   1      42.100  26.243  28.378  1.00  0.00     0.010 A 
ATOM     12  C   UNL A   1      40.866  26.926  26.418  1.00  0.00     0.010 A 
ATOM     13  C   UNL A   1      41.318  27.185  27.709  1.00  0.00    -0.014 A 
BRANCH  13  14
ATOM     14  C   UNL A   1      41.172  28.500  28.327  1.00  0.00     0.031 A 
ATOM     15  C   UNL A   1      42.314  29.431  28.104  1.00  0.00     0.074 A 
ATOM     16  C   UNL A   1      40.045  28.952  28.911  1.00  0.00     0.049 A 
ATOM     17  N   UNL A   1      43.045  30.035  28.986  1.00  0.00    -0.248 NA
ATOM     18  C   UNL A   1      42.734  29.666  26.712  1.00  0.00     0.031 C 
ATOM     19  C   UNL A   1      38.734  28.303  28.935  1.00  0.00     0.029 A 
ATOM     20  N   UNL A   1      39.811  30.162  29.506  1.00  0.00    -0.354 N 
ATOM     21  C   UNL A   1      43.902  30.864  28.267  1.00  0.00     0.074 A 
ATOM     22  C   UNL A   1      43.755  30.503  26.879  1.00  0.00     0.031 C 
ATOM     23  C   UNL A   1      37.802  29.208  29.305  1.00  0.00     0.029 A 
ATOM     24  C   UNL A   1      38.464  30.457  29.653  1.00  0.00     0.049 A 
ATOM     25  H   UNL A   1      40.530  30.765  29.800  1.00  0.00     0.167 HD
ATOM     26  C   UNL A   1      44.497  31.953  28.828  1.00  0.00     0.031 A 
ATOM     27  C   UNL A   1      37.918  31.657  29.967  1.00  0.00     0.031 A 
ATOM     28  C   UNL A   1      44.532  31.883  30.264  1.00  0.00     0.049 A 
ATOM     29  C   UNL A   1      38.969  32.511  30.560  1.00  0.00     0.074 A 
ATOM     30  C   UNL A   1      45.031  30.994  31.194  1.00  0.00     0.029 A 
ATOM     31  N   UNL A   1      43.697  32.720  30.961  1.00  0.00    -0.354 N 
ATOM     32  N   UNL A   1      39.467  32.336  31.749  1.00  0.00    -0.248 NA
ATOM     33  C   UNL A   1      39.727  33.396  29.691  1.00  0.00     0.031 C 
ATOM     34  C   UNL A   1      44.117  31.046  32.288  1.00  0.00     0.029 A 
ATOM     35  C   UNL A   1      43.135  31.986  31.970  1.00  0.00     0.049 A 
ATOM     36  H   UNL A   1      43.534  33.672  30.771  1.00  0.00     0.167 HD
ATOM     37  C   UNL A   1      40.794  32.719  31.633  1.00  0.00     0.074 A 
ATOM     38  C   UNL A   1      40.855  33.493  30.398  1.00  0.00     0.031 C 
ATOM     39  C   UNL A   1      41.763  32.132  32.396  1.00  0.00     0.031 A 
BRANCH  26  40
ATOM     40  C   UNL A   1      44.645  33.266  28.090  1.00  0.00    -0.014 A 
ATOM     41  C   UNL A   1      43.492  34.024  27.814  1.00  0.00     0.009 A 
ATOM     42  C   UNL A   1      45.814  33.622  27.389  1.00  0.00     0.009 A 
ATOM     43  C   UNL A   1      43.488  35.012  26.821  1.00  0.00     0.001 A 
ATOM     44  C   UNL A   1      45.826  34.642  26.433  1.00  0.00     0.001 A 
ATOM     45  C   UNL A   1      44.654  35.313  26.124  1.00  0.00     0.000 A 
ENDBRANCH  26  40
BRANCH  27  46
ATOM     46  C   UNL A   1      36.591  32.199  29.609  1.00  0.00    -0.014 A 
ATOM     47  C   UNL A   1      35.635  32.467  30.603  1.00  0.00     0.009 A 
ATOM     48  C   UNL A   1      36.345  32.691  28.315  1.00  0.00     0.009 A 
ATOM     49  C   UNL A   1      34.494  33.229  30.317  1.00  0.00     0.001 A 
ATOM     50  C   UNL A   1      35.202  33.441  28.027  1.00  0.00     0.001 A 
ATOM     51  C   UNL A   1      34.284  33.723  29.032  1.00  0.00     0.000 A 
ENDBRANCH  27  46
BRANCH  39  52
ATOM     52  C   UNL A   1      41.334  31.323  33.593  1.00  0.00    -0.014 A 
ATOM     53  C   UNL A   1      41.264  29.919  33.584  1.00  0.00     0.009 A 
ATOM     54  C   UNL A   1      41.109  31.992  34.805  1.00  0.00     0.009 A 
ATOM     55  C   UNL A   1      40.928  29.211  34.743  1.00  0.00     0.001 A 
ATOM     56  C   UNL A   1      40.801  31.284  35.968  1.00  0.00     0.001 A 
ATOM     57  C   UNL A   1      40.700  29.896  35.933  1.00  0.00     0.000 A 
ENDBRANCH  39  52
ENDBRANCH  13  14
ENDBRANCH   6   8
ENDBRANCH   3   4
ENDBRANCH   2   3
ENDBRANCH   1   2
BRANCH   1  58
ATOM     58  C   UNL A   1      36.632  23.724  25.927  1.00  0.00     0.116 C 
BRANCH  58  59
ATOM     59  N   UNL A   1      36.049  22.648  25.130  1.00  0.00    -0.352 N 
ATOM     60  C   UNL A   1      34.797  22.578  24.538  1.00  0.00     0.251 C 
ATOM     61  H   UNL A   1      36.626  21.861  24.994  1.00  0.00     0.163 HD
ATOM     62  O   UNL A   1      34.438  21.573  23.948  1.00  0.00    -0.269 OA
BRANCH  60  63
ATOM     63  C   UNL A   1      33.880  23.738  24.667  1.00  0.00     0.041 A 
ATOM     64  C   UNL A   1      32.953  23.740  25.707  1.00  0.00     0.018 A 
ATOM     65  C   UNL A   1      33.841  24.716  23.647  1.00  0.00     0.036 A 
ATOM     66  C   UNL A   1      31.848  24.550  25.565  1.00  0.00    -0.043 A 
ATOM     67  C   UNL A   1      32.741  25.594  23.552  1.00  0.00     0.092 A 
ATOM     68  C   UNL A   1      31.700  25.404  24.456  1.00  0.00    -0.024 A 
ATOM     69  C   UNL A   1      30.606  24.504  26.403  1.00  0.00     0.036 C 
ATOM     70  C   UNL A   1      30.264  25.824  24.394  1.00  0.00     0.037 C 
ATOM     71  C   UNL A   1      29.863  25.726  25.867  1.00  0.00     0.010 C 
BRANCH  67  72
ATOM     72  S   UNL A   1      32.598  26.661  22.130  1.00  0.00     0.262 S 
ATOM     73  O   UNL A   1      33.736  26.410  21.283  1.00  0.00    -0.201 OA
ATOM     74  O   UNL A   1      31.253  26.503  21.595  1.00  0.00    -0.201 OA
BRANCH  72  75
ATOM     75  N   UNL A   1      32.763  28.305  22.572  1.00  0.00    -0.277 N 
ATOM     76  H   UNL A   1      32.987  28.969  21.881  1.00  0.00     0.180 HD
BRANCH  75  77
ATOM     77  C   UNL A   1      32.581  28.738  23.929  1.00  0.00     0.075 A 
ATOM     78  C   UNL A   1      33.652  28.627  24.830  1.00  0.00     0.042 A 
ATOM     79  C   UNL A   1      31.412  29.408  24.327  1.00  0.00     0.089 A 
ATOM     80  C   UNL A   1      33.591  29.235  26.103  1.00  0.00     0.058 A 
ATOM     81  C   UNL A   1      31.335  29.988  25.603  1.00  0.00     0.031 A 
ATOM     82  C   UNL A   1      32.415  29.896  26.485  1.00  0.00     0.015 A 
BRANCH  79  83
ATOM     83  N   UNL A   1      30.317  29.570  23.442  1.00  0.00    -0.239 N 
ATOM     84  C   UNL A   1      29.102  28.920  23.464  1.00  0.00     0.115 A 
ATOM     85  N   UNL A   1      30.422  30.380  22.357  1.00  0.00    -0.177 NA
ATOM     86  C   UNL A   1      28.502  29.156  22.253  1.00  0.00     0.042 A 
ATOM     87  C   UNL A   1      29.376  30.036  21.600  1.00  0.00     0.135 A 
ENDBRANCH  79  83
BRANCH  80  88
ATOM     88  C   UNL A   1      34.806  29.246  27.006  1.00  0.00     0.416 C 
ATOM     89  F   UNL A   1      34.509  29.613  28.280  1.00  0.00    -0.166 F 
ATOM     90  F   UNL A   1      35.399  28.022  27.090  1.00  0.00    -0.166 F 
ATOM     91  F   UNL A   1      35.783  30.098  26.585  1.00  0.00    -0.166 F 
ENDBRANCH  80  88
ENDBRANCH  75  77
ENDBRANCH  72  75
ENDBRANCH  67  72
ENDBRANCH  60  63
ENDBRANCH  58  59
ENDBRANCH   1  58
TORSDOF 16
ENDMDL
MODEL 2
REMARK VINA RESULT:     -11.8      2.048      2.807
REMARK SMILES O=C(NCCCCNC(=O)c1cc2c(c(S(=O)(=O)Nc3cc(C(F)(F)F)ccc3-n3cccn3)c1)CCC2)c1ccc(-c2c3nc(c(-c4ccccc4)c4ccc([nH]4)c(-c4ccccc4)c4nc(c(-c5ccccc5)c5ccc2[nH]5)C=C4)C=C3)cc1
REMARK SMILES IDX 6 1 5 2 4 3 3 4 1 5 2 6 39 8 40 9 86 10 41 11 85 12 42 13
REMARK SMILES IDX 43 14 44 15 79 16 45 17 84 18 78 19 80 20 46 21 83 22 77 23
REMARK SMILES IDX 76 24 47 26 69 27 54 28 68 29 55 30 58 31 67 32 81 33 56 34
REMARK SMILES IDX 57 35 66 37 82 38 59 39 48 40 49 41 53 42 50 43 52 44 51 45
REMARK SMILES IDX 70 46 71 47 75 48 72 49 74 50 73 51 60 52 61 53 65 54 62 55
REMARK SMILES IDX 64 56 63 57 7 58 8 59 9 60 10 62 11 63 12 64 35 65 13 66
REMARK SMILES IDX 15 67 14 68 38 69 36 70 37 71 16 72 17 73 18 74 19 75 20 77
REMARK SMILES IDX 21 78 29 79 22 80 28 81 27 82 30 83 31 84 34 85 32 86 33 87
REMARK SMILES IDX 23 88 24 89 25 90 26 91
REMARK H PARENT 3 7 80 25 58 36 8 61 19 76
REMARK Flexibility Score: inf
ROOT
ATOM      1  C   UNL A   1      38.989  23.582  26.695  1.00  0.00     0.023 C 
ENDROOT
BRANCH   1   2
ATOM      2  C   UNL A   1      39.471  22.247  26.133  1.00  0.00     0.023 C 
BRANCH   2   3
ATOM      3  C   UNL A   1      40.909  21.857  26.481  1.00  0.00     0.116 C 
BRANCH   3   4
ATOM      4  N   UNL A   1      41.922  22.283  25.532  1.00  0.00    -0.352 N 
ATOM      5  O   UNL A   1      43.581  23.361  24.537  1.00  0.00    -0.269 OA
ATOM      6  C   UNL A   1      42.670  23.417  25.367  1.00  0.00     0.251 C 
ATOM      7  H   UNL A   1      42.115  21.598  24.851  1.00  0.00     0.163 HD
BRANCH   6   8
ATOM      8  C   UNL A   1      42.422  24.709  26.062  1.00  0.00     0.039 A 
ATOM      9  C   UNL A   1      41.734  25.795  25.522  1.00  0.00     0.014 A 
ATOM     10  C   UNL A   1      42.933  24.823  27.369  1.00  0.00     0.014 A 
ATOM     11  C   UNL A   1      41.640  26.993  26.223  1.00  0.00     0.010 A 
ATOM     12  C   UNL A   1      42.812  26.008  28.091  1.00  0.00     0.010 A 
ATOM     13  C   UNL A   1      42.184  27.103  27.504  1.00  0.00    -0.014 A 
BRANCH  13  14
ATOM     14  C   UNL A   1      41.894  28.321  28.257  1.00  0.00     0.031 A 
ATOM     15  C   UNL A   1      42.902  29.409  28.107  1.00  0.00     0.074 A 
ATOM     16  C   UNL A   1      40.740  28.562  28.908  1.00  0.00     0.049 A 
ATOM     17  N   UNL A   1      43.580  30.011  29.030  1.00  0.00    -0.248 NA
ATOM     18  C   UNL A   1      43.240  29.832  26.738  1.00  0.00     0.031 C 
ATOM     19  C   UNL A   1      39.524  27.750  28.894  1.00  0.00     0.029 A 
ATOM     20  N   UNL A   1      40.376  29.667  29.629  1.00  0.00    -0.354 N 
ATOM     21  C   UNL A   1      44.301  31.011  28.381  1.00  0.00     0.074 A 
ATOM     22  C   UNL A   1      44.153  30.774  26.967  1.00  0.00     0.031 C 
ATOM     23  C   UNL A   1      38.498  28.487  29.375  1.00  0.00     0.029 A 
ATOM     24  C   UNL A   1      39.008  29.769  29.835  1.00  0.00     0.049 A 
ATOM     25  H   UNL A   1      41.023  30.326  29.969  1.00  0.00     0.167 HD
ATOM     26  C   UNL A   1      44.772  32.107  29.039  1.00  0.00     0.031 A 
ATOM     27  C   UNL A   1      38.327  30.852  30.282  1.00  0.00     0.031 A 
ATOM     28  C   UNL A   1      44.865  31.900  30.458  1.00  0.00     0.049 A 
ATOM     29  C   UNL A   1      39.281  31.771  30.937  1.00  0.00     0.074 A 
ATOM     30  C   UNL A   1      45.505  30.994  31.282  1.00  0.00     0.029 A 
ATOM     31  N   UNL A   1      43.956  32.549  31.256  1.00  0.00    -0.354 N 
ATOM     32  N   UNL A   1      39.838  31.545  32.091  1.00  0.00    -0.248 NA
ATOM     33  C   UNL A   1      39.891  32.829  30.148  1.00  0.00     0.031 C 
ATOM     34  C   UNL A   1      44.629  30.820  32.394  1.00  0.00     0.029 A 
ATOM     35  C   UNL A   1      43.526  31.651  32.196  1.00  0.00     0.049 A 
ATOM     36  H   UNL A   1      43.667  33.486  31.168  1.00  0.00     0.167 HD
ATOM     37  C   UNL A   1      41.101  32.106  31.987  1.00  0.00     0.074 A 
ATOM     38  C   UNL A   1      41.021  33.000  30.837  1.00  0.00     0.031 C 
ATOM     39  C   UNL A   1      42.162  31.576  32.664  1.00  0.00     0.031 A 
BRANCH  26  40
ATOM     40  C   UNL A   1      44.728  33.494  28.436  1.00  0.00    -0.014 A 
ATOM     41  C   UNL A   1      45.894  34.284  28.462  1.00  0.00     0.009 A 
ATOM     42  C   UNL A   1      43.524  34.162  28.138  1.00  0.00     0.009 A 
ATOM     43  C   UNL A   1      45.837  35.674  28.300  1.00  0.00     0.001 A 
ATOM     44  C   UNL A   1      43.471  35.541  27.925  1.00  0.00     0.001 A 
ATOM     45  C   UNL A   1      44.624  36.303  28.042  1.00  0.00     0.000 A 
ENDBRANCH  26  40
BRANCH  27  46
ATOM     46  C   UNL A   1      36.930  31.251  30.011  1.00  0.00    -0.014 A 
ATOM     47  C   UNL A   1      36.150  31.854  31.011  1.00  0.00     0.009 A 
ATOM     48  C   UNL A   1      36.435  31.269  28.695  1.00  0.00     0.009 A 
ATOM     49  C   UNL A   1      34.938  32.482  30.697  1.00  0.00     0.001 A 
ATOM     50  C   UNL A   1      35.220  31.885  28.383  1.00  0.00     0.001 A 
ATOM     51  C   UNL A   1      34.479  32.505  29.382  1.00  0.00     0.000 A 
ENDBRANCH  27  46
BRANCH  39  52
ATOM     52  C   UNL A   1      41.880  30.604  33.780  1.00  0.00    -0.014 A 
ATOM     53  C   UNL A   1      41.698  29.226  33.569  1.00  0.00     0.009 A 
ATOM     54  C   UNL A   1      41.921  31.074  35.101  1.00  0.00     0.009 A 
ATOM     55  C   UNL A   1      41.509  28.355  34.647  1.00  0.00     0.001 A 
ATOM     56  C   UNL A   1      41.760  30.201  36.179  1.00  0.00     0.001 A 
ATOM     57  C   UNL A   1      41.543  28.844  35.950  1.00  0.00     0.000 A 
ENDBRANCH  39  52
ENDBRANCH  13  14
ENDBRANCH   6   8
ENDBRANCH   3   4
ENDBRANCH   2   3
ENDBRANCH   1   2
BRANCH   1  58
ATOM     58  C   UNL A   1      37.558  23.977  26.347  1.00  0.00     0.116 C 
BRANCH  58  59
ATOM     59  N   UNL A   1      37.193  23.742  24.952  1.00  0.00    -0.352 N 
ATOM     60  C   UNL A   1      35.935  23.720  24.370  1.00  0.00     0.251 C 
ATOM     61  H   UNL A   1      37.946  23.578  24.340  1.00  0.00     0.163 HD
ATOM     62  O   UNL A   1      35.795  23.448  23.189  1.00  0.00    -0.269 OA
BRANCH  60  63
ATOM     63  C   UNL A   1      34.748  23.994  25.220  1.00  0.00     0.041 A 
ATOM     64  C   UNL A   1      33.894  22.937  25.529  1.00  0.00     0.018 A 
ATOM     65  C   UNL A   1      34.414  25.328  25.545  1.00  0.00     0.036 A 
ATOM     66  C   UNL A   1      32.610  23.256  25.910  1.00  0.00    -0.043 A 
ATOM     67  C   UNL A   1      33.118  25.638  26.007  1.00  0.00     0.092 A 
ATOM     68  C   UNL A   1      32.199  24.594  26.064  1.00  0.00    -0.024 A 
ATOM     69  C   UNL A   1      31.457  22.304  26.014  1.00  0.00     0.036 C 
ATOM     70  C   UNL A   1      30.702  24.610  26.083  1.00  0.00     0.037 C 
ATOM     71  C   UNL A   1      30.397  23.214  26.630  1.00  0.00     0.010 C 
BRANCH  67  72
ATOM     72  S   UNL A   1      32.644  27.347  26.191  1.00  0.00     0.262 S 
ATOM     73  O   UNL A   1      31.258  27.373  26.584  1.00  0.00    -0.201 OA
ATOM     74  O   UNL A   1      33.644  27.993  27.030  1.00  0.00    -0.201 OA
BRANCH  72  75
ATOM     75  N   UNL A   1      32.666  28.159  24.686  1.00  0.00    -0.277 N 
ATOM     76  H   UNL A   1      33.530  28.408  24.286  1.00  0.00     0.180 HD
BRANCH  75  77
ATOM     77  C   UNL A   1      31.452  28.487  23.993  1.00  0.00     0.075 A 
ATOM     78  C   UNL A   1      30.761  29.659  24.343  1.00  0.00     0.042 A 
ATOM     79  C   UNL A   1      31.030  27.746  22.877  1.00  0.00     0.089 A 
ATOM     80  C   UNL A   1      29.693  30.131  23.550  1.00  0.00     0.058 A 
ATOM     81  C   UNL A   1      29.949  28.196  22.104  1.00  0.00     0.031 A 
ATOM     82  C   UNL A   1      29.282  29.377  22.442  1.00  0.00     0.015 A 
BRANCH  79  83
ATOM     83  N   UNL A   1      31.713  26.574  22.469  1.00  0.00    -0.239 N 
ATOM     84  C   UNL A   1      31.315  25.263  22.616  1.00  0.00     0.115 A 
ATOM     85  N   UNL A   1      32.961  26.652  21.939  1.00  0.00    -0.177 NA
ATOM     86  C   UNL A   1      32.417  24.482  22.373  1.00  0.00     0.042 A 
ATOM     87  C   UNL A   1      33.411  25.395  21.992  1.00  0.00     0.135 A 
ENDBRANCH  79  83
BRANCH  80  88
ATOM     88  C   UNL A   1      29.058  31.474  23.842  1.00  0.00     0.416 C 
ATOM     89  F   UNL A   1      27.766  31.365  24.250  1.00  0.00    -0.166 F 
ATOM     90  F   UNL A   1      29.711  32.152  24.827  1.00  0.00    -0.166 F 
ATOM     91  F   UNL A   1      29.046  32.311  22.766  1.00  0.00    -0.166 F 
ENDBRANCH  80  88
ENDBRANCH  75  77
ENDBRANCH  72  75
ENDBRANCH  67  72
ENDBRANCH  60  63
ENDBRANCH  58  59
ENDBRANCH   1  58
TORSDOF 16
ENDMDL
MODEL 3
REMARK VINA RESULT:     -11.7      3.614      8.801
REMARK SMILES O=C(NCCCCNC(=O)c1cc2c(c(S(=O)(=O)Nc3cc(C(F)(F)F)ccc3-n3cccn3)c1)CCC2)c1ccc(-c2c3nc(c(-c4ccccc4)c4ccc([nH]4)c(-c4ccccc4)c4nc(c(-c5ccccc5)c5ccc2[nH]5)C=C4)C=C3)cc1
REMARK SMILES IDX 6 1 5 2 4 3 3 4 1 5 2 6 39 8 40 9 86 10 41 11 85 12 42 13
REMARK SMILES IDX 43 14 44 15 79 16 45 17 84 18 78 19 80 20 46 21 83 22 77 23
REMARK SMILES IDX 76 24 47 26 69 27 54 28 68 29 55 30 58 31 67 32 81 33 56 34
REMARK SMILES IDX 57 35 66 37 82 38 59 39 48 40 49 41 53 42 50 43 52 44 51 45
REMARK SMILES IDX 70 46 71 47 75 48 72 49 74 50 73 51 60 52 61 53 65 54 62 55
REMARK SMILES IDX 64 56 63 57 7 58 8 59 9 60 10 62 11 63 12 64 35 65 13 66
REMARK SMILES IDX 15 67 14 68 38 69 36 70 37 71 16 72 17 73 18 74 19 75 20 77
REMARK SMILES IDX 21 78 29 79 22 80 28 81 27 82 30 83 31 84 34 85 32 86 33 87
REMARK SMILES IDX 23 88 24 89 25 90 26 91
REMARK H PARENT 3 7 80 25 58 36 8 61 19 76
REMARK Flexibility Score: inf
ROOT
ATOM      1  C   UNL A   1      33.649  29.402  26.160  1.00  0.00     0.023 C 
ENDROOT
BRANCH   1   2
ATOM      2  C   UNL A   1      33.395  30.431  27.259  1.00  0.00     0.023 C 
BRANCH   2   3
ATOM      3  C   UNL A   1      34.584  31.319  27.629  1.00  0.00     0.116 C 
BRANCH   3   4
ATOM      4  N   UNL A   1      34.617  31.783  29.004  1.00  0.00    -0.352 N 
ATOM      5  O   UNL A   1      35.290  32.407  31.019  1.00  0.00    -0.269 OA
ATOM      6  C   UNL A   1      35.542  31.743  30.011  1.00  0.00     0.251 C 
ATOM      7  H   UNL A   1      33.781  32.230  29.273  1.00  0.00     0.163 HD
BRANCH   6   8
ATOM      8  C   UNL A   1      36.779  30.915  29.999  1.00  0.00     0.039 A 
ATOM      9  C   UNL A   1      38.055  31.379  29.681  1.00  0.00     0.014 A 
ATOM     10  C   UNL A   1      36.625  29.557  30.338  1.00  0.00     0.014 A 
ATOM     11  C   UNL A   1      39.131  30.499  29.608  1.00  0.00     0.010 A 
ATOM     12  C   UNL A   1      37.704  28.678  30.302  1.00  0.00     0.010 A 
ATOM     13  C   UNL A   1      38.955  29.148  29.911  1.00  0.00    -0.014 A 
BRANCH  13  14
ATOM     14  C   UNL A   1      40.152  28.316  29.995  1.00  0.00     0.031 A 
ATOM     15  C   UNL A   1      40.801  28.279  31.336  1.00  0.00     0.074 A 
ATOM     16  C   UNL A   1      40.581  27.489  29.022  1.00  0.00     0.049 A 
ATOM     17  N   UNL A   1      42.019  28.583  31.650  1.00  0.00    -0.248 NA
ATOM     18  C   UNL A   1      39.956  27.916  32.486  1.00  0.00     0.031 C 
ATOM     19  C   UNL A   1      39.895  27.155  27.773  1.00  0.00     0.029 A 
ATOM     20  N   UNL A   1      41.677  26.670  29.011  1.00  0.00    -0.354 N 
ATOM     21  C   UNL A   1      42.150  28.282  33.004  1.00  0.00     0.074 A 
ATOM     22  C   UNL A   1      40.824  27.998  33.492  1.00  0.00     0.031 C 
ATOM     23  C   UNL A   1      40.466  26.052  27.240  1.00  0.00     0.029 A 
ATOM     24  C   UNL A   1      41.619  25.677  28.045  1.00  0.00     0.049 A 
ATOM     25  H   UNL A   1      42.435  26.776  29.630  1.00  0.00     0.167 HD
ATOM     26  C   UNL A   1      43.362  28.050  33.581  1.00  0.00     0.031 A 
ATOM     27  C   UNL A   1      42.412  24.582  27.947  1.00  0.00     0.031 A 
ATOM     28  C   UNL A   1      44.451  28.589  32.813  1.00  0.00     0.049 A 
ATOM     29  C   UNL A   1      43.629  24.810  28.754  1.00  0.00     0.074 A 
ATOM     30  C   UNL A   1      44.795  29.837  32.334  1.00  0.00     0.029 A 
ATOM     31  N   UNL A   1      45.261  27.701  32.150  1.00  0.00    -0.354 N 
ATOM     32  N   UNL A   1      44.583  25.629  28.421  1.00  0.00    -0.248 NA
ATOM     33  C   UNL A   1      43.650  24.358  30.136  1.00  0.00     0.031 C 
ATOM     34  C   UNL A   1      45.446  29.593  31.089  1.00  0.00     0.029 A 
ATOM     35  C   UNL A   1      45.485  28.211  30.900  1.00  0.00     0.049 A 
ATOM     36  H   UNL A   1      45.616  26.856  32.509  1.00  0.00     0.167 HD
ATOM     37  C   UNL A   1      45.049  26.133  29.625  1.00  0.00     0.074 A 
ATOM     38  C   UNL A   1      44.543  25.213  30.638  1.00  0.00     0.031 C 
ATOM     39  C   UNL A   1      45.554  27.399  29.707  1.00  0.00     0.031 A 
BRANCH  26  40
ATOM     40  C   UNL A   1      43.574  26.959  34.608  1.00  0.00    -0.014 A 
ATOM     41  C   UNL A   1      43.530  25.614  34.191  1.00  0.00     0.009 A 
ATOM     42  C   UNL A   1      43.499  27.188  35.996  1.00  0.00     0.009 A 
ATOM     43  C   UNL A   1      43.320  24.574  35.105  1.00  0.00     0.001 A 
ATOM     44  C   UNL A   1      43.341  26.148  36.915  1.00  0.00     0.001 A 
ATOM     45  C   UNL A   1      43.215  24.842  36.466  1.00  0.00     0.000 A 
ENDBRANCH  26  40
BRANCH  27  46
ATOM     46  C   UNL A   1      42.106  23.259  27.364  1.00  0.00    -0.014 A 
ATOM     47  C   UNL A   1      42.787  22.804  26.223  1.00  0.00     0.009 A 
ATOM     48  C   UNL A   1      41.321  22.331  28.070  1.00  0.00     0.009 A 
ATOM     49  C   UNL A   1      42.711  21.463  25.826  1.00  0.00     0.001 A 
ATOM     50  C   UNL A   1      41.236  20.995  27.669  1.00  0.00     0.001 A 
ATOM     51  C   UNL A   1      41.944  20.558  26.555  1.00  0.00     0.000 A 
ENDBRANCH  27  46
BRANCH  39  52
ATOM     52  C   UNL A   1      45.916  28.106  28.426  1.00  0.00    -0.014 A 
ATOM     53  C   UNL A   1      45.002  28.882  27.694  1.00  0.00     0.009 A 
ATOM     54  C   UNL A   1      47.255  28.086  28.009  1.00  0.00     0.009 A 
ATOM     55  C   UNL A   1      45.406  29.575  26.548  1.00  0.00     0.001 A 
ATOM     56  C   UNL A   1      47.665  28.800  26.881  1.00  0.00     0.001 A 
ATOM     57  C   UNL A   1      46.738  29.535  26.146  1.00  0.00     0.000 A 
ENDBRANCH  39  52
ENDBRANCH  13  14
ENDBRANCH   6   8
ENDBRANCH   3   4
ENDBRANCH   2   3
ENDBRANCH   1   2
BRANCH   1  58
ATOM     58  C   UNL A   1      32.818  29.557  24.891  1.00  0.00     0.116 C 
BRANCH  58  59
ATOM     59  N   UNL A   1      33.572  29.368  23.654  1.00  0.00    -0.352 N 
ATOM     60  C   UNL A   1      33.649  28.248  22.841  1.00  0.00     0.251 C 
ATOM     61  H   UNL A   1      34.098  30.145  23.357  1.00  0.00     0.163 HD
ATOM     62  O   UNL A   1      34.378  28.233  21.862  1.00  0.00    -0.269 OA
BRANCH  60  63
ATOM     63  C   UNL A   1      32.858  27.045  23.202  1.00  0.00     0.041 A 
ATOM     64  C   UNL A   1      31.729  27.208  24.003  1.00  0.00     0.018 A 
ATOM     65  C   UNL A   1      33.352  25.760  22.883  1.00  0.00     0.036 A 
ATOM     66  C   UNL A   1      31.279  26.102  24.689  1.00  0.00    -0.043 A 
ATOM     67  C   UNL A   1      32.834  24.622  23.534  1.00  0.00     0.092 A 
ATOM     68  C   UNL A   1      31.879  24.839  24.523  1.00  0.00    -0.024 A 
ATOM     69  C   UNL A   1      30.279  26.102  25.806  1.00  0.00     0.036 C 
ATOM     70  C   UNL A   1      31.443  23.976  25.666  1.00  0.00     0.037 C 
ATOM     71  C   UNL A   1      30.090  24.601  26.011  1.00  0.00     0.010 C 
BRANCH  67  72
ATOM     72  S   UNL A   1      33.625  23.042  23.291  1.00  0.00     0.262 S 
ATOM     73  O   UNL A   1      32.675  22.178  22.637  1.00  0.00    -0.201 OA
ATOM     74  O   UNL A   1      34.919  23.290  22.671  1.00  0.00    -0.201 OA
BRANCH  72  75
ATOM     75  N   UNL A   1      33.934  22.269  24.784  1.00  0.00    -0.277 N 
ATOM     76  H   UNL A   1      33.715  22.737  25.623  1.00  0.00     0.180 HD
BRANCH  75  77
ATOM     77  C   UNL A   1      34.504  20.953  24.844  1.00  0.00     0.075 A 
ATOM     78  C   UNL A   1      33.701  19.846  24.523  1.00  0.00     0.042 A 
ATOM     79  C   UNL A   1      35.879  20.766  25.066  1.00  0.00     0.089 A 
ATOM     80  C   UNL A   1      34.270  18.565  24.359  1.00  0.00     0.058 A 
ATOM     81  C   UNL A   1      36.443  19.489  24.933  1.00  0.00     0.031 A 
ATOM     82  C   UNL A   1      35.643  18.396  24.588  1.00  0.00     0.015 A 
BRANCH  79  83
ATOM     83  N   UNL A   1      36.732  21.857  25.364  1.00  0.00    -0.239 N 
ATOM     84  C   UNL A   1      38.104  21.919  25.254  1.00  0.00     0.115 A 
ATOM     85  N   UNL A   1      36.232  22.993  25.915  1.00  0.00    -0.177 NA
ATOM     86  C   UNL A   1      38.511  23.032  25.946  1.00  0.00     0.042 A 
ATOM     87  C   UNL A   1      37.315  23.637  26.359  1.00  0.00     0.135 A 
ENDBRANCH  79  83
BRANCH  80  88
ATOM     88  C   UNL A   1      33.428  17.411  23.859  1.00  0.00     0.416 C 
ATOM     89  F   UNL A   1      32.269  17.821  23.278  1.00  0.00    -0.166 F 
ATOM     90  F   UNL A   1      34.078  16.662  22.926  1.00  0.00    -0.166 F 
ATOM     91  F   UNL A   1      33.069  16.539  24.844  1.00  0.00    -0.166 F 
ENDBRANCH  80  88
ENDBRANCH  75  77
ENDBRANCH  72  75
ENDBRANCH  67  72
ENDBRANCH  60  63
ENDBRANCH  58  59
ENDBRANCH   1  58
TORSDOF 16
ENDMDL
