MODEL 1
REMARK VINA RESULT:     -11.3      0.000      0.000
REMARK SMILES CCOC(=O)c1c(NC(=O)[C@@H]2[C@@H]3CC[C@@H](C3)[C@@H]2C(=O)NCCCCNC(=O)c2ccc(-c3c4nc(c(-c5ccccc5)c5ccc([nH]5)c(-c5ccccc5)c5nc(c(-c6ccccc6)c6ccc3[nH]6)C=C5)C=C4)cc2)sc2c1CCCC2
REMARK SMILES IDX 21 1 20 2 18 3 19 4 17 6 11 7 12 8 13 9 16 10 15 11 14 12
REMARK SMILES IDX 9 13 8 14 10 16 7 17 6 18 78 19 76 20 77 21 79 22 82 23
REMARK SMILES IDX 80 24 81 25 4 26 5 27 3 28 2 29 1 30 22 31 23 32 24 33 25 34
REMARK SMILES IDX 26 35 27 37 28 38 29 39 75 40 30 41 74 42 31 43 32 44 33 45
REMARK SMILES IDX 68 46 34 47 73 48 67 49 69 50 35 51 72 52 66 53 65 54 36 56
REMARK SMILES IDX 58 57 43 58 57 59 44 60 47 61 56 62 70 63 45 64 46 65 55 67
REMARK SMILES IDX 71 68 48 69 37 70 38 71 42 72 39 73 41 74 40 75 59 76 60 77
REMARK SMILES IDX 64 78 61 79 63 80 62 81 49 82 50 83 54 84 51 85 53 86 52 87
REMARK H PARENT 20 5 8 15 25 36 69 55 47 66
REMARK Flexibility Score: inf
ROOT
ATOM      1  C   UNL A   1      35.071  21.519  26.313  1.00  0.00     0.116 C 
ENDROOT
BRANCH   1   2
ATOM      2  N   UNL A   1      33.668  21.653  26.011  1.00  0.00    -0.356 N 
ATOM      3  C   UNL A   1      33.012  22.566  25.250  1.00  0.00     0.224 C 
ATOM      4  O   UNL A   1      31.816  22.327  25.035  1.00  0.00    -0.275 OA
ATOM      5  H   UNL A   1      33.091  20.971  26.425  1.00  0.00     0.163 HD
BRANCH   3   6
ATOM      6  C   UNL A   1      33.595  23.900  24.762  1.00  0.00     0.094 C 
ATOM      7  C   UNL A   1      32.881  25.274  24.827  1.00  0.00     0.094 C 
ATOM      8  C   UNL A   1      32.904  25.734  23.343  1.00  0.00     0.002 C 
ATOM      9  C   UNL A   1      32.198  24.832  22.309  1.00  0.00     0.005 C 
ATOM     10  C   UNL A   1      34.361  25.365  23.010  1.00  0.00     0.009 C 
ATOM     11  C   UNL A   1      34.148  23.873  23.310  1.00  0.00     0.002 C 
ATOM     12  C   UNL A   1      33.048  23.553  22.296  1.00  0.00     0.005 C 
BRANCH   7  13
ATOM     13  C   UNL A   1      31.683  25.405  25.742  1.00  0.00     0.229 C 
ATOM     14  N   UNL A   1      30.525  26.003  25.392  1.00  0.00    -0.317 N 
ATOM     15  H   UNL A   1      29.725  25.532  25.717  1.00  0.00     0.170 HD
ATOM     16  O   UNL A   1      31.728  24.985  26.904  1.00  0.00    -0.274 OA
BRANCH  14  17
ATOM     17  C   UNL A   1      30.241  27.138  24.673  1.00  0.00     0.110 A 
ATOM     18  C   UNL A   1      30.718  28.419  24.474  1.00  0.00     0.098 A 
ATOM     19  C   UNL A   1      29.788  29.182  23.662  1.00  0.00    -0.017 A 
ATOM     20  S   UNL A   1      28.772  26.852  23.824  1.00  0.00    -0.122 S 
ATOM     21  C   UNL A   1      28.715  28.432  23.235  1.00  0.00     0.011 A 
ATOM     22  C   UNL A   1      29.930  30.634  23.298  1.00  0.00     0.038 C 
ATOM     23  C   UNL A   1      27.579  28.933  22.396  1.00  0.00     0.047 C 
ATOM     24  C   UNL A   1      28.605  31.223  22.793  1.00  0.00     0.005 C 
ATOM     25  C   UNL A   1      27.932  30.293  21.775  1.00  0.00     0.006 C 
BRANCH  18  26
ATOM     26  C   UNL A   1      31.937  29.037  24.966  1.00  0.00     0.341 C 
ATOM     27  O   UNL A   1      32.902  29.228  24.234  1.00  0.00    -0.246 OA
BRANCH  26  28
ATOM     28  O   UNL A   1      31.834  29.492  26.247  1.00  0.00    -0.462 OA
BRANCH  28  29
ATOM     29  C   UNL A   1      32.903  29.094  27.124  1.00  0.00     0.230 C 
ATOM     30  C   UNL A   1      33.825  30.271  27.373  1.00  0.00     0.049 C 
ENDBRANCH  28  29
ENDBRANCH  26  28
ENDBRANCH  18  26
ENDBRANCH  14  17
ENDBRANCH   7  13
ENDBRANCH   3   6
ENDBRANCH   1   2
BRANCH   1  31
ATOM     31  C   UNL A   1      35.882  20.907  25.184  1.00  0.00     0.023 C 
BRANCH  31  32
ATOM     32  C   UNL A   1      36.888  21.873  24.579  1.00  0.00     0.023 C 
BRANCH  32  33
ATOM     33  C   UNL A   1      37.680  22.669  25.608  1.00  0.00     0.116 C 
BRANCH  33  34
ATOM     34  N   UNL A   1      39.045  22.175  25.791  1.00  0.00    -0.352 N 
ATOM     35  C   UNL A   1      40.133  22.854  26.291  1.00  0.00     0.251 C 
ATOM     36  H   UNL A   1      39.206  21.242  25.523  1.00  0.00     0.163 HD
ATOM     37  O   UNL A   1      41.257  22.371  26.288  1.00  0.00    -0.269 OA
BRANCH  35  38
ATOM     38  C   UNL A   1      39.891  24.215  26.794  1.00  0.00     0.039 A 
ATOM     39  C   UNL A   1      39.320  24.373  28.055  1.00  0.00     0.014 A 
ATOM     40  C   UNL A   1      40.467  25.288  26.109  1.00  0.00     0.014 A 
ATOM     41  C   UNL A   1      39.431  25.607  28.692  1.00  0.00     0.010 A 
ATOM     42  C   UNL A   1      40.662  26.481  26.787  1.00  0.00     0.010 A 
ATOM     43  C   UNL A   1      40.164  26.645  28.091  1.00  0.00    -0.014 A 
BRANCH  43  44
ATOM     44  C   UNL A   1      40.463  27.901  28.817  1.00  0.00     0.031 A 
ATOM     45  C   UNL A   1      41.758  28.036  29.563  1.00  0.00     0.074 A 
ATOM     46  C   UNL A   1      39.531  28.874  28.887  1.00  0.00     0.049 A 
ATOM     47  N   UNL A   1      42.167  29.009  30.336  1.00  0.00    -0.248 NA
ATOM     48  C   UNL A   1      42.706  26.915  29.453  1.00  0.00     0.031 C 
ATOM     49  C   UNL A   1      38.207  28.837  28.258  1.00  0.00     0.029 A 
ATOM     50  N   UNL A   1      39.552  30.084  29.534  1.00  0.00    -0.354 N 
ATOM     51  C   UNL A   1      43.403  28.604  30.821  1.00  0.00     0.074 A 
ATOM     52  C   UNL A   1      43.653  27.278  30.302  1.00  0.00     0.031 C 
ATOM     53  C   UNL A   1      37.559  29.982  28.524  1.00  0.00     0.029 A 
ATOM     54  C   UNL A   1      38.399  30.815  29.378  1.00  0.00     0.049 A 
ATOM     55  H   UNL A   1      40.322  30.400  30.061  1.00  0.00     0.167 HD
ATOM     56  C   UNL A   1      44.265  29.286  31.609  1.00  0.00     0.031 A 
ATOM     57  C   UNL A   1      38.052  32.018  29.877  1.00  0.00     0.031 A 
ATOM     58  C   UNL A   1      44.025  30.612  32.106  1.00  0.00     0.049 A 
ATOM     59  C   UNL A   1      39.025  32.750  30.759  1.00  0.00     0.074 A 
ATOM     60  C   UNL A   1      44.869  31.420  32.844  1.00  0.00     0.029 A 
ATOM     61  N   UNL A   1      42.850  31.321  31.916  1.00  0.00    -0.354 N 
ATOM     62  N   UNL A   1      40.229  32.391  31.136  1.00  0.00    -0.248 NA
ATOM     63  C   UNL A   1      38.593  34.054  31.281  1.00  0.00     0.031 C 
ATOM     64  C   UNL A   1      44.184  32.601  33.147  1.00  0.00     0.029 A 
ATOM     65  C   UNL A   1      42.933  32.547  32.554  1.00  0.00     0.049 A 
ATOM     66  H   UNL A   1      42.071  31.001  31.404  1.00  0.00     0.167 HD
ATOM     67  C   UNL A   1      40.702  33.430  31.926  1.00  0.00     0.074 A 
ATOM     68  C   UNL A   1      39.667  34.442  31.955  1.00  0.00     0.031 C 
ATOM     69  C   UNL A   1      41.887  33.535  32.575  1.00  0.00     0.031 A 
BRANCH  56  70
ATOM     70  C   UNL A   1      45.550  28.601  31.976  1.00  0.00    -0.014 A 
ATOM     71  C   UNL A   1      46.699  28.734  31.180  1.00  0.00     0.009 A 
ATOM     72  C   UNL A   1      45.620  27.832  33.148  1.00  0.00     0.009 A 
ATOM     73  C   UNL A   1      47.882  28.082  31.531  1.00  0.00     0.001 A 
ATOM     74  C   UNL A   1      46.813  27.205  33.512  1.00  0.00     0.001 A 
ATOM     75  C   UNL A   1      47.939  27.323  32.698  1.00  0.00     0.000 A 
ENDBRANCH  56  70
BRANCH  57  76
ATOM     76  C   UNL A   1      36.727  32.610  29.556  1.00  0.00    -0.014 A 
ATOM     77  C   UNL A   1      36.523  33.276  28.338  1.00  0.00     0.009 A 
ATOM     78  C   UNL A   1      35.664  32.525  30.469  1.00  0.00     0.009 A 
ATOM     79  C   UNL A   1      35.290  33.869  28.051  1.00  0.00     0.001 A 
ATOM     80  C   UNL A   1      34.424  33.095  30.168  1.00  0.00     0.001 A 
ATOM     81  C   UNL A   1      34.241  33.774  28.965  1.00  0.00     0.000 A 
ENDBRANCH  57  76
BRANCH  69  82
ATOM     82  C   UNL A   1      42.129  34.791  33.360  1.00  0.00    -0.014 A 
ATOM     83  C   UNL A   1      42.885  35.844  32.822  1.00  0.00     0.009 A 
ATOM     84  C   UNL A   1      41.551  34.944  34.630  1.00  0.00     0.009 A 
ATOM     85  C   UNL A   1      43.080  37.017  33.555  1.00  0.00     0.001 A 
ATOM     86  C   UNL A   1      41.725  36.127  35.348  1.00  0.00     0.001 A 
ATOM     87  C   UNL A   1      42.495  37.159  34.813  1.00  0.00     0.000 A 
ENDBRANCH  69  82
ENDBRANCH  43  44
ENDBRANCH  35  38
ENDBRANCH  33  34
ENDBRANCH  32  33
ENDBRANCH  31  32
ENDBRANCH   1  31
TORSDOF 16
ENDMDL
MODEL 2
REMARK VINA RESULT:     -11.3      2.200      6.438
REMARK SMILES CCOC(=O)c1c(NC(=O)[C@@H]2[C@@H]3CC[C@@H](C3)[C@@H]2C(=O)NCCCCNC(=O)c2ccc(-c3c4nc(c(-c5ccccc5)c5ccc([nH]5)c(-c5ccccc5)c5nc(c(-c6ccccc6)c6ccc3[nH]6)C=C5)C=C4)cc2)sc2c1CCCC2
REMARK SMILES IDX 21 1 20 2 18 3 19 4 17 6 11 7 12 8 13 9 16 10 15 11 14 12
REMARK SMILES IDX 9 13 8 14 10 16 7 17 6 18 78 19 76 20 77 21 79 22 82 23
REMARK SMILES IDX 80 24 81 25 4 26 5 27 3 28 2 29 1 30 22 31 23 32 24 33 25 34
REMARK SMILES IDX 26 35 27 37 28 38 29 39 75 40 30 41 74 42 31 43 32 44 33 45
REMARK SMILES IDX 68 46 34 47 73 48 67 49 69 50 35 51 72 52 66 53 65 54 36 56
REMARK SMILES IDX 58 57 43 58 57 59 44 60 47 61 56 62 70 63 45 64 46 65 55 67
REMARK SMILES IDX 71 68 48 69 37 70 38 71 42 72 39 73 41 74 40 75 59 76 60 77
REMARK SMILES IDX 64 78 61 79 63 80 62 81 49 82 50 83 54 84 51 85 53 86 52 87
REMARK H PARENT 20 5 8 15 25 36 69 55 47 66
REMARK Flexibility Score: inf
ROOT
ATOM      1  C   UNL A   1      35.150  21.485  26.442  1.00  0.00     0.116 C 
ENDROOT
BRANCH   1   2
ATOM      2  N   UNL A   1      33.768  21.543  26.038  1.00  0.00    -0.356 N 
ATOM      3  C   UNL A   1      33.120  22.428  25.239  1.00  0.00     0.224 C 
ATOM      4  O   UNL A   1      31.958  22.125  24.933  1.00  0.00    -0.275 OA
ATOM      5  H   UNL A   1      33.203  20.824  26.402  1.00  0.00     0.163 HD
BRANCH   3   6
ATOM      6  C   UNL A   1      33.660  23.799  24.808  1.00  0.00     0.094 C 
ATOM      7  C   UNL A   1      32.885  25.139  24.887  1.00  0.00     0.094 C 
ATOM      8  C   UNL A   1      32.937  25.642  23.417  1.00  0.00     0.002 C 
ATOM      9  C   UNL A   1      32.305  24.741  22.336  1.00  0.00     0.005 C 
ATOM     10  C   UNL A   1      34.418  25.345  23.124  1.00  0.00     0.009 C 
ATOM     11  C   UNL A   1      34.260  23.837  23.375  1.00  0.00     0.002 C 
ATOM     12  C   UNL A   1      33.209  23.500  22.316  1.00  0.00     0.005 C 
BRANCH   7  13
ATOM     13  C   UNL A   1      31.654  25.192  25.764  1.00  0.00     0.229 C 
ATOM     14  N   UNL A   1      30.494  25.782  25.405  1.00  0.00    -0.317 N 
ATOM     15  H   UNL A   1      29.695  25.276  25.675  1.00  0.00     0.170 HD
ATOM     16  O   UNL A   1      31.669  24.711  26.903  1.00  0.00    -0.274 OA
BRANCH  14  17
ATOM     17  C   UNL A   1      30.207  26.947  24.738  1.00  0.00     0.110 A 
ATOM     18  C   UNL A   1      30.672  28.242  24.609  1.00  0.00     0.098 A 
ATOM     19  C   UNL A   1      29.744  29.033  23.821  1.00  0.00    -0.017 A 
ATOM     20  S   UNL A   1      28.753  26.686  23.854  1.00  0.00    -0.122 S 
ATOM     21  C   UNL A   1      28.686  28.293  23.342  1.00  0.00     0.011 A 
ATOM     22  C   UNL A   1      29.873  30.503  23.529  1.00  0.00     0.038 C 
ATOM     23  C   UNL A   1      27.556  28.821  22.513  1.00  0.00     0.047 C 
ATOM     24  C   UNL A   1      28.549  31.101  23.035  1.00  0.00     0.005 C 
ATOM     25  C   UNL A   1      27.901  30.214  21.963  1.00  0.00     0.006 C 
BRANCH  18  26
ATOM     26  C   UNL A   1      31.876  28.848  25.147  1.00  0.00     0.341 C 
ATOM     27  O   UNL A   1      32.830  29.129  24.431  1.00  0.00    -0.246 OA
BRANCH  26  28
ATOM     28  O   UNL A   1      31.769  29.187  26.463  1.00  0.00    -0.462 OA
BRANCH  28  29
ATOM     29  C   UNL A   1      32.365  30.446  26.820  1.00  0.00     0.230 C 
ATOM     30  C   UNL A   1      31.405  31.576  26.500  1.00  0.00     0.049 C 
ENDBRANCH  28  29
ENDBRANCH  26  28
ENDBRANCH  18  26
ENDBRANCH  14  17
ENDBRANCH   7  13
ENDBRANCH   3   6
ENDBRANCH   1   2
BRANCH   1  31
ATOM     31  C   UNL A   1      36.094  21.060  25.330  1.00  0.00     0.023 C 
BRANCH  31  32
ATOM     32  C   UNL A   1      37.150  22.106  25.011  1.00  0.00     0.023 C 
BRANCH  32  33
ATOM     33  C   UNL A   1      38.456  21.922  25.772  1.00  0.00     0.116 C 
BRANCH  33  34
ATOM     34  N   UNL A   1      38.995  20.566  25.672  1.00  0.00    -0.352 N 
ATOM     35  C   UNL A   1      40.260  20.130  25.992  1.00  0.00     0.251 C 
ATOM     36  H   UNL A   1      38.375  19.879  25.334  1.00  0.00     0.163 HD
ATOM     37  O   UNL A   1      40.633  18.988  25.755  1.00  0.00    -0.269 OA
BRANCH  35  38
ATOM     38  C   UNL A   1      41.168  21.116  26.597  1.00  0.00     0.039 A 
ATOM     39  C   UNL A   1      41.892  21.965  25.761  1.00  0.00     0.014 A 
ATOM     40  C   UNL A   1      41.083  21.339  27.973  1.00  0.00     0.014 A 
ATOM     41  C   UNL A   1      42.447  23.123  26.299  1.00  0.00     0.010 A 
ATOM     42  C   UNL A   1      41.550  22.540  28.482  1.00  0.00     0.010 A 
ATOM     43  C   UNL A   1      42.218  23.452  27.646  1.00  0.00    -0.014 A 
BRANCH  43  44
ATOM     44  C   UNL A   1      42.630  24.762  28.203  1.00  0.00     0.031 A 
ATOM     45  C   UNL A   1      41.603  25.838  28.402  1.00  0.00     0.074 A 
ATOM     46  C   UNL A   1      43.935  25.014  28.433  1.00  0.00     0.049 A 
ATOM     47  N   UNL A   1      41.772  27.078  28.783  1.00  0.00    -0.248 NA
ATOM     48  C   UNL A   1      40.206  25.485  28.101  1.00  0.00     0.031 C 
ATOM     49  C   UNL A   1      45.038  24.071  28.219  1.00  0.00     0.029 A 
ATOM     50  N   UNL A   1      44.559  26.149  28.887  1.00  0.00    -0.354 N 
ATOM     51  C   UNL A   1      40.510  27.655  28.742  1.00  0.00     0.074 A 
ATOM     52  C   UNL A   1      39.596  26.650  28.248  1.00  0.00     0.031 C 
ATOM     53  C   UNL A   1      46.194  24.657  28.572  1.00  0.00     0.029 A 
ATOM     54  C   UNL A   1      45.923  26.028  28.991  1.00  0.00     0.049 A 
ATOM     55  H   UNL A   1      44.072  26.974  29.117  1.00  0.00     0.167 HD
ATOM     56  C   UNL A   1      40.140  28.904  29.107  1.00  0.00     0.031 A 
ATOM     57  C   UNL A   1      46.854  26.924  29.373  1.00  0.00     0.031 A 
ATOM     58  C   UNL A   1      41.045  29.894  29.618  1.00  0.00     0.049 A 
ATOM     59  C   UNL A   1      46.416  28.308  29.763  1.00  0.00     0.074 A 
ATOM     60  C   UNL A   1      40.757  31.160  30.092  1.00  0.00     0.029 A 
ATOM     61  N   UNL A   1      42.418  29.728  29.719  1.00  0.00    -0.354 N 
ATOM     62  N   UNL A   1      45.206  28.811  29.804  1.00  0.00    -0.248 NA
ATOM     63  C   UNL A   1      47.474  29.247  30.164  1.00  0.00     0.031 C 
ATOM     64  C   UNL A   1      41.964  31.781  30.431  1.00  0.00     0.029 A 
ATOM     65  C   UNL A   1      42.995  30.882  30.215  1.00  0.00     0.049 A 
ATOM     66  H   UNL A   1      42.908  28.909  29.473  1.00  0.00     0.167 HD
ATOM     67  C   UNL A   1      45.355  30.118  30.247  1.00  0.00     0.074 A 
ATOM     68  C   UNL A   1      46.769  30.323  30.485  1.00  0.00     0.031 C 
ATOM     69  C   UNL A   1      44.406  31.067  30.436  1.00  0.00     0.031 A 
BRANCH  56  70
ATOM     70  C   UNL A   1      38.688  29.260  28.964  1.00  0.00    -0.014 A 
ATOM     71  C   UNL A   1      38.177  29.755  27.755  1.00  0.00     0.009 A 
ATOM     72  C   UNL A   1      37.815  29.074  30.047  1.00  0.00     0.009 A 
ATOM     73  C   UNL A   1      36.827  30.092  27.643  1.00  0.00     0.001 A 
ATOM     74  C   UNL A   1      36.459  29.384  29.923  1.00  0.00     0.001 A 
ATOM     75  C   UNL A   1      35.969  29.900  28.725  1.00  0.00     0.000 A 
ENDBRANCH  56  70
BRANCH  57  76
ATOM     76  C   UNL A   1      48.291  26.545  29.407  1.00  0.00    -0.014 A 
ATOM     77  C   UNL A   1      49.117  26.794  28.300  1.00  0.00     0.009 A 
ATOM     78  C   UNL A   1      48.841  25.921  30.536  1.00  0.00     0.009 A 
ATOM     79  C   UNL A   1      50.459  26.402  28.314  1.00  0.00     0.001 A 
ATOM     80  C   UNL A   1      50.190  25.555  30.559  1.00  0.00     0.001 A 
ATOM     81  C   UNL A   1      50.994  25.787  29.444  1.00  0.00     0.000 A 
ENDBRANCH  57  76
BRANCH  69  82
ATOM     82  C   UNL A   1      44.866  32.406  30.934  1.00  0.00    -0.014 A 
ATOM     83  C   UNL A   1      44.985  32.664  32.308  1.00  0.00     0.009 A 
ATOM     84  C   UNL A   1      45.234  33.403  30.017  1.00  0.00     0.009 A 
ATOM     85  C   UNL A   1      45.438  33.906  32.755  1.00  0.00     0.001 A 
ATOM     86  C   UNL A   1      45.712  34.633  30.466  1.00  0.00     0.001 A 
ATOM     87  C   UNL A   1      45.807  34.887  31.834  1.00  0.00     0.000 A 
ENDBRANCH  69  82
ENDBRANCH  43  44
ENDBRANCH  35  38
ENDBRANCH  33  34
ENDBRANCH  32  33
ENDBRANCH  31  32
ENDBRANCH   1  31
TORSDOF 16
ENDMDL
MODEL 3
REMARK VINA RESULT:     -11.0      2.622      8.329
REMARK SMILES CCOC(=O)c1c(NC(=O)[C@@H]2[C@@H]3CC[C@@H](C3)[C@@H]2C(=O)NCCCCNC(=O)c2ccc(-c3c4nc(c(-c5ccccc5)c5ccc([nH]5)c(-c5ccccc5)c5nc(c(-c6ccccc6)c6ccc3[nH]6)C=C5)C=C4)cc2)sc2c1CCCC2
REMARK SMILES IDX 21 1 20 2 18 3 19 4 17 6 11 7 12 8 13 9 16 10 15 11 14 12
REMARK SMILES IDX 9 13 8 14 10 16 7 17 6 18 78 19 76 20 77 21 79 22 82 23
REMARK SMILES IDX 80 24 81 25 4 26 5 27 3 28 2 29 1 30 22 31 23 32 24 33 25 34
REMARK SMILES IDX 26 35 27 37 28 38 29 39 75 40 30 41 74 42 31 43 32 44 33 45
REMARK SMILES IDX 68 46 34 47 73 48 67 49 69 50 35 51 72 52 66 53 65 54 36 56
REMARK SMILES IDX 58 57 43 58 57 59 44 60 47 61 56 62 70 63 45 64 46 65 55 67
REMARK SMILES IDX 71 68 48 69 37 70 38 71 42 72 39 73 41 74 40 75 59 76 60 77
REMARK SMILES IDX 64 78 61 79 63 80 62 81 49 82 50 83 54 84 51 85 53 86 52 87
REMARK H PARENT 20 5 8 15 25 36 69 55 47 66
REMARK Flexibility Score: inf
ROOT
ATOM      1  C   UNL A   1      30.955  29.709  24.257  1.00  0.00     0.116 C 
ENDROOT
BRANCH   1   2
ATOM      2  N   UNL A   1      30.910  28.662  23.268  1.00  0.00    -0.356 N 
ATOM      3  C   UNL A   1      31.194  27.339  23.370  1.00  0.00     0.224 C 
ATOM      4  O   UNL A   1      30.900  26.648  22.384  1.00  0.00    -0.275 OA
ATOM      5  H   UNL A   1      30.628  28.955  22.371  1.00  0.00     0.163 HD
BRANCH   3   6
ATOM      6  C   UNL A   1      31.952  26.679  24.531  1.00  0.00     0.094 C 
ATOM      7  C   UNL A   1      32.815  25.395  24.430  1.00  0.00     0.094 C 
ATOM      8  C   UNL A   1      32.162  24.469  25.495  1.00  0.00     0.002 C 
ATOM      9  C   UNL A   1      30.674  24.110  25.305  1.00  0.00     0.005 C 
ATOM     10  C   UNL A   1      32.005  25.498  26.630  1.00  0.00     0.009 C 
ATOM     11  C   UNL A   1      31.092  26.412  25.797  1.00  0.00     0.002 C 
ATOM     12  C   UNL A   1      29.943  25.446  25.504  1.00  0.00     0.005 C 
BRANCH   7  13
ATOM     13  C   UNL A   1      33.247  24.940  23.054  1.00  0.00     0.229 C 
ATOM     14  N   UNL A   1      33.113  23.677  22.598  1.00  0.00    -0.317 N 
ATOM     15  H   UNL A   1      32.828  23.626  21.658  1.00  0.00     0.170 HD
ATOM     16  O   UNL A   1      33.794  25.727  22.272  1.00  0.00    -0.274 OA
BRANCH  14  17
ATOM     17  C   UNL A   1      33.296  22.449  23.184  1.00  0.00     0.110 A 
ATOM     18  C   UNL A   1      34.184  21.783  24.007  1.00  0.00     0.098 A 
ATOM     19  C   UNL A   1      33.831  20.378  24.095  1.00  0.00    -0.017 A 
ATOM     20  S   UNL A   1      32.031  21.423  22.626  1.00  0.00    -0.122 S 
ATOM     21  C   UNL A   1      32.675  20.074  23.411  1.00  0.00     0.011 A 
ATOM     22  C   UNL A   1      34.607  19.325  24.838  1.00  0.00     0.038 C 
ATOM     23  C   UNL A   1      32.059  18.714  23.299  1.00  0.00     0.047 C 
ATOM     24  C   UNL A   1      34.203  17.910  24.399  1.00  0.00     0.005 C 
ATOM     25  C   UNL A   1      32.678  17.760  24.332  1.00  0.00     0.006 C 
BRANCH  18  26
ATOM     26  C   UNL A   1      35.344  22.292  24.715  1.00  0.00     0.341 C 
ATOM     27  O   UNL A   1      36.471  22.224  24.237  1.00  0.00    -0.246 OA
BRANCH  26  28
ATOM     28  O   UNL A   1      35.028  22.958  25.862  1.00  0.00    -0.462 OA
BRANCH  28  29
ATOM     29  C   UNL A   1      35.052  22.159  27.058  1.00  0.00     0.230 C 
ATOM     30  C   UNL A   1      33.638  21.955  27.566  1.00  0.00     0.049 C 
ENDBRANCH  28  29
ENDBRANCH  26  28
ENDBRANCH  18  26
ENDBRANCH  14  17
ENDBRANCH   7  13
ENDBRANCH   3   6
ENDBRANCH   1   2
BRANCH   1  31
ATOM     31  C   UNL A   1      32.299  29.834  24.954  1.00  0.00     0.023 C 
BRANCH  31  32
ATOM     32  C   UNL A   1      32.179  29.961  26.464  1.00  0.00     0.023 C 
BRANCH  32  33
ATOM     33  C   UNL A   1      33.512  29.911  27.199  1.00  0.00     0.116 C 
BRANCH  33  34
ATOM     34  N   UNL A   1      33.752  31.086  28.036  1.00  0.00    -0.352 N 
ATOM     35  C   UNL A   1      34.846  31.356  28.826  1.00  0.00     0.251 C 
ATOM     36  H   UNL A   1      33.043  31.769  28.034  1.00  0.00     0.163 HD
ATOM     37  O   UNL A   1      34.882  32.323  29.576  1.00  0.00    -0.269 OA
BRANCH  35  38
ATOM     38  C   UNL A   1      35.962  30.401  28.762  1.00  0.00     0.039 A 
ATOM     39  C   UNL A   1      36.812  30.434  27.658  1.00  0.00     0.014 A 
ATOM     40  C   UNL A   1      36.280  29.674  29.912  1.00  0.00     0.014 A 
ATOM     41  C   UNL A   1      38.058  29.819  27.752  1.00  0.00     0.010 A 
ATOM     42  C   UNL A   1      37.558  29.152  30.035  1.00  0.00     0.010 A 
ATOM     43  C   UNL A   1      38.465  29.237  28.965  1.00  0.00    -0.014 A 
BRANCH  43  44
ATOM     44  C   UNL A   1      39.849  28.744  29.161  1.00  0.00     0.031 A 
ATOM     45  C   UNL A   1      40.898  29.673  29.697  1.00  0.00     0.074 A 
ATOM     46  C   UNL A   1      40.180  27.499  28.763  1.00  0.00     0.049 A 
ATOM     47  N   UNL A   1      42.180  29.468  29.850  1.00  0.00    -0.248 NA
ATOM     48  C   UNL A   1      40.453  31.023  30.082  1.00  0.00     0.031 C 
ATOM     49  C   UNL A   1      39.265  26.520  28.167  1.00  0.00     0.029 A 
ATOM     50  N   UNL A   1      41.387  26.845  28.788  1.00  0.00    -0.354 N 
ATOM     51  C   UNL A   1      42.695  30.668  30.322  1.00  0.00     0.074 A 
ATOM     52  C   UNL A   1      41.601  31.611  30.379  1.00  0.00     0.031 C 
ATOM     53  C   UNL A   1      39.936  25.384  27.915  1.00  0.00     0.029 A 
ATOM     54  C   UNL A   1      41.335  25.567  28.285  1.00  0.00     0.049 A 
ATOM     55  H   UNL A   1      42.213  27.255  29.135  1.00  0.00     0.167 HD
ATOM     56  C   UNL A   1      43.962  30.953  30.700  1.00  0.00     0.031 A 
ATOM     57  C   UNL A   1      42.309  24.649  28.131  1.00  0.00     0.031 A 
ATOM     58  C   UNL A   1      45.044  30.009  30.664  1.00  0.00     0.049 A 
ATOM     59  C   UNL A   1      43.711  24.995  28.549  1.00  0.00     0.074 A 
ATOM     60  C   UNL A   1      46.345  30.175  31.100  1.00  0.00     0.029 A 
ATOM     61  N   UNL A   1      44.948  28.722  30.159  1.00  0.00    -0.354 N 
ATOM     62  N   UNL A   1      44.165  26.106  29.078  1.00  0.00    -0.248 NA
ATOM     63  C   UNL A   1      44.735  23.959  28.352  1.00  0.00     0.031 C 
ATOM     64  C   UNL A   1      47.052  29.003  30.811  1.00  0.00     0.029 A 
ATOM     65  C   UNL A   1      46.177  28.092  30.241  1.00  0.00     0.049 A 
ATOM     66  H   UNL A   1      44.127  28.316  29.796  1.00  0.00     0.167 HD
ATOM     67  C   UNL A   1      45.521  25.898  29.289  1.00  0.00     0.074 A 
ATOM     68  C   UNL A   1      45.812  24.548  28.854  1.00  0.00     0.031 C 
ATOM     69  C   UNL A   1      46.445  26.750  29.794  1.00  0.00     0.031 A 
BRANCH  56  70
ATOM     70  C   UNL A   1      44.238  32.346  31.186  1.00  0.00    -0.014 A 
ATOM     71  C   UNL A   1      44.637  33.359  30.300  1.00  0.00     0.009 A 
ATOM     72  C   UNL A   1      44.073  32.657  32.545  1.00  0.00     0.009 A 
ATOM     73  C   UNL A   1      44.900  34.647  30.770  1.00  0.00     0.001 A 
ATOM     74  C   UNL A   1      44.308  33.953  33.007  1.00  0.00     0.001 A 
ATOM     75  C   UNL A   1      44.730  34.943  32.121  1.00  0.00     0.000 A 
ENDBRANCH  56  70
BRANCH  57  76
ATOM     76  C   UNL A   1      41.997  23.314  27.557  1.00  0.00    -0.014 A 
ATOM     77  C   UNL A   1      41.481  22.294  28.371  1.00  0.00     0.009 A 
ATOM     78  C   UNL A   1      42.226  23.047  26.198  1.00  0.00     0.009 A 
ATOM     79  C   UNL A   1      41.226  21.025  27.842  1.00  0.00     0.001 A 
ATOM     80  C   UNL A   1      41.944  21.786  25.666  1.00  0.00     0.001 A 
ATOM     81  C   UNL A   1      41.453  20.774  26.490  1.00  0.00     0.000 A 
ENDBRANCH  57  76
BRANCH  69  82
ATOM     82  C   UNL A   1      47.852  26.243  29.912  1.00  0.00    -0.014 A 
ATOM     83  C   UNL A   1      48.733  26.294  28.821  1.00  0.00     0.009 A 
ATOM     84  C   UNL A   1      48.318  25.756  31.144  1.00  0.00     0.009 A 
ATOM     85  C   UNL A   1      50.047  25.842  28.954  1.00  0.00     0.001 A 
ATOM     86  C   UNL A   1      49.639  25.330  31.281  1.00  0.00     0.001 A 
ATOM     87  C   UNL A   1      50.500  25.366  30.185  1.00  0.00     0.000 A 
ENDBRANCH  69  82
ENDBRANCH  43  44
ENDBRANCH  35  38
ENDBRANCH  33  34
ENDBRANCH  32  33
ENDBRANCH  31  32
ENDBRANCH   1  31
TORSDOF 16
ENDMDL
