MODEL 1
REMARK VINA RESULT:     -12.4      0.000      0.000
REMARK SMILES Cc1cccc(-c2ccccc2C(=O)N2CC[C@H](O)C[C@@H]2C(=O)NCCCCNC(=O)c2ccc(-c3c4nc(c(-c5ccccc5)c5ccc([nH]5)c(-c5ccccc5)c5nc(c(-c6ccccc6)c6ccc3[nH]6)C=C5)C=C4)cc2)c1
REMARK SMILES IDX 26 1 25 2 24 3 22 4 23 5 21 7 15 8 16 9 17 10 20 11 18 12
REMARK SMILES IDX 13 13 14 14 12 15 7 16 8 17 9 18 11 19 10 20 6 21 1 22 2 23
REMARK SMILES IDX 3 24 80 25 4 26 5 27 19 28 27 30 28 31 29 32 30 33 31 35
REMARK SMILES IDX 32 36 33 37 79 38 34 39 78 40 35 41 36 42 37 43 72 44 38 45
REMARK SMILES IDX 77 46 71 47 73 48 39 49 76 50 70 51 69 52 40 54 62 55 47 56
REMARK SMILES IDX 61 57 48 58 51 59 60 60 74 61 49 62 50 63 59 65 75 66 52 67
REMARK SMILES IDX 41 68 42 69 46 70 43 71 45 72 44 73 63 74 64 75 68 76 65 77
REMARK SMILES IDX 67 78 66 79 53 80 54 81 58 82 55 83 57 84 56 85
REMARK H PARENT 24 6 19 29 29 34 73 53 51 64
REMARK Flexibility Score: inf
ROOT
ATOM      1  C   UNL A   1      31.822  30.333  25.861  1.00  0.00     0.023 C 
ENDROOT
BRANCH   1   2
ATOM      2  C   UNL A   1      31.280  29.602  24.622  1.00  0.00     0.116 C 
BRANCH   2   3
ATOM      3  N   UNL A   1      32.277  29.367  23.588  1.00  0.00    -0.354 N 
ATOM      4  C   UNL A   1      32.653  28.232  22.931  1.00  0.00     0.242 C 
ATOM      5  O   UNL A   1      33.547  28.357  22.085  1.00  0.00    -0.273 OA
ATOM      6  H   UNL A   1      32.768  30.174  23.312  1.00  0.00     0.163 HD
BRANCH   4   7
ATOM      7  C   UNL A   1      32.085  26.841  23.297  1.00  0.00     0.177 C 
ATOM      8  N   UNL A   1      33.141  26.034  23.937  1.00  0.00    -0.326 N 
ATOM      9  C   UNL A   1      34.179  25.494  23.056  1.00  0.00     0.123 C 
ATOM     10  C   UNL A   1      33.569  24.664  21.935  1.00  0.00     0.053 C 
ATOM     11  C   UNL A   1      31.485  26.116  22.077  1.00  0.00     0.067 C 
ATOM     12  C   UNL A   1      32.506  25.436  21.160  1.00  0.00     0.118 C 
BRANCH   8  13
ATOM     13  C   UNL A   1      33.083  25.889  25.323  1.00  0.00     0.255 C 
ATOM     14  O   UNL A   1      33.759  26.607  26.060  1.00  0.00    -0.269 OA
BRANCH  13  15
ATOM     15  C   UNL A   1      32.357  24.738  25.950  1.00  0.00     0.047 A 
ATOM     16  C   UNL A   1      32.856  23.420  25.838  1.00  0.00    -0.006 A 
ATOM     17  C   UNL A   1      31.982  22.351  26.132  1.00  0.00     0.009 A 
ATOM     18  C   UNL A   1      30.664  22.571  26.536  1.00  0.00     0.001 A 
ATOM     19  C   UNL A   1      31.028  24.944  26.376  1.00  0.00     0.014 A 
ATOM     20  C   UNL A   1      30.192  23.869  26.676  1.00  0.00     0.001 A 
BRANCH  16  21
ATOM     21  C   UNL A   1      34.234  23.093  25.430  1.00  0.00    -0.017 A 
ATOM     22  C   UNL A   1      37.815  23.939  26.461  1.00  0.00     0.044 C 
ATOM     23  C   UNL A   1      36.648  23.324  25.748  1.00  0.00    -0.051 A 
ATOM     24  C   UNL A   1      36.868  22.396  24.724  1.00  0.00     0.003 A 
ATOM     25  C   UNL A   1      35.332  23.667  26.091  1.00  0.00     0.012 A 
ATOM     26  C   UNL A   1      35.790  21.821  24.054  1.00  0.00     0.001 A 
ATOM     27  C   UNL A   1      34.484  22.165  24.405  1.00  0.00     0.009 A 
ENDBRANCH  16  21
ENDBRANCH  13  15
ENDBRANCH   8  13
BRANCH  12  28
ATOM     28  O   UNL A   1      33.131  26.343  20.257  1.00  0.00    -0.393 OA
ATOM     29  H   UNL A   1      33.273  27.194  20.700  1.00  0.00     0.210 HD
ENDBRANCH  12  28
ENDBRANCH   4   7
ENDBRANCH   2   3
ENDBRANCH   1   2
BRANCH   1  30
ATOM     30  C   UNL A   1      33.304  30.125  26.188  1.00  0.00     0.023 C 
BRANCH  30  31
ATOM     31  C   UNL A   1      33.595  30.062  27.679  1.00  0.00     0.116 C 
BRANCH  31  32
ATOM     32  N   UNL A   1      34.305  31.223  28.206  1.00  0.00    -0.352 N 
ATOM     33  C   UNL A   1      35.607  31.313  28.674  1.00  0.00     0.251 C 
ATOM     34  H   UNL A   1      33.786  32.060  28.234  1.00  0.00     0.163 HD
ATOM     35  O   UNL A   1      36.033  32.364  29.127  1.00  0.00    -0.269 OA
BRANCH  33  36
ATOM     36  C   UNL A   1      36.518  30.156  28.491  1.00  0.00     0.039 A 
ATOM     37  C   UNL A   1      36.695  29.294  29.578  1.00  0.00     0.014 A 
ATOM     38  C   UNL A   1      37.357  30.073  27.384  1.00  0.00     0.014 A 
ATOM     39  C   UNL A   1      37.868  28.551  29.671  1.00  0.00     0.010 A 
ATOM     40  C   UNL A   1      38.565  29.418  27.519  1.00  0.00     0.010 A 
ATOM     41  C   UNL A   1      38.851  28.722  28.697  1.00  0.00    -0.014 A 
BRANCH  41  42
ATOM     42  C   UNL A   1      40.246  28.356  28.909  1.00  0.00     0.031 A 
ATOM     43  C   UNL A   1      40.802  27.111  28.357  1.00  0.00     0.074 A 
ATOM     44  C   UNL A   1      41.064  29.205  29.569  1.00  0.00     0.049 A 
ATOM     45  N   UNL A   1      41.838  26.513  28.844  1.00  0.00    -0.248 NA
ATOM     46  C   UNL A   1      40.205  26.414  27.226  1.00  0.00     0.031 C 
ATOM     47  C   UNL A   1      42.523  29.172  29.639  1.00  0.00     0.029 A 
ATOM     48  N   UNL A   1      40.695  30.156  30.517  1.00  0.00    -0.354 N 
ATOM     49  C   UNL A   1      42.220  25.562  27.931  1.00  0.00     0.074 A 
ATOM     50  C   UNL A   1      41.125  25.476  26.989  1.00  0.00     0.031 C 
ATOM     51  C   UNL A   1      42.920  29.854  30.725  1.00  0.00     0.029 A 
ATOM     52  C   UNL A   1      41.725  30.207  31.475  1.00  0.00     0.049 A 
ATOM     53  H   UNL A   1      39.870  30.692  30.517  1.00  0.00     0.167 HD
ATOM     54  C   UNL A   1      43.481  25.050  27.973  1.00  0.00     0.031 A 
ATOM     55  C   UNL A   1      41.482  29.862  32.774  1.00  0.00     0.031 A 
ATOM     56  C   UNL A   1      44.270  25.570  29.090  1.00  0.00     0.049 A 
ATOM     57  C   UNL A   1      42.289  28.681  33.281  1.00  0.00     0.074 A 
ATOM     58  C   UNL A   1      45.306  26.484  29.203  1.00  0.00     0.029 A 
ATOM     59  N   UNL A   1      43.831  25.335  30.383  1.00  0.00    -0.354 N 
ATOM     60  N   UNL A   1      43.101  27.965  32.554  1.00  0.00    -0.248 NA
ATOM     61  C   UNL A   1      42.139  28.141  34.633  1.00  0.00     0.031 C 
ATOM     62  C   UNL A   1      45.501  26.773  30.583  1.00  0.00     0.029 A 
ATOM     63  C   UNL A   1      44.587  26.032  31.305  1.00  0.00     0.049 A 
ATOM     64  H   UNL A   1      43.078  24.746  30.615  1.00  0.00     0.167 HD
ATOM     65  C   UNL A   1      43.509  26.867  33.269  1.00  0.00     0.074 A 
ATOM     66  C   UNL A   1      42.885  27.025  34.569  1.00  0.00     0.031 C 
ATOM     67  C   UNL A   1      44.276  25.881  32.717  1.00  0.00     0.031 A 
BRANCH  54  68
ATOM     68  C   UNL A   1      44.067  24.274  26.821  1.00  0.00    -0.014 A 
ATOM     69  C   UNL A   1      43.903  22.880  26.763  1.00  0.00     0.009 A 
ATOM     70  C   UNL A   1      44.828  24.855  25.793  1.00  0.00     0.009 A 
ATOM     71  C   UNL A   1      44.558  22.098  25.803  1.00  0.00     0.001 A 
ATOM     72  C   UNL A   1      45.526  24.077  24.859  1.00  0.00     0.001 A 
ATOM     73  C   UNL A   1      45.401  22.694  24.875  1.00  0.00     0.000 A 
ENDBRANCH  54  68
BRANCH  55  74
ATOM     74  C   UNL A   1      40.087  30.165  33.210  1.00  0.00    -0.014 A 
ATOM     75  C   UNL A   1      39.729  31.510  33.439  1.00  0.00     0.009 A 
ATOM     76  C   UNL A   1      39.067  29.217  33.063  1.00  0.00     0.009 A 
ATOM     77  C   UNL A   1      38.390  31.910  33.399  1.00  0.00     0.001 A 
ATOM     78  C   UNL A   1      37.726  29.617  33.048  1.00  0.00     0.001 A 
ATOM     79  C   UNL A   1      37.391  30.965  33.178  1.00  0.00     0.000 A 
ENDBRANCH  55  74
BRANCH  67  80
ATOM     80  C   UNL A   1      44.755  24.643  33.438  1.00  0.00    -0.014 A 
ATOM     81  C   UNL A   1      44.045  23.437  33.470  1.00  0.00     0.009 A 
ATOM     82  C   UNL A   1      45.932  24.703  34.219  1.00  0.00     0.009 A 
ATOM     83  C   UNL A   1      44.530  22.324  34.174  1.00  0.00     0.001 A 
ATOM     84  C   UNL A   1      46.407  23.605  34.941  1.00  0.00     0.001 A 
ATOM     85  C   UNL A   1      45.712  22.407  34.904  1.00  0.00     0.000 A 
ENDBRANCH  67  80
ENDBRANCH  41  42
ENDBRANCH  33  36
ENDBRANCH  31  32
ENDBRANCH  30  31
ENDBRANCH   1  30
TORSDOF 15
ENDMDL
MODEL 2
REMARK VINA RESULT:     -12.3      1.491      2.532
REMARK SMILES Cc1cccc(-c2ccccc2C(=O)N2CC[C@H](O)C[C@@H]2C(=O)NCCCCNC(=O)c2ccc(-c3c4nc(c(-c5ccccc5)c5ccc([nH]5)c(-c5ccccc5)c5nc(c(-c6ccccc6)c6ccc3[nH]6)C=C5)C=C4)cc2)c1
REMARK SMILES IDX 26 1 25 2 24 3 22 4 23 5 21 7 15 8 16 9 17 10 20 11 18 12
REMARK SMILES IDX 13 13 14 14 12 15 7 16 8 17 9 18 11 19 10 20 6 21 1 22 2 23
REMARK SMILES IDX 3 24 80 25 4 26 5 27 19 28 27 30 28 31 29 32 30 33 31 35
REMARK SMILES IDX 32 36 33 37 79 38 34 39 78 40 35 41 36 42 37 43 72 44 38 45
REMARK SMILES IDX 77 46 71 47 73 48 39 49 76 50 70 51 69 52 40 54 62 55 47 56
REMARK SMILES IDX 61 57 48 58 51 59 60 60 74 61 49 62 50 63 59 65 75 66 52 67
REMARK SMILES IDX 41 68 42 69 46 70 43 71 45 72 44 73 63 74 64 75 68 76 65 77
REMARK SMILES IDX 67 78 66 79 53 80 54 81 58 82 55 83 57 84 56 85
REMARK H PARENT 24 6 19 29 29 34 73 53 51 64
REMARK Flexibility Score: inf
ROOT
ATOM      1  C   UNL A   1      32.049  29.271  27.183  1.00  0.00     0.023 C 
ENDROOT
BRANCH   1   2
ATOM      2  C   UNL A   1      33.207  28.263  27.123  1.00  0.00     0.116 C 
BRANCH   2   3
ATOM      3  N   UNL A   1      33.554  27.837  25.775  1.00  0.00    -0.354 N 
ATOM      4  C   UNL A   1      33.130  26.783  25.020  1.00  0.00     0.242 C 
ATOM      5  O   UNL A   1      33.617  26.687  23.886  1.00  0.00    -0.273 OA
ATOM      6  H   UNL A   1      34.214  28.414  25.328  1.00  0.00     0.163 HD
BRANCH   4   7
ATOM      7  C   UNL A   1      32.184  25.695  25.579  1.00  0.00     0.177 C 
ATOM      8  N   UNL A   1      32.475  24.408  24.921  1.00  0.00    -0.326 N 
ATOM      9  C   UNL A   1      32.005  24.254  23.542  1.00  0.00     0.123 C 
ATOM     10  C   UNL A   1      30.507  24.504  23.442  1.00  0.00     0.053 C 
ATOM     11  C   UNL A   1      30.699  26.080  25.430  1.00  0.00     0.067 C 
ATOM     12  C   UNL A   1      30.107  25.851  24.036  1.00  0.00     0.118 C 
BRANCH   8  13
ATOM     13  C   UNL A   1      33.202  23.466  25.650  1.00  0.00     0.255 C 
ATOM     14  O   UNL A   1      32.749  22.989  26.690  1.00  0.00    -0.269 OA
BRANCH  13  15
ATOM     15  C   UNL A   1      34.626  23.152  25.303  1.00  0.00     0.047 A 
ATOM     16  C   UNL A   1      35.000  21.851  24.894  1.00  0.00    -0.006 A 
ATOM     17  C   UNL A   1      36.371  21.516  24.917  1.00  0.00     0.009 A 
ATOM     18  C   UNL A   1      37.344  22.434  25.317  1.00  0.00     0.001 A 
ATOM     19  C   UNL A   1      35.622  24.073  25.688  1.00  0.00     0.014 A 
ATOM     20  C   UNL A   1      36.971  23.720  25.686  1.00  0.00     0.001 A 
BRANCH  16  21
ATOM     21  C   UNL A   1      34.044  20.822  24.446  1.00  0.00    -0.017 A 
ATOM     22  C   UNL A   1      33.057  17.238  25.329  1.00  0.00     0.044 C 
ATOM     23  C   UNL A   1      33.081  18.585  24.673  1.00  0.00    -0.051 A 
ATOM     24  C   UNL A   1      32.156  18.886  23.666  1.00  0.00     0.003 A 
ATOM     25  C   UNL A   1      34.019  19.556  25.054  1.00  0.00     0.012 A 
ATOM     26  C   UNL A   1      32.172  20.135  23.048  1.00  0.00     0.001 A 
ATOM     27  C   UNL A   1      33.107  21.096  23.436  1.00  0.00     0.009 A 
ENDBRANCH  16  21
ENDBRANCH  13  15
ENDBRANCH   8  13
BRANCH  12  28
ATOM     28  O   UNL A   1      30.423  26.895  23.121  1.00  0.00    -0.393 OA
ATOM     29  H   UNL A   1      29.756  27.595  23.186  1.00  0.00     0.210 HD
ENDBRANCH  12  28
ENDBRANCH   4   7
ENDBRANCH   2   3
ENDBRANCH   1   2
BRANCH   1  30
ATOM     30  C   UNL A   1      32.429  30.747  27.335  1.00  0.00     0.023 C 
BRANCH  30  31
ATOM     31  C   UNL A   1      33.921  31.007  27.209  1.00  0.00     0.116 C 
BRANCH  31  32
ATOM     32  N   UNL A   1      34.491  31.802  28.291  1.00  0.00    -0.352 N 
ATOM     33  C   UNL A   1      35.551  31.500  29.133  1.00  0.00     0.251 C 
ATOM     34  H   UNL A   1      34.064  32.676  28.445  1.00  0.00     0.163 HD
ATOM     35  O   UNL A   1      35.873  32.269  30.026  1.00  0.00    -0.269 OA
BRANCH  33  36
ATOM     36  C   UNL A   1      36.373  30.298  28.851  1.00  0.00     0.039 A 
ATOM     37  C   UNL A   1      36.577  29.393  29.898  1.00  0.00     0.014 A 
ATOM     38  C   UNL A   1      37.121  30.200  27.681  1.00  0.00     0.014 A 
ATOM     39  C   UNL A   1      37.706  28.580  29.881  1.00  0.00     0.010 A 
ATOM     40  C   UNL A   1      38.293  29.470  27.707  1.00  0.00     0.010 A 
ATOM     41  C   UNL A   1      38.623  28.722  28.841  1.00  0.00    -0.014 A 
BRANCH  41  42
ATOM     42  C   UNL A   1      40.004  28.268  28.937  1.00  0.00     0.031 A 
ATOM     43  C   UNL A   1      40.407  26.938  28.454  1.00  0.00     0.074 A 
ATOM     44  C   UNL A   1      40.949  29.106  29.418  1.00  0.00     0.049 A 
ATOM     45  N   UNL A   1      41.448  26.306  28.883  1.00  0.00    -0.248 NA
ATOM     46  C   UNL A   1      39.637  26.191  27.468  1.00  0.00     0.031 C 
ATOM     47  C   UNL A   1      42.400  28.964  29.334  1.00  0.00     0.029 A 
ATOM     48  N   UNL A   1      40.757  30.164  30.302  1.00  0.00    -0.354 N 
ATOM     49  C   UNL A   1      41.657  25.250  28.032  1.00  0.00     0.074 A 
ATOM     50  C   UNL A   1      40.459  25.165  27.227  1.00  0.00     0.031 C 
ATOM     51  C   UNL A   1      42.965  29.708  30.298  1.00  0.00     0.029 A 
ATOM     52  C   UNL A   1      41.891  30.220  31.133  1.00  0.00     0.049 A 
ATOM     53  H   UNL A   1      39.976  30.762  30.338  1.00  0.00     0.167 HD
ATOM     54  C   UNL A   1      42.877  24.646  27.989  1.00  0.00     0.031 A 
ATOM     55  C   UNL A   1      41.775  30.014  32.478  1.00  0.00     0.031 A 
ATOM     56  C   UNL A   1      43.822  25.201  28.957  1.00  0.00     0.049 A 
ATOM     57  C   UNL A   1      42.552  28.824  33.010  1.00  0.00     0.074 A 
ATOM     58  C   UNL A   1      44.924  26.036  28.868  1.00  0.00     0.029 A 
ATOM     59  N   UNL A   1      43.519  25.119  30.307  1.00  0.00    -0.354 N 
ATOM     60  N   UNL A   1      43.225  27.983  32.274  1.00  0.00    -0.248 NA
ATOM     61  C   UNL A   1      42.522  28.422  34.417  1.00  0.00     0.031 C 
ATOM     62  C   UNL A   1      45.295  26.432  30.183  1.00  0.00     0.029 A 
ATOM     63  C   UNL A   1      44.422  25.834  31.069  1.00  0.00     0.049 A 
ATOM     64  H   UNL A   1      42.759  24.614  30.676  1.00  0.00     0.167 HD
ATOM     65  C   UNL A   1      43.636  26.926  33.046  1.00  0.00     0.074 A 
ATOM     66  C   UNL A   1      43.177  27.249  34.383  1.00  0.00     0.031 C 
ATOM     67  C   UNL A   1      44.265  25.836  32.514  1.00  0.00     0.031 A 
BRANCH  54  68
ATOM     68  C   UNL A   1      43.272  23.725  26.863  1.00  0.00    -0.014 A 
ATOM     69  C   UNL A   1      42.907  22.369  26.908  1.00  0.00     0.009 A 
ATOM     70  C   UNL A   1      44.043  24.125  25.758  1.00  0.00     0.009 A 
ATOM     71  C   UNL A   1      43.382  21.443  25.970  1.00  0.00     0.001 A 
ATOM     72  C   UNL A   1      44.562  23.199  24.844  1.00  0.00     0.001 A 
ATOM     73  C   UNL A   1      44.242  21.853  24.959  1.00  0.00     0.000 A 
ENDBRANCH  54  68
BRANCH  55  74
ATOM     74  C   UNL A   1      40.464  30.465  33.030  1.00  0.00    -0.014 A 
ATOM     75  C   UNL A   1      40.190  31.848  33.077  1.00  0.00     0.009 A 
ATOM     76  C   UNL A   1      39.397  29.567  33.171  1.00  0.00     0.009 A 
ATOM     77  C   UNL A   1      38.873  32.314  33.140  1.00  0.00     0.001 A 
ATOM     78  C   UNL A   1      38.083  30.038  33.260  1.00  0.00     0.001 A 
ATOM     79  C   UNL A   1      37.819  31.407  33.205  1.00  0.00     0.000 A 
ENDBRANCH  55  74
BRANCH  67  80
ATOM     80  C   UNL A   1      44.738  24.635  33.298  1.00  0.00    -0.014 A 
ATOM     81  C   UNL A   1      46.075  24.411  33.648  1.00  0.00     0.009 A 
ATOM     82  C   UNL A   1      43.822  23.609  33.622  1.00  0.00     0.009 A 
ATOM     83  C   UNL A   1      46.461  23.265  34.360  1.00  0.00     0.001 A 
ATOM     84  C   UNL A   1      44.203  22.454  34.310  1.00  0.00     0.001 A 
ATOM     85  C   UNL A   1      45.524  22.290  34.695  1.00  0.00     0.000 A 
ENDBRANCH  67  80
ENDBRANCH  41  42
ENDBRANCH  33  36
ENDBRANCH  31  32
ENDBRANCH  30  31
ENDBRANCH   1  30
TORSDOF 15
ENDMDL
MODEL 3
REMARK VINA RESULT:     -12.3      3.080      8.339
REMARK SMILES Cc1cccc(-c2ccccc2C(=O)N2CC[C@H](O)C[C@@H]2C(=O)NCCCCNC(=O)c2ccc(-c3c4nc(c(-c5ccccc5)c5ccc([nH]5)c(-c5ccccc5)c5nc(c(-c6ccccc6)c6ccc3[nH]6)C=C5)C=C4)cc2)c1
REMARK SMILES IDX 26 1 25 2 24 3 22 4 23 5 21 7 15 8 16 9 17 10 20 11 18 12
REMARK SMILES IDX 13 13 14 14 12 15 7 16 8 17 9 18 11 19 10 20 6 21 1 22 2 23
REMARK SMILES IDX 3 24 80 25 4 26 5 27 19 28 27 30 28 31 29 32 30 33 31 35
REMARK SMILES IDX 32 36 33 37 79 38 34 39 78 40 35 41 36 42 37 43 72 44 38 45
REMARK SMILES IDX 77 46 71 47 73 48 39 49 76 50 70 51 69 52 40 54 62 55 47 56
REMARK SMILES IDX 61 57 48 58 51 59 60 60 74 61 49 62 50 63 59 65 75 66 52 67
REMARK SMILES IDX 41 68 42 69 46 70 43 71 45 72 44 73 63 74 64 75 68 76 65 77
REMARK SMILES IDX 67 78 66 79 53 80 54 81 58 82 55 83 57 84 56 85
REMARK H PARENT 24 6 19 29 29 34 73 53 51 64
REMARK Flexibility Score: inf
ROOT
ATOM      1  C   UNL A   1      38.383  23.417  26.073  1.00  0.00     0.023 C 
ENDROOT
BRANCH   1   2
ATOM      2  C   UNL A   1      37.443  22.374  25.448  1.00  0.00     0.116 C 
BRANCH   2   3
ATOM      3  N   UNL A   1      36.374  21.932  26.332  1.00  0.00    -0.354 N 
ATOM      4  C   UNL A   1      35.029  21.815  26.142  1.00  0.00     0.242 C 
ATOM      5  O   UNL A   1      34.371  21.399  27.104  1.00  0.00    -0.273 OA
ATOM      6  H   UNL A   1      36.678  21.671  27.231  1.00  0.00     0.163 HD
BRANCH   4   7
ATOM      7  C   UNL A   1      34.337  22.282  24.840  1.00  0.00     0.177 C 
ATOM      8  N   UNL A   1      33.466  23.436  25.136  1.00  0.00    -0.326 N 
ATOM      9  C   UNL A   1      32.206  23.149  25.825  1.00  0.00     0.123 C 
ATOM     10  C   UNL A   1      31.383  22.124  25.057  1.00  0.00     0.053 C 
ATOM     11  C   UNL A   1      33.551  21.147  24.156  1.00  0.00     0.067 C 
ATOM     12  C   UNL A   1      32.175  20.855  24.760  1.00  0.00     0.118 C 
BRANCH   8  13
ATOM     13  C   UNL A   1      33.932  24.699  24.772  1.00  0.00     0.255 C 
ATOM     14  O   UNL A   1      34.731  25.305  25.486  1.00  0.00    -0.269 OA
BRANCH  13  15
ATOM     15  C   UNL A   1      33.336  25.439  23.613  1.00  0.00     0.047 A 
ATOM     16  C   UNL A   1      32.434  26.508  23.825  1.00  0.00    -0.006 A 
ATOM     17  C   UNL A   1      31.644  26.936  22.736  1.00  0.00     0.009 A 
ATOM     18  C   UNL A   1      31.747  26.342  21.477  1.00  0.00     0.001 A 
ATOM     19  C   UNL A   1      33.440  24.862  22.331  1.00  0.00     0.014 A 
ATOM     20  C   UNL A   1      32.659  25.316  21.269  1.00  0.00     0.001 A 
BRANCH  16  21
ATOM     21  C   UNL A   1      32.266  27.201  25.115  1.00  0.00    -0.017 A 
ATOM     22  C   UNL A   1      33.524  30.353  26.870  1.00  0.00     0.044 C 
ATOM     23  C   UNL A   1      32.776  29.085  26.589  1.00  0.00    -0.051 A 
ATOM     24  C   UNL A   1      31.874  28.584  27.535  1.00  0.00     0.003 A 
ATOM     25  C   UNL A   1      32.966  28.388  25.387  1.00  0.00     0.012 A 
ATOM     26  C   UNL A   1      31.176  27.405  27.284  1.00  0.00     0.001 A 
ATOM     27  C   UNL A   1      31.369  26.719  26.083  1.00  0.00     0.009 A 
ENDBRANCH  16  21
ENDBRANCH  13  15
ENDBRANCH   8  13
BRANCH  12  28
ATOM     28  O   UNL A   1      32.243  20.043  25.927  1.00  0.00    -0.393 OA
ATOM     29  H   UNL A   1      31.353  19.930  26.295  1.00  0.00     0.210 HD
ENDBRANCH  12  28
ENDBRANCH   4   7
ENDBRANCH   2   3
ENDBRANCH   1   2
BRANCH   1  30
ATOM     30  C   UNL A   1      39.827  22.976  26.329  1.00  0.00     0.023 C 
BRANCH  30  31
ATOM     31  C   UNL A   1      39.943  21.563  26.877  1.00  0.00     0.116 C 
BRANCH  31  32
ATOM     32  N   UNL A   1      40.897  20.715  26.170  1.00  0.00    -0.352 N 
ATOM     33  C   UNL A   1      42.277  20.828  26.094  1.00  0.00     0.251 C 
ATOM     34  H   UNL A   1      40.506  19.957  25.678  1.00  0.00     0.163 HD
ATOM     35  O   UNL A   1      42.927  20.049  25.414  1.00  0.00    -0.269 OA
BRANCH  33  36
ATOM     36  C   UNL A   1      42.967  21.819  26.957  1.00  0.00     0.039 A 
ATOM     37  C   UNL A   1      42.674  21.802  28.324  1.00  0.00     0.014 A 
ATOM     38  C   UNL A   1      43.673  22.882  26.402  1.00  0.00     0.014 A 
ATOM     39  C   UNL A   1      42.842  22.965  29.068  1.00  0.00     0.010 A 
ATOM     40  C   UNL A   1      43.748  24.065  27.109  1.00  0.00     0.010 A 
ATOM     41  C   UNL A   1      43.258  24.126  28.417  1.00  0.00    -0.014 A 
BRANCH  41  42
ATOM     42  C   UNL A   1      43.054  25.459  28.969  1.00  0.00     0.031 A 
ATOM     43  C   UNL A   1      41.863  26.253  28.630  1.00  0.00     0.074 A 
ATOM     44  C   UNL A   1      43.941  25.953  29.861  1.00  0.00     0.049 A 
ATOM     45  N   UNL A   1      41.818  27.542  28.702  1.00  0.00    -0.248 NA
ATOM     46  C   UNL A   1      40.629  25.653  28.141  1.00  0.00     0.031 C 
ATOM     47  C   UNL A   1      43.782  27.113  30.734  1.00  0.00     0.029 A 
ATOM     48  N   UNL A   1      45.286  25.614  29.980  1.00  0.00    -0.354 N 
ATOM     49  C   UNL A   1      40.501  27.906  28.579  1.00  0.00     0.074 A 
ATOM     50  C   UNL A   1      39.813  26.711  28.142  1.00  0.00     0.031 C 
ATOM     51  C   UNL A   1      44.998  27.548  31.102  1.00  0.00     0.029 A 
ATOM     52  C   UNL A   1      45.977  26.783  30.347  1.00  0.00     0.049 A 
ATOM     53  H   UNL A   1      45.679  24.723  29.836  1.00  0.00     0.167 HD
ATOM     54  C   UNL A   1      40.096  29.136  29.001  1.00  0.00     0.031 A 
ATOM     55  C   UNL A   1      46.923  27.317  29.519  1.00  0.00     0.031 A 
ATOM     56  C   UNL A   1      41.199  29.961  29.492  1.00  0.00     0.049 A 
ATOM     57  C   UNL A   1      46.623  28.723  29.031  1.00  0.00     0.074 A 
ATOM     58  C   UNL A   1      41.629  30.358  30.748  1.00  0.00     0.029 A 
ATOM     59  N   UNL A   1      42.225  30.291  28.620  1.00  0.00    -0.354 N 
ATOM     60  N   UNL A   1      45.526  29.381  29.283  1.00  0.00    -0.248 NA
ATOM     61  C   UNL A   1      47.500  29.446  28.108  1.00  0.00     0.031 C 
ATOM     62  C   UNL A   1      42.915  30.954  30.615  1.00  0.00     0.029 A 
ATOM     63  C   UNL A   1      43.261  30.923  29.279  1.00  0.00     0.049 A 
ATOM     64  H   UNL A   1      42.216  30.099  27.655  1.00  0.00     0.167 HD
ATOM     65  C   UNL A   1      45.498  30.529  28.532  1.00  0.00     0.074 A 
ATOM     66  C   UNL A   1      46.760  30.529  27.817  1.00  0.00     0.031 C 
ATOM     67  C   UNL A   1      44.413  31.359  28.507  1.00  0.00     0.031 A 
BRANCH  54  68
ATOM     68  C   UNL A   1      38.640  29.470  29.209  1.00  0.00    -0.014 A 
ATOM     69  C   UNL A   1      37.972  30.290  28.284  1.00  0.00     0.009 A 
ATOM     70  C   UNL A   1      37.891  29.046  30.320  1.00  0.00     0.009 A 
ATOM     71  C   UNL A   1      36.671  30.755  28.513  1.00  0.00     0.001 A 
ATOM     72  C   UNL A   1      36.608  29.545  30.581  1.00  0.00     0.001 A 
ATOM     73  C   UNL A   1      36.004  30.414  29.682  1.00  0.00     0.000 A 
ENDBRANCH  54  68
BRANCH  55  74
ATOM     74  C   UNL A   1      47.640  26.290  28.708  1.00  0.00    -0.014 A 
ATOM     75  C   UNL A   1      47.271  26.119  27.357  1.00  0.00     0.009 A 
ATOM     76  C   UNL A   1      48.862  25.757  29.140  1.00  0.00     0.009 A 
ATOM     77  C   UNL A   1      48.156  25.540  26.442  1.00  0.00     0.001 A 
ATOM     78  C   UNL A   1      49.733  25.156  28.226  1.00  0.00     0.001 A 
ATOM     79  C   UNL A   1      49.398  25.082  26.874  1.00  0.00     0.000 A 
ENDBRANCH  55  74
BRANCH  67  80
ATOM     80  C   UNL A   1      44.308  32.632  27.702  1.00  0.00    -0.014 A 
ATOM     81  C   UNL A   1      44.080  33.894  28.266  1.00  0.00     0.009 A 
ATOM     82  C   UNL A   1      44.332  32.568  26.290  1.00  0.00     0.009 A 
ATOM     83  C   UNL A   1      43.970  35.041  27.465  1.00  0.00     0.001 A 
ATOM     84  C   UNL A   1      44.200  33.703  25.487  1.00  0.00     0.001 A 
ATOM     85  C   UNL A   1      44.035  34.946  26.078  1.00  0.00     0.000 A 
ENDBRANCH  67  80
ENDBRANCH  41  42
ENDBRANCH  33  36
ENDBRANCH  31  32
ENDBRANCH  30  31
ENDBRANCH   1  30
TORSDOF 15
ENDMDL
