MODEL 1
REMARK VINA RESULT:     -11.0      0.000      0.000
REMARK SMILES O=C(COc1ccccc1/C=N/NC(=O)C1CC1)NCCCCNC(=O)c1ccc(-c2c3nc(c(-c4ccccc4)c4ccc([nH]4)c(-c4ccccc4)c4nc(c(-c5ccccc5)c5ccc2[nH]5)C=C4)C=C3)cc1
REMARK SMILES IDX 20 1 19 2 1 3 2 4 3 6 4 7 5 8 6 9 10 10 7 11 9 12 8 13 11 14
REMARK SMILES IDX 12 15 13 16 14 17 15 19 16 20 17 21 18 22 21 23 22 24 23 25
REMARK SMILES IDX 24 26 25 27 26 29 27 30 28 31 74 32 29 33 73 34 30 35 31 36
REMARK SMILES IDX 32 37 67 38 33 39 72 40 66 41 68 42 34 43 71 44 65 45 64 46
REMARK SMILES IDX 35 48 57 49 42 50 56 51 43 52 46 53 55 54 69 55 44 56 45 57
REMARK SMILES IDX 54 59 70 60 47 61 36 62 37 63 41 64 38 65 40 66 39 67 58 68
REMARK SMILES IDX 59 69 63 70 60 71 62 72 61 73 48 74 49 75 53 76 50 77 52 78
REMARK SMILES IDX 51 79
REMARK H PARENT 19 5 13 18 24 28 68 47 46 58
REMARK Flexibility Score: inf
ROOT
ATOM      1  C   UNL A   1      34.797  32.200  28.137  1.00  0.00     0.116 C 
ENDROOT
BRANCH   1   2
ATOM      2  N   UNL A   1      34.285  30.853  28.231  1.00  0.00    -0.353 N 
ATOM      3  O   UNL A   1      32.440  30.895  26.837  1.00  0.00    -0.271 OA
ATOM      4  C   UNL A   1      33.455  30.340  27.242  1.00  0.00     0.257 C 
ATOM      5  H   UNL A   1      34.527  30.292  29.003  1.00  0.00     0.163 HD
BRANCH   4   6
ATOM      6  C   UNL A   1      33.938  28.993  26.703  1.00  0.00     0.329 C 
BRANCH   6   7
ATOM      7  O   UNL A   1      33.413  28.882  25.372  1.00  0.00    -0.483 OA
BRANCH   7   8
ATOM      8  C   UNL A   1      33.367  27.605  24.891  1.00  0.00     0.128 A 
ATOM      9  C   UNL A   1      33.929  26.602  25.686  1.00  0.00     0.047 A 
ATOM     10  C   UNL A   1      33.046  27.327  23.558  1.00  0.00     0.037 A 
ATOM     11  C   UNL A   1      34.198  25.342  25.144  1.00  0.00     0.004 A 
ATOM     12  C   UNL A   1      33.351  26.074  23.010  1.00  0.00     0.013 A 
ATOM     13  C   UNL A   1      33.930  25.086  23.801  1.00  0.00     0.001 A 
BRANCH  10  14
ATOM     14  C   UNL A   1      32.421  28.262  22.609  1.00  0.00     0.145 C 
ATOM     15  N   UNL A   1      31.500  29.110  22.951  1.00  0.00    -0.181 NA
BRANCH  15  16
ATOM     16  N   UNL A   1      30.865  29.683  21.874  1.00  0.00    -0.247 N 
ATOM     17  C   UNL A   1      29.580  30.186  21.886  1.00  0.00     0.243 C 
ATOM     18  H   UNL A   1      31.366  29.739  21.028  1.00  0.00     0.193 HD
ATOM     19  O   UNL A   1      29.061  30.612  20.857  1.00  0.00    -0.273 OA
BRANCH  17  20
ATOM     20  C   UNL A   1      28.885  30.290  23.189  1.00  0.00     0.080 C 
ATOM     21  C   UNL A   1      29.001  31.527  24.050  1.00  0.00     0.014 C 
ATOM     22  C   UNL A   1      27.698  31.194  23.382  1.00  0.00     0.014 C 
ENDBRANCH  17  20
ENDBRANCH  15  16
ENDBRANCH  10  14
ENDBRANCH   7   8
ENDBRANCH   6   7
ENDBRANCH   4   6
ENDBRANCH   1   2
BRANCH   1  23
ATOM     23  C   UNL A   1      34.477  33.150  29.277  1.00  0.00     0.023 C 
BRANCH  23  24
ATOM     24  C   UNL A   1      33.539  34.289  28.914  1.00  0.00     0.023 C 
BRANCH  24  25
ATOM     25  C   UNL A   1      33.782  35.591  29.659  1.00  0.00     0.116 C 
BRANCH  25  26
ATOM     26  N   UNL A   1      32.707  35.984  30.560  1.00  0.00    -0.352 N 
ATOM     27  C   UNL A   1      32.652  35.758  31.922  1.00  0.00     0.251 C 
ATOM     28  H   UNL A   1      31.944  36.458  30.158  1.00  0.00     0.163 HD
ATOM     29  O   UNL A   1      31.680  36.071  32.590  1.00  0.00    -0.269 OA
BRANCH  27  30
ATOM     30  C   UNL A   1      33.804  35.073  32.544  1.00  0.00     0.039 A 
ATOM     31  C   UNL A   1      33.669  33.740  32.934  1.00  0.00     0.014 A 
ATOM     32  C   UNL A   1      35.047  35.709  32.582  1.00  0.00     0.014 A 
ATOM     33  C   UNL A   1      34.808  33.013  33.285  1.00  0.00     0.010 A 
ATOM     34  C   UNL A   1      36.186  34.962  32.853  1.00  0.00     0.010 A 
ATOM     35  C   UNL A   1      36.079  33.605  33.201  1.00  0.00    -0.014 A 
BRANCH  35  36
ATOM     36  C   UNL A   1      37.314  32.828  33.472  1.00  0.00     0.031 A 
ATOM     37  C   UNL A   1      38.078  33.063  34.744  1.00  0.00     0.074 A 
ATOM     38  C   UNL A   1      37.789  31.971  32.547  1.00  0.00     0.049 A 
ATOM     39  N   UNL A   1      39.216  32.546  35.134  1.00  0.00    -0.248 NA
ATOM     40  C   UNL A   1      37.505  34.035  35.690  1.00  0.00     0.031 C 
ATOM     41  C   UNL A   1      37.174  31.692  31.248  1.00  0.00     0.029 A 
ATOM     42  N   UNL A   1      38.913  31.180  32.558  1.00  0.00    -0.354 N 
ATOM     43  C   UNL A   1      39.502  33.145  36.353  1.00  0.00     0.074 A 
ATOM     44  C   UNL A   1      38.452  34.104  36.613  1.00  0.00     0.031 C 
ATOM     45  C   UNL A   1      37.912  30.775  30.600  1.00  0.00     0.029 A 
ATOM     46  C   UNL A   1      39.066  30.426  31.420  1.00  0.00     0.049 A 
ATOM     47  H   UNL A   1      39.548  31.158  33.310  1.00  0.00     0.167 HD
ATOM     48  C   UNL A   1      40.533  32.903  37.196  1.00  0.00     0.031 A 
ATOM     49  C   UNL A   1      40.030  29.550  31.078  1.00  0.00     0.031 A 
ATOM     50  C   UNL A   1      41.565  31.933  36.951  1.00  0.00     0.049 A 
ATOM     51  C   UNL A   1      41.158  29.285  32.038  1.00  0.00     0.074 A 
ATOM     52  C   UNL A   1      42.621  31.572  37.771  1.00  0.00     0.029 A 
ATOM     53  N   UNL A   1      41.667  31.167  35.801  1.00  0.00    -0.354 N 
ATOM     54  N   UNL A   1      41.378  29.812  33.218  1.00  0.00    -0.248 NA
ATOM     55  C   UNL A   1      42.160  28.293  31.623  1.00  0.00     0.031 C 
ATOM     56  C   UNL A   1      43.383  30.610  37.099  1.00  0.00     0.029 A 
ATOM     57  C   UNL A   1      42.775  30.341  35.883  1.00  0.00     0.049 A 
ATOM     58  H   UNL A   1      41.044  31.203  35.040  1.00  0.00     0.167 HD
ATOM     59  C   UNL A   1      42.528  29.198  33.697  1.00  0.00     0.074 A 
ATOM     60  C   UNL A   1      42.950  28.249  32.687  1.00  0.00     0.031 C 
ATOM     61  C   UNL A   1      43.177  29.402  34.869  1.00  0.00     0.031 A 
BRANCH  48  62
ATOM     62  C   UNL A   1      40.583  33.705  38.466  1.00  0.00    -0.014 A 
ATOM     63  C   UNL A   1      39.886  33.291  39.612  1.00  0.00     0.009 A 
ATOM     64  C   UNL A   1      41.346  34.881  38.521  1.00  0.00     0.009 A 
ATOM     65  C   UNL A   1      39.917  34.060  40.776  1.00  0.00     0.001 A 
ATOM     66  C   UNL A   1      41.399  35.634  39.696  1.00  0.00     0.001 A 
ATOM     67  C   UNL A   1      40.676  35.229  40.818  1.00  0.00     0.000 A 
ENDBRANCH  48  62
BRANCH  49  68
ATOM     68  C   UNL A   1      39.963  28.836  29.776  1.00  0.00    -0.014 A 
ATOM     69  C   UNL A   1      40.448  29.442  28.607  1.00  0.00     0.009 A 
ATOM     70  C   UNL A   1      39.409  27.549  29.694  1.00  0.00     0.009 A 
ATOM     71  C   UNL A   1      40.354  28.786  27.377  1.00  0.00     0.001 A 
ATOM     72  C   UNL A   1      39.340  26.884  28.467  1.00  0.00     0.001 A 
ATOM     73  C   UNL A   1      39.804  27.506  27.309  1.00  0.00     0.000 A 
ENDBRANCH  49  68
BRANCH  61  74
ATOM     74  C   UNL A   1      44.392  28.561  35.136  1.00  0.00    -0.014 A 
ATOM     75  C   UNL A   1      45.675  29.003  34.778  1.00  0.00     0.009 A 
ATOM     76  C   UNL A   1      44.252  27.331  35.797  1.00  0.00     0.009 A 
ATOM     77  C   UNL A   1      46.793  28.212  35.053  1.00  0.00     0.001 A 
ATOM     78  C   UNL A   1      45.374  26.556  36.093  1.00  0.00     0.001 A 
ATOM     79  C   UNL A   1      46.641  26.994  35.714  1.00  0.00     0.000 A 
ENDBRANCH  61  74
ENDBRANCH  35  36
ENDBRANCH  27  30
ENDBRANCH  25  26
ENDBRANCH  24  25
ENDBRANCH  23  24
ENDBRANCH   1  23
TORSDOF 16
ENDMDL
MODEL 2
REMARK VINA RESULT:     -10.7      5.646     10.612
REMARK SMILES O=C(COc1ccccc1/C=N/NC(=O)C1CC1)NCCCCNC(=O)c1ccc(-c2c3nc(c(-c4ccccc4)c4ccc([nH]4)c(-c4ccccc4)c4nc(c(-c5ccccc5)c5ccc2[nH]5)C=C4)C=C3)cc1
REMARK SMILES IDX 20 1 19 2 1 3 2 4 3 6 4 7 5 8 6 9 10 10 7 11 9 12 8 13 11 14
REMARK SMILES IDX 12 15 13 16 14 17 15 19 16 20 17 21 18 22 21 23 22 24 23 25
REMARK SMILES IDX 24 26 25 27 26 29 27 30 28 31 74 32 29 33 73 34 30 35 31 36
REMARK SMILES IDX 32 37 67 38 33 39 72 40 66 41 68 42 34 43 71 44 65 45 64 46
REMARK SMILES IDX 35 48 57 49 42 50 56 51 43 52 46 53 55 54 69 55 44 56 45 57
REMARK SMILES IDX 54 59 70 60 47 61 36 62 37 63 41 64 38 65 40 66 39 67 58 68
REMARK SMILES IDX 59 69 63 70 60 71 62 72 61 73 48 74 49 75 53 76 50 77 52 78
REMARK SMILES IDX 51 79
REMARK H PARENT 19 5 13 18 24 28 68 47 46 58
REMARK Flexibility Score: inf
ROOT
ATOM      1  C   UNL A   1      35.798  21.560  26.382  1.00  0.00     0.116 C 
ENDROOT
BRANCH   1   2
ATOM      2  N   UNL A   1      35.248  22.892  26.477  1.00  0.00    -0.353 N 
ATOM      3  O   UNL A   1      37.048  24.241  25.939  1.00  0.00    -0.271 OA
ATOM      4  C   UNL A   1      35.860  23.959  25.831  1.00  0.00     0.257 C 
ATOM      5  H   UNL A   1      34.431  23.045  27.005  1.00  0.00     0.163 HD
BRANCH   4   6
ATOM      6  C   UNL A   1      34.891  24.760  24.962  1.00  0.00     0.329 C 
BRANCH   6   7
ATOM      7  O   UNL A   1      34.516  23.896  23.879  1.00  0.00    -0.483 OA
BRANCH   7   8
ATOM      8  C   UNL A   1      33.224  24.046  23.462  1.00  0.00     0.128 A 
ATOM      9  C   UNL A   1      32.934  25.156  22.664  1.00  0.00     0.047 A 
ATOM     10  C   UNL A   1      32.175  23.311  24.024  1.00  0.00     0.037 A 
ATOM     11  C   UNL A   1      31.608  25.547  22.456  1.00  0.00     0.004 A 
ATOM     12  C   UNL A   1      30.850  23.728  23.842  1.00  0.00     0.013 A 
ATOM     13  C   UNL A   1      30.569  24.847  23.063  1.00  0.00     0.001 A 
BRANCH  10  14
ATOM     14  C   UNL A   1      32.316  22.104  24.854  1.00  0.00     0.145 C 
ATOM     15  N   UNL A   1      32.373  20.905  24.359  1.00  0.00    -0.181 NA
BRANCH  15  16
ATOM     16  N   UNL A   1      32.225  19.920  25.307  1.00  0.00    -0.247 N 
ATOM     17  C   UNL A   1      32.682  18.624  25.183  1.00  0.00     0.243 C 
ATOM     18  H   UNL A   1      31.757  20.158  26.140  1.00  0.00     0.193 HD
ATOM     19  O   UNL A   1      32.439  17.785  26.048  1.00  0.00    -0.273 OA
BRANCH  17  20
ATOM     20  C   UNL A   1      33.555  18.300  24.032  1.00  0.00     0.080 C 
ATOM     21  C   UNL A   1      34.864  17.567  24.215  1.00  0.00     0.014 C 
ATOM     22  C   UNL A   1      33.712  16.890  23.531  1.00  0.00     0.014 C 
ENDBRANCH  17  20
ENDBRANCH  15  16
ENDBRANCH  10  14
ENDBRANCH   7   8
ENDBRANCH   6   7
ENDBRANCH   4   6
ENDBRANCH   1   2
BRANCH   1  23
ATOM     23  C   UNL A   1      36.126  21.038  24.995  1.00  0.00     0.023 C 
BRANCH  23  24
ATOM     24  C   UNL A   1      37.586  21.170  24.593  1.00  0.00     0.023 C 
BRANCH  24  25
ATOM     25  C   UNL A   1      38.586  21.002  25.724  1.00  0.00     0.116 C 
BRANCH  25  26
ATOM     26  N   UNL A   1      39.424  19.814  25.622  1.00  0.00    -0.352 N 
ATOM     27  C   UNL A   1      40.753  19.710  25.983  1.00  0.00     0.251 C 
ATOM     28  H   UNL A   1      38.999  19.004  25.259  1.00  0.00     0.163 HD
ATOM     29  O   UNL A   1      41.393  18.687  25.805  1.00  0.00    -0.269 OA
BRANCH  27  30
ATOM     30  C   UNL A   1      41.396  20.911  26.556  1.00  0.00     0.039 A 
ATOM     31  C   UNL A   1      41.999  21.831  25.698  1.00  0.00     0.014 A 
ATOM     32  C   UNL A   1      41.250  21.189  27.918  1.00  0.00     0.014 A 
ATOM     33  C   UNL A   1      42.383  23.078  26.194  1.00  0.00     0.010 A 
ATOM     34  C   UNL A   1      41.558  22.459  28.390  1.00  0.00     0.010 A 
ATOM     35  C   UNL A   1      42.122  23.418  27.532  1.00  0.00    -0.014 A 
BRANCH  35  36
ATOM     36  C   UNL A   1      42.428  24.771  28.061  1.00  0.00     0.031 A 
ATOM     37  C   UNL A   1      43.826  25.097  28.506  1.00  0.00     0.074 A 
ATOM     38  C   UNL A   1      41.442  25.675  28.214  1.00  0.00     0.049 A 
ATOM     39  N   UNL A   1      44.282  26.189  29.065  1.00  0.00    -0.248 NA
ATOM     40  C   UNL A   1      44.839  24.044  28.330  1.00  0.00     0.031 C 
ATOM     41  C   UNL A   1      40.032  25.465  27.874  1.00  0.00     0.029 A 
ATOM     42  N   UNL A   1      41.476  26.957  28.706  1.00  0.00    -0.354 N 
ATOM     43  C   UNL A   1      45.623  25.944  29.326  1.00  0.00     0.074 A 
ATOM     44  C   UNL A   1      45.895  24.585  28.918  1.00  0.00     0.031 C 
ATOM     45  C   UNL A   1      39.344  26.588  28.141  1.00  0.00     0.029 A 
ATOM     46  C   UNL A   1      40.252  27.582  28.702  1.00  0.00     0.049 A 
ATOM     47  H   UNL A   1      42.300  27.387  29.033  1.00  0.00     0.167 HD
ATOM     48  C   UNL A   1      46.555  26.783  29.838  1.00  0.00     0.031 A 
ATOM     49  C   UNL A   1      39.903  28.819  29.104  1.00  0.00     0.031 A 
ATOM     50  C   UNL A   1      46.293  28.143  30.222  1.00  0.00     0.049 A 
ATOM     51  C   UNL A   1      40.959  29.740  29.652  1.00  0.00     0.074 A 
ATOM     52  C   UNL A   1      47.183  29.092  30.694  1.00  0.00     0.029 A 
ATOM     53  N   UNL A   1      45.047  28.748  30.171  1.00  0.00    -0.354 N 
ATOM     54  N   UNL A   1      42.238  29.515  29.831  1.00  0.00    -0.248 NA
ATOM     55  C   UNL A   1      40.523  31.089  30.042  1.00  0.00     0.031 C 
ATOM     56  C   UNL A   1      46.466  30.263  30.965  1.00  0.00     0.029 A 
ATOM     57  C   UNL A   1      45.141  30.056  30.616  1.00  0.00     0.049 A 
ATOM     58  H   UNL A   1      44.219  28.313  29.864  1.00  0.00     0.167 HD
ATOM     59  C   UNL A   1      42.764  30.700  30.328  1.00  0.00     0.074 A 
ATOM     60  C   UNL A   1      41.669  31.645  30.408  1.00  0.00     0.031 C 
ATOM     61  C   UNL A   1      44.041  30.981  30.686  1.00  0.00     0.031 A 
BRANCH  48  62
ATOM     62  C   UNL A   1      47.947  26.243  30.001  1.00  0.00    -0.014 A 
ATOM     63  C   UNL A   1      48.397  25.762  31.242  1.00  0.00     0.009 A 
ATOM     64  C   UNL A   1      48.815  26.201  28.901  1.00  0.00     0.009 A 
ATOM     65  C   UNL A   1      49.702  25.290  31.388  1.00  0.00     0.001 A 
ATOM     66  C   UNL A   1      50.112  25.701  29.042  1.00  0.00     0.001 A 
ATOM     67  C   UNL A   1      50.557  25.257  30.286  1.00  0.00     0.000 A 
ENDBRANCH  48  62
BRANCH  49  68
ATOM     68  C   UNL A   1      38.494  29.276  28.979  1.00  0.00    -0.014 A 
ATOM     69  C   UNL A   1      37.620  29.188  30.073  1.00  0.00     0.009 A 
ATOM     70  C   UNL A   1      38.014  29.794  27.767  1.00  0.00     0.009 A 
ATOM     71  C   UNL A   1      36.286  29.585  29.948  1.00  0.00     0.001 A 
ATOM     72  C   UNL A   1      36.686  30.213  27.652  1.00  0.00     0.001 A 
ATOM     73  C   UNL A   1      35.822  30.100  28.739  1.00  0.00     0.000 A 
ENDBRANCH  49  68
BRANCH  61  74
ATOM     74  C   UNL A   1      44.328  32.374  31.166  1.00  0.00    -0.014 A 
ATOM     75  C   UNL A   1      44.374  32.677  32.535  1.00  0.00     0.009 A 
ATOM     76  C   UNL A   1      44.602  33.386  30.233  1.00  0.00     0.009 A 
ATOM     77  C   UNL A   1      44.661  33.976  32.959  1.00  0.00     0.001 A 
ATOM     78  C   UNL A   1      44.914  34.676  30.661  1.00  0.00     0.001 A 
ATOM     79  C   UNL A   1      44.936  34.972  32.023  1.00  0.00     0.000 A 
ENDBRANCH  61  74
ENDBRANCH  35  36
ENDBRANCH  27  30
ENDBRANCH  25  26
ENDBRANCH  24  25
ENDBRANCH  23  24
ENDBRANCH   1  23
TORSDOF 16
ENDMDL
MODEL 3
REMARK VINA RESULT:     -10.6      0.451      5.983
REMARK SMILES O=C(COc1ccccc1/C=N/NC(=O)C1CC1)NCCCCNC(=O)c1ccc(-c2c3nc(c(-c4ccccc4)c4ccc([nH]4)c(-c4ccccc4)c4nc(c(-c5ccccc5)c5ccc2[nH]5)C=C4)C=C3)cc1
REMARK SMILES IDX 20 1 19 2 1 3 2 4 3 6 4 7 5 8 6 9 10 10 7 11 9 12 8 13 11 14
REMARK SMILES IDX 12 15 13 16 14 17 15 19 16 20 17 21 18 22 21 23 22 24 23 25
REMARK SMILES IDX 24 26 25 27 26 29 27 30 28 31 74 32 29 33 73 34 30 35 31 36
REMARK SMILES IDX 32 37 67 38 33 39 72 40 66 41 68 42 34 43 71 44 65 45 64 46
REMARK SMILES IDX 35 48 57 49 42 50 56 51 43 52 46 53 55 54 69 55 44 56 45 57
REMARK SMILES IDX 54 59 70 60 47 61 36 62 37 63 41 64 38 65 40 66 39 67 58 68
REMARK SMILES IDX 59 69 63 70 60 71 62 72 61 73 48 74 49 75 53 76 50 77 52 78
REMARK SMILES IDX 51 79
REMARK H PARENT 19 5 13 18 24 28 68 47 46 58
REMARK Flexibility Score: inf
ROOT
ATOM      1  C   UNL A   1      35.215  31.842  27.993  1.00  0.00     0.116 C 
ENDROOT
BRANCH   1   2
ATOM      2  N   UNL A   1      34.412  30.662  28.212  1.00  0.00    -0.353 N 
ATOM      3  O   UNL A   1      32.588  31.007  26.832  1.00  0.00    -0.271 OA
ATOM      4  C   UNL A   1      33.459  30.270  27.279  1.00  0.00     0.257 C 
ATOM      5  H   UNL A   1      34.540  30.130  29.030  1.00  0.00     0.163 HD
BRANCH   4   6
ATOM      6  C   UNL A   1      33.607  28.807  26.861  1.00  0.00     0.329 C 
BRANCH   6   7
ATOM      7  O   UNL A   1      33.276  28.753  25.466  1.00  0.00    -0.483 OA
BRANCH   7   8
ATOM      8  C   UNL A   1      33.318  27.499  24.927  1.00  0.00     0.128 A 
ATOM      9  C   UNL A   1      33.894  26.489  25.703  1.00  0.00     0.047 A 
ATOM     10  C   UNL A   1      33.074  27.268  23.569  1.00  0.00     0.037 A 
ATOM     11  C   UNL A   1      34.251  25.269  25.118  1.00  0.00     0.004 A 
ATOM     12  C   UNL A   1      33.466  26.059  22.981  1.00  0.00     0.013 A 
ATOM     13  C   UNL A   1      34.058  25.064  23.754  1.00  0.00     0.001 A 
BRANCH  10  14
ATOM     14  C   UNL A   1      32.445  28.214  22.633  1.00  0.00     0.145 C 
ATOM     15  N   UNL A   1      31.479  29.012  22.973  1.00  0.00    -0.181 NA
BRANCH  15  16
ATOM     16  N   UNL A   1      30.861  29.602  21.895  1.00  0.00    -0.247 N 
ATOM     17  C   UNL A   1      29.604  30.172  21.916  1.00  0.00     0.243 C 
ATOM     18  H   UNL A   1      31.353  29.619  21.043  1.00  0.00     0.193 HD
ATOM     19  O   UNL A   1      29.094  30.609  20.887  1.00  0.00    -0.273 OA
BRANCH  17  20
ATOM     20  C   UNL A   1      28.933  30.330  23.226  1.00  0.00     0.080 C 
ATOM     21  C   UNL A   1      28.949  31.647  23.968  1.00  0.00     0.014 C 
ATOM     22  C   UNL A   1      27.669  31.134  23.374  1.00  0.00     0.014 C 
ENDBRANCH  17  20
ENDBRANCH  15  16
ENDBRANCH  10  14
ENDBRANCH   7   8
ENDBRANCH   6   7
ENDBRANCH   4   6
ENDBRANCH   1   2
BRANCH   1  23
ATOM     23  C   UNL A   1      35.124  32.951  29.024  1.00  0.00     0.023 C 
BRANCH  23  24
ATOM     24  C   UNL A   1      33.870  33.805  28.933  1.00  0.00     0.023 C 
BRANCH  24  25
ATOM     25  C   UNL A   1      33.952  35.153  29.630  1.00  0.00     0.116 C 
BRANCH  25  26
ATOM     26  N   UNL A   1      32.819  35.459  30.493  1.00  0.00    -0.352 N 
ATOM     27  C   UNL A   1      32.748  35.266  31.859  1.00  0.00     0.251 C 
ATOM     28  H   UNL A   1      32.022  35.842  30.058  1.00  0.00     0.163 HD
ATOM     29  O   UNL A   1      31.732  35.497  32.493  1.00  0.00    -0.269 OA
BRANCH  27  30
ATOM     30  C   UNL A   1      33.946  34.719  32.530  1.00  0.00     0.039 A 
ATOM     31  C   UNL A   1      33.937  33.389  32.952  1.00  0.00     0.014 A 
ATOM     32  C   UNL A   1      35.116  35.481  32.583  1.00  0.00     0.014 A 
ATOM     33  C   UNL A   1      35.134  32.792  33.353  1.00  0.00     0.010 A 
ATOM     34  C   UNL A   1      36.317  34.861  32.905  1.00  0.00     0.010 A 
ATOM     35  C   UNL A   1      36.340  33.510  33.286  1.00  0.00    -0.014 A 
BRANCH  35  36
ATOM     36  C   UNL A   1      37.639  32.871  33.611  1.00  0.00     0.031 A 
ATOM     37  C   UNL A   1      38.248  31.890  32.649  1.00  0.00     0.074 A 
ATOM     38  C   UNL A   1      38.232  33.110  34.797  1.00  0.00     0.049 A 
ATOM     39  N   UNL A   1      39.332  31.168  32.779  1.00  0.00    -0.248 NA
ATOM     40  C   UNL A   1      37.523  31.664  31.388  1.00  0.00     0.031 C 
ATOM     41  C   UNL A   1      37.718  33.997  35.843  1.00  0.00     0.029 A 
ATOM     42  N   UNL A   1      39.399  32.616  35.326  1.00  0.00    -0.354 N 
ATOM     43  C   UNL A   1      39.405  30.391  31.631  1.00  0.00     0.074 A 
ATOM     44  C   UNL A   1      38.230  30.686  30.842  1.00  0.00     0.031 C 
ATOM     45  C   UNL A   1      38.579  34.005  36.874  1.00  0.00     0.029 A 
ATOM     46  C   UNL A   1      39.685  33.102  36.580  1.00  0.00     0.049 A 
ATOM     47  H   UNL A   1      39.976  31.973  34.853  1.00  0.00     0.167 HD
ATOM     48  C   UNL A   1      40.375  29.526  31.251  1.00  0.00     0.031 A 
ATOM     49  C   UNL A   1      40.724  32.847  37.398  1.00  0.00     0.031 A 
ATOM     50  C   UNL A   1      41.556  29.250  32.022  1.00  0.00     0.049 A 
ATOM     51  C   UNL A   1      41.799  31.896  36.947  1.00  0.00     0.074 A 
ATOM     52  C   UNL A   1      42.626  28.434  31.697  1.00  0.00     0.029 A 
ATOM     53  N   UNL A   1      41.824  29.787  33.271  1.00  0.00    -0.354 N 
ATOM     54  N   UNL A   1      41.886  31.219  35.828  1.00  0.00    -0.248 NA
ATOM     55  C   UNL A   1      42.924  31.685  37.869  1.00  0.00     0.031 C 
ATOM     56  C   UNL A   1      43.526  28.450  32.768  1.00  0.00     0.029 A 
ATOM     57  C   UNL A   1      43.037  29.311  33.737  1.00  0.00     0.049 A 
ATOM     58  H   UNL A   1      41.238  30.414  33.754  1.00  0.00     0.167 HD
ATOM     59  C   UNL A   1      43.086  30.523  35.900  1.00  0.00     0.074 A 
ATOM     60  C   UNL A   1      43.699  30.872  37.165  1.00  0.00     0.031 C 
ATOM     61  C   UNL A   1      43.631  29.672  34.997  1.00  0.00     0.031 A 
BRANCH  48  62
ATOM     62  C   UNL A   1      40.191  28.824  29.936  1.00  0.00    -0.014 A 
ATOM     63  C   UNL A   1      40.592  29.425  28.732  1.00  0.00     0.009 A 
ATOM     64  C   UNL A   1      39.622  27.543  29.900  1.00  0.00     0.009 A 
ATOM     65  C   UNL A   1      40.389  28.775  27.513  1.00  0.00     0.001 A 
ATOM     66  C   UNL A   1      39.446  26.882  28.683  1.00  0.00     0.001 A 
ATOM     67  C   UNL A   1      39.819  27.502  27.491  1.00  0.00     0.000 A 
ENDBRANCH  48  62
BRANCH  49  68
ATOM     68  C   UNL A   1      40.818  33.521  38.719  1.00  0.00    -0.014 A 
ATOM     69  C   UNL A   1      41.500  34.741  38.847  1.00  0.00     0.009 A 
ATOM     70  C   UNL A   1      40.233  32.947  39.859  1.00  0.00     0.009 A 
ATOM     71  C   UNL A   1      41.618  35.359  40.094  1.00  0.00     0.001 A 
ATOM     72  C   UNL A   1      40.332  33.581  41.100  1.00  0.00     0.001 A 
ATOM     73  C   UNL A   1      41.031  34.780  41.219  1.00  0.00     0.000 A 
ENDBRANCH  49  68
BRANCH  61  74
ATOM     74  C   UNL A   1      44.972  29.084  35.333  1.00  0.00    -0.014 A 
ATOM     75  C   UNL A   1      45.081  27.848  35.988  1.00  0.00     0.009 A 
ATOM     76  C   UNL A   1      46.141  29.757  34.944  1.00  0.00     0.009 A 
ATOM     77  C   UNL A   1      46.338  27.312  36.273  1.00  0.00     0.001 A 
ATOM     78  C   UNL A   1      47.394  29.205  35.207  1.00  0.00     0.001 A 
ATOM     79  C   UNL A   1      47.492  27.988  35.878  1.00  0.00     0.000 A 
ENDBRANCH  61  74
ENDBRANCH  35  36
ENDBRANCH  27  30
ENDBRANCH  25  26
ENDBRANCH  24  25
ENDBRANCH  23  24
ENDBRANCH   1  23
TORSDOF 16
ENDMDL
