MODEL 1
REMARK VINA RESULT:     -11.6      0.000      0.000
REMARK SMILES O=C(NCCCCNC(=O)c1ccc(-c2c3nc(c(-c4ccccc4)c4ccc([nH]4)c(-c4ccccc4)c4nc(c(-c5ccccc5)c5ccc2[nH]5)C=C4)C=C3)cc1)C1=Cc2c(ccc(Cl)c2Cl)O[C@H]1C(F)(F)F
REMARK SMILES IDX 6 1 5 2 4 3 3 4 1 5 2 6 59 8 60 9 70 10 61 11 69 12 62 13
REMARK SMILES IDX 67 14 63 15 65 16 68 17 64 18 66 19 71 20 72 21 73 22 74 23
REMARK SMILES IDX 7 24 8 25 9 26 10 28 11 29 12 30 58 31 13 32 57 33 14 34
REMARK SMILES IDX 15 35 16 36 51 37 17 38 56 39 50 40 52 41 18 42 55 43 49 44
REMARK SMILES IDX 48 45 19 47 41 48 26 49 40 50 27 51 30 52 39 53 53 54 28 55
REMARK SMILES IDX 29 56 38 58 54 59 31 60 20 61 21 62 25 63 22 64 24 65 23 66
REMARK SMILES IDX 42 67 43 68 47 69 44 70 46 71 45 72 32 73 33 74 37 75 34 76
REMARK SMILES IDX 36 77 35 78
REMARK H PARENT 3 7 8 27 52 46 30 57
REMARK Flexibility Score: inf
ROOT
ATOM      1  C   UNL A   1      32.440  30.051  26.011  1.00  0.00     0.023 C 
ENDROOT
BRANCH   1   2
ATOM      2  C   UNL A   1      32.582  29.109  24.819  1.00  0.00     0.023 C 
BRANCH   2   3
ATOM      3  C   UNL A   1      33.723  28.103  24.899  1.00  0.00     0.116 C 
BRANCH   3   4
ATOM      4  N   UNL A   1      33.861  27.225  23.752  1.00  0.00    -0.352 N 
ATOM      5  O   UNL A   1      34.030  25.253  22.666  1.00  0.00    -0.270 OA
ATOM      6  C   UNL A   1      33.860  25.853  23.721  1.00  0.00     0.251 C 
ATOM      7  H   UNL A   1      33.970  27.672  22.881  1.00  0.00     0.163 HD
BRANCH   6   8
ATOM      8  C   UNL A   1      33.669  25.084  24.981  1.00  0.00     0.067 C 
ATOM      9  C   UNL A   1      34.808  24.674  25.561  1.00  0.00     0.027 C 
ATOM     10  C   UNL A   1      32.391  24.293  25.077  1.00  0.00     0.314 C 
ATOM     11  C   UNL A   1      34.999  23.212  25.532  1.00  0.00     0.037 A 
ATOM     12  O   UNL A   1      32.591  22.870  25.323  1.00  0.00    -0.475 OA
ATOM     13  C   UNL A   1      33.875  22.394  25.345  1.00  0.00     0.129 A 
ATOM     14  C   UNL A   1      36.291  22.651  25.481  1.00  0.00     0.070 A 
ATOM     15  C   UNL A   1      34.031  21.036  25.077  1.00  0.00     0.049 A 
ATOM     16  C   UNL A   1      36.440  21.290  25.179  1.00  0.00     0.060 A 
ATOM     17  Cl  UNL A   1      37.683  23.668  25.695  1.00  0.00    -0.082 Cl
ATOM     18  C   UNL A   1      35.311  20.492  24.968  1.00  0.00     0.026 A 
ATOM     19  Cl  UNL A   1      37.989  20.549  24.987  1.00  0.00    -0.083 Cl
BRANCH  10  20
ATOM     20  C   UNL A   1      31.432  24.892  26.129  1.00  0.00     0.429 C 
ATOM     21  F   UNL A   1      30.180  25.087  25.656  1.00  0.00    -0.167 F 
ATOM     22  F   UNL A   1      31.332  24.077  27.208  1.00  0.00    -0.167 F 
ATOM     23  F   UNL A   1      31.866  26.093  26.584  1.00  0.00    -0.167 F 
ENDBRANCH  10  20
ENDBRANCH   6   8
ENDBRANCH   3   4
ENDBRANCH   2   3
ENDBRANCH   1   2
BRANCH   1  24
ATOM     24  C   UNL A   1      33.389  29.823  27.188  1.00  0.00     0.116 C 
BRANCH  24  25
ATOM     25  N   UNL A   1      33.633  30.996  28.015  1.00  0.00    -0.352 N 
ATOM     26  C   UNL A   1      34.758  31.352  28.739  1.00  0.00     0.251 C 
ATOM     27  H   UNL A   1      32.884  31.633  28.067  1.00  0.00     0.163 HD
ATOM     28  O   UNL A   1      34.760  32.375  29.396  1.00  0.00    -0.269 OA
BRANCH  26  29
ATOM     29  C   UNL A   1      35.926  30.437  28.775  1.00  0.00     0.039 A 
ATOM     30  C   UNL A   1      36.771  30.400  27.662  1.00  0.00     0.014 A 
ATOM     31  C   UNL A   1      36.238  29.696  29.916  1.00  0.00     0.014 A 
ATOM     32  C   UNL A   1      38.001  29.742  27.749  1.00  0.00     0.010 A 
ATOM     33  C   UNL A   1      37.494  29.103  30.028  1.00  0.00     0.010 A 
ATOM     34  C   UNL A   1      38.405  29.160  28.961  1.00  0.00    -0.014 A 
BRANCH  34  35
ATOM     35  C   UNL A   1      39.809  28.722  29.171  1.00  0.00     0.031 A 
ATOM     36  C   UNL A   1      40.850  29.666  29.697  1.00  0.00     0.074 A 
ATOM     37  C   UNL A   1      40.172  27.483  28.780  1.00  0.00     0.049 A 
ATOM     38  N   UNL A   1      42.133  29.463  29.871  1.00  0.00    -0.248 NA
ATOM     39  C   UNL A   1      40.399  31.020  30.050  1.00  0.00     0.031 C 
ATOM     40  C   UNL A   1      39.277  26.486  28.186  1.00  0.00     0.029 A 
ATOM     41  N   UNL A   1      41.394  26.858  28.804  1.00  0.00    -0.354 N 
ATOM     42  C   UNL A   1      42.645  30.665  30.338  1.00  0.00     0.074 A 
ATOM     43  C   UNL A   1      41.542  31.603  30.382  1.00  0.00     0.031 C 
ATOM     44  C   UNL A   1      39.975  25.370  27.923  1.00  0.00     0.029 A 
ATOM     45  C   UNL A   1      41.369  25.582  28.294  1.00  0.00     0.049 A 
ATOM     46  H   UNL A   1      42.210  27.283  29.155  1.00  0.00     0.167 HD
ATOM     47  C   UNL A   1      43.914  30.961  30.709  1.00  0.00     0.031 A 
ATOM     48  C   UNL A   1      42.357  24.682  28.130  1.00  0.00     0.031 A 
ATOM     49  C   UNL A   1      45.014  30.034  30.669  1.00  0.00     0.049 A 
ATOM     50  C   UNL A   1      43.754  25.031  28.548  1.00  0.00     0.074 A 
ATOM     51  C   UNL A   1      46.317  30.222  31.101  1.00  0.00     0.029 A 
ATOM     52  N   UNL A   1      44.945  28.748  30.160  1.00  0.00    -0.354 N 
ATOM     53  N   UNL A   1      44.203  26.146  29.068  1.00  0.00    -0.248 NA
ATOM     54  C   UNL A   1      44.780  23.994  28.359  1.00  0.00     0.031 C 
ATOM     55  C   UNL A   1      47.046  29.063  30.812  1.00  0.00     0.029 A 
ATOM     56  C   UNL A   1      46.187  28.140  30.237  1.00  0.00     0.049 A 
ATOM     57  H   UNL A   1      44.132  28.326  29.797  1.00  0.00     0.167 HD
ATOM     58  C   UNL A   1      45.560  25.945  29.278  1.00  0.00     0.074 A 
ATOM     59  C   UNL A   1      45.858  24.594  28.846  1.00  0.00     0.031 C 
ATOM     60  C   UNL A   1      46.476  26.804  29.784  1.00  0.00     0.031 A 
BRANCH  47  61
ATOM     61  C   UNL A   1      44.176  32.361  31.184  1.00  0.00    -0.014 A 
ATOM     62  C   UNL A   1      44.062  32.697  32.543  1.00  0.00     0.009 A 
ATOM     63  C   UNL A   1      44.551  33.354  30.266  1.00  0.00     0.009 A 
ATOM     64  C   UNL A   1      44.278  34.010  32.965  1.00  0.00     0.001 A 
ATOM     65  C   UNL A   1      44.790  34.660  30.696  1.00  0.00     0.001 A 
ATOM     66  C   UNL A   1      44.643  34.989  32.042  1.00  0.00     0.000 A 
ENDBRANCH  47  61
BRANCH  48  67
ATOM     67  C   UNL A   1      42.047  23.353  27.546  1.00  0.00    -0.014 A 
ATOM     68  C   UNL A   1      42.327  23.090  26.198  1.00  0.00     0.009 A 
ATOM     69  C   UNL A   1      41.494  22.337  28.340  1.00  0.00     0.009 A 
ATOM     70  C   UNL A   1      42.047  21.836  25.651  1.00  0.00     0.001 A 
ATOM     71  C   UNL A   1      41.234  21.078  27.796  1.00  0.00     0.001 A 
ATOM     72  C   UNL A   1      41.506  20.831  26.451  1.00  0.00     0.000 A 
ENDBRANCH  48  67
BRANCH  60  73
ATOM     73  C   UNL A   1      47.888  26.307  29.897  1.00  0.00    -0.014 A 
ATOM     74  C   UNL A   1      48.373  25.784  31.105  1.00  0.00     0.009 A 
ATOM     75  C   UNL A   1      48.732  26.336  28.777  1.00  0.00     0.009 A 
ATOM     76  C   UNL A   1      49.688  25.320  31.195  1.00  0.00     0.001 A 
ATOM     77  C   UNL A   1      50.039  25.852  28.864  1.00  0.00     0.001 A 
ATOM     78  C   UNL A   1      50.517  25.351  30.074  1.00  0.00     0.000 A 
ENDBRANCH  60  73
ENDBRANCH  34  35
ENDBRANCH  26  29
ENDBRANCH  24  25
ENDBRANCH   1  24
TORSDOF 12
ENDMDL
MODEL 2
REMARK VINA RESULT:     -11.4      2.903      8.006
REMARK SMILES O=C(NCCCCNC(=O)c1ccc(-c2c3nc(c(-c4ccccc4)c4ccc([nH]4)c(-c4ccccc4)c4nc(c(-c5ccccc5)c5ccc2[nH]5)C=C4)C=C3)cc1)C1=Cc2c(ccc(Cl)c2Cl)O[C@H]1C(F)(F)F
REMARK SMILES IDX 6 1 5 2 4 3 3 4 1 5 2 6 59 8 60 9 70 10 61 11 69 12 62 13
REMARK SMILES IDX 67 14 63 15 65 16 68 17 64 18 66 19 71 20 72 21 73 22 74 23
REMARK SMILES IDX 7 24 8 25 9 26 10 28 11 29 12 30 58 31 13 32 57 33 14 34
REMARK SMILES IDX 15 35 16 36 51 37 17 38 56 39 50 40 52 41 18 42 55 43 49 44
REMARK SMILES IDX 48 45 19 47 41 48 26 49 40 50 27 51 30 52 39 53 53 54 28 55
REMARK SMILES IDX 29 56 38 58 54 59 31 60 20 61 21 62 25 63 22 64 24 65 23 66
REMARK SMILES IDX 42 67 43 68 47 69 44 70 46 71 45 72 32 73 33 74 37 75 34 76
REMARK SMILES IDX 36 77 35 78
REMARK H PARENT 3 7 8 27 52 46 30 57
REMARK Flexibility Score: inf
ROOT
ATOM      1  C   UNL A   1      36.408  21.634  25.089  1.00  0.00     0.023 C 
ENDROOT
BRANCH   1   2
ATOM      2  C   UNL A   1      35.046  21.731  25.770  1.00  0.00     0.023 C 
BRANCH   2   3
ATOM      3  C   UNL A   1      34.890  22.856  26.786  1.00  0.00     0.116 C 
BRANCH   3   4
ATOM      4  N   UNL A   1      33.523  23.228  27.099  1.00  0.00    -0.352 N 
ATOM      5  O   UNL A   1      31.612  24.419  26.927  1.00  0.00    -0.270 OA
ATOM      6  C   UNL A   1      32.746  24.198  26.517  1.00  0.00     0.251 C 
ATOM      7  H   UNL A   1      33.095  22.716  27.824  1.00  0.00     0.163 HD
BRANCH   6   8
ATOM      8  C   UNL A   1      33.289  25.004  25.389  1.00  0.00     0.067 C 
ATOM      9  C   UNL A   1      33.798  26.193  25.749  1.00  0.00     0.027 C 
ATOM     10  C   UNL A   1      32.631  24.785  24.053  1.00  0.00     0.314 C 
ATOM     11  C   UNL A   1      33.018  27.346  25.264  1.00  0.00     0.037 A 
ATOM     12  O   UNL A   1      32.094  25.999  23.450  1.00  0.00    -0.475 OA
ATOM     13  C   UNL A   1      32.154  27.159  24.176  1.00  0.00     0.129 A 
ATOM     14  C   UNL A   1      32.973  28.550  25.996  1.00  0.00     0.070 A 
ATOM     15  C   UNL A   1      31.230  28.145  23.835  1.00  0.00     0.049 A 
ATOM     16  C   UNL A   1      32.019  29.522  25.666  1.00  0.00     0.060 A 
ATOM     17  Cl  UNL A   1      34.032  28.773  27.356  1.00  0.00    -0.082 Cl
ATOM     18  C   UNL A   1      31.146  29.312  24.595  1.00  0.00     0.026 A 
ATOM     19  Cl  UNL A   1      31.824  30.974  26.581  1.00  0.00    -0.083 Cl
BRANCH  10  20
ATOM     20  C   UNL A   1      33.577  24.067  23.066  1.00  0.00     0.429 C 
ATOM     21  F   UNL A   1      34.886  24.251  23.355  1.00  0.00    -0.167 F 
ATOM     22  F   UNL A   1      33.351  22.730  23.070  1.00  0.00    -0.167 F 
ATOM     23  F   UNL A   1      33.399  24.491  21.792  1.00  0.00    -0.167 F 
ENDBRANCH  10  20
ENDBRANCH   6   8
ENDBRANCH   3   4
ENDBRANCH   2   3
ENDBRANCH   1   2
BRANCH   1  24
ATOM     24  C   UNL A   1      37.450  22.683  25.477  1.00  0.00     0.116 C 
BRANCH  24  25
ATOM     25  N   UNL A   1      38.789  22.159  25.714  1.00  0.00    -0.352 N 
ATOM     26  C   UNL A   1      39.878  22.754  26.326  1.00  0.00     0.251 C 
ATOM     27  H   UNL A   1      38.941  21.242  25.389  1.00  0.00     0.163 HD
ATOM     28  O   UNL A   1      40.933  22.154  26.408  1.00  0.00    -0.269 OA
BRANCH  26  29
ATOM     29  C   UNL A   1      39.775  24.155  26.804  1.00  0.00     0.039 A 
ATOM     30  C   UNL A   1      39.205  24.385  28.060  1.00  0.00     0.014 A 
ATOM     31  C   UNL A   1      40.310  25.217  26.073  1.00  0.00     0.014 A 
ATOM     32  C   UNL A   1      39.308  25.650  28.645  1.00  0.00     0.010 A 
ATOM     33  C   UNL A   1      40.477  26.457  26.685  1.00  0.00     0.010 A 
ATOM     34  C   UNL A   1      40.019  26.672  27.995  1.00  0.00    -0.014 A 
BRANCH  34  35
ATOM     35  C   UNL A   1      40.399  27.918  28.711  1.00  0.00     0.031 A 
ATOM     36  C   UNL A   1      41.718  28.041  29.415  1.00  0.00     0.074 A 
ATOM     37  C   UNL A   1      39.493  28.911  28.816  1.00  0.00     0.049 A 
ATOM     38  N   UNL A   1      42.173  29.031  30.142  1.00  0.00    -0.248 NA
ATOM     39  C   UNL A   1      42.635  26.897  29.308  1.00  0.00     0.031 C 
ATOM     40  C   UNL A   1      38.144  28.895  28.241  1.00  0.00     0.029 A 
ATOM     41  N   UNL A   1      39.562  30.122  29.461  1.00  0.00    -0.354 N 
ATOM     42  C   UNL A   1      43.420  28.624  30.594  1.00  0.00     0.074 A 
ATOM     43  C   UNL A   1      43.633  27.284  30.090  1.00  0.00     0.031 C 
ATOM     44  C   UNL A   1      37.524  30.047  28.541  1.00  0.00     0.029 A 
ATOM     45  C   UNL A   1      38.412  30.867  29.356  1.00  0.00     0.049 A 
ATOM     46  H   UNL A   1      40.360  30.427  29.951  1.00  0.00     0.167 HD
ATOM     47  C   UNL A   1      44.314  29.308  31.349  1.00  0.00     0.031 A 
ATOM     48  C   UNL A   1      38.096  32.072  29.867  1.00  0.00     0.031 A 
ATOM     49  C   UNL A   1      44.111  30.641  31.851  1.00  0.00     0.049 A 
ATOM     50  C   UNL A   1      39.102  32.811  30.698  1.00  0.00     0.074 A 
ATOM     51  C   UNL A   1      44.994  31.442  32.556  1.00  0.00     0.029 A 
ATOM     52  N   UNL A   1      42.939  31.366  31.711  1.00  0.00    -0.354 N 
ATOM     53  N   UNL A   1      40.312  32.446  31.044  1.00  0.00    -0.248 NA
ATOM     54  C   UNL A   1      38.699  34.130  31.207  1.00  0.00     0.031 C 
ATOM     55  C   UNL A   1      44.339  32.636  32.880  1.00  0.00     0.029 A 
ATOM     56  C   UNL A   1      43.063  32.594  32.342  1.00  0.00     0.049 A 
ATOM     57  H   UNL A   1      42.135  31.056  31.233  1.00  0.00     0.167 HD
ATOM     58  C   UNL A   1      40.819  33.491  31.802  1.00  0.00     0.074 A 
ATOM     59  C   UNL A   1      39.793  34.513  31.852  1.00  0.00     0.031 C 
ATOM     60  C   UNL A   1      42.028  33.592  32.403  1.00  0.00     0.031 A 
BRANCH  47  61
ATOM     61  C   UNL A   1      45.600  28.607  31.682  1.00  0.00    -0.014 A 
ATOM     62  C   UNL A   1      46.719  28.710  30.840  1.00  0.00     0.009 A 
ATOM     63  C   UNL A   1      45.698  27.845  32.856  1.00  0.00     0.009 A 
ATOM     64  C   UNL A   1      47.898  28.028  31.147  1.00  0.00     0.001 A 
ATOM     65  C   UNL A   1      46.886  27.184  33.172  1.00  0.00     0.001 A 
ATOM     66  C   UNL A   1      47.981  27.267  32.313  1.00  0.00     0.000 A 
ENDBRANCH  47  61
BRANCH  48  67
ATOM     67  C   UNL A   1      36.761  32.657  29.591  1.00  0.00    -0.014 A 
ATOM     68  C   UNL A   1      36.532  33.368  28.405  1.00  0.00     0.009 A 
ATOM     69  C   UNL A   1      35.706  32.488  30.501  1.00  0.00     0.009 A 
ATOM     70  C   UNL A   1      35.272  33.909  28.139  1.00  0.00     0.001 A 
ATOM     71  C   UNL A   1      34.442  33.014  30.223  1.00  0.00     0.001 A 
ATOM     72  C   UNL A   1      34.228  33.727  29.046  1.00  0.00     0.000 A 
ENDBRANCH  48  67
BRANCH  60  73
ATOM     73  C   UNL A   1      42.306  34.854  33.167  1.00  0.00    -0.014 A 
ATOM     74  C   UNL A   1      43.070  35.887  32.601  1.00  0.00     0.009 A 
ATOM     75  C   UNL A   1      41.774  35.026  34.454  1.00  0.00     0.009 A 
ATOM     76  C   UNL A   1      43.316  37.058  33.320  1.00  0.00     0.001 A 
ATOM     77  C   UNL A   1      42.005  36.206  35.163  1.00  0.00     0.001 A 
ATOM     78  C   UNL A   1      42.781  37.218  34.598  1.00  0.00     0.000 A 
ENDBRANCH  60  73
ENDBRANCH  34  35
ENDBRANCH  26  29
ENDBRANCH  24  25
ENDBRANCH   1  24
TORSDOF 12
ENDMDL
MODEL 3
REMARK VINA RESULT:     -11.4      0.370      5.930
REMARK SMILES O=C(NCCCCNC(=O)c1ccc(-c2c3nc(c(-c4ccccc4)c4ccc([nH]4)c(-c4ccccc4)c4nc(c(-c5ccccc5)c5ccc2[nH]5)C=C4)C=C3)cc1)C1=Cc2c(ccc(Cl)c2Cl)O[C@H]1C(F)(F)F
REMARK SMILES IDX 6 1 5 2 4 3 3 4 1 5 2 6 59 8 60 9 70 10 61 11 69 12 62 13
REMARK SMILES IDX 67 14 63 15 65 16 68 17 64 18 66 19 71 20 72 21 73 22 74 23
REMARK SMILES IDX 7 24 8 25 9 26 10 28 11 29 12 30 58 31 13 32 57 33 14 34
REMARK SMILES IDX 15 35 16 36 51 37 17 38 56 39 50 40 52 41 18 42 55 43 49 44
REMARK SMILES IDX 48 45 19 47 41 48 26 49 40 50 27 51 30 52 39 53 53 54 28 55
REMARK SMILES IDX 29 56 38 58 54 59 31 60 20 61 21 62 25 63 22 64 24 65 23 66
REMARK SMILES IDX 42 67 43 68 47 69 44 70 46 71 45 72 32 73 33 74 37 75 34 76
REMARK SMILES IDX 36 77 35 78
REMARK H PARENT 3 7 8 27 52 46 30 57
REMARK Flexibility Score: inf
ROOT
ATOM      1  C   UNL A   1      32.391  29.939  26.038  1.00  0.00     0.023 C 
ENDROOT
BRANCH   1   2
ATOM      2  C   UNL A   1      32.465  29.010  24.830  1.00  0.00     0.023 C 
BRANCH   2   3
ATOM      3  C   UNL A   1      33.805  28.321  24.605  1.00  0.00     0.116 C 
BRANCH   3   4
ATOM      4  N   UNL A   1      33.846  27.386  23.495  1.00  0.00    -0.352 N 
ATOM      5  O   UNL A   1      33.860  25.362  22.496  1.00  0.00    -0.270 OA
ATOM      6  C   UNL A   1      33.767  26.016  23.528  1.00  0.00     0.251 C 
ATOM      7  H   UNL A   1      33.943  27.788  22.601  1.00  0.00     0.163 HD
BRANCH   6   8
ATOM      8  C   UNL A   1      33.586  25.316  24.828  1.00  0.00     0.067 C 
ATOM      9  C   UNL A   1      34.727  24.897  25.399  1.00  0.00     0.027 C 
ATOM     10  C   UNL A   1      32.287  24.573  24.996  1.00  0.00     0.314 C 
ATOM     11  C   UNL A   1      34.871  23.430  25.437  1.00  0.00     0.037 A 
ATOM     12  O   UNL A   1      32.448  23.157  25.305  1.00  0.00    -0.475 OA
ATOM     13  C   UNL A   1      33.717  22.642  25.318  1.00  0.00     0.129 A 
ATOM     14  C   UNL A   1      36.143  22.825  25.380  1.00  0.00     0.070 A 
ATOM     15  C   UNL A   1      33.823  21.268  25.113  1.00  0.00     0.049 A 
ATOM     16  C   UNL A   1      36.240  21.447  25.142  1.00  0.00     0.060 A 
ATOM     17  Cl  UNL A   1      37.572  23.805  25.509  1.00  0.00    -0.082 Cl
ATOM     18  C   UNL A   1      35.082  20.677  24.998  1.00  0.00     0.026 A 
ATOM     19  Cl  UNL A   1      37.759  20.647  24.946  1.00  0.00    -0.083 Cl
BRANCH  10  20
ATOM     20  C   UNL A   1      31.377  25.253  26.041  1.00  0.00     0.429 C 
ATOM     21  F   UNL A   1      30.292  25.849  25.493  1.00  0.00    -0.167 F 
ATOM     22  F   UNL A   1      30.924  24.350  26.945  1.00  0.00    -0.167 F 
ATOM     23  F   UNL A   1      32.034  26.211  26.739  1.00  0.00    -0.167 F 
ENDBRANCH  10  20
ENDBRANCH   6   8
ENDBRANCH   3   4
ENDBRANCH   2   3
ENDBRANCH   1   2
BRANCH   1  24
ATOM     24  C   UNL A   1      33.445  29.744  27.127  1.00  0.00     0.116 C 
BRANCH  24  25
ATOM     25  N   UNL A   1      33.669  30.903  27.980  1.00  0.00    -0.352 N 
ATOM     26  C   UNL A   1      34.788  31.264  28.710  1.00  0.00     0.251 C 
ATOM     27  H   UNL A   1      32.909  31.524  28.047  1.00  0.00     0.163 HD
ATOM     28  O   UNL A   1      34.773  32.272  29.389  1.00  0.00    -0.269 OA
BRANCH  26  29
ATOM     29  C   UNL A   1      35.973  30.369  28.724  1.00  0.00     0.039 A 
ATOM     30  C   UNL A   1      36.752  30.285  27.566  1.00  0.00     0.014 A 
ATOM     31  C   UNL A   1      36.366  29.696  29.882  1.00  0.00     0.014 A 
ATOM     32  C   UNL A   1      37.996  29.651  27.613  1.00  0.00     0.010 A 
ATOM     33  C   UNL A   1      37.637  29.129  29.949  1.00  0.00     0.010 A 
ATOM     34  C   UNL A   1      38.482  29.143  28.828  1.00  0.00    -0.014 A 
BRANCH  34  35
ATOM     35  C   UNL A   1      39.904  28.738  28.977  1.00  0.00     0.031 A 
ATOM     36  C   UNL A   1      40.368  27.364  28.589  1.00  0.00     0.074 A 
ATOM     37  C   UNL A   1      40.766  29.588  29.571  1.00  0.00     0.049 A 
ATOM     38  N   UNL A   1      41.557  26.830  28.720  1.00  0.00    -0.248 NA
ATOM     39  C   UNL A   1      39.363  26.467  28.000  1.00  0.00     0.031 C 
ATOM     40  C   UNL A   1      40.433  30.928  30.063  1.00  0.00     0.029 A 
ATOM     41  N   UNL A   1      42.097  29.444  29.881  1.00  0.00    -0.354 N 
ATOM     42  C   UNL A   1      41.440  25.531  28.246  1.00  0.00     0.074 A 
ATOM     43  C   UNL A   1      40.057  25.346  27.861  1.00  0.00     0.031 C 
ATOM     44  C   UNL A   1      41.532  31.488  30.591  1.00  0.00     0.029 A 
ATOM     45  C   UNL A   1      42.636  30.540  30.510  1.00  0.00     0.049 A 
ATOM     46  H   UNL A   1      42.614  28.633  29.671  1.00  0.00     0.167 HD
ATOM     47  C   UNL A   1      42.399  24.580  28.129  1.00  0.00     0.031 A 
ATOM     48  C   UNL A   1      43.878  30.758  30.982  1.00  0.00     0.031 A 
ATOM     49  C   UNL A   1      43.776  24.757  28.507  1.00  0.00     0.049 A 
ATOM     50  C   UNL A   1      44.923  29.693  30.841  1.00  0.00     0.074 A 
ATOM     51  C   UNL A   1      44.834  23.877  28.350  1.00  0.00     0.029 A 
ATOM     52  N   UNL A   1      44.286  25.886  29.127  1.00  0.00    -0.354 N 
ATOM     53  N   UNL A   1      44.815  28.500  30.311  1.00  0.00    -0.248 NA
ATOM     54  C   UNL A   1      46.263  30.006  31.360  1.00  0.00     0.031 C 
ATOM     55  C   UNL A   1      45.975  24.458  28.916  1.00  0.00     0.029 A 
ATOM     56  C   UNL A   1      45.636  25.715  29.388  1.00  0.00     0.049 A 
ATOM     57  H   UNL A   1      43.766  26.693  29.350  1.00  0.00     0.167 HD
ATOM     58  C   UNL A   1      46.072  27.922  30.424  1.00  0.00     0.074 A 
ATOM     59  C   UNL A   1      46.931  28.902  31.055  1.00  0.00     0.031 C 
ATOM     60  C   UNL A   1      46.475  26.688  30.037  1.00  0.00     0.031 A 
BRANCH  47  61
ATOM     61  C   UNL A   1      41.976  23.252  27.571  1.00  0.00    -0.014 A 
ATOM     62  C   UNL A   1      41.524  22.224  28.415  1.00  0.00     0.009 A 
ATOM     63  C   UNL A   1      42.019  23.027  26.187  1.00  0.00     0.009 A 
ATOM     64  C   UNL A   1      41.163  20.984  27.885  1.00  0.00     0.001 A 
ATOM     65  C   UNL A   1      41.634  21.794  25.659  1.00  0.00     0.001 A 
ATOM     66  C   UNL A   1      41.217  20.770  26.508  1.00  0.00     0.000 A 
ENDBRANCH  47  61
BRANCH  48  67
ATOM     67  C   UNL A   1      44.198  32.056  31.627  1.00  0.00    -0.014 A 
ATOM     68  C   UNL A   1      44.662  33.132  30.857  1.00  0.00     0.009 A 
ATOM     69  C   UNL A   1      44.019  32.230  33.008  1.00  0.00     0.009 A 
ATOM     70  C   UNL A   1      44.952  34.358  31.461  1.00  0.00     0.001 A 
ATOM     71  C   UNL A   1      44.291  33.463  33.605  1.00  0.00     0.001 A 
ATOM     72  C   UNL A   1      44.762  34.523  32.833  1.00  0.00     0.000 A 
ENDBRANCH  48  67
BRANCH  60  73
ATOM     73  C   UNL A   1      47.911  26.330  30.288  1.00  0.00    -0.014 A 
ATOM     74  C   UNL A   1      48.895  26.575  29.317  1.00  0.00     0.009 A 
ATOM     75  C   UNL A   1      48.289  25.771  31.518  1.00  0.00     0.009 A 
ATOM     76  C   UNL A   1      50.228  26.242  29.566  1.00  0.00     0.001 A 
ATOM     77  C   UNL A   1      49.626  25.458  31.771  1.00  0.00     0.001 A 
ATOM     78  C   UNL A   1      50.592  25.688  30.793  1.00  0.00     0.000 A 
ENDBRANCH  60  73
ENDBRANCH  34  35
ENDBRANCH  26  29
ENDBRANCH  24  25
ENDBRANCH   1  24
TORSDOF 12
ENDMDL
