MODEL 1
REMARK VINA RESULT:     -13.4      0.000      0.000
REMARK SMILES Cc1ccc(S(=O)(=O)n2cc(C(=O)C(=O)N[C@@H](Cc3c[nH]c4ccccc34)C(=O)NCC(=O)NCCCCNC(=O)c3ccc(-c4c5nc(c(-c6ccccc6)c6ccc([nH]6)c(-c6ccccc6)c6nc(c(-c7ccccc7)c7ccc4[nH]7)C=C6)C=C5)cc3)c3ccccc32)cc1
REMARK SMILES IDX 32 1 33 2 34 3 31 5 30 6 28 7 29 8 17 10 16 11 14 12 15 13
REMARK SMILES IDX 12 15 13 16 11 17 9 18 10 19 95 20 90 21 94 22 91 23 93 24
REMARK SMILES IDX 92 25 6 26 7 27 8 28 5 29 1 30 2 31 3 32 97 33 4 34 96 35
REMARK SMILES IDX 18 36 19 37 20 38 27 39 21 40 22 41 26 42 23 44 25 45 24 46
REMARK SMILES IDX 35 47 36 48 37 49 38 50 39 51 40 52 41 54 42 55 43 56 89 57
REMARK SMILES IDX 44 58 88 59 45 60 46 61 47 62 82 63 48 64 87 65 81 66 83 67
REMARK SMILES IDX 49 68 86 69 80 70 79 71 50 73 72 74 57 75 71 76 58 77 61 78
REMARK SMILES IDX 70 79 84 80 59 81 60 82 69 84 85 85 62 86 51 87 52 88 56 89
REMARK SMILES IDX 53 90 55 91 54 92 73 93 74 94 78 95 75 96 77 97 76 98 63 99
REMARK SMILES IDX 64 100 68 101 65 102 67 103 66 104
REMARK H PARENT 34 4 30 9 16 14 21 43 39 53 83 72 61 83
REMARK Flexibility Score: inf
ROOT
ATOM      1  C   UNL A   1      32.216  28.291  27.332  1.00  0.00     0.239 C 
ATOM      2  O   UNL A   1      31.193  28.180  28.008  1.00  0.00    -0.273 OA
ATOM      3  N   UNL A   1      33.335  28.815  27.911  1.00  0.00    -0.355 N 
ATOM      4  H   UNL A   1      33.258  29.082  28.856  1.00  0.00     0.163 HD
ENDROOT
BRANCH   1   5
ATOM      5  C   UNL A   1      32.344  27.659  25.944  1.00  0.00     0.216 C 
BRANCH   5   6
ATOM      6  N   UNL A   1      31.357  26.695  25.490  1.00  0.00    -0.345 N 
ATOM      7  C   UNL A   1      30.832  26.454  24.254  1.00  0.00     0.243 C 
ATOM      8  O   UNL A   1      30.260  25.360  24.141  1.00  0.00    -0.273 OA
ATOM      9  H   UNL A   1      31.004  26.111  26.201  1.00  0.00     0.164 HD
BRANCH   7  10
ATOM     10  C   UNL A   1      30.935  27.401  22.999  1.00  0.00     0.176 C 
BRANCH  10  11
ATOM     11  N   UNL A   1      31.587  26.852  21.776  1.00  0.00    -0.337 N 
ATOM     12  C   UNL A   1      32.722  26.047  21.583  1.00  0.00     0.293 C 
ATOM     13  O   UNL A   1      33.085  25.792  20.436  1.00  0.00    -0.265 OA
ATOM     14  H   UNL A   1      31.132  27.102  20.939  1.00  0.00     0.164 HD
BRANCH  12  15
ATOM     15  C   UNL A   1      33.479  25.406  22.764  1.00  0.00     0.252 C 
ATOM     16  O   UNL A   1      34.126  26.213  23.436  1.00  0.00    -0.283 OA
BRANCH  15  17
ATOM     17  C   UNL A   1      33.493  23.945  23.114  1.00  0.00     0.054 A 
ATOM     18  N   UNL A   1      33.519  21.634  23.177  1.00  0.00    -0.240 N 
ATOM     19  C   UNL A   1      33.299  22.765  22.370  1.00  0.00     0.117 A 
ATOM     20  C   UNL A   1      34.124  22.136  24.346  1.00  0.00     0.065 A 
ATOM     21  C   UNL A   1      33.763  23.479  24.447  1.00  0.00     0.012 A 
ATOM     22  C   UNL A   1      34.738  21.458  25.417  1.00  0.00     0.028 A 
ATOM     23  C   UNL A   1      33.832  24.088  25.720  1.00  0.00     0.011 A 
ATOM     24  C   UNL A   1      34.738  22.059  26.670  1.00  0.00     0.002 A 
ATOM     25  C   UNL A   1      34.252  23.345  26.830  1.00  0.00     0.001 A 
BRANCH  18  26
ATOM     26  S   UNL A   1      32.493  20.225  23.575  1.00  0.00     0.268 S 
ATOM     27  O   UNL A   1      31.806  19.984  22.316  1.00  0.00    -0.201 OA
ATOM     28  O   UNL A   1      31.786  20.796  24.719  1.00  0.00    -0.201 OA
BRANCH  26  29
ATOM     29  C   UNL A   1      32.727  18.598  24.248  1.00  0.00     0.088 A 
ATOM     30  C   UNL A   1      34.095  14.574  25.275  1.00  0.00     0.044 C 
ATOM     31  C   UNL A   1      33.609  15.956  24.940  1.00  0.00    -0.051 A 
ATOM     32  C   UNL A   1      33.930  16.494  23.703  1.00  0.00     0.005 A 
ATOM     33  C   UNL A   1      32.835  16.739  25.813  1.00  0.00     0.005 A 
ATOM     34  C   UNL A   1      33.517  17.788  23.385  1.00  0.00     0.022 A 
ATOM     35  C   UNL A   1      32.368  18.036  25.453  1.00  0.00     0.022 A 
ENDBRANCH  26  29
ENDBRANCH  18  26
ENDBRANCH  15  17
ENDBRANCH  12  15
ENDBRANCH  10  11
BRANCH  10  36
ATOM     36  C   UNL A   1      29.637  28.223  22.700  1.00  0.00     0.072 C 
BRANCH  36  37
ATOM     37  C   UNL A   1      29.616  29.711  22.967  1.00  0.00    -0.020 A 
ATOM     38  C   UNL A   1      30.036  30.317  24.142  1.00  0.00     0.087 A 
ATOM     39  C   UNL A   1      29.132  30.776  22.124  1.00  0.00     0.003 A 
ATOM     40  N   UNL A   1      29.711  31.648  24.094  1.00  0.00    -0.361 N 
ATOM     41  C   UNL A   1      29.053  31.924  22.919  1.00  0.00     0.046 A 
ATOM     42  C   UNL A   1      28.615  30.845  20.814  1.00  0.00     0.010 A 
ATOM     43  H   UNL A   1      29.918  32.307  24.795  1.00  0.00     0.166 HD
ATOM     44  C   UNL A   1      28.370  33.081  22.522  1.00  0.00     0.026 A 
ATOM     45  C   UNL A   1      27.908  31.985  20.409  1.00  0.00     0.001 A 
ATOM     46  C   UNL A   1      27.765  33.075  21.263  1.00  0.00     0.002 A 
ENDBRANCH  36  37
ENDBRANCH  10  36
ENDBRANCH   7  10
ENDBRANCH   5   6
ENDBRANCH   1   5
BRANCH   3  47
ATOM     47  C   UNL A   1      34.620  29.019  27.286  1.00  0.00     0.116 C 
BRANCH  47  48
ATOM     48  C   UNL A   1      35.079  30.471  27.392  1.00  0.00     0.023 C 
BRANCH  48  49
ATOM     49  C   UNL A   1      34.151  31.344  28.235  1.00  0.00     0.023 C 
BRANCH  49  50
ATOM     50  C   UNL A   1      34.870  32.048  29.368  1.00  0.00     0.116 C 
BRANCH  50  51
ATOM     51  N   UNL A   1      34.143  33.145  29.965  1.00  0.00    -0.352 N 
ATOM     52  C   UNL A   1      34.375  33.811  31.158  1.00  0.00     0.251 C 
ATOM     53  H   UNL A   1      33.371  33.468  29.447  1.00  0.00     0.163 HD
ATOM     54  O   UNL A   1      33.517  34.565  31.580  1.00  0.00    -0.269 OA
BRANCH  52  55
ATOM     55  C   UNL A   1      35.719  33.767  31.821  1.00  0.00     0.039 A 
ATOM     56  C   UNL A   1      36.763  34.406  31.141  1.00  0.00     0.014 A 
ATOM     57  C   UNL A   1      36.034  32.865  32.827  1.00  0.00     0.014 A 
ATOM     58  C   UNL A   1      38.045  33.876  31.213  1.00  0.00     0.010 A 
ATOM     59  C   UNL A   1      37.251  32.230  32.786  1.00  0.00     0.010 A 
ATOM     60  C   UNL A   1      38.221  32.686  31.904  1.00  0.00    -0.014 A 
BRANCH  60  61
ATOM     61  C   UNL A   1      39.399  31.850  31.808  1.00  0.00     0.031 A 
ATOM     62  C   UNL A   1      39.260  30.540  31.171  1.00  0.00     0.074 A 
ATOM     63  C   UNL A   1      40.590  32.365  32.182  1.00  0.00     0.049 A 
ATOM     64  N   UNL A   1      40.099  29.573  31.283  1.00  0.00    -0.248 NA
ATOM     65  C   UNL A   1      38.087  30.209  30.367  1.00  0.00     0.031 C 
ATOM     66  C   UNL A   1      41.935  31.822  31.998  1.00  0.00     0.029 A 
ATOM     67  N   UNL A   1      40.759  33.336  33.174  1.00  0.00    -0.354 N 
ATOM     68  C   UNL A   1      39.779  28.673  30.293  1.00  0.00     0.074 A 
ATOM     69  C   UNL A   1      38.448  29.026  29.869  1.00  0.00     0.031 C 
ATOM     70  C   UNL A   1      42.677  32.171  33.069  1.00  0.00     0.029 A 
ATOM     71  C   UNL A   1      41.743  32.774  34.011  1.00  0.00     0.049 A 
ATOM     72  H   UNL A   1      40.301  34.204  33.264  1.00  0.00     0.167 HD
ATOM     73  C   UNL A   1      40.769  27.882  29.798  1.00  0.00     0.031 A 
ATOM     74  C   UNL A   1      41.382  32.209  35.204  1.00  0.00     0.031 A 
ATOM     75  C   UNL A   1      41.964  27.957  30.632  1.00  0.00     0.049 A 
ATOM     76  C   UNL A   1      41.952  30.831  35.406  1.00  0.00     0.074 A 
ATOM     77  C   UNL A   1      43.164  28.639  30.512  1.00  0.00     0.029 A 
ATOM     78  N   UNL A   1      41.875  27.536  31.952  1.00  0.00    -0.354 N 
ATOM     79  N   UNL A   1      42.010  29.939  34.458  1.00  0.00    -0.248 NA
ATOM     80  C   UNL A   1      42.563  30.378  36.654  1.00  0.00     0.031 C 
ATOM     81  C   UNL A   1      43.752  28.709  31.803  1.00  0.00     0.029 A 
ATOM     82  C   UNL A   1      42.920  28.047  32.689  1.00  0.00     0.049 A 
ATOM     83  H   UNL A   1      41.164  26.957  32.311  1.00  0.00     0.167 HD
ATOM     84  C   UNL A   1      42.702  28.847  34.919  1.00  0.00     0.074 A 
ATOM     85  C   UNL A   1      43.001  29.154  36.305  1.00  0.00     0.031 C 
ATOM     86  C   UNL A   1      42.992  27.785  34.115  1.00  0.00     0.031 A 
BRANCH  73  87
ATOM     87  C   UNL A   1      40.760  27.320  28.398  1.00  0.00    -0.014 A 
ATOM     88  C   UNL A   1      39.919  26.229  28.109  1.00  0.00     0.009 A 
ATOM     89  C   UNL A   1      41.605  27.734  27.354  1.00  0.00     0.009 A 
ATOM     90  C   UNL A   1      39.973  25.551  26.885  1.00  0.00     0.001 A 
ATOM     91  C   UNL A   1      41.676  27.052  26.132  1.00  0.00     0.001 A 
ATOM     92  C   UNL A   1      40.866  25.952  25.901  1.00  0.00     0.000 A 
ENDBRANCH  73  87
BRANCH  74  93
ATOM     93  C   UNL A   1      40.072  32.686  35.755  1.00  0.00    -0.014 A 
ATOM     94  C   UNL A   1      39.011  31.753  35.833  1.00  0.00     0.009 A 
ATOM     95  C   UNL A   1      39.859  33.927  36.357  1.00  0.00     0.009 A 
ATOM     96  C   UNL A   1      37.792  32.015  36.455  1.00  0.00     0.001 A 
ATOM     97  C   UNL A   1      38.636  34.196  37.008  1.00  0.00     0.001 A 
ATOM     98  C   UNL A   1      37.609  33.246  37.054  1.00  0.00     0.000 A 
ENDBRANCH  74  93
BRANCH  86  99
ATOM     99  C   UNL A   1      43.387  26.402  34.566  1.00  0.00    -0.014 A 
ATOM    100  C   UNL A   1      42.490  25.449  35.063  1.00  0.00     0.009 A 
ATOM    101  C   UNL A   1      44.702  25.951  34.299  1.00  0.00     0.009 A 
ATOM    102  C   UNL A   1      42.885  24.124  35.291  1.00  0.00     0.001 A 
ATOM    103  C   UNL A   1      45.087  24.623  34.478  1.00  0.00     0.001 A 
ATOM    104  C   UNL A   1      44.176  23.707  34.981  1.00  0.00     0.000 A 
ENDBRANCH  86  99
ENDBRANCH  60  61
ENDBRANCH  52  55
ENDBRANCH  50  51
ENDBRANCH  49  50
ENDBRANCH  48  49
ENDBRANCH  47  48
ENDBRANCH   3  47
TORSDOF 20
ENDMDL
MODEL 2
REMARK VINA RESULT:     -13.2      1.781      3.266
REMARK SMILES Cc1ccc(S(=O)(=O)n2cc(C(=O)C(=O)N[C@@H](Cc3c[nH]c4ccccc34)C(=O)NCC(=O)NCCCCNC(=O)c3ccc(-c4c5nc(c(-c6ccccc6)c6ccc([nH]6)c(-c6ccccc6)c6nc(c(-c7ccccc7)c7ccc4[nH]7)C=C6)C=C5)cc3)c3ccccc32)cc1
REMARK SMILES IDX 32 1 33 2 34 3 31 5 30 6 28 7 29 8 17 10 16 11 14 12 15 13
REMARK SMILES IDX 12 15 13 16 11 17 9 18 10 19 95 20 90 21 94 22 91 23 93 24
REMARK SMILES IDX 92 25 6 26 7 27 8 28 5 29 1 30 2 31 3 32 97 33 4 34 96 35
REMARK SMILES IDX 18 36 19 37 20 38 27 39 21 40 22 41 26 42 23 44 25 45 24 46
REMARK SMILES IDX 35 47 36 48 37 49 38 50 39 51 40 52 41 54 42 55 43 56 89 57
REMARK SMILES IDX 44 58 88 59 45 60 46 61 47 62 82 63 48 64 87 65 81 66 83 67
REMARK SMILES IDX 49 68 86 69 80 70 79 71 50 73 72 74 57 75 71 76 58 77 61 78
REMARK SMILES IDX 70 79 84 80 59 81 60 82 69 84 85 85 62 86 51 87 52 88 56 89
REMARK SMILES IDX 53 90 55 91 54 92 73 93 74 94 78 95 75 96 77 97 76 98 63 99
REMARK SMILES IDX 64 100 68 101 65 102 67 103 66 104
REMARK H PARENT 34 4 30 9 16 14 21 43 39 53 83 72 61 83
REMARK Flexibility Score: inf
ROOT
ATOM      1  C   UNL A   1      33.464  30.017  26.608  1.00  0.00     0.239 C 
ATOM      2  O   UNL A   1      32.496  30.487  26.007  1.00  0.00    -0.273 OA
ATOM      3  N   UNL A   1      34.420  30.867  27.082  1.00  0.00    -0.355 N 
ATOM      4  H   UNL A   1      34.281  31.827  26.912  1.00  0.00     0.163 HD
ENDROOT
BRANCH   1   5
ATOM      5  C   UNL A   1      33.518  28.549  27.036  1.00  0.00     0.216 C 
BRANCH   5   6
ATOM      6  N   UNL A   1      33.994  27.538  26.108  1.00  0.00    -0.345 N 
ATOM      7  C   UNL A   1      33.325  26.704  25.260  1.00  0.00     0.243 C 
ATOM      8  O   UNL A   1      34.029  26.194  24.377  1.00  0.00    -0.273 OA
ATOM      9  H   UNL A   1      34.973  27.436  26.088  1.00  0.00     0.164 HD
BRANCH   7  10
ATOM     10  C   UNL A   1      31.781  26.390  25.290  1.00  0.00     0.176 C 
BRANCH  10  11
ATOM     11  N   UNL A   1      31.294  25.443  26.333  1.00  0.00    -0.337 N 
ATOM     12  C   UNL A   1      31.138  24.047  26.351  1.00  0.00     0.293 C 
ATOM     13  O   UNL A   1      30.636  23.516  27.341  1.00  0.00    -0.265 OA
ATOM     14  H   UNL A   1      31.029  25.882  27.174  1.00  0.00     0.164 HD
BRANCH  12  15
ATOM     15  C   UNL A   1      31.649  23.152  25.204  1.00  0.00     0.252 C 
ATOM     16  O   UNL A   1      30.942  23.188  24.194  1.00  0.00    -0.283 OA
BRANCH  15  17
ATOM     17  C   UNL A   1      32.871  22.278  25.244  1.00  0.00     0.054 A 
ATOM     18  N   UNL A   1      34.869  21.203  25.685  1.00  0.00    -0.240 N 
ATOM     19  C   UNL A   1      34.096  22.351  25.935  1.00  0.00     0.117 A 
ATOM     20  C   UNL A   1      33.986  20.301  25.060  1.00  0.00     0.065 A 
ATOM     21  C   UNL A   1      32.967  21.061  24.487  1.00  0.00     0.012 A 
ATOM     22  C   UNL A   1      34.144  18.935  24.756  1.00  0.00     0.028 A 
ATOM     23  C   UNL A   1      32.225  20.482  23.432  1.00  0.00     0.011 A 
ATOM     24  C   UNL A   1      33.445  18.410  23.677  1.00  0.00     0.002 A 
ATOM     25  C   UNL A   1      32.525  19.187  22.993  1.00  0.00     0.001 A 
BRANCH  18  26
ATOM     26  S   UNL A   1      36.523  20.987  25.042  1.00  0.00     0.268 S 
ATOM     27  O   UNL A   1      36.479  21.771  23.819  1.00  0.00    -0.201 OA
ATOM     28  O   UNL A   1      36.541  19.527  24.997  1.00  0.00    -0.201 OA
BRANCH  26  29
ATOM     29  C   UNL A   1      38.184  21.212  25.630  1.00  0.00     0.088 A 
ATOM     30  C   UNL A   1      41.859  22.526  27.601  1.00  0.00     0.044 C 
ATOM     31  C   UNL A   1      40.607  22.055  26.915  1.00  0.00    -0.051 A 
ATOM     32  C   UNL A   1      39.564  22.951  26.744  1.00  0.00     0.005 A 
ATOM     33  C   UNL A   1      40.435  20.749  26.427  1.00  0.00     0.005 A 
ATOM     34  C   UNL A   1      38.381  22.526  26.139  1.00  0.00     0.022 A 
ATOM     35  C   UNL A   1      39.245  20.343  25.757  1.00  0.00     0.022 A 
ENDBRANCH  26  29
ENDBRANCH  18  26
ENDBRANCH  15  17
ENDBRANCH  12  15
ENDBRANCH  10  11
BRANCH  10  36
ATOM     36  C   UNL A   1      30.862  27.643  25.105  1.00  0.00     0.072 C 
BRANCH  36  37
ATOM     37  C   UNL A   1      30.839  28.365  23.776  1.00  0.00    -0.020 A 
ATOM     38  C   UNL A   1      31.961  28.736  23.050  1.00  0.00     0.087 A 
ATOM     39  C   UNL A   1      29.707  28.850  23.028  1.00  0.00     0.003 A 
ATOM     40  N   UNL A   1      31.568  29.518  21.996  1.00  0.00    -0.361 N 
ATOM     41  C   UNL A   1      30.205  29.696  22.032  1.00  0.00     0.046 A 
ATOM     42  C   UNL A   1      28.307  28.775  23.189  1.00  0.00     0.010 A 
ATOM     43  H   UNL A   1      32.169  29.894  21.314  1.00  0.00     0.166 HD
ATOM     44  C   UNL A   1      29.391  30.561  21.290  1.00  0.00     0.026 A 
ATOM     45  C   UNL A   1      27.481  29.650  22.471  1.00  0.00     0.001 A 
ATOM     46  C   UNL A   1      28.021  30.549  21.556  1.00  0.00     0.002 A 
ENDBRANCH  36  37
ENDBRANCH  10  36
ENDBRANCH   7  10
ENDBRANCH   5   6
ENDBRANCH   1   5
BRANCH   3  47
ATOM     47  C   UNL A   1      35.616  30.507  27.808  1.00  0.00     0.116 C 
BRANCH  47  48
ATOM     48  C   UNL A   1      36.404  31.738  28.249  1.00  0.00     0.023 C 
BRANCH  48  49
ATOM     49  C   UNL A   1      35.534  32.828  28.872  1.00  0.00     0.023 C 
BRANCH  49  50
ATOM     50  C   UNL A   1      34.776  32.350  30.095  1.00  0.00     0.116 C 
BRANCH  50  51
ATOM     51  N   UNL A   1      34.039  33.377  30.797  1.00  0.00    -0.352 N 
ATOM     52  C   UNL A   1      34.301  33.967  32.024  1.00  0.00     0.251 C 
ATOM     53  H   UNL A   1      33.234  33.704  30.335  1.00  0.00     0.163 HD
ATOM     54  O   UNL A   1      33.436  34.658  32.532  1.00  0.00    -0.269 OA
BRANCH  52  55
ATOM     55  C   UNL A   1      35.673  33.928  32.625  1.00  0.00     0.039 A 
ATOM     56  C   UNL A   1      36.673  34.614  31.924  1.00  0.00     0.014 A 
ATOM     57  C   UNL A   1      36.051  32.996  33.582  1.00  0.00     0.014 A 
ATOM     58  C   UNL A   1      37.967  34.109  31.921  1.00  0.00     0.010 A 
ATOM     59  C   UNL A   1      37.277  32.390  33.464  1.00  0.00     0.010 A 
ATOM     60  C   UNL A   1      38.198  32.899  32.557  1.00  0.00    -0.014 A 
BRANCH  60  61
ATOM     61  C   UNL A   1      39.387  32.093  32.378  1.00  0.00     0.031 A 
ATOM     62  C   UNL A   1      39.250  30.813  31.685  1.00  0.00     0.074 A 
ATOM     63  C   UNL A   1      40.581  32.614  32.734  1.00  0.00     0.049 A 
ATOM     64  N   UNL A   1      40.110  29.858  31.719  1.00  0.00    -0.248 NA
ATOM     65  C   UNL A   1      38.053  30.496  30.908  1.00  0.00     0.031 C 
ATOM     66  C   UNL A   1      41.928  32.108  32.475  1.00  0.00     0.029 A 
ATOM     67  N   UNL A   1      40.768  33.540  33.765  1.00  0.00    -0.354 N 
ATOM     68  C   UNL A   1      39.770  29.001  30.699  1.00  0.00     0.074 A 
ATOM     69  C   UNL A   1      38.418  29.346  30.341  1.00  0.00     0.031 C 
ATOM     70  C   UNL A   1      42.703  32.421  33.535  1.00  0.00     0.029 A 
ATOM     71  C   UNL A   1      41.793  32.958  34.538  1.00  0.00     0.049 A 
ATOM     72  H   UNL A   1      40.298  34.393  33.914  1.00  0.00     0.167 HD
ATOM     73  C   UNL A   1      40.756  28.255  30.130  1.00  0.00     0.031 A 
ATOM     74  C   UNL A   1      41.487  32.330  35.715  1.00  0.00     0.031 A 
ATOM     75  C   UNL A   1      41.979  28.314  30.924  1.00  0.00     0.049 A 
ATOM     76  C   UNL A   1      42.090  30.957  35.829  1.00  0.00     0.074 A 
ATOM     77  C   UNL A   1      43.161  29.026  30.793  1.00  0.00     0.029 A 
ATOM     78  N   UNL A   1      41.947  27.829  32.224  1.00  0.00    -0.354 N 
ATOM     79  N   UNL A   1      42.130  30.111  34.837  1.00  0.00    -0.248 NA
ATOM     80  C   UNL A   1      42.755  30.457  37.031  1.00  0.00     0.031 C 
ATOM     81  C   UNL A   1      43.795  29.046  32.065  1.00  0.00     0.029 A 
ATOM     82  C   UNL A   1      43.010  28.326  32.947  1.00  0.00     0.049 A 
ATOM     83  H   UNL A   1      41.261  27.219  32.580  1.00  0.00     0.167 HD
ATOM     84  C   UNL A   1      42.858  29.013  35.220  1.00  0.00     0.074 A 
ATOM     85  C   UNL A   1      43.203  29.260  36.608  1.00  0.00     0.031 C 
ATOM     86  C   UNL A   1      43.139  27.997  34.355  1.00  0.00     0.031 A 
BRANCH  73  87
ATOM     87  C   UNL A   1      40.706  27.760  28.707  1.00  0.00    -0.014 A 
ATOM     88  C   UNL A   1      39.964  26.600  28.416  1.00  0.00     0.009 A 
ATOM     89  C   UNL A   1      41.427  28.310  27.633  1.00  0.00     0.009 A 
ATOM     90  C   UNL A   1      40.001  25.989  27.157  1.00  0.00     0.001 A 
ATOM     91  C   UNL A   1      41.482  27.697  26.374  1.00  0.00     0.001 A 
ATOM     92  C   UNL A   1      40.775  26.528  26.139  1.00  0.00     0.000 A 
ENDBRANCH  73  87
BRANCH  74  93
ATOM     93  C   UNL A   1      40.189  32.753  36.335  1.00  0.00    -0.014 A 
ATOM     94  C   UNL A   1      39.141  31.804  36.383  1.00  0.00     0.009 A 
ATOM     95  C   UNL A   1      39.982  33.949  37.025  1.00  0.00     0.009 A 
ATOM     96  C   UNL A   1      37.940  32.009  37.056  1.00  0.00     0.001 A 
ATOM     97  C   UNL A   1      38.777  34.159  37.728  1.00  0.00     0.001 A 
ATOM     98  C   UNL A   1      37.762  33.195  37.741  1.00  0.00     0.000 A 
ENDBRANCH  74  93
BRANCH  86  99
ATOM     99  C   UNL A   1      43.577  26.603  34.724  1.00  0.00    -0.014 A 
ATOM    100  C   UNL A   1      42.729  25.630  35.267  1.00  0.00     0.009 A 
ATOM    101  C   UNL A   1      44.863  26.168  34.326  1.00  0.00     0.009 A 
ATOM    102  C   UNL A   1      43.147  24.300  35.416  1.00  0.00     0.001 A 
ATOM    103  C   UNL A   1      45.266  24.837  34.428  1.00  0.00     0.001 A 
ATOM    104  C   UNL A   1      44.406  23.901  34.979  1.00  0.00     0.000 A 
ENDBRANCH  86  99
ENDBRANCH  60  61
ENDBRANCH  52  55
ENDBRANCH  50  51
ENDBRANCH  49  50
ENDBRANCH  48  49
ENDBRANCH  47  48
ENDBRANCH   3  47
TORSDOF 20
ENDMDL
MODEL 3
REMARK VINA RESULT:     -13.0      1.182      2.011
REMARK SMILES Cc1ccc(S(=O)(=O)n2cc(C(=O)C(=O)N[C@@H](Cc3c[nH]c4ccccc34)C(=O)NCC(=O)NCCCCNC(=O)c3ccc(-c4c5nc(c(-c6ccccc6)c6ccc([nH]6)c(-c6ccccc6)c6nc(c(-c7ccccc7)c7ccc4[nH]7)C=C6)C=C5)cc3)c3ccccc32)cc1
REMARK SMILES IDX 32 1 33 2 34 3 31 5 30 6 28 7 29 8 17 10 16 11 14 12 15 13
REMARK SMILES IDX 12 15 13 16 11 17 9 18 10 19 95 20 90 21 94 22 91 23 93 24
REMARK SMILES IDX 92 25 6 26 7 27 8 28 5 29 1 30 2 31 3 32 97 33 4 34 96 35
REMARK SMILES IDX 18 36 19 37 20 38 27 39 21 40 22 41 26 42 23 44 25 45 24 46
REMARK SMILES IDX 35 47 36 48 37 49 38 50 39 51 40 52 41 54 42 55 43 56 89 57
REMARK SMILES IDX 44 58 88 59 45 60 46 61 47 62 82 63 48 64 87 65 81 66 83 67
REMARK SMILES IDX 49 68 86 69 80 70 79 71 50 73 72 74 57 75 71 76 58 77 61 78
REMARK SMILES IDX 70 79 84 80 59 81 60 82 69 84 85 85 62 86 51 87 52 88 56 89
REMARK SMILES IDX 53 90 55 91 54 92 73 93 74 94 78 95 75 96 77 97 76 98 63 99
REMARK SMILES IDX 64 100 68 101 65 102 67 103 66 104
REMARK H PARENT 34 4 30 9 16 14 21 43 39 53 83 72 61 83
REMARK Flexibility Score: inf
ROOT
ATOM      1  C   UNL A   1      34.940  31.202  27.727  1.00  0.00     0.239 C 
ATOM      2  O   UNL A   1      35.991  30.560  27.741  1.00  0.00    -0.273 OA
ATOM      3  N   UNL A   1      34.959  32.505  28.133  1.00  0.00    -0.355 N 
ATOM      4  H   UNL A   1      35.830  32.864  28.422  1.00  0.00     0.163 HD
ENDROOT
BRANCH   1   5
ATOM      5  C   UNL A   1      33.670  30.666  27.062  1.00  0.00     0.216 C 
BRANCH   5   6
ATOM      6  N   UNL A   1      32.850  29.684  27.747  1.00  0.00    -0.345 N 
ATOM      7  C   UNL A   1      32.092  28.652  27.275  1.00  0.00     0.243 C 
ATOM      8  O   UNL A   1      31.779  27.810  28.128  1.00  0.00    -0.273 OA
ATOM      9  H   UNL A   1      32.837  29.779  28.727  1.00  0.00     0.164 HD
BRANCH   7  10
ATOM     10  C   UNL A   1      31.644  28.436  25.780  1.00  0.00     0.176 C 
BRANCH  10  11
ATOM     11  N   UNL A   1      30.638  27.368  25.513  1.00  0.00    -0.337 N 
ATOM     12  C   UNL A   1      30.706  26.152  24.813  1.00  0.00     0.293 C 
ATOM     13  O   UNL A   1      29.684  25.479  24.686  1.00  0.00    -0.265 OA
ATOM     14  H   UNL A   1      29.752  27.551  25.903  1.00  0.00     0.164 HD
BRANCH  12  15
ATOM     15  C   UNL A   1      32.038  25.594  24.271  1.00  0.00     0.252 C 
ATOM     16  O   UNL A   1      32.780  26.457  23.796  1.00  0.00    -0.283 OA
BRANCH  15  17
ATOM     17  C   UNL A   1      32.454  24.150  24.268  1.00  0.00     0.054 A 
ATOM     18  N   UNL A   1      33.105  21.985  23.786  1.00  0.00    -0.240 N 
ATOM     19  C   UNL A   1      32.571  23.174  23.259  1.00  0.00     0.117 A 
ATOM     20  C   UNL A   1      33.577  22.337  25.066  1.00  0.00     0.065 A 
ATOM     21  C   UNL A   1      32.867  23.470  25.464  1.00  0.00     0.012 A 
ATOM     22  C   UNL A   1      34.372  21.613  25.975  1.00  0.00     0.028 A 
ATOM     23  C   UNL A   1      32.796  23.753  26.847  1.00  0.00     0.011 A 
ATOM     24  C   UNL A   1      34.236  21.875  27.332  1.00  0.00     0.002 A 
ATOM     25  C   UNL A   1      33.423  22.907  27.769  1.00  0.00     0.001 A 
BRANCH  18  26
ATOM     26  S   UNL A   1      32.508  20.300  23.795  1.00  0.00     0.268 S 
ATOM     27  O   UNL A   1      31.957  20.166  22.456  1.00  0.00    -0.201 OA
ATOM     28  O   UNL A   1      31.633  20.394  24.961  1.00  0.00    -0.201 OA
BRANCH  26  29
ATOM     29  C   UNL A   1      33.171  18.690  24.143  1.00  0.00     0.088 A 
ATOM     30  C   UNL A   1      35.593  15.254  25.347  1.00  0.00     0.044 C 
ATOM     31  C   UNL A   1      34.742  16.420  24.928  1.00  0.00    -0.051 A 
ATOM     32  C   UNL A   1      35.361  17.624  24.631  1.00  0.00     0.005 A 
ATOM     33  C   UNL A   1      33.343  16.358  24.814  1.00  0.00     0.005 A 
ATOM     34  C   UNL A   1      34.588  18.728  24.273  1.00  0.00     0.022 A 
ATOM     35  C   UNL A   1      32.569  17.476  24.388  1.00  0.00     0.022 A 
ENDBRANCH  26  29
ENDBRANCH  18  26
ENDBRANCH  15  17
ENDBRANCH  12  15
ENDBRANCH  10  11
BRANCH  10  36
ATOM     36  C   UNL A   1      31.376  29.758  24.986  1.00  0.00     0.072 C 
BRANCH  36  37
ATOM     37  C   UNL A   1      30.659  29.700  23.657  1.00  0.00    -0.020 A 
ATOM     38  C   UNL A   1      31.065  28.949  22.563  1.00  0.00     0.087 A 
ATOM     39  C   UNL A   1      29.482  30.414  23.230  1.00  0.00     0.003 A 
ATOM     40  N   UNL A   1      30.282  29.275  21.487  1.00  0.00    -0.361 N 
ATOM     41  C   UNL A   1      29.385  30.254  21.843  1.00  0.00     0.046 A 
ATOM     42  C   UNL A   1      28.580  31.300  23.855  1.00  0.00     0.010 A 
ATOM     43  H   UNL A   1      30.349  28.869  20.593  1.00  0.00     0.166 HD
ATOM     44  C   UNL A   1      28.532  31.026  21.045  1.00  0.00     0.026 A 
ATOM     45  C   UNL A   1      27.736  32.096  23.069  1.00  0.00     0.001 A 
ATOM     46  C   UNL A   1      27.735  31.979  21.682  1.00  0.00     0.002 A 
ENDBRANCH  36  37
ENDBRANCH  10  36
ENDBRANCH   7  10
ENDBRANCH   5   6
ENDBRANCH   1   5
BRANCH   3  47
ATOM     47  C   UNL A   1      33.838  33.414  28.183  1.00  0.00     0.116 C 
BRANCH  47  48
ATOM     48  C   UNL A   1      34.279  34.844  28.485  1.00  0.00     0.023 C 
BRANCH  48  49
ATOM     49  C   UNL A   1      33.288  35.616  29.354  1.00  0.00     0.023 C 
BRANCH  49  50
ATOM     50  C   UNL A   1      33.757  35.771  30.788  1.00  0.00     0.116 C 
BRANCH  50  51
ATOM     51  N   UNL A   1      33.373  34.698  31.676  1.00  0.00    -0.352 N 
ATOM     52  C   UNL A   1      34.156  33.717  32.265  1.00  0.00     0.251 C 
ATOM     53  H   UNL A   1      32.414  34.659  31.896  1.00  0.00     0.163 HD
ATOM     54  O   UNL A   1      33.601  32.779  32.808  1.00  0.00    -0.269 OA
BRANCH  52  55
ATOM     55  C   UNL A   1      35.637  33.893  32.409  1.00  0.00     0.039 A 
ATOM     56  C   UNL A   1      36.346  34.147  31.230  1.00  0.00     0.014 A 
ATOM     57  C   UNL A   1      36.340  33.475  33.531  1.00  0.00     0.014 A 
ATOM     58  C   UNL A   1      37.631  33.639  31.087  1.00  0.00     0.010 A 
ATOM     59  C   UNL A   1      37.538  32.828  33.355  1.00  0.00     0.010 A 
ATOM     60  C   UNL A   1      38.131  32.834  32.100  1.00  0.00    -0.014 A 
BRANCH  60  61
ATOM     61  C   UNL A   1      39.296  31.983  31.971  1.00  0.00     0.031 A 
ATOM     62  C   UNL A   1      39.115  30.662  31.371  1.00  0.00     0.074 A 
ATOM     63  C   UNL A   1      40.507  32.493  32.281  1.00  0.00     0.049 A 
ATOM     64  N   UNL A   1      39.948  29.687  31.468  1.00  0.00    -0.248 NA
ATOM     65  C   UNL A   1      37.904  30.326  30.627  1.00  0.00     0.031 C 
ATOM     66  C   UNL A   1      41.837  31.931  32.050  1.00  0.00     0.029 A 
ATOM     67  N   UNL A   1      40.730  33.484  33.242  1.00  0.00    -0.354 N 
ATOM     68  C   UNL A   1      39.575  28.770  30.513  1.00  0.00     0.074 A 
ATOM     69  C   UNL A   1      38.230  29.129  30.140  1.00  0.00     0.031 C 
ATOM     70  C   UNL A   1      42.629  32.295  33.080  1.00  0.00     0.029 A 
ATOM     71  C   UNL A   1      41.744  32.929  34.048  1.00  0.00     0.049 A 
ATOM     72  H   UNL A   1      40.285  34.358  33.333  1.00  0.00     0.167 HD
ATOM     73  C   UNL A   1      40.533  27.957  29.993  1.00  0.00     0.031 A 
ATOM     74  C   UNL A   1      41.431  32.395  35.268  1.00  0.00     0.031 A 
ATOM     75  C   UNL A   1      41.765  28.036  30.772  1.00  0.00     0.049 A 
ATOM     76  C   UNL A   1      41.995  31.016  35.475  1.00  0.00     0.074 A 
ATOM     77  C   UNL A   1      42.966  28.702  30.583  1.00  0.00     0.029 A 
ATOM     78  N   UNL A   1      41.730  27.646  32.104  1.00  0.00    -0.354 N 
ATOM     79  N   UNL A   1      42.001  30.101  34.547  1.00  0.00    -0.248 NA
ATOM     80  C   UNL A   1      42.656  30.583  36.706  1.00  0.00     0.031 C 
ATOM     81  C   UNL A   1      43.611  28.794  31.846  1.00  0.00     0.029 A 
ATOM     82  C   UNL A   1      42.813  28.161  32.782  1.00  0.00     0.049 A 
ATOM     83  H   UNL A   1      41.031  27.083  32.506  1.00  0.00     0.167 HD
ATOM     84  C   UNL A   1      42.702  29.012  35.001  1.00  0.00     0.074 A 
ATOM     85  C   UNL A   1      43.065  29.347  36.366  1.00  0.00     0.031 C 
ATOM     86  C   UNL A   1      42.945  27.930  34.209  1.00  0.00     0.031 A 
BRANCH  73  87
ATOM     87  C   UNL A   1      40.457  27.364  28.608  1.00  0.00    -0.014 A 
ATOM     88  C   UNL A   1      39.787  26.140  28.429  1.00  0.00     0.009 A 
ATOM     89  C   UNL A   1      41.090  27.887  27.468  1.00  0.00     0.009 A 
ATOM     90  C   UNL A   1      39.812  25.449  27.212  1.00  0.00     0.001 A 
ATOM     91  C   UNL A   1      41.134  27.195  26.250  1.00  0.00     0.001 A 
ATOM     92  C   UNL A   1      40.501  25.968  26.125  1.00  0.00     0.000 A 
ENDBRANCH  73  87
BRANCH  74  93
ATOM     93  C   UNL A   1      40.151  32.899  35.865  1.00  0.00    -0.014 A 
ATOM     94  C   UNL A   1      39.187  31.942  36.262  1.00  0.00     0.009 A 
ATOM     95  C   UNL A   1      39.900  34.224  36.222  1.00  0.00     0.009 A 
ATOM     96  C   UNL A   1      38.024  32.256  36.960  1.00  0.00     0.001 A 
ATOM     97  C   UNL A   1      38.735  34.552  36.949  1.00  0.00     0.001 A 
ATOM     98  C   UNL A   1      37.803  33.574  37.313  1.00  0.00     0.000 A 
ENDBRANCH  74  93
BRANCH  86  99
ATOM     99  C   UNL A   1      43.346  26.552  34.673  1.00  0.00    -0.014 A 
ATOM    100  C   UNL A   1      42.788  25.902  35.780  1.00  0.00     0.009 A 
ATOM    101  C   UNL A   1      44.191  25.777  33.844  1.00  0.00     0.009 A 
ATOM    102  C   UNL A   1      43.068  24.555  36.052  1.00  0.00     0.001 A 
ATOM    103  C   UNL A   1      44.433  24.424  34.083  1.00  0.00     0.001 A 
ATOM    104  C   UNL A   1      43.872  23.813  35.193  1.00  0.00     0.000 A 
ENDBRANCH  86  99
ENDBRANCH  60  61
ENDBRANCH  52  55
ENDBRANCH  50  51
ENDBRANCH  49  50
ENDBRANCH  48  49
ENDBRANCH  47  48
ENDBRANCH   3  47
TORSDOF 20
ENDMDL
