MODEL 1
REMARK VINA RESULT:     -11.0      0.000      0.000
REMARK SMILES O=C(CN1C(=O)/C(=C\c2cccs2)SC1=S)Nc1ccccc1C(=O)NCCCCNC(=O)c1ccc(-c2c3nc(c(-c4ccccc4)c4ccc([nH]4)c(-c4ccccc4)c4nc(c(-c5ccccc5)c5ccc2[nH]5)C=C4)C=C3)cc1
REMARK SMILES IDX 27 1 26 2 24 3 25 4 23 6 18 7 19 8 20 9 22 10 21 11 17 12
REMARK SMILES IDX 1 13 2 14 3 16 4 17 5 18 15 19 6 20 7 21 14 22 16 23 8 24
REMARK SMILES IDX 9 25 10 26 13 27 11 28 12 29 28 30 29 31 30 32 31 33 32 34
REMARK SMILES IDX 33 36 34 37 35 38 81 39 36 40 80 41 37 42 38 43 39 44 74 45
REMARK SMILES IDX 40 46 79 47 73 48 75 49 41 50 78 51 72 52 71 53 42 55 64 56
REMARK SMILES IDX 49 57 63 58 50 59 53 60 62 61 76 62 51 63 52 64 61 66 77 67
REMARK SMILES IDX 54 68 43 69 44 70 48 71 45 72 47 73 46 74 65 75 66 76 70 77
REMARK SMILES IDX 67 78 69 79 68 80 55 81 56 82 60 83 57 84 59 85 58 86
REMARK H PARENT 26 5 17 15 31 35 75 54 53 65
REMARK Flexibility Score: inf
ROOT
ATOM      1  C   UNL A   1      35.946  23.033  24.440  1.00  0.00     0.116 C 
ENDROOT
BRANCH   1   2
ATOM      2  N   UNL A   1      35.117  22.784  25.587  1.00  0.00    -0.352 N 
ATOM      3  C   UNL A   1      34.310  21.682  25.827  1.00  0.00     0.253 C 
ATOM      4  O   UNL A   1      33.904  21.529  26.982  1.00  0.00    -0.269 OA
ATOM      5  H   UNL A   1      35.122  23.478  26.285  1.00  0.00     0.163 HD
BRANCH   3   6
ATOM      6  C   UNL A   1      33.747  20.811  24.735  1.00  0.00     0.063 A 
ATOM      7  C   UNL A   1      32.817  21.131  23.721  1.00  0.00     0.054 A 
ATOM      8  C   UNL A   1      32.182  20.080  23.027  1.00  0.00     0.027 A 
ATOM      9  C   UNL A   1      32.558  18.748  23.215  1.00  0.00     0.002 A 
ATOM     10  C   UNL A   1      34.136  19.457  24.881  1.00  0.00     0.016 A 
ATOM     11  C   UNL A   1      33.564  18.438  24.118  1.00  0.00     0.001 A 
BRANCH   7  12
ATOM     12  N   UNL A   1      32.439  22.429  23.284  1.00  0.00    -0.324 N 
ATOM     13  O   UNL A   1      31.007  22.964  25.002  1.00  0.00    -0.273 OA
ATOM     14  C   UNL A   1      31.523  23.243  23.921  1.00  0.00     0.244 C 
ATOM     15  H   UNL A   1      32.862  22.775  22.465  1.00  0.00     0.170 HD
BRANCH  14  16
ATOM     16  C   UNL A   1      30.973  24.418  23.087  1.00  0.00     0.227 C 
BRANCH  16  17
ATOM     17  N   UNL A   1      31.823  25.564  22.787  1.00  0.00    -0.283 N 
ATOM     18  C   UNL A   1      31.995  26.541  23.753  1.00  0.00     0.266 C 
ATOM     19  C   UNL A   1      32.621  25.654  21.668  1.00  0.00     0.148 C 
ATOM     20  O   UNL A   1      31.318  26.609  24.775  1.00  0.00    -0.268 OA
ATOM     21  C   UNL A   1      33.055  27.506  23.347  1.00  0.00     0.081 C 
ATOM     22  S   UNL A   1      33.614  27.099  21.762  1.00  0.00    -0.054 SA
ATOM     23  S   UNL A   1      32.718  24.594  20.386  1.00  0.00    -0.052 S 
ATOM     24  C   UNL A   1      33.551  28.549  24.025  1.00  0.00     0.040 C 
BRANCH  24  25
ATOM     25  C   UNL A   1      33.154  28.900  25.339  1.00  0.00     0.028 A 
ATOM     26  C   UNL A   1      33.703  28.517  26.550  1.00  0.00     0.020 A 
ATOM     27  S   UNL A   1      31.862  30.009  25.575  1.00  0.00    -0.144 S 
ATOM     28  C   UNL A   1      33.048  29.116  27.666  1.00  0.00     0.012 A 
ATOM     29  C   UNL A   1      32.021  29.944  27.275  1.00  0.00     0.065 A 
ENDBRANCH  24  25
ENDBRANCH  16  17
ENDBRANCH  14  16
ENDBRANCH   7  12
ENDBRANCH   3   6
ENDBRANCH   1   2
BRANCH   1  30
ATOM     30  C   UNL A   1      36.986  21.997  24.043  1.00  0.00     0.023 C 
BRANCH  30  31
ATOM     31  C   UNL A   1      37.412  20.986  25.111  1.00  0.00     0.023 C 
BRANCH  31  32
ATOM     32  C   UNL A   1      38.791  21.137  25.759  1.00  0.00     0.116 C 
BRANCH  32  33
ATOM     33  N   UNL A   1      39.698  20.008  25.594  1.00  0.00    -0.352 N 
ATOM     34  C   UNL A   1      41.001  19.879  26.035  1.00  0.00     0.251 C 
ATOM     35  H   UNL A   1      39.334  19.236  25.103  1.00  0.00     0.163 HD
ATOM     36  O   UNL A   1      41.589  18.809  25.904  1.00  0.00    -0.269 OA
BRANCH  34  37
ATOM     37  C   UNL A   1      41.709  21.056  26.599  1.00  0.00     0.039 A 
ATOM     38  C   UNL A   1      42.284  21.976  25.717  1.00  0.00     0.014 A 
ATOM     39  C   UNL A   1      41.736  21.302  27.973  1.00  0.00     0.014 A 
ATOM     40  C   UNL A   1      42.781  23.191  26.204  1.00  0.00     0.010 A 
ATOM     41  C   UNL A   1      42.163  22.545  28.447  1.00  0.00     0.010 A 
ATOM     42  C   UNL A   1      42.670  23.514  27.567  1.00  0.00    -0.014 A 
BRANCH  42  43
ATOM     43  C   UNL A   1      43.036  24.871  28.064  1.00  0.00     0.031 A 
ATOM     44  C   UNL A   1      41.981  25.919  28.304  1.00  0.00     0.074 A 
ATOM     45  C   UNL A   1      44.334  25.185  28.258  1.00  0.00     0.049 A 
ATOM     46  N   UNL A   1      42.119  27.145  28.741  1.00  0.00    -0.248 NA
ATOM     47  C   UNL A   1      40.593  25.546  27.993  1.00  0.00     0.031 C 
ATOM     48  C   UNL A   1      45.469  24.289  28.018  1.00  0.00     0.029 A 
ATOM     49  N   UNL A   1      44.922  26.345  28.705  1.00  0.00    -0.354 N 
ATOM     50  C   UNL A   1      40.842  27.691  28.752  1.00  0.00     0.074 A 
ATOM     51  C   UNL A   1      39.950  26.682  28.222  1.00  0.00     0.031 C 
ATOM     52  C   UNL A   1      46.607  24.915  28.358  1.00  0.00     0.029 A 
ATOM     53  C   UNL A   1      46.293  26.270  28.802  1.00  0.00     0.049 A 
ATOM     54  H   UNL A   1      44.410  27.153  28.936  1.00  0.00     0.167 HD
ATOM     55  C   UNL A   1      40.438  28.911  29.182  1.00  0.00     0.031 A 
ATOM     56  C   UNL A   1      47.198  27.184  29.203  1.00  0.00     0.031 A 
ATOM     57  C   UNL A   1      41.320  29.924  29.702  1.00  0.00     0.049 A 
ATOM     58  C   UNL A   1      46.727  28.539  29.654  1.00  0.00     0.074 A 
ATOM     59  C   UNL A   1      40.997  31.173  30.205  1.00  0.00     0.029 A 
ATOM     60  N   UNL A   1      42.700  29.810  29.774  1.00  0.00    -0.354 N 
ATOM     61  N   UNL A   1      45.505  29.007  29.735  1.00  0.00    -0.248 NA
ATOM     62  C   UNL A   1      47.764  29.489  30.085  1.00  0.00     0.031 C 
ATOM     63  C   UNL A   1      42.186  31.836  30.526  1.00  0.00     0.029 A 
ATOM     64  C   UNL A   1      43.245  30.975  30.290  1.00  0.00     0.049 A 
ATOM     65  H   UNL A   1      43.216  29.017  29.501  1.00  0.00     0.167 HD
ATOM     66  C   UNL A   1      45.624  30.289  30.255  1.00  0.00     0.074 A 
ATOM     67  C   UNL A   1      47.034  30.518  30.490  1.00  0.00     0.031 C 
ATOM     68  C   UNL A   1      44.650  31.196  30.515  1.00  0.00     0.031 A 
BRANCH  55  69
ATOM     69  C   UNL A   1      38.967  29.223  29.098  1.00  0.00    -0.014 A 
ATOM     70  C   UNL A   1      38.120  29.043  30.205  1.00  0.00     0.009 A 
ATOM     71  C   UNL A   1      38.425  29.733  27.908  1.00  0.00     0.009 A 
ATOM     72  C   UNL A   1      36.756  29.327  30.107  1.00  0.00     0.001 A 
ATOM     73  C   UNL A   1      37.067  30.049  27.824  1.00  0.00     0.001 A 
ATOM     74  C   UNL A   1      36.232  29.834  28.920  1.00  0.00     0.000 A 
ENDBRANCH  55  69
BRANCH  56  75
ATOM     75  C   UNL A   1      48.649  26.848  29.217  1.00  0.00    -0.014 A 
ATOM     76  C   UNL A   1      49.449  27.081  28.087  1.00  0.00     0.009 A 
ATOM     77  C   UNL A   1      49.239  26.271  30.353  1.00  0.00     0.009 A 
ATOM     78  C   UNL A   1      50.797  26.714  28.083  1.00  0.00     0.001 A 
ATOM     79  C   UNL A   1      50.595  25.938  30.359  1.00  0.00     0.001 A 
ATOM     80  C   UNL A   1      51.370  26.148  29.220  1.00  0.00     0.000 A 
ENDBRANCH  56  75
BRANCH  68  81
ATOM     81  C   UNL A   1      45.074  32.506  31.124  1.00  0.00    -0.014 A 
ATOM     82  C   UNL A   1      45.382  33.621  30.329  1.00  0.00     0.009 A 
ATOM     83  C   UNL A   1      45.146  32.629  32.521  1.00  0.00     0.009 A 
ATOM     84  C   UNL A   1      45.797  34.817  30.920  1.00  0.00     0.001 A 
ATOM     85  C   UNL A   1      45.526  33.836  33.109  1.00  0.00     0.001 A 
ATOM     86  C   UNL A   1      45.864  34.925  32.309  1.00  0.00     0.000 A 
ENDBRANCH  68  81
ENDBRANCH  42  43
ENDBRANCH  34  37
ENDBRANCH  32  33
ENDBRANCH  31  32
ENDBRANCH  30  31
ENDBRANCH   1  30
TORSDOF 15
ENDMDL
MODEL 2
REMARK VINA RESULT:     -10.9      1.788      2.660
REMARK SMILES O=C(CN1C(=O)/C(=C\c2cccs2)SC1=S)Nc1ccccc1C(=O)NCCCCNC(=O)c1ccc(-c2c3nc(c(-c4ccccc4)c4ccc([nH]4)c(-c4ccccc4)c4nc(c(-c5ccccc5)c5ccc2[nH]5)C=C4)C=C3)cc1
REMARK SMILES IDX 27 1 26 2 24 3 25 4 23 6 18 7 19 8 20 9 22 10 21 11 17 12
REMARK SMILES IDX 1 13 2 14 3 16 4 17 5 18 15 19 6 20 7 21 14 22 16 23 8 24
REMARK SMILES IDX 9 25 10 26 13 27 11 28 12 29 28 30 29 31 30 32 31 33 32 34
REMARK SMILES IDX 33 36 34 37 35 38 81 39 36 40 80 41 37 42 38 43 39 44 74 45
REMARK SMILES IDX 40 46 79 47 73 48 75 49 41 50 78 51 72 52 71 53 42 55 64 56
REMARK SMILES IDX 49 57 63 58 50 59 53 60 62 61 76 62 51 63 52 64 61 66 77 67
REMARK SMILES IDX 54 68 43 69 44 70 48 71 45 72 47 73 46 74 65 75 66 76 70 77
REMARK SMILES IDX 67 78 69 79 68 80 55 81 56 82 60 83 57 84 59 85 58 86
REMARK H PARENT 26 5 17 15 31 35 75 54 53 65
REMARK Flexibility Score: inf
ROOT
ATOM      1  C   UNL A   1      36.702  23.585  24.352  1.00  0.00     0.116 C 
ENDROOT
BRANCH   1   2
ATOM      2  N   UNL A   1      35.890  23.781  25.522  1.00  0.00    -0.352 N 
ATOM      3  C   UNL A   1      34.567  23.410  25.707  1.00  0.00     0.253 C 
ATOM      4  O   UNL A   1      34.143  23.414  26.866  1.00  0.00    -0.269 OA
ATOM      5  H   UNL A   1      36.325  24.232  26.282  1.00  0.00     0.163 HD
BRANCH   3   6
ATOM      6  C   UNL A   1      33.592  23.217  24.576  1.00  0.00     0.063 A 
ATOM      7  C   UNL A   1      32.777  24.168  23.922  1.00  0.00     0.054 A 
ATOM      8  C   UNL A   1      31.702  23.710  23.131  1.00  0.00     0.027 A 
ATOM      9  C   UNL A   1      31.519  22.351  22.862  1.00  0.00     0.002 A 
ATOM     10  C   UNL A   1      33.407  21.849  24.259  1.00  0.00     0.016 A 
ATOM     11  C   UNL A   1      32.396  21.420  23.398  1.00  0.00     0.001 A 
BRANCH   7  12
ATOM     12  N   UNL A   1      32.919  25.580  23.948  1.00  0.00    -0.324 N 
ATOM     13  O   UNL A   1      33.670  25.888  21.796  1.00  0.00    -0.273 OA
ATOM     14  C   UNL A   1      33.402  26.347  22.905  1.00  0.00     0.244 C 
ATOM     15  H   UNL A   1      32.653  26.050  24.771  1.00  0.00     0.170 HD
BRANCH  14  16
ATOM     16  C   UNL A   1      33.840  27.780  23.270  1.00  0.00     0.227 C 
BRANCH  16  17
ATOM     17  N   UNL A   1      32.980  28.620  24.096  1.00  0.00    -0.283 N 
ATOM     18  C   UNL A   1      31.886  29.236  23.513  1.00  0.00     0.266 C 
ATOM     19  C   UNL A   1      33.075  28.698  25.468  1.00  0.00     0.148 C 
ATOM     20  O   UNL A   1      31.703  29.285  22.300  1.00  0.00    -0.268 OA
ATOM     21  C   UNL A   1      31.019  29.865  24.549  1.00  0.00     0.081 C 
ATOM     22  S   UNL A   1      31.760  29.674  26.099  1.00  0.00    -0.054 SA
ATOM     23  S   UNL A   1      34.210  27.991  26.462  1.00  0.00    -0.052 S 
ATOM     24  C   UNL A   1      29.851  30.502  24.398  1.00  0.00     0.040 C 
BRANCH  24  25
ATOM     25  C   UNL A   1      29.185  30.651  23.155  1.00  0.00     0.028 A 
ATOM     26  C   UNL A   1      29.201  31.719  22.277  1.00  0.00     0.020 A 
ATOM     27  S   UNL A   1      28.256  29.351  22.522  1.00  0.00    -0.144 S 
ATOM     28  C   UNL A   1      28.435  31.477  21.100  1.00  0.00     0.012 A 
ATOM     29  C   UNL A   1      27.859  30.228  21.110  1.00  0.00     0.065 A 
ENDBRANCH  24  25
ENDBRANCH  16  17
ENDBRANCH  14  16
ENDBRANCH   7  12
ENDBRANCH   3   6
ENDBRANCH   1   2
BRANCH   1  30
ATOM     30  C   UNL A   1      37.006  22.167  23.895  1.00  0.00     0.023 C 
BRANCH  30  31
ATOM     31  C   UNL A   1      37.293  21.125  24.981  1.00  0.00     0.023 C 
BRANCH  31  32
ATOM     32  C   UNL A   1      38.622  21.197  25.736  1.00  0.00     0.116 C 
BRANCH  32  33
ATOM     33  N   UNL A   1      39.502  20.045  25.584  1.00  0.00    -0.352 N 
ATOM     34  C   UNL A   1      40.799  19.886  26.036  1.00  0.00     0.251 C 
ATOM     35  H   UNL A   1      39.123  19.279  25.095  1.00  0.00     0.163 HD
ATOM     36  O   UNL A   1      41.361  18.801  25.915  1.00  0.00    -0.269 OA
BRANCH  34  37
ATOM     37  C   UNL A   1      41.531  21.049  26.600  1.00  0.00     0.039 A 
ATOM     38  C   UNL A   1      42.114  21.963  25.717  1.00  0.00     0.014 A 
ATOM     39  C   UNL A   1      41.572  21.288  27.975  1.00  0.00     0.014 A 
ATOM     40  C   UNL A   1      42.636  23.167  26.205  1.00  0.00     0.010 A 
ATOM     41  C   UNL A   1      42.024  22.522  28.450  1.00  0.00     0.010 A 
ATOM     42  C   UNL A   1      42.541  23.486  27.570  1.00  0.00    -0.014 A 
BRANCH  42  43
ATOM     43  C   UNL A   1      42.934  24.835  28.069  1.00  0.00     0.031 A 
ATOM     44  C   UNL A   1      41.898  25.896  28.330  1.00  0.00     0.074 A 
ATOM     45  C   UNL A   1      44.240  25.128  28.247  1.00  0.00     0.049 A 
ATOM     46  N   UNL A   1      42.061  27.118  28.773  1.00  0.00    -0.248 NA
ATOM     47  C   UNL A   1      40.501  25.545  28.037  1.00  0.00     0.031 C 
ATOM     48  C   UNL A   1      45.357  24.217  27.985  1.00  0.00     0.029 A 
ATOM     49  N   UNL A   1      44.851  26.276  28.693  1.00  0.00    -0.354 N 
ATOM     50  C   UNL A   1      40.792  27.682  28.805  1.00  0.00     0.074 A 
ATOM     51  C   UNL A   1      39.878  26.689  28.282  1.00  0.00     0.031 C 
ATOM     52  C   UNL A   1      46.509  24.824  28.313  1.00  0.00     0.029 A 
ATOM     53  C   UNL A   1      46.222  26.180  28.769  1.00  0.00     0.049 A 
ATOM     54  H   UNL A   1      44.355  27.091  28.935  1.00  0.00     0.167 HD
ATOM     55  C   UNL A   1      40.412  28.906  29.248  1.00  0.00     0.031 A 
ATOM     56  C   UNL A   1      47.146  27.078  29.163  1.00  0.00     0.031 A 
ATOM     57  C   UNL A   1      41.317  29.902  29.761  1.00  0.00     0.049 A 
ATOM     58  C   UNL A   1      46.701  28.438  29.628  1.00  0.00     0.074 A 
ATOM     59  C   UNL A   1      41.020  31.152  30.276  1.00  0.00     0.029 A 
ATOM     60  N   UNL A   1      42.696  29.767  29.813  1.00  0.00    -0.354 N 
ATOM     61  N   UNL A   1      45.488  28.923  29.729  1.00  0.00    -0.248 NA
ATOM     62  C   UNL A   1      47.758  29.369  30.051  1.00  0.00     0.031 C 
ATOM     63  C   UNL A   1      42.222  31.796  30.584  1.00  0.00     0.029 A 
ATOM     64  C   UNL A   1      43.265  30.921  30.328  1.00  0.00     0.049 A 
ATOM     65  H   UNL A   1      43.196  28.969  29.528  1.00  0.00     0.167 HD
ATOM     66  C   UNL A   1      45.633  30.200  30.255  1.00  0.00     0.074 A 
ATOM     67  C   UNL A   1      47.050  30.407  30.472  1.00  0.00     0.031 C 
ATOM     68  C   UNL A   1      44.676  31.120  30.534  1.00  0.00     0.031 A 
BRANCH  55  69
ATOM     69  C   UNL A   1      38.946  29.239  29.186  1.00  0.00    -0.014 A 
ATOM     70  C   UNL A   1      38.104  29.029  30.292  1.00  0.00     0.009 A 
ATOM     71  C   UNL A   1      38.402  29.802  28.020  1.00  0.00     0.009 A 
ATOM     72  C   UNL A   1      36.743  29.334  30.215  1.00  0.00     0.001 A 
ATOM     73  C   UNL A   1      37.048  30.138  27.959  1.00  0.00     0.001 A 
ATOM     74  C   UNL A   1      36.217  29.893  29.052  1.00  0.00     0.000 A 
ENDBRANCH  55  69
BRANCH  56  75
ATOM     75  C   UNL A   1      48.592  26.721  29.155  1.00  0.00    -0.014 A 
ATOM     76  C   UNL A   1      49.212  26.222  30.312  1.00  0.00     0.009 A 
ATOM     77  C   UNL A   1      49.366  26.897  27.997  1.00  0.00     0.009 A 
ATOM     78  C   UNL A   1      50.580  25.940  30.320  1.00  0.00     0.001 A 
ATOM     79  C   UNL A   1      50.726  26.580  27.997  1.00  0.00     0.001 A 
ATOM     80  C   UNL A   1      51.335  26.114  29.161  1.00  0.00     0.000 A 
ENDBRANCH  56  75
BRANCH  68  81
ATOM     81  C   UNL A   1      45.129  32.420  31.144  1.00  0.00    -0.014 A 
ATOM     82  C   UNL A   1      45.160  32.609  32.535  1.00  0.00     0.009 A 
ATOM     83  C   UNL A   1      45.553  33.466  30.308  1.00  0.00     0.009 A 
ATOM     84  C   UNL A   1      45.562  33.835  33.072  1.00  0.00     0.001 A 
ATOM     85  C   UNL A   1      45.988  34.676  30.849  1.00  0.00     0.001 A 
ATOM     86  C   UNL A   1      45.980  34.864  32.230  1.00  0.00     0.000 A 
ENDBRANCH  68  81
ENDBRANCH  42  43
ENDBRANCH  34  37
ENDBRANCH  32  33
ENDBRANCH  31  32
ENDBRANCH  30  31
ENDBRANCH   1  30
TORSDOF 15
ENDMDL
MODEL 3
REMARK VINA RESULT:     -10.9      0.390      5.737
REMARK SMILES O=C(CN1C(=O)/C(=C\c2cccs2)SC1=S)Nc1ccccc1C(=O)NCCCCNC(=O)c1ccc(-c2c3nc(c(-c4ccccc4)c4ccc([nH]4)c(-c4ccccc4)c4nc(c(-c5ccccc5)c5ccc2[nH]5)C=C4)C=C3)cc1
REMARK SMILES IDX 27 1 26 2 24 3 25 4 23 6 18 7 19 8 20 9 22 10 21 11 17 12
REMARK SMILES IDX 1 13 2 14 3 16 4 17 5 18 15 19 6 20 7 21 14 22 16 23 8 24
REMARK SMILES IDX 9 25 10 26 13 27 11 28 12 29 28 30 29 31 30 32 31 33 32 34
REMARK SMILES IDX 33 36 34 37 35 38 81 39 36 40 80 41 37 42 38 43 39 44 74 45
REMARK SMILES IDX 40 46 79 47 73 48 75 49 41 50 78 51 72 52 71 53 42 55 64 56
REMARK SMILES IDX 49 57 63 58 50 59 53 60 62 61 76 62 51 63 52 64 61 66 77 67
REMARK SMILES IDX 54 68 43 69 44 70 48 71 45 72 47 73 46 74 65 75 66 76 70 77
REMARK SMILES IDX 67 78 69 79 68 80 55 81 56 82 60 83 57 84 59 85 58 86
REMARK H PARENT 26 5 17 15 31 35 75 54 53 65
REMARK Flexibility Score: inf
ROOT
ATOM      1  C   UNL A   1      35.989  22.926  24.888  1.00  0.00     0.116 C 
ENDROOT
BRANCH   1   2
ATOM      2  N   UNL A   1      35.005  22.728  25.917  1.00  0.00    -0.352 N 
ATOM      3  C   UNL A   1      34.110  21.676  26.042  1.00  0.00     0.253 C 
ATOM      4  O   UNL A   1      33.550  21.547  27.134  1.00  0.00    -0.269 OA
ATOM      5  H   UNL A   1      34.961  23.420  26.615  1.00  0.00     0.163 HD
BRANCH   3   6
ATOM      6  C   UNL A   1      33.642  20.839  24.880  1.00  0.00     0.063 A 
ATOM      7  C   UNL A   1      32.773  21.182  23.821  1.00  0.00     0.054 A 
ATOM      8  C   UNL A   1      32.212  20.147  23.044  1.00  0.00     0.027 A 
ATOM      9  C   UNL A   1      32.609  18.816  23.200  1.00  0.00     0.002 A 
ATOM     10  C   UNL A   1      34.056  19.489  24.995  1.00  0.00     0.016 A 
ATOM     11  C   UNL A   1      33.561  18.492  24.155  1.00  0.00     0.001 A 
BRANCH   7  12
ATOM     12  N   UNL A   1      32.392  22.487  23.414  1.00  0.00    -0.324 N 
ATOM     13  O   UNL A   1      30.801  22.896  25.024  1.00  0.00    -0.273 OA
ATOM     14  C   UNL A   1      31.398  23.243  24.006  1.00  0.00     0.244 C 
ATOM     15  H   UNL A   1      32.871  22.885  22.652  1.00  0.00     0.170 HD
BRANCH  14  16
ATOM     16  C   UNL A   1      30.883  24.441  23.182  1.00  0.00     0.227 C 
BRANCH  16  17
ATOM     17  N   UNL A   1      31.776  25.548  22.864  1.00  0.00    -0.283 N 
ATOM     18  C   UNL A   1      31.961  26.550  23.802  1.00  0.00     0.266 C 
ATOM     19  C   UNL A   1      32.599  25.576  21.760  1.00  0.00     0.148 C 
ATOM     20  O   UNL A   1      31.267  26.674  24.807  1.00  0.00    -0.268 OA
ATOM     21  C   UNL A   1      33.060  27.466  23.386  1.00  0.00     0.081 C 
ATOM     22  S   UNL A   1      33.636  26.991  21.828  1.00  0.00    -0.054 SA
ATOM     23  S   UNL A   1      32.686  24.472  20.514  1.00  0.00    -0.052 S 
ATOM     24  C   UNL A   1      33.577  28.515  24.041  1.00  0.00     0.040 C 
BRANCH  24  25
ATOM     25  C   UNL A   1      33.166  28.921  25.335  1.00  0.00     0.028 A 
ATOM     26  C   UNL A   1      33.698  28.586  26.567  1.00  0.00     0.020 A 
ATOM     27  S   UNL A   1      31.876  30.044  25.509  1.00  0.00    -0.144 S 
ATOM     28  C   UNL A   1      33.033  29.234  27.650  1.00  0.00     0.012 A 
ATOM     29  C   UNL A   1      32.015  30.048  27.213  1.00  0.00     0.065 A 
ENDBRANCH  24  25
ENDBRANCH  16  17
ENDBRANCH  14  16
ENDBRANCH   7  12
ENDBRANCH   3   6
ENDBRANCH   1   2
BRANCH   1  30
ATOM     30  C   UNL A   1      37.461  22.791  25.240  1.00  0.00     0.023 C 
BRANCH  30  31
ATOM     31  C   UNL A   1      38.120  21.430  24.996  1.00  0.00     0.023 C 
BRANCH  31  32
ATOM     32  C   UNL A   1      38.832  20.738  26.162  1.00  0.00     0.116 C 
BRANCH  32  33
ATOM     33  N   UNL A   1      39.813  19.724  25.794  1.00  0.00    -0.352 N 
ATOM     34  C   UNL A   1      41.175  19.719  26.029  1.00  0.00     0.251 C 
ATOM     35  H   UNL A   1      39.458  18.940  25.316  1.00  0.00     0.163 HD
ATOM     36  O   UNL A   1      41.842  18.727  25.746  1.00  0.00    -0.269 OA
BRANCH  34  37
ATOM     37  C   UNL A   1      41.838  20.940  26.555  1.00  0.00     0.039 A 
ATOM     38  C   UNL A   1      42.256  21.917  25.646  1.00  0.00     0.014 A 
ATOM     39  C   UNL A   1      41.970  21.165  27.926  1.00  0.00     0.014 A 
ATOM     40  C   UNL A   1      42.700  23.159  26.115  1.00  0.00     0.010 A 
ATOM     41  C   UNL A   1      42.341  22.430  28.389  1.00  0.00     0.010 A 
ATOM     42  C   UNL A   1      42.689  23.450  27.489  1.00  0.00    -0.014 A 
BRANCH  42  43
ATOM     43  C   UNL A   1      42.992  24.824  27.983  1.00  0.00     0.031 A 
ATOM     44  C   UNL A   1      44.410  25.260  28.240  1.00  0.00     0.074 A 
ATOM     45  C   UNL A   1      41.980  25.678  28.248  1.00  0.00     0.049 A 
ATOM     46  N   UNL A   1      44.855  26.418  28.661  1.00  0.00    -0.248 NA
ATOM     47  C   UNL A   1      45.463  24.258  28.015  1.00  0.00     0.031 C 
ATOM     48  C   UNL A   1      40.554  25.377  28.096  1.00  0.00     0.029 A 
ATOM     49  N   UNL A   1      41.994  26.976  28.700  1.00  0.00    -0.354 N 
ATOM     50  C   UNL A   1      46.235  26.282  28.757  1.00  0.00     0.074 A 
ATOM     51  C   UNL A   1      46.547  24.913  28.406  1.00  0.00     0.031 C 
ATOM     52  C   UNL A   1      39.836  26.468  28.407  1.00  0.00     0.029 A 
ATOM     53  C   UNL A   1      40.742  27.534  28.820  1.00  0.00     0.049 A 
ATOM     54  H   UNL A   1      42.823  27.462  28.917  1.00  0.00     0.167 HD
ATOM     55  C   UNL A   1      47.163  27.213  29.084  1.00  0.00     0.031 A 
ATOM     56  C   UNL A   1      40.361  28.765  29.217  1.00  0.00     0.031 A 
ATOM     57  C   UNL A   1      46.860  28.575  29.443  1.00  0.00     0.049 A 
ATOM     58  C   UNL A   1      41.411  29.774  29.597  1.00  0.00     0.074 A 
ATOM     59  C   UNL A   1      47.737  29.603  29.745  1.00  0.00     0.029 A 
ATOM     60  N   UNL A   1      45.580  29.095  29.560  1.00  0.00    -0.354 N 
ATOM     61  N   UNL A   1      42.716  29.651  29.601  1.00  0.00    -0.248 NA
ATOM     62  C   UNL A   1      40.931  31.100  30.014  1.00  0.00     0.031 C 
ATOM     63  C   UNL A   1      46.987  30.728  30.102  1.00  0.00     0.029 A 
ATOM     64  C   UNL A   1      45.643  30.422  29.955  1.00  0.00     0.049 A 
ATOM     65  H   UNL A   1      44.750  28.596  29.387  1.00  0.00     0.167 HD
ATOM     66  C   UNL A   1      43.212  30.889  29.988  1.00  0.00     0.074 A 
ATOM     67  C   UNL A   1      42.069  31.755  30.189  1.00  0.00     0.031 C 
ATOM     68  C   UNL A   1      44.501  31.274  30.159  1.00  0.00     0.031 A 
BRANCH  55  69
ATOM     69  C   UNL A   1      48.606  26.783  29.079  1.00  0.00    -0.014 A 
ATOM     70  C   UNL A   1      49.403  26.918  27.929  1.00  0.00     0.009 A 
ATOM     71  C   UNL A   1      49.189  26.266  30.247  1.00  0.00     0.009 A 
ATOM     72  C   UNL A   1      50.736  26.505  27.937  1.00  0.00     0.001 A 
ATOM     73  C   UNL A   1      50.532  25.886  30.262  1.00  0.00     0.001 A 
ATOM     74  C   UNL A   1      51.302  25.994  29.104  1.00  0.00     0.000 A 
ENDBRANCH  55  69
BRANCH  56  75
ATOM     75  C   UNL A   1      38.918  29.128  29.258  1.00  0.00    -0.014 A 
ATOM     76  C   UNL A   1      38.184  29.007  30.449  1.00  0.00     0.009 A 
ATOM     77  C   UNL A   1      38.259  29.576  28.102  1.00  0.00     0.009 A 
ATOM     78  C   UNL A   1      36.817  29.295  30.473  1.00  0.00     0.001 A 
ATOM     79  C   UNL A   1      36.901  29.896  28.137  1.00  0.00     0.001 A 
ATOM     80  C   UNL A   1      36.178  29.744  29.319  1.00  0.00     0.000 A 
ENDBRANCH  56  75
BRANCH  68  81
ATOM     81  C   UNL A   1      44.744  32.708  30.547  1.00  0.00    -0.014 A 
ATOM     82  C   UNL A   1      44.840  33.101  31.891  1.00  0.00     0.009 A 
ATOM     83  C   UNL A   1      44.901  33.680  29.544  1.00  0.00     0.009 A 
ATOM     84  C   UNL A   1      45.043  34.444  32.222  1.00  0.00     0.001 A 
ATOM     85  C   UNL A   1      45.139  35.013  29.878  1.00  0.00     0.001 A 
ATOM     86  C   UNL A   1      45.197  35.397  31.216  1.00  0.00     0.000 A 
ENDBRANCH  68  81
ENDBRANCH  42  43
ENDBRANCH  34  37
ENDBRANCH  32  33
ENDBRANCH  31  32
ENDBRANCH  30  31
ENDBRANCH   1  30
TORSDOF 15
ENDMDL
