MODEL 1
REMARK VINA RESULT:      -9.1      0.000      0.000
REMARK SMILES O=C(Cc1cccc(Oc2ncnc3c2CCCC3)c1)NCCCCNC(=O)c1ccc(-c2c3nc(c(-c4ccccc4)c4ccc([nH]4)c(-c4ccccc4)c4nc(c(-c5ccccc5)c5ccc2[nH]5)C=C4)C=C3)cc1
REMARK SMILES IDX 23 1 22 2 21 3 1 4 2 5 3 7 4 8 5 9 20 10 6 11 8 12 7 13 9 14
REMARK SMILES IDX 10 15 11 16 15 17 12 18 14 19 16 20 13 21 19 22 17 23 18 24
REMARK SMILES IDX 24 25 25 26 26 27 27 28 28 30 29 31 30 32 76 33 31 34 75 35
REMARK SMILES IDX 32 36 33 37 34 38 69 39 35 40 74 41 68 42 70 43 36 44 73 45
REMARK SMILES IDX 67 46 66 47 37 49 59 50 44 51 58 52 45 53 48 54 57 55 71 56
REMARK SMILES IDX 46 57 47 58 56 60 72 61 49 62 38 63 39 64 43 65 40 66 42 67
REMARK SMILES IDX 41 68 60 69 61 70 65 71 62 72 64 73 63 74 50 75 51 76 55 77
REMARK SMILES IDX 52 78 54 79 53 80
REMARK H PARENT 21 6 26 29 70 48 48 59
REMARK Flexibility Score: inf
ROOT
ATOM      1  C   UNL A   1      36.352  33.109  30.673  1.00  0.00     0.023 C 
ENDROOT
BRANCH   1   2
ATOM      2  C   UNL A   1      36.441  33.279  32.191  1.00  0.00     0.116 C 
BRANCH   2   3
ATOM      3  N   UNL A   1      37.758  32.982  32.721  1.00  0.00    -0.356 N 
ATOM      4  O   UNL A   1      37.013  32.156  34.736  1.00  0.00    -0.275 OA
ATOM      5  C   UNL A   1      37.935  32.392  33.961  1.00  0.00     0.224 C 
ATOM      6  H   UNL A   1      38.550  33.207  32.183  1.00  0.00     0.163 HD
BRANCH   5   7
ATOM      7  C   UNL A   1      39.379  32.029  34.280  1.00  0.00     0.135 C 
BRANCH   7   8
ATOM      8  C   UNL A   1      39.728  30.607  33.901  1.00  0.00    -0.035 A 
ATOM      9  C   UNL A   1      38.853  29.838  33.122  1.00  0.00     0.004 A 
ATOM     10  C   UNL A   1      40.925  30.024  34.346  1.00  0.00     0.051 A 
ATOM     11  C   UNL A   1      39.169  28.517  32.798  1.00  0.00     0.004 A 
ATOM     12  C   UNL A   1      41.248  28.702  34.022  1.00  0.00     0.129 A 
ATOM     13  C   UNL A   1      40.362  27.953  33.249  1.00  0.00     0.047 A 
BRANCH  12  14
ATOM     14  O   UNL A   1      42.407  28.047  34.375  1.00  0.00    -0.439 OA
BRANCH  14  15
ATOM     15  C   UNL A   1      42.301  26.920  35.164  1.00  0.00     0.225 A 
ATOM     16  N   UNL A   1      41.556  27.026  36.284  1.00  0.00    -0.201 NA
ATOM     17  C   UNL A   1      42.903  25.753  34.724  1.00  0.00     0.036 A 
ATOM     18  C   UNL A   1      41.436  25.907  36.993  1.00  0.00     0.226 A 
ATOM     19  C   UNL A   1      42.701  24.654  35.538  1.00  0.00     0.051 A 
ATOM     20  C   UNL A   1      43.655  25.665  33.429  1.00  0.00     0.043 C 
ATOM     21  N   UNL A   1      41.992  24.727  36.687  1.00  0.00    -0.241 NA
ATOM     22  C   UNL A   1      43.323  23.318  35.215  1.00  0.00     0.057 C 
ATOM     23  C   UNL A   1      44.522  24.409  33.321  1.00  0.00     0.005 C 
ATOM     24  C   UNL A   1      43.739  23.177  33.756  1.00  0.00     0.007 C 
ENDBRANCH  14  15
ENDBRANCH  12  14
ENDBRANCH   7   8
ENDBRANCH   5   7
ENDBRANCH   2   3
ENDBRANCH   1   2
BRANCH   1  25
ATOM     25  C   UNL A   1      35.024  33.529  30.031  1.00  0.00     0.023 C 
BRANCH  25  26
ATOM     26  C   UNL A   1      34.923  33.346  28.516  1.00  0.00     0.116 C 
BRANCH  26  27
ATOM     27  N   UNL A   1      34.058  32.242  28.119  1.00  0.00    -0.352 N 
ATOM     28  C   UNL A   1      34.326  30.900  27.928  1.00  0.00     0.251 C 
ATOM     29  H   UNL A   1      33.121  32.497  27.958  1.00  0.00     0.163 HD
ATOM     30  O   UNL A   1      33.433  30.181  27.484  1.00  0.00    -0.269 OA
BRANCH  28  31
ATOM     31  C   UNL A   1      35.653  30.296  28.230  1.00  0.00     0.039 A 
ATOM     32  C   UNL A   1      36.650  30.264  27.245  1.00  0.00     0.014 A 
ATOM     33  C   UNL A   1      35.927  29.709  29.459  1.00  0.00     0.014 A 
ATOM     34  C   UNL A   1      37.918  29.727  27.527  1.00  0.00     0.010 A 
ATOM     35  C   UNL A   1      37.198  29.223  29.764  1.00  0.00     0.010 A 
ATOM     36  C   UNL A   1      38.213  29.234  28.808  1.00  0.00    -0.014 A 
BRANCH  36  37
ATOM     37  C   UNL A   1      39.581  28.838  29.226  1.00  0.00     0.031 A 
ATOM     38  C   UNL A   1      40.514  29.805  29.904  1.00  0.00     0.074 A 
ATOM     39  C   UNL A   1      40.049  27.639  28.825  1.00  0.00     0.049 A 
ATOM     40  N   UNL A   1      41.748  29.615  30.304  1.00  0.00    -0.248 NA
ATOM     41  C   UNL A   1      40.012  31.168  30.137  1.00  0.00     0.031 C 
ATOM     42  C   UNL A   1      39.295  26.658  28.042  1.00  0.00     0.029 A 
ATOM     43  N   UNL A   1      41.282  27.060  28.989  1.00  0.00    -0.354 N 
ATOM     44  C   UNL A   1      42.167  30.826  30.839  1.00  0.00     0.074 A 
ATOM     45  C   UNL A   1      41.075  31.761  30.665  1.00  0.00     0.031 C 
ATOM     46  C   UNL A   1      40.081  25.600  27.793  1.00  0.00     0.029 A 
ATOM     47  C   UNL A   1      41.392  25.829  28.391  1.00  0.00     0.049 A 
ATOM     48  H   UNL A   1      42.017  27.486  29.486  1.00  0.00     0.167 HD
ATOM     49  C   UNL A   1      43.346  31.127  31.437  1.00  0.00     0.031 A 
ATOM     50  C   UNL A   1      42.427  24.972  28.334  1.00  0.00     0.031 A 
ATOM     51  C   UNL A   1      44.438  30.200  31.598  1.00  0.00     0.049 A 
ATOM     52  C   UNL A   1      43.708  25.308  29.039  1.00  0.00     0.074 A 
ATOM     53  C   UNL A   1      45.625  30.376  32.293  1.00  0.00     0.029 A 
ATOM     54  N   UNL A   1      44.488  28.932  31.042  1.00  0.00    -0.354 N 
ATOM     55  N   UNL A   1      44.030  26.400  29.685  1.00  0.00    -0.248 NA
ATOM     56  C   UNL A   1      44.754  24.276  29.033  1.00  0.00     0.031 C 
ATOM     57  C   UNL A   1      46.410  29.232  32.118  1.00  0.00     0.029 A 
ATOM     58  C   UNL A   1      45.693  28.326  31.355  1.00  0.00     0.049 A 
ATOM     59  H   UNL A   1      43.772  28.524  30.504  1.00  0.00     0.167 HD
ATOM     60  C   UNL A   1      45.303  26.176  30.192  1.00  0.00     0.074 A 
ATOM     61  C   UNL A   1      45.690  24.842  29.783  1.00  0.00     0.031 C 
ATOM     62  C   UNL A   1      46.076  27.002  30.938  1.00  0.00     0.031 A 
BRANCH  49  63
ATOM     63  C   UNL A   1      43.518  32.515  31.991  1.00  0.00    -0.014 A 
ATOM     64  C   UNL A   1      43.089  32.829  33.290  1.00  0.00     0.009 A 
ATOM     65  C   UNL A   1      44.188  33.497  31.243  1.00  0.00     0.009 A 
ATOM     66  C   UNL A   1      43.302  34.104  33.820  1.00  0.00     0.001 A 
ATOM     67  C   UNL A   1      44.422  34.763  31.785  1.00  0.00     0.001 A 
ATOM     68  C   UNL A   1      43.974  35.067  33.070  1.00  0.00     0.000 A 
ENDBRANCH  49  63
BRANCH  50  69
ATOM     69  C   UNL A   1      42.263  23.676  27.630  1.00  0.00    -0.014 A 
ATOM     70  C   UNL A   1      41.643  22.599  28.279  1.00  0.00     0.009 A 
ATOM     71  C   UNL A   1      42.696  23.521  26.306  1.00  0.00     0.009 A 
ATOM     72  C   UNL A   1      41.478  21.379  27.619  1.00  0.00     0.001 A 
ATOM     73  C   UNL A   1      42.508  22.308  25.641  1.00  0.00     0.001 A 
ATOM     74  C   UNL A   1      41.906  21.236  26.301  1.00  0.00     0.000 A 
ENDBRANCH  50  69
BRANCH  62  75
ATOM     75  C   UNL A   1      47.408  26.473  31.385  1.00  0.00    -0.014 A 
ATOM     76  C   UNL A   1      47.578  25.908  32.659  1.00  0.00     0.009 A 
ATOM     77  C   UNL A   1      48.503  26.519  30.509  1.00  0.00     0.009 A 
ATOM     78  C   UNL A   1      48.828  25.432  33.057  1.00  0.00     0.001 A 
ATOM     79  C   UNL A   1      49.746  26.021  30.902  1.00  0.00     0.001 A 
ATOM     80  C   UNL A   1      49.910  25.487  32.179  1.00  0.00     0.000 A 
ENDBRANCH  62  75
ENDBRANCH  36  37
ENDBRANCH  28  31
ENDBRANCH  26  27
ENDBRANCH  25  26
ENDBRANCH   1  25
TORSDOF 14
ENDMDL
MODEL 2
REMARK VINA RESULT:      -8.9      2.272      3.485
REMARK SMILES O=C(Cc1cccc(Oc2ncnc3c2CCCC3)c1)NCCCCNC(=O)c1ccc(-c2c3nc(c(-c4ccccc4)c4ccc([nH]4)c(-c4ccccc4)c4nc(c(-c5ccccc5)c5ccc2[nH]5)C=C4)C=C3)cc1
REMARK SMILES IDX 23 1 22 2 21 3 1 4 2 5 3 7 4 8 5 9 20 10 6 11 8 12 7 13 9 14
REMARK SMILES IDX 10 15 11 16 15 17 12 18 14 19 16 20 13 21 19 22 17 23 18 24
REMARK SMILES IDX 24 25 25 26 26 27 27 28 28 30 29 31 30 32 76 33 31 34 75 35
REMARK SMILES IDX 32 36 33 37 34 38 69 39 35 40 74 41 68 42 70 43 36 44 73 45
REMARK SMILES IDX 67 46 66 47 37 49 59 50 44 51 58 52 45 53 48 54 57 55 71 56
REMARK SMILES IDX 46 57 47 58 56 60 72 61 49 62 38 63 39 64 43 65 40 66 42 67
REMARK SMILES IDX 41 68 60 69 61 70 65 71 62 72 64 73 63 74 50 75 51 76 55 77
REMARK SMILES IDX 52 78 54 79 53 80
REMARK H PARENT 21 6 26 29 70 48 48 59
REMARK Flexibility Score: inf
ROOT
ATOM      1  C   UNL A   1      34.306  35.690  33.534  1.00  0.00     0.023 C 
ENDROOT
BRANCH   1   2
ATOM      2  C   UNL A   1      35.674  35.139  33.123  1.00  0.00     0.116 C 
BRANCH   2   3
ATOM      3  N   UNL A   1      36.083  33.989  33.907  1.00  0.00    -0.356 N 
ATOM      4  O   UNL A   1      38.057  34.911  34.650  1.00  0.00    -0.275 OA
ATOM      5  C   UNL A   1      37.247  33.988  34.657  1.00  0.00     0.224 C 
ATOM      6  H   UNL A   1      35.517  33.185  33.906  1.00  0.00     0.163 HD
BRANCH   5   7
ATOM      7  C   UNL A   1      37.433  32.749  35.522  1.00  0.00     0.135 C 
BRANCH   7   8
ATOM      8  C   UNL A   1      38.350  31.724  34.895  1.00  0.00    -0.035 A 
ATOM      9  C   UNL A   1      37.901  30.900  33.855  1.00  0.00     0.004 A 
ATOM     10  C   UNL A   1      39.663  31.562  35.365  1.00  0.00     0.051 A 
ATOM     11  C   UNL A   1      38.746  29.938  33.298  1.00  0.00     0.004 A 
ATOM     12  C   UNL A   1      40.515  30.602  34.809  1.00  0.00     0.129 A 
ATOM     13  C   UNL A   1      40.048  29.790  33.776  1.00  0.00     0.047 A 
BRANCH  12  14
ATOM     14  O   UNL A   1      41.827  30.385  35.169  1.00  0.00    -0.439 OA
BRANCH  14  15
ATOM     15  C   UNL A   1      42.126  29.234  35.871  1.00  0.00     0.225 A 
ATOM     16  N   UNL A   1      41.151  28.307  35.968  1.00  0.00    -0.201 NA
ATOM     17  C   UNL A   1      43.412  29.083  36.363  1.00  0.00     0.036 A 
ATOM     18  C   UNL A   1      41.492  27.192  36.608  1.00  0.00     0.226 A 
ATOM     19  C   UNL A   1      43.650  27.880  37.000  1.00  0.00     0.051 A 
ATOM     20  C   UNL A   1      44.486  30.109  36.159  1.00  0.00     0.043 C 
ATOM     21  N   UNL A   1      42.690  26.940  37.151  1.00  0.00    -0.241 NA
ATOM     22  C   UNL A   1      44.990  27.578  37.624  1.00  0.00     0.057 C 
ATOM     23  C   UNL A   1      45.695  29.905  37.075  1.00  0.00     0.005 C 
ATOM     24  C   UNL A   1      46.121  28.443  37.084  1.00  0.00     0.007 C 
ENDBRANCH  14  15
ENDBRANCH  12  14
ENDBRANCH   7   8
ENDBRANCH   5   7
ENDBRANCH   2   3
ENDBRANCH   1   2
BRANCH   1  25
ATOM     25  C   UNL A   1      33.194  35.564  32.487  1.00  0.00     0.023 C 
BRANCH  25  26
ATOM     26  C   UNL A   1      33.434  36.290  31.162  1.00  0.00     0.116 C 
BRANCH  26  27
ATOM     27  N   UNL A   1      32.781  35.656  30.023  1.00  0.00    -0.352 N 
ATOM     28  C   UNL A   1      33.200  34.645  29.181  1.00  0.00     0.251 C 
ATOM     29  H   UNL A   1      31.886  36.011  29.818  1.00  0.00     0.163 HD
ATOM     30  O   UNL A   1      32.497  34.356  28.215  1.00  0.00    -0.269 OA
BRANCH  28  31
ATOM     31  C   UNL A   1      34.473  33.900  29.393  1.00  0.00     0.039 A 
ATOM     32  C   UNL A   1      35.572  34.137  28.556  1.00  0.00     0.014 A 
ATOM     33  C   UNL A   1      34.595  32.927  30.377  1.00  0.00     0.014 A 
ATOM     34  C   UNL A   1      36.789  33.466  28.767  1.00  0.00     0.010 A 
ATOM     35  C   UNL A   1      35.813  32.296  30.626  1.00  0.00     0.010 A 
ATOM     36  C   UNL A   1      36.929  32.563  29.833  1.00  0.00    -0.014 A 
BRANCH  36  37
ATOM     37  C   UNL A   1      38.233  31.974  30.227  1.00  0.00     0.031 A 
ATOM     38  C   UNL A   1      39.245  32.751  31.026  1.00  0.00     0.074 A 
ATOM     39  C   UNL A   1      38.580  30.783  29.702  1.00  0.00     0.049 A 
ATOM     40  N   UNL A   1      40.438  32.382  31.423  1.00  0.00    -0.248 NA
ATOM     41  C   UNL A   1      38.886  34.127  31.402  1.00  0.00     0.031 C 
ATOM     42  C   UNL A   1      37.748  29.983  28.800  1.00  0.00     0.029 A 
ATOM     43  N   UNL A   1      39.738  30.055  29.820  1.00  0.00    -0.354 N 
ATOM     44  C   UNL A   1      40.970  33.474  32.098  1.00  0.00     0.074 A 
ATOM     45  C   UNL A   1      39.991  34.537  32.012  1.00  0.00     0.031 C 
ATOM     46  C   UNL A   1      38.421  28.878  28.447  1.00  0.00     0.029 A 
ATOM     47  C   UNL A   1      39.732  28.894  29.090  1.00  0.00     0.049 A 
ATOM     48  H   UNL A   1      40.500  30.340  30.375  1.00  0.00     0.167 HD
ATOM     49  C   UNL A   1      42.157  33.574  32.746  1.00  0.00     0.031 A 
ATOM     50  C   UNL A   1      40.669  27.939  28.954  1.00  0.00     0.031 A 
ATOM     51  C   UNL A   1      43.137  32.520  32.822  1.00  0.00     0.049 A 
ATOM     52  C   UNL A   1      41.957  28.051  29.714  1.00  0.00     0.074 A 
ATOM     53  C   UNL A   1      44.314  32.486  33.552  1.00  0.00     0.029 A 
ATOM     54  N   UNL A   1      43.065  31.323  32.127  1.00  0.00    -0.354 N 
ATOM     55  N   UNL A   1      42.376  29.022  30.485  1.00  0.00    -0.248 NA
ATOM     56  C   UNL A   1      42.885  26.916  29.610  1.00  0.00     0.031 C 
ATOM     57  C   UNL A   1      44.976  31.287  33.262  1.00  0.00     0.029 A 
ATOM     58  C   UNL A   1      44.188  30.556  32.390  1.00  0.00     0.049 A 
ATOM     59  H   UNL A   1      42.326  31.059  31.534  1.00  0.00     0.167 HD
ATOM     60  C   UNL A   1      43.602  28.604  30.985  1.00  0.00     0.074 A 
ATOM     61  C   UNL A   1      43.855  27.288  30.436  1.00  0.00     0.031 C 
ATOM     62  C   UNL A   1      44.438  29.252  31.833  1.00  0.00     0.031 A 
BRANCH  49  63
ATOM     63  C   UNL A   1      42.461  34.865  33.456  1.00  0.00    -0.014 A 
ATOM     64  C   UNL A   1      43.175  35.889  32.813  1.00  0.00     0.009 A 
ATOM     65  C   UNL A   1      41.959  35.098  34.747  1.00  0.00     0.009 A 
ATOM     66  C   UNL A   1      43.406  37.107  33.456  1.00  0.00     0.001 A 
ATOM     67  C   UNL A   1      42.170  36.326  35.379  1.00  0.00     0.001 A 
ATOM     68  C   UNL A   1      42.897  37.327  34.735  1.00  0.00     0.000 A 
ENDBRANCH  49  63
BRANCH  50  69
ATOM     69  C   UNL A   1      40.387  26.754  28.106  1.00  0.00    -0.014 A 
ATOM     70  C   UNL A   1      39.613  25.699  28.609  1.00  0.00     0.009 A 
ATOM     71  C   UNL A   1      40.862  26.688  26.789  1.00  0.00     0.009 A 
ATOM     72  C   UNL A   1      39.336  24.586  27.814  1.00  0.00     0.001 A 
ATOM     73  C   UNL A   1      40.564  25.583  25.988  1.00  0.00     0.001 A 
ATOM     74  C   UNL A   1      39.807  24.531  26.503  1.00  0.00     0.000 A 
ENDBRANCH  50  69
BRANCH  62  75
ATOM     75  C   UNL A   1      45.691  28.532  32.240  1.00  0.00    -0.014 A 
ATOM     76  C   UNL A   1      46.884  28.680  31.516  1.00  0.00     0.009 A 
ATOM     77  C   UNL A   1      45.682  27.712  33.379  1.00  0.00     0.009 A 
ATOM     78  C   UNL A   1      48.034  27.992  31.906  1.00  0.00     0.001 A 
ATOM     79  C   UNL A   1      46.839  27.044  33.780  1.00  0.00     0.001 A 
ATOM     80  C   UNL A   1      48.012  27.177  33.038  1.00  0.00     0.000 A 
ENDBRANCH  62  75
ENDBRANCH  36  37
ENDBRANCH  28  31
ENDBRANCH  26  27
ENDBRANCH  25  26
ENDBRANCH   1  25
TORSDOF 14
ENDMDL
MODEL 3
REMARK VINA RESULT:      -8.8      2.192      7.366
REMARK SMILES O=C(Cc1cccc(Oc2ncnc3c2CCCC3)c1)NCCCCNC(=O)c1ccc(-c2c3nc(c(-c4ccccc4)c4ccc([nH]4)c(-c4ccccc4)c4nc(c(-c5ccccc5)c5ccc2[nH]5)C=C4)C=C3)cc1
REMARK SMILES IDX 23 1 22 2 21 3 1 4 2 5 3 7 4 8 5 9 20 10 6 11 8 12 7 13 9 14
REMARK SMILES IDX 10 15 11 16 15 17 12 18 14 19 16 20 13 21 19 22 17 23 18 24
REMARK SMILES IDX 24 25 25 26 26 27 27 28 28 30 29 31 30 32 76 33 31 34 75 35
REMARK SMILES IDX 32 36 33 37 34 38 69 39 35 40 74 41 68 42 70 43 36 44 73 45
REMARK SMILES IDX 67 46 66 47 37 49 59 50 44 51 58 52 45 53 48 54 57 55 71 56
REMARK SMILES IDX 46 57 47 58 56 60 72 61 49 62 38 63 39 64 43 65 40 66 42 67
REMARK SMILES IDX 41 68 60 69 61 70 65 71 62 72 64 73 63 74 50 75 51 76 55 77
REMARK SMILES IDX 52 78 54 79 53 80
REMARK H PARENT 21 6 26 29 70 48 48 59
REMARK Flexibility Score: inf
ROOT
ATOM      1  C   UNL A   1      33.210  35.121  28.957  1.00  0.00     0.023 C 
ENDROOT
BRANCH   1   2
ATOM      2  C   UNL A   1      33.129  36.343  29.875  1.00  0.00     0.116 C 
BRANCH   2   3
ATOM      3  N   UNL A   1      33.856  36.169  31.119  1.00  0.00    -0.356 N 
ATOM      4  O   UNL A   1      32.102  35.236  32.280  1.00  0.00    -0.275 OA
ATOM      5  C   UNL A   1      33.281  35.577  32.230  1.00  0.00     0.224 C 
ATOM      6  H   UNL A   1      34.787  36.482  31.174  1.00  0.00     0.163 HD
BRANCH   5   7
ATOM      7  C   UNL A   1      34.243  35.354  33.389  1.00  0.00     0.135 C 
BRANCH   7   8
ATOM      8  C   UNL A   1      35.076  34.102  33.231  1.00  0.00    -0.035 A 
ATOM      9  C   UNL A   1      34.764  33.152  32.250  1.00  0.00     0.004 A 
ATOM     10  C   UNL A   1      36.165  33.860  34.084  1.00  0.00     0.051 A 
ATOM     11  C   UNL A   1      35.523  31.986  32.127  1.00  0.00     0.004 A 
ATOM     12  C   UNL A   1      36.930  32.695  33.963  1.00  0.00     0.129 A 
ATOM     13  C   UNL A   1      36.601  31.760  32.983  1.00  0.00     0.047 A 
BRANCH  12  14
ATOM     14  O   UNL A   1      38.036  32.376  34.721  1.00  0.00    -0.439 OA
BRANCH  14  15
ATOM     15  C   UNL A   1      38.073  32.812  36.030  1.00  0.00     0.225 A 
ATOM     16  N   UNL A   1      37.436  32.053  36.945  1.00  0.00    -0.201 NA
ATOM     17  C   UNL A   1      38.811  33.947  36.321  1.00  0.00     0.036 A 
ATOM     18  C   UNL A   1      37.536  32.477  38.201  1.00  0.00     0.226 A 
ATOM     19  C   UNL A   1      38.849  34.285  37.661  1.00  0.00     0.051 A 
ATOM     20  C   UNL A   1      39.570  34.713  35.279  1.00  0.00     0.043 C 
ATOM     21  N   UNL A   1      38.194  33.572  38.605  1.00  0.00    -0.241 NA
ATOM     22  C   UNL A   1      39.580  35.516  38.136  1.00  0.00     0.057 C 
ATOM     23  C   UNL A   1      40.005  36.102  35.750  1.00  0.00     0.005 C 
ATOM     24  C   UNL A   1      40.616  36.030  37.143  1.00  0.00     0.007 C 
ENDBRANCH  14  15
ENDBRANCH  12  14
ENDBRANCH   7   8
ENDBRANCH   5   7
ENDBRANCH   2   3
ENDBRANCH   1   2
BRANCH   1  25
ATOM     25  C   UNL A   1      34.559  34.896  28.263  1.00  0.00     0.023 C 
BRANCH  25  26
ATOM     26  C   UNL A   1      35.157  33.495  28.395  1.00  0.00     0.116 C 
BRANCH  26  27
ATOM     27  N   UNL A   1      34.215  32.427  28.083  1.00  0.00    -0.352 N 
ATOM     28  C   UNL A   1      34.391  31.062  27.975  1.00  0.00     0.251 C 
ATOM     29  H   UNL A   1      33.293  32.733  27.921  1.00  0.00     0.163 HD
ATOM     30  O   UNL A   1      33.446  30.376  27.592  1.00  0.00    -0.269 OA
BRANCH  28  31
ATOM     31  C   UNL A   1      35.683  30.392  28.293  1.00  0.00     0.039 A 
ATOM     32  C   UNL A   1      36.707  30.352  27.337  1.00  0.00     0.014 A 
ATOM     33  C   UNL A   1      35.894  29.752  29.507  1.00  0.00     0.014 A 
ATOM     34  C   UNL A   1      37.943  29.753  27.637  1.00  0.00     0.010 A 
ATOM     35  C   UNL A   1      37.134  29.202  29.832  1.00  0.00     0.010 A 
ATOM     36  C   UNL A   1      38.178  29.203  28.907  1.00  0.00    -0.014 A 
BRANCH  36  37
ATOM     37  C   UNL A   1      39.515  28.735  29.351  1.00  0.00     0.031 A 
ATOM     38  C   UNL A   1      40.083  27.416  28.899  1.00  0.00     0.074 A 
ATOM     39  C   UNL A   1      40.146  29.429  30.317  1.00  0.00     0.049 A 
ATOM     40  N   UNL A   1      41.225  26.859  29.221  1.00  0.00    -0.248 NA
ATOM     41  C   UNL A   1      39.254  26.605  27.994  1.00  0.00     0.031 C 
ATOM     42  C   UNL A   1      39.641  30.653  30.943  1.00  0.00     0.029 A 
ATOM     43  N   UNL A   1      41.329  29.185  30.968  1.00  0.00    -0.354 N 
ATOM     44  C   UNL A   1      41.255  25.638  28.558  1.00  0.00     0.074 A 
ATOM     45  C   UNL A   1      39.995  25.512  27.857  1.00  0.00     0.031 C 
ATOM     46  C   UNL A   1      40.507  31.052  31.887  1.00  0.00     0.029 A 
ATOM     47  C   UNL A   1      41.622  30.111  31.938  1.00  0.00     0.049 A 
ATOM     48  H   UNL A   1      41.911  28.418  30.760  1.00  0.00     0.167 HD
ATOM     49  C   UNL A   1      42.249  24.717  28.522  1.00  0.00     0.031 A 
ATOM     50  C   UNL A   1      42.673  30.204  32.772  1.00  0.00     0.031 A 
ATOM     51  C   UNL A   1      43.498  24.837  29.230  1.00  0.00     0.049 A 
ATOM     52  C   UNL A   1      43.781  29.197  32.684  1.00  0.00     0.074 A 
ATOM     53  C   UNL A   1      44.612  24.014  29.163  1.00  0.00     0.029 A 
ATOM     54  N   UNL A   1      43.793  25.829  30.150  1.00  0.00    -0.354 N 
ATOM     55  N   UNL A   1      43.867  28.132  31.927  1.00  0.00    -0.248 NA
ATOM     56  C   UNL A   1      44.950  29.426  33.544  1.00  0.00     0.031 C 
ATOM     57  C   UNL A   1      45.561  24.484  30.077  1.00  0.00     0.029 A 
ATOM     58  C   UNL A   1      45.058  25.626  30.677  1.00  0.00     0.049 A 
ATOM     59  H   UNL A   1      43.191  26.569  30.394  1.00  0.00     0.167 HD
ATOM     60  C   UNL A   1      45.113  27.581  32.194  1.00  0.00     0.074 A 
ATOM     61  C   UNL A   1      45.750  28.433  33.177  1.00  0.00     0.031 C 
ATOM     62  C   UNL A   1      45.681  26.471  31.661  1.00  0.00     0.031 A 
BRANCH  49  63
ATOM     63  C   UNL A   1      42.044  23.498  27.664  1.00  0.00    -0.014 A 
ATOM     64  C   UNL A   1      42.618  23.413  26.385  1.00  0.00     0.009 A 
ATOM     65  C   UNL A   1      41.344  22.390  28.167  1.00  0.00     0.009 A 
ATOM     66  C   UNL A   1      42.472  22.256  25.616  1.00  0.00     0.001 A 
ATOM     67  C   UNL A   1      41.220  21.224  27.406  1.00  0.00     0.001 A 
ATOM     68  C   UNL A   1      41.779  21.161  26.130  1.00  0.00     0.000 A 
ENDBRANCH  49  63
BRANCH  50  69
ATOM     69  C   UNL A   1      42.752  31.341  33.722  1.00  0.00    -0.014 A 
ATOM     70  C   UNL A   1      43.306  32.562  33.310  1.00  0.00     0.009 A 
ATOM     71  C   UNL A   1      42.251  31.221  35.025  1.00  0.00     0.009 A 
ATOM     72  C   UNL A   1      43.375  33.639  34.196  1.00  0.00     0.001 A 
ATOM     73  C   UNL A   1      42.301  32.307  35.902  1.00  0.00     0.001 A 
ATOM     74  C   UNL A   1      42.869  33.512  35.489  1.00  0.00     0.000 A 
ENDBRANCH  50  69
BRANCH  62  75
ATOM     75  C   UNL A   1      47.073  26.133  32.112  1.00  0.00    -0.014 A 
ATOM     76  C   UNL A   1      47.299  25.341  33.249  1.00  0.00     0.009 A 
ATOM     77  C   UNL A   1      48.173  26.595  31.374  1.00  0.00     0.009 A 
ATOM     78  C   UNL A   1      48.602  25.049  33.656  1.00  0.00     0.001 A 
ATOM     79  C   UNL A   1      49.474  26.282  31.770  1.00  0.00     0.001 A 
ATOM     80  C   UNL A   1      49.687  25.517  32.915  1.00  0.00     0.000 A 
ENDBRANCH  62  75
ENDBRANCH  36  37
ENDBRANCH  28  31
ENDBRANCH  26  27
ENDBRANCH  25  26
ENDBRANCH   1  25
TORSDOF 14
ENDMDL
