MODEL 1
REMARK VINA RESULT:     -11.6      0.000      0.000
REMARK SMILES O=C(NCCCCNC(=O)C1CCN(C(=O)COc2ccc(Cl)cc2Cl)CC1)c1ccc(-c2c3nc(c(-c4ccccc4)c4ccc([nH]4)c(-c4ccccc4)c4nc(c(-c5ccccc5)c5ccc2[nH]5)C=C4)C=C3)cc1
REMARK SMILES IDX 6 1 5 2 4 3 3 4 1 5 2 6 29 8 30 9 76 10 31 11 75 12 32 13
REMARK SMILES IDX 33 14 34 15 69 16 35 17 74 18 68 19 70 20 36 21 73 22 67 23
REMARK SMILES IDX 66 24 37 26 59 27 44 28 58 29 45 30 48 31 57 32 71 33 46 34
REMARK SMILES IDX 47 35 56 37 72 38 49 39 38 40 39 41 43 42 40 43 42 44 41 45
REMARK SMILES IDX 60 46 61 47 65 48 62 49 64 50 63 51 50 52 51 53 55 54 52 55
REMARK SMILES IDX 54 56 53 57 7 58 8 59 9 60 10 62 11 63 12 64 28 65 13 66
REMARK SMILES IDX 27 67 14 68 15 69 16 70 17 71 18 72 19 73 20 74 25 75 21 76
REMARK SMILES IDX 24 77 26 78 22 79 23 80
REMARK H PARENT 3 7 70 25 48 36 8 61
REMARK Flexibility Score: inf
ROOT
ATOM      1  C   UNL A   1      31.791  30.669  26.094  1.00  0.00     0.023 C 
ENDROOT
BRANCH   1   2
ATOM      2  C   UNL A   1      31.423  31.969  26.796  1.00  0.00     0.023 C 
BRANCH   2   3
ATOM      3  C   UNL A   1      32.621  32.797  27.227  1.00  0.00     0.116 C 
BRANCH   3   4
ATOM      4  N   UNL A   1      32.293  34.154  27.647  1.00  0.00    -0.352 N 
ATOM      5  O   UNL A   1      32.597  36.045  28.858  1.00  0.00    -0.269 OA
ATOM      6  C   UNL A   1      32.987  34.942  28.537  1.00  0.00     0.251 C 
ATOM      7  H   UNL A   1      31.484  34.551  27.250  1.00  0.00     0.163 HD
BRANCH   6   8
ATOM      8  C   UNL A   1      34.213  34.369  29.129  1.00  0.00     0.039 A 
ATOM      9  C   UNL A   1      35.448  34.594  28.516  1.00  0.00     0.014 A 
ATOM     10  C   UNL A   1      34.097  33.527  30.235  1.00  0.00     0.014 A 
ATOM     11  C   UNL A   1      36.552  33.869  28.932  1.00  0.00     0.010 A 
ATOM     12  C   UNL A   1      35.229  32.866  30.708  1.00  0.00     0.010 A 
ATOM     13  C   UNL A   1      36.457  33.020  30.047  1.00  0.00    -0.014 A 
BRANCH  13  14
ATOM     14  C   UNL A   1      37.689  32.403  30.583  1.00  0.00     0.031 A 
ATOM     15  C   UNL A   1      38.293  31.182  29.958  1.00  0.00     0.074 A 
ATOM     16  C   UNL A   1      38.248  32.977  31.666  1.00  0.00     0.049 A 
ATOM     17  N   UNL A   1      39.343  30.504  30.344  1.00  0.00    -0.248 NA
ATOM     18  C   UNL A   1      37.638  30.645  28.755  1.00  0.00     0.031 C 
ATOM     19  C   UNL A   1      37.727  34.165  32.352  1.00  0.00     0.029 A 
ATOM     20  N   UNL A   1      39.371  32.649  32.374  1.00  0.00    -0.354 N 
ATOM     21  C   UNL A   1      39.460  29.445  29.454  1.00  0.00     0.074 A 
ATOM     22  C   UNL A   1      38.373  29.568  28.505  1.00  0.00     0.031 C 
ATOM     23  C   UNL A   1      38.547  34.483  33.362  1.00  0.00     0.029 A 
ATOM     24  C   UNL A   1      39.602  33.484  33.439  1.00  0.00     0.049 A 
ATOM     25  H   UNL A   1      39.955  31.891  32.144  1.00  0.00     0.167 HD
ATOM     26  C   UNL A   1      40.389  28.461  29.443  1.00  0.00     0.031 A 
ATOM     27  C   UNL A   1      40.538  33.430  34.402  1.00  0.00     0.031 A 
ATOM     28  C   UNL A   1      41.472  28.362  30.386  1.00  0.00     0.049 A 
ATOM     29  C   UNL A   1      41.529  32.308  34.379  1.00  0.00     0.074 A 
ATOM     30  C   UNL A   1      42.508  27.445  30.415  1.00  0.00     0.029 A 
ATOM     31  N   UNL A   1      41.652  29.204  31.473  1.00  0.00    -0.354 N 
ATOM     32  N   UNL A   1      41.655  31.344  33.501  1.00  0.00    -0.248 NA
ATOM     33  C   UNL A   1      42.492  32.257  35.484  1.00  0.00     0.031 C 
ATOM     34  C   UNL A   1      43.284  27.700  31.550  1.00  0.00     0.029 A 
ATOM     35  C   UNL A   1      42.755  28.801  32.204  1.00  0.00     0.049 A 
ATOM     36  H   UNL A   1      41.078  29.974  31.692  1.00  0.00     0.167 HD
ATOM     37  C   UNL A   1      42.708  30.564  33.951  1.00  0.00     0.074 A 
ATOM     38  C   UNL A   1      43.205  31.187  35.162  1.00  0.00     0.031 C 
ATOM     39  C   UNL A   1      43.213  29.426  33.416  1.00  0.00     0.031 A 
BRANCH  26  40
ATOM     40  C   UNL A   1      40.267  27.383  28.403  1.00  0.00    -0.014 A 
ATOM     41  C   UNL A   1      40.915  27.487  27.164  1.00  0.00     0.009 A 
ATOM     42  C   UNL A   1      39.564  26.207  28.708  1.00  0.00     0.009 A 
ATOM     43  C   UNL A   1      40.851  26.435  26.245  1.00  0.00     0.001 A 
ATOM     44  C   UNL A   1      39.514  25.153  27.795  1.00  0.00     0.001 A 
ATOM     45  C   UNL A   1      40.156  25.268  26.563  1.00  0.00     0.000 A 
ENDBRANCH  26  40
BRANCH  27  46
ATOM     46  C   UNL A   1      40.526  34.435  35.493  1.00  0.00    -0.014 A 
ATOM     47  C   UNL A   1      39.794  34.211  36.667  1.00  0.00     0.009 A 
ATOM     48  C   UNL A   1      41.283  35.613  35.374  1.00  0.00     0.009 A 
ATOM     49  C   UNL A   1      39.810  35.156  37.696  1.00  0.00     0.001 A 
ATOM     50  C   UNL A   1      41.319  36.541  36.415  1.00  0.00     0.001 A 
ATOM     51  C   UNL A   1      40.577  36.315  37.572  1.00  0.00     0.000 A 
ENDBRANCH  27  46
BRANCH  39  52
ATOM     52  C   UNL A   1      44.353  28.790  34.152  1.00  0.00    -0.014 A 
ATOM     53  C   UNL A   1      44.119  27.763  35.078  1.00  0.00     0.009 A 
ATOM     54  C   UNL A   1      45.668  29.207  33.903  1.00  0.00     0.009 A 
ATOM     55  C   UNL A   1      45.185  27.181  35.764  1.00  0.00     0.001 A 
ATOM     56  C   UNL A   1      46.733  28.607  34.575  1.00  0.00     0.001 A 
ATOM     57  C   UNL A   1      46.490  27.601  35.509  1.00  0.00     0.000 A 
ENDBRANCH  39  52
ENDBRANCH  13  14
ENDBRANCH   6   8
ENDBRANCH   3   4
ENDBRANCH   2   3
ENDBRANCH   1   2
BRANCH   1  58
ATOM     58  C   UNL A   1      32.320  29.561  27.007  1.00  0.00     0.116 C 
BRANCH  58  59
ATOM     59  N   UNL A   1      31.392  28.453  27.082  1.00  0.00    -0.356 N 
ATOM     60  C   UNL A   1      31.458  27.138  26.790  1.00  0.00     0.223 C 
ATOM     61  H   UNL A   1      30.509  28.722  27.424  1.00  0.00     0.163 HD
ATOM     62  O   UNL A   1      30.385  26.530  26.914  1.00  0.00    -0.275 OA
BRANCH  60  63
ATOM     63  C   UNL A   1      32.691  26.345  26.337  1.00  0.00     0.082 C 
ATOM     64  C   UNL A   1      33.886  26.979  25.641  1.00  0.00     0.035 C 
ATOM     65  C   UNL A   1      32.257  25.091  25.560  1.00  0.00     0.035 C 
ATOM     66  C   UNL A   1      33.720  27.184  24.142  1.00  0.00     0.120 C 
ATOM     67  C   UNL A   1      31.943  25.417  24.110  1.00  0.00     0.120 C 
ATOM     68  N   UNL A   1      33.046  26.103  23.446  1.00  0.00    -0.340 N 
ATOM     69  C   UNL A   1      33.193  26.074  22.062  1.00  0.00     0.260 C 
ATOM     70  O   UNL A   1      33.551  27.066  21.423  1.00  0.00    -0.271 OA
BRANCH  69  71
ATOM     71  C   UNL A   1      33.037  24.717  21.368  1.00  0.00     0.329 C 
BRANCH  71  72
ATOM     72  O   UNL A   1      33.930  23.675  21.730  1.00  0.00    -0.482 OA
BRANCH  72  73
ATOM     73  C   UNL A   1      33.534  22.721  22.632  1.00  0.00     0.138 A 
ATOM     74  C   UNL A   1      32.470  21.832  22.450  1.00  0.00     0.049 A 
ATOM     75  C   UNL A   1      34.323  22.581  23.787  1.00  0.00     0.084 A 
ATOM     76  C   UNL A   1      32.235  20.797  23.360  1.00  0.00     0.024 A 
ATOM     77  C   UNL A   1      34.070  21.567  24.717  1.00  0.00     0.045 A 
ATOM     78  Cl  UNL A   1      35.630  23.667  24.116  1.00  0.00    -0.080 Cl
ATOM     79  C   UNL A   1      33.036  20.667  24.486  1.00  0.00     0.042 A 
ATOM     80  Cl  UNL A   1      32.745  19.384  25.593  1.00  0.00    -0.084 Cl
ENDBRANCH  72  73
ENDBRANCH  71  72
ENDBRANCH  69  71
ENDBRANCH  60  63
ENDBRANCH  58  59
ENDBRANCH   1  58
TORSDOF 14
ENDMDL
MODEL 2
REMARK VINA RESULT:     -11.5      5.068     10.013
REMARK SMILES O=C(NCCCCNC(=O)C1CCN(C(=O)COc2ccc(Cl)cc2Cl)CC1)c1ccc(-c2c3nc(c(-c4ccccc4)c4ccc([nH]4)c(-c4ccccc4)c4nc(c(-c5ccccc5)c5ccc2[nH]5)C=C4)C=C3)cc1
REMARK SMILES IDX 6 1 5 2 4 3 3 4 1 5 2 6 29 8 30 9 76 10 31 11 75 12 32 13
REMARK SMILES IDX 33 14 34 15 69 16 35 17 74 18 68 19 70 20 36 21 73 22 67 23
REMARK SMILES IDX 66 24 37 26 59 27 44 28 58 29 45 30 48 31 57 32 71 33 46 34
REMARK SMILES IDX 47 35 56 37 72 38 49 39 38 40 39 41 43 42 40 43 42 44 41 45
REMARK SMILES IDX 60 46 61 47 65 48 62 49 64 50 63 51 50 52 51 53 55 54 52 55
REMARK SMILES IDX 54 56 53 57 7 58 8 59 9 60 10 62 11 63 12 64 28 65 13 66
REMARK SMILES IDX 27 67 14 68 15 69 16 70 17 71 18 72 19 73 20 74 25 75 21 76
REMARK SMILES IDX 24 77 26 78 22 79 23 80
REMARK H PARENT 3 7 70 25 48 36 8 61
REMARK Flexibility Score: inf
ROOT
ATOM      1  C   UNL A   1      37.343  21.241  24.633  1.00  0.00     0.023 C 
ENDROOT
BRANCH   1   2
ATOM      2  C   UNL A   1      38.106  19.939  24.831  1.00  0.00     0.023 C 
BRANCH   2   3
ATOM      3  C   UNL A   1      39.066  19.961  26.007  1.00  0.00     0.116 C 
BRANCH   3   4
ATOM      4  N   UNL A   1      40.182  19.030  25.888  1.00  0.00    -0.352 N 
ATOM      5  O   UNL A   1      42.376  18.462  25.907  1.00  0.00    -0.269 OA
ATOM      6  C   UNL A   1      41.518  19.301  26.085  1.00  0.00     0.251 C 
ATOM      7  H   UNL A   1      39.956  18.105  25.637  1.00  0.00     0.163 HD
BRANCH   6   8
ATOM      8  C   UNL A   1      41.874  20.679  26.478  1.00  0.00     0.039 A 
ATOM      9  C   UNL A   1      42.157  21.629  25.494  1.00  0.00     0.014 A 
ATOM     10  C   UNL A   1      42.021  20.977  27.833  1.00  0.00     0.014 A 
ATOM     11  C   UNL A   1      42.715  22.841  25.862  1.00  0.00     0.010 A 
ATOM     12  C   UNL A   1      42.499  22.231  28.205  1.00  0.00     0.010 A 
ATOM     13  C   UNL A   1      42.866  23.162  27.221  1.00  0.00    -0.014 A 
BRANCH  13  14
ATOM     14  C   UNL A   1      43.288  24.530  27.591  1.00  0.00     0.031 A 
ATOM     15  C   UNL A   1      42.296  25.572  28.010  1.00  0.00     0.074 A 
ATOM     16  C   UNL A   1      44.604  24.810  27.527  1.00  0.00     0.049 A 
ATOM     17  N   UNL A   1      42.512  26.825  28.318  1.00  0.00    -0.248 NA
ATOM     18  C   UNL A   1      40.883  25.167  28.089  1.00  0.00     0.031 C 
ATOM     19  C   UNL A   1      45.647  23.862  27.119  1.00  0.00     0.029 A 
ATOM     20  N   UNL A   1      45.289  25.960  27.807  1.00  0.00    -0.354 N 
ATOM     21  C   UNL A   1      41.265  27.368  28.597  1.00  0.00     0.074 A 
ATOM     22  C   UNL A   1      40.294  26.309  28.423  1.00  0.00     0.031 C 
ATOM     23  C   UNL A   1      46.842  24.461  27.207  1.00  0.00     0.029 A 
ATOM     24  C   UNL A   1      46.642  25.847  27.602  1.00  0.00     0.049 A 
ATOM     25  H   UNL A   1      44.857  26.785  28.124  1.00  0.00     0.167 HD
ATOM     26  C   UNL A   1      40.968  28.638  28.959  1.00  0.00     0.031 A 
ATOM     27  C   UNL A   1      47.615  26.771  27.680  1.00  0.00     0.031 A 
ATOM     28  C   UNL A   1      41.949  29.676  29.142  1.00  0.00     0.049 A 
ATOM     29  C   UNL A   1      47.247  28.173  28.049  1.00  0.00     0.074 A 
ATOM     30  C   UNL A   1      41.757  30.975  29.579  1.00  0.00     0.029 A 
ATOM     31  N   UNL A   1      43.305  29.534  28.888  1.00  0.00    -0.354 N 
ATOM     32  N   UNL A   1      46.069  28.657  28.358  1.00  0.00    -0.248 NA
ATOM     33  C   UNL A   1      48.335  29.158  28.062  1.00  0.00     0.031 C 
ATOM     34  C   UNL A   1      42.990  31.635  29.538  1.00  0.00     0.029 A 
ATOM     35  C   UNL A   1      43.955  30.734  29.115  1.00  0.00     0.049 A 
ATOM     36  H   UNL A   1      43.740  28.703  28.590  1.00  0.00     0.167 HD
ATOM     37  C   UNL A   1      46.271  30.007  28.597  1.00  0.00     0.074 A 
ATOM     38  C   UNL A   1      47.689  30.257  28.427  1.00  0.00     0.031 C 
ATOM     39  C   UNL A   1      45.362  30.959  28.918  1.00  0.00     0.031 A 
BRANCH  26  40
ATOM     40  C   UNL A   1      39.523  29.001  29.149  1.00  0.00    -0.014 A 
ATOM     41  C   UNL A   1      38.736  29.454  28.081  1.00  0.00     0.009 A 
ATOM     42  C   UNL A   1      38.921  28.800  30.401  1.00  0.00     0.009 A 
ATOM     43  C   UNL A   1      37.374  29.710  28.266  1.00  0.00     0.001 A 
ATOM     44  C   UNL A   1      37.557  29.041  30.580  1.00  0.00     0.001 A 
ATOM     45  C   UNL A   1      36.785  29.498  29.513  1.00  0.00     0.000 A 
ENDBRANCH  26  40
BRANCH  27  46
ATOM     46  C   UNL A   1      49.010  26.396  27.338  1.00  0.00    -0.014 A 
ATOM     47  C   UNL A   1      49.488  26.532  26.027  1.00  0.00     0.009 A 
ATOM     48  C   UNL A   1      49.880  25.933  28.338  1.00  0.00     0.009 A 
ATOM     49  C   UNL A   1      50.809  26.198  25.724  1.00  0.00     0.001 A 
ATOM     50  C   UNL A   1      51.208  25.627  28.037  1.00  0.00     0.001 A 
ATOM     51  C   UNL A   1      51.669  25.753  26.728  1.00  0.00     0.000 A 
ENDBRANCH  27  46
BRANCH  39  52
ATOM     52  C   UNL A   1      45.886  32.352  29.092  1.00  0.00    -0.014 A 
ATOM     53  C   UNL A   1      46.416  32.765  30.323  1.00  0.00     0.009 A 
ATOM     54  C   UNL A   1      45.866  33.249  28.015  1.00  0.00     0.009 A 
ATOM     55  C   UNL A   1      46.895  34.066  30.480  1.00  0.00     0.001 A 
ATOM     56  C   UNL A   1      46.366  34.542  28.169  1.00  0.00     0.001 A 
ATOM     57  C   UNL A   1      46.873  34.952  29.402  1.00  0.00     0.000 A 
ENDBRANCH  39  52
ENDBRANCH  13  14
ENDBRANCH   6   8
ENDBRANCH   3   4
ENDBRANCH   2   3
ENDBRANCH   1   2
BRANCH   1  58
ATOM     58  C   UNL A   1      36.192  21.478  25.613  1.00  0.00     0.116 C 
BRANCH  58  59
ATOM     59  N   UNL A   1      34.947  20.944  25.103  1.00  0.00    -0.356 N 
ATOM     60  C   UNL A   1      33.926  21.444  24.378  1.00  0.00     0.223 C 
ATOM     61  H   UNL A   1      34.816  19.998  25.342  1.00  0.00     0.163 HD
ATOM     62  O   UNL A   1      32.976  20.662  24.222  1.00  0.00    -0.275 OA
BRANCH  60  63
ATOM     63  C   UNL A   1      33.827  22.838  23.744  1.00  0.00     0.082 C 
ATOM     64  C   UNL A   1      34.324  24.105  24.424  1.00  0.00     0.035 C 
ATOM     65  C   UNL A   1      32.406  23.074  23.205  1.00  0.00     0.035 C 
ATOM     66  C   UNL A   1      33.357  24.715  25.427  1.00  0.00     0.120 C 
ATOM     67  C   UNL A   1      31.460  23.517  24.309  1.00  0.00     0.120 C 
ATOM     68  N   UNL A   1      31.960  24.683  25.031  1.00  0.00    -0.340 N 
ATOM     69  C   UNL A   1      31.102  25.532  25.723  1.00  0.00     0.260 C 
ATOM     70  O   UNL A   1      31.403  26.012  26.819  1.00  0.00    -0.271 OA
BRANCH  69  71
ATOM     71  C   UNL A   1      29.823  25.975  25.005  1.00  0.00     0.329 C 
BRANCH  71  72
ATOM     72  O   UNL A   1      29.948  26.559  23.717  1.00  0.00    -0.482 OA
BRANCH  72  73
ATOM     73  C   UNL A   1      29.374  27.778  23.463  1.00  0.00     0.138 A 
ATOM     74  C   UNL A   1      28.028  27.984  23.143  1.00  0.00     0.049 A 
ATOM     75  C   UNL A   1      30.195  28.907  23.626  1.00  0.00     0.084 A 
ATOM     76  C   UNL A   1      27.502  29.275  23.047  1.00  0.00     0.024 A 
ATOM     77  C   UNL A   1      29.679  30.200  23.498  1.00  0.00     0.045 A 
ATOM     78  Cl  UNL A   1      31.883  28.743  23.976  1.00  0.00    -0.080 Cl
ATOM     79  C   UNL A   1      28.328  30.377  23.228  1.00  0.00     0.042 A 
ATOM     80  Cl  UNL A   1      27.668  31.961  23.120  1.00  0.00    -0.084 Cl
ENDBRANCH  72  73
ENDBRANCH  71  72
ENDBRANCH  69  71
ENDBRANCH  60  63
ENDBRANCH  58  59
ENDBRANCH   1  58
TORSDOF 14
ENDMDL
MODEL 3
REMARK VINA RESULT:     -11.4      1.373      2.109
REMARK SMILES O=C(NCCCCNC(=O)C1CCN(C(=O)COc2ccc(Cl)cc2Cl)CC1)c1ccc(-c2c3nc(c(-c4ccccc4)c4ccc([nH]4)c(-c4ccccc4)c4nc(c(-c5ccccc5)c5ccc2[nH]5)C=C4)C=C3)cc1
REMARK SMILES IDX 6 1 5 2 4 3 3 4 1 5 2 6 29 8 30 9 76 10 31 11 75 12 32 13
REMARK SMILES IDX 33 14 34 15 69 16 35 17 74 18 68 19 70 20 36 21 73 22 67 23
REMARK SMILES IDX 66 24 37 26 59 27 44 28 58 29 45 30 48 31 57 32 71 33 46 34
REMARK SMILES IDX 47 35 56 37 72 38 49 39 38 40 39 41 43 42 40 43 42 44 41 45
REMARK SMILES IDX 60 46 61 47 65 48 62 49 64 50 63 51 50 52 51 53 55 54 52 55
REMARK SMILES IDX 54 56 53 57 7 58 8 59 9 60 10 62 11 63 12 64 28 65 13 66
REMARK SMILES IDX 27 67 14 68 15 69 16 70 17 71 18 72 19 73 20 74 25 75 21 76
REMARK SMILES IDX 24 77 26 78 22 79 23 80
REMARK H PARENT 3 7 70 25 48 36 8 61
REMARK Flexibility Score: inf
ROOT
ATOM      1  C   UNL A   1      31.803  30.472  25.995  1.00  0.00     0.023 C 
ENDROOT
BRANCH   1   2
ATOM      2  C   UNL A   1      31.408  31.848  26.513  1.00  0.00     0.023 C 
BRANCH   2   3
ATOM      3  C   UNL A   1      32.520  32.569  27.256  1.00  0.00     0.116 C 
BRANCH   3   4
ATOM      4  N   UNL A   1      32.203  33.945  27.620  1.00  0.00    -0.352 N 
ATOM      5  O   UNL A   1      32.527  35.883  28.749  1.00  0.00    -0.269 OA
ATOM      6  C   UNL A   1      32.908  34.765  28.472  1.00  0.00     0.251 C 
ATOM      7  H   UNL A   1      31.394  34.331  27.211  1.00  0.00     0.163 HD
BRANCH   6   8
ATOM      8  C   UNL A   1      34.133  34.209  29.080  1.00  0.00     0.039 A 
ATOM      9  C   UNL A   1      35.366  34.400  28.453  1.00  0.00     0.014 A 
ATOM     10  C   UNL A   1      34.018  33.413  30.220  1.00  0.00     0.014 A 
ATOM     11  C   UNL A   1      36.468  33.686  28.892  1.00  0.00     0.010 A 
ATOM     12  C   UNL A   1      35.148  32.765  30.714  1.00  0.00     0.010 A 
ATOM     13  C   UNL A   1      36.374  32.883  30.041  1.00  0.00    -0.014 A 
BRANCH  13  14
ATOM     14  C   UNL A   1      37.605  32.281  30.595  1.00  0.00     0.031 A 
ATOM     15  C   UNL A   1      38.248  31.084  29.963  1.00  0.00     0.074 A 
ATOM     16  C   UNL A   1      38.127  32.845  31.701  1.00  0.00     0.049 A 
ATOM     17  N   UNL A   1      39.302  30.419  30.361  1.00  0.00    -0.248 NA
ATOM     18  C   UNL A   1      37.633  30.557  28.734  1.00  0.00     0.031 C 
ATOM     19  C   UNL A   1      37.565  34.009  32.397  1.00  0.00     0.029 A 
ATOM     20  N   UNL A   1      39.239  32.526  32.431  1.00  0.00    -0.354 N 
ATOM     21  C   UNL A   1      39.461  29.380  29.455  1.00  0.00     0.074 A 
ATOM     22  C   UNL A   1      38.395  29.499  28.483  1.00  0.00     0.031 C 
ATOM     23  C   UNL A   1      38.355  34.325  33.432  1.00  0.00     0.029 A 
ATOM     24  C   UNL A   1      39.428  33.346  33.516  1.00  0.00     0.049 A 
ATOM     25  H   UNL A   1      39.843  31.785  32.200  1.00  0.00     0.167 HD
ATOM     26  C   UNL A   1      40.410  28.415  29.448  1.00  0.00     0.031 A 
ATOM     27  C   UNL A   1      40.341  33.291  34.500  1.00  0.00     0.031 A 
ATOM     28  C   UNL A   1      41.472  28.320  30.416  1.00  0.00     0.049 A 
ATOM     29  C   UNL A   1      41.354  32.190  34.480  1.00  0.00     0.074 A 
ATOM     30  C   UNL A   1      42.526  27.423  30.452  1.00  0.00     0.029 A 
ATOM     31  N   UNL A   1      41.609  29.144  31.521  1.00  0.00    -0.354 N 
ATOM     32  N   UNL A   1      41.521  31.245  33.588  1.00  0.00    -0.248 NA
ATOM     33  C   UNL A   1      42.292  32.137  35.607  1.00  0.00     0.031 C 
ATOM     34  C   UNL A   1      43.269  27.672  31.611  1.00  0.00     0.029 A 
ATOM     35  C   UNL A   1      42.702  28.749  32.271  1.00  0.00     0.049 A 
ATOM     36  H   UNL A   1      41.015  29.899  31.740  1.00  0.00     0.167 HD
ATOM     37  C   UNL A   1      42.578  30.478  34.049  1.00  0.00     0.074 A 
ATOM     38  C   UNL A   1      43.034  31.088  35.283  1.00  0.00     0.031 C 
ATOM     39  C   UNL A   1      43.119  29.361  33.505  1.00  0.00     0.031 A 
BRANCH  26  40
ATOM     40  C   UNL A   1      40.334  27.355  28.387  1.00  0.00    -0.014 A 
ATOM     41  C   UNL A   1      40.990  27.505  27.156  1.00  0.00     0.009 A 
ATOM     42  C   UNL A   1      39.669  26.149  28.661  1.00  0.00     0.009 A 
ATOM     43  C   UNL A   1      40.970  26.471  26.215  1.00  0.00     0.001 A 
ATOM     44  C   UNL A   1      39.665  25.112  27.727  1.00  0.00     0.001 A 
ATOM     45  C   UNL A   1      40.313  25.275  26.503  1.00  0.00     0.000 A 
ENDBRANCH  26  40
BRANCH  27  46
ATOM     46  C   UNL A   1      40.283  34.276  35.609  1.00  0.00    -0.014 A 
ATOM     47  C   UNL A   1      40.982  35.489  35.528  1.00  0.00     0.009 A 
ATOM     48  C   UNL A   1      39.493  34.016  36.740  1.00  0.00     0.009 A 
ATOM     49  C   UNL A   1      40.899  36.417  36.569  1.00  0.00     0.001 A 
ATOM     50  C   UNL A   1      39.391  34.958  37.765  1.00  0.00     0.001 A 
ATOM     51  C   UNL A   1      40.100  36.154  37.681  1.00  0.00     0.000 A 
ENDBRANCH  27  46
BRANCH  39  52
ATOM     52  C   UNL A   1      44.253  28.733  34.257  1.00  0.00    -0.014 A 
ATOM     53  C   UNL A   1      44.011  27.730  35.207  1.00  0.00     0.009 A 
ATOM     54  C   UNL A   1      45.572  29.134  33.999  1.00  0.00     0.009 A 
ATOM     55  C   UNL A   1      45.073  27.156  35.907  1.00  0.00     0.001 A 
ATOM     56  C   UNL A   1      46.632  28.542  34.685  1.00  0.00     0.001 A 
ATOM     57  C   UNL A   1      46.381  27.560  35.643  1.00  0.00     0.000 A 
ENDBRANCH  39  52
ENDBRANCH  13  14
ENDBRANCH   6   8
ENDBRANCH   3   4
ENDBRANCH   2   3
ENDBRANCH   1   2
BRANCH   1  58
ATOM     58  C   UNL A   1      31.068  30.013  24.734  1.00  0.00     0.116 C 
BRANCH  58  59
ATOM     59  N   UNL A   1      31.961  29.328  23.824  1.00  0.00    -0.356 N 
ATOM     60  C   UNL A   1      31.948  28.131  23.203  1.00  0.00     0.223 C 
ATOM     61  H   UNL A   1      32.762  29.858  23.610  1.00  0.00     0.163 HD
ATOM     62  O   UNL A   1      32.976  27.876  22.558  1.00  0.00    -0.275 OA
BRANCH  60  63
ATOM     63  C   UNL A   1      30.823  27.087  23.214  1.00  0.00     0.082 C 
ATOM     64  C   UNL A   1      29.869  26.896  24.383  1.00  0.00     0.035 C 
ATOM     65  C   UNL A   1      31.369  25.718  22.774  1.00  0.00     0.035 C 
ATOM     66  C   UNL A   1      30.406  26.032  25.515  1.00  0.00     0.120 C 
ATOM     67  C   UNL A   1      32.043  24.992  23.927  1.00  0.00     0.120 C 
ATOM     68  N   UNL A   1      31.171  24.873  25.091  1.00  0.00    -0.340 N 
ATOM     69  C   UNL A   1      31.365  23.879  26.046  1.00  0.00     0.260 C 
ATOM     70  O   UNL A   1      31.225  24.096  27.252  1.00  0.00    -0.271 OA
BRANCH  69  71
ATOM     71  C   UNL A   1      31.616  22.456  25.536  1.00  0.00     0.329 C 
BRANCH  71  72
ATOM     72  O   UNL A   1      32.920  21.913  25.683  1.00  0.00    -0.482 OA
BRANCH  72  73
ATOM     73  C   UNL A   1      33.170  20.625  25.286  1.00  0.00     0.138 A 
ATOM     74  C   UNL A   1      32.193  19.682  24.947  1.00  0.00     0.049 A 
ATOM     75  C   UNL A   1      34.519  20.264  25.131  1.00  0.00     0.084 A 
ATOM     76  C   UNL A   1      32.547  18.441  24.412  1.00  0.00     0.024 A 
ATOM     77  C   UNL A   1      34.878  19.009  24.626  1.00  0.00     0.045 A 
ATOM     78  Cl  UNL A   1      35.792  21.350  25.571  1.00  0.00    -0.080 Cl
ATOM     79  C   UNL A   1      33.886  18.110  24.251  1.00  0.00     0.042 A 
ATOM     80  Cl  UNL A   1      34.312  16.586  23.582  1.00  0.00    -0.084 Cl
ENDBRANCH  72  73
ENDBRANCH  71  72
ENDBRANCH  69  71
ENDBRANCH  60  63
ENDBRANCH  58  59
ENDBRANCH   1  58
TORSDOF 14
ENDMDL
