MODEL 1
REMARK VINA RESULT:     -10.1      0.000      0.000
REMARK SMILES CC[C@](C)(NC(=O)NC[C@@H](C)[NH+](C)C)C(=O)NCCCCNC(=O)c1ccc(-c2c3nc(c(-c4ccccc4)c4ccc([nH]4)c(-c4ccccc4)c4nc(c(-c5ccccc5)c5ccc2[nH]5)C=C4)C=C3)cc1
REMARK SMILES IDX 18 1 17 2 15 3 16 4 3 6 4 7 2 8 1 9 5 10 6 11 7 13 8 14 9 16
REMARK SMILES IDX 10 17 11 18 12 19 13 20 14 21 19 23 20 24 21 25 22 26 23 27
REMARK SMILES IDX 24 29 25 30 26 31 72 32 27 33 71 34 28 35 29 36 30 37 65 38
REMARK SMILES IDX 31 39 70 40 64 41 66 42 32 43 69 44 63 45 62 46 33 48 55 49
REMARK SMILES IDX 40 50 54 51 41 52 44 53 53 54 67 55 42 56 43 57 52 59 68 60
REMARK SMILES IDX 45 61 34 62 35 63 39 64 36 65 38 66 37 67 56 68 57 69 61 70
REMARK SMILES IDX 58 71 60 72 59 73 46 74 47 75 51 76 48 77 50 78 49 79
REMARK H PARENT 17 5 5 12 8 15 12 22 22 28 66 47 44 58
REMARK Flexibility Score: inf
ROOT
ATOM      1  C   UNL A   1      35.927  21.466  25.144  1.00  0.00     0.116 C 
ENDROOT
BRANCH   1   2
ATOM      2  N   UNL A   1      35.232  21.903  26.343  1.00  0.00    -0.354 N 
ATOM      3  C   UNL A   1      33.915  21.848  26.721  1.00  0.00     0.245 C 
ATOM      4  O   UNL A   1      33.688  21.775  27.935  1.00  0.00    -0.272 OA
ATOM      5  H   UNL A   1      35.820  22.318  27.015  1.00  0.00     0.163 HD
BRANCH   3   6
ATOM      6  C   UNL A   1      32.755  21.705  25.707  1.00  0.00     0.117 C 
ATOM      7  C   UNL A   1      32.575  20.273  25.157  1.00  0.00     0.045 C 
BRANCH   6   8
ATOM      8  C   UNL A   1      33.110  22.611  24.478  1.00  0.00     0.035 C 
ATOM      9  C   UNL A   1      32.529  22.140  23.141  1.00  0.00     0.007 C 
ENDBRANCH   6   8
BRANCH   6  10
ATOM     10  N   UNL A   1      31.485  22.140  26.312  1.00  0.00    -0.324 N 
ATOM     11  C   UNL A   1      31.023  23.279  26.839  1.00  0.00     0.315 C 
ATOM     12  H   UNL A   1      30.815  21.419  26.333  1.00  0.00     0.166 HD
ATOM     13  O   UNL A   1      29.937  23.211  27.425  1.00  0.00    -0.249 OA
ATOM     14  N   UNL A   1      31.582  24.490  26.751  1.00  0.00    -0.332 N 
ATOM     15  H   UNL A   1      30.984  25.181  27.115  1.00  0.00     0.165 HD
BRANCH  14  16
ATOM     16  C   UNL A   1      32.834  25.078  26.265  1.00  0.00     0.182 C 
BRANCH  16  17
ATOM     17  C   UNL A   1      32.694  26.510  25.656  1.00  0.00     0.200 C 
ATOM     18  C   UNL A   1      33.385  27.567  26.524  1.00  0.00     0.077 C 
BRANCH  17  19
ATOM     19  N   UNL A   1      33.089  26.558  24.236  1.00  0.00    -0.336 N 
ATOM     20  C   UNL A   1      32.092  26.053  23.304  1.00  0.00     0.332 C 
ATOM     21  C   UNL A   1      33.659  27.817  23.779  1.00  0.00     0.332 C 
ATOM     22  H   UNL A   1      33.861  25.891  24.226  1.00  0.00     0.347 HD
ENDBRANCH  17  19
ENDBRANCH  16  17
ENDBRANCH  14  16
ENDBRANCH   6  10
ENDBRANCH   3   6
ENDBRANCH   1   2
BRANCH   1  23
ATOM     23  C   UNL A   1      36.261  19.981  24.968  1.00  0.00     0.023 C 
BRANCH  23  24
ATOM     24  C   UNL A   1      37.708  19.553  24.721  1.00  0.00     0.023 C 
BRANCH  24  25
ATOM     25  C   UNL A   1      38.747  20.106  25.684  1.00  0.00     0.116 C 
BRANCH  25  26
ATOM     26  N   UNL A   1      39.912  19.244  25.778  1.00  0.00    -0.352 N 
ATOM     27  C   UNL A   1      41.205  19.569  26.086  1.00  0.00     0.251 C 
ATOM     28  H   UNL A   1      39.748  18.291  25.593  1.00  0.00     0.163 HD
ATOM     29  O   UNL A   1      42.099  18.727  25.929  1.00  0.00    -0.269 OA
BRANCH  27  30
ATOM     30  C   UNL A   1      41.558  20.912  26.594  1.00  0.00     0.039 A 
ATOM     31  C   UNL A   1      41.387  21.183  27.955  1.00  0.00     0.014 A 
ATOM     32  C   UNL A   1      41.999  21.923  25.734  1.00  0.00     0.014 A 
ATOM     33  C   UNL A   1      41.684  22.451  28.460  1.00  0.00     0.010 A 
ATOM     34  C   UNL A   1      42.345  23.175  26.248  1.00  0.00     0.010 A 
ATOM     35  C   UNL A   1      42.179  23.454  27.614  1.00  0.00    -0.014 A 
BRANCH  35  36
ATOM     36  C   UNL A   1      42.502  24.805  28.139  1.00  0.00     0.031 A 
ATOM     37  C   UNL A   1      43.910  25.149  28.541  1.00  0.00     0.074 A 
ATOM     38  C   UNL A   1      41.521  25.717  28.290  1.00  0.00     0.049 A 
ATOM     39  N   UNL A   1      44.375  26.261  29.052  1.00  0.00    -0.248 NA
ATOM     40  C   UNL A   1      44.925  24.098  28.364  1.00  0.00     0.031 C 
ATOM     41  C   UNL A   1      40.110  25.508  27.962  1.00  0.00     0.029 A 
ATOM     42  N   UNL A   1      41.566  27.005  28.765  1.00  0.00    -0.354 N 
ATOM     43  C   UNL A   1      45.729  26.039  29.273  1.00  0.00     0.074 A 
ATOM     44  C   UNL A   1      46.003  24.674  28.877  1.00  0.00     0.031 C 
ATOM     45  C   UNL A   1      39.428  26.634  28.224  1.00  0.00     0.029 A 
ATOM     46  C   UNL A   1      40.343  27.632  28.769  1.00  0.00     0.049 A 
ATOM     47  H   UNL A   1      42.394  27.437  29.073  1.00  0.00     0.167 HD
ATOM     48  C   UNL A   1      46.665  26.897  29.747  1.00  0.00     0.031 A 
ATOM     49  C   UNL A   1      39.998  28.870  29.170  1.00  0.00     0.031 A 
ATOM     50  C   UNL A   1      46.402  28.260  30.127  1.00  0.00     0.049 A 
ATOM     51  C   UNL A   1      41.053  29.798  29.704  1.00  0.00     0.074 A 
ATOM     52  C   UNL A   1      47.299  29.220  30.564  1.00  0.00     0.029 A 
ATOM     53  N   UNL A   1      45.152  28.854  30.114  1.00  0.00    -0.354 N 
ATOM     54  N   UNL A   1      42.339  29.590  29.850  1.00  0.00    -0.248 NA
ATOM     55  C   UNL A   1      40.607  31.135  30.120  1.00  0.00     0.031 C 
ATOM     56  C   UNL A   1      46.582  30.385  30.858  1.00  0.00     0.029 A 
ATOM     57  C   UNL A   1      45.248  30.163  30.559  1.00  0.00     0.049 A 
ATOM     58  H   UNL A   1      44.318  28.413  29.833  1.00  0.00     0.167 HD
ATOM     59  C   UNL A   1      42.859  30.778  30.347  1.00  0.00     0.074 A 
ATOM     60  C   UNL A   1      41.752  31.705  30.467  1.00  0.00     0.031 C 
ATOM     61  C   UNL A   1      44.140  31.074  30.673  1.00  0.00     0.031 A 
BRANCH  48  62
ATOM     62  C   UNL A   1      48.068  26.378  29.890  1.00  0.00    -0.014 A 
ATOM     63  C   UNL A   1      48.503  25.777  31.081  1.00  0.00     0.009 A 
ATOM     64  C   UNL A   1      48.954  26.454  28.804  1.00  0.00     0.009 A 
ATOM     65  C   UNL A   1      49.808  25.293  31.194  1.00  0.00     0.001 A 
ATOM     66  C   UNL A   1      50.250  25.945  28.911  1.00  0.00     0.001 A 
ATOM     67  C   UNL A   1      50.679  25.375  30.108  1.00  0.00     0.000 A 
ENDBRANCH  48  62
BRANCH  49  68
ATOM     68  C   UNL A   1      38.584  29.317  29.067  1.00  0.00    -0.014 A 
ATOM     69  C   UNL A   1      37.723  29.208  30.170  1.00  0.00     0.009 A 
ATOM     70  C   UNL A   1      38.087  29.842  27.865  1.00  0.00     0.009 A 
ATOM     71  C   UNL A   1      36.385  29.593  30.063  1.00  0.00     0.001 A 
ATOM     72  C   UNL A   1      36.756  30.252  27.768  1.00  0.00     0.001 A 
ATOM     73  C   UNL A   1      35.904  30.118  28.864  1.00  0.00     0.000 A 
ENDBRANCH  49  68
BRANCH  61  74
ATOM     74  C   UNL A   1      44.420  32.466  31.160  1.00  0.00    -0.014 A 
ATOM     75  C   UNL A   1      44.767  33.493  30.268  1.00  0.00     0.009 A 
ATOM     76  C   UNL A   1      44.299  32.762  32.527  1.00  0.00     0.009 A 
ATOM     77  C   UNL A   1      45.016  34.783  30.741  1.00  0.00     0.001 A 
ATOM     78  C   UNL A   1      44.523  34.059  32.993  1.00  0.00     0.001 A 
ATOM     79  C   UNL A   1      44.890  35.065  32.101  1.00  0.00     0.000 A 
ENDBRANCH  61  74
ENDBRANCH  35  36
ENDBRANCH  27  30
ENDBRANCH  25  26
ENDBRANCH  24  25
ENDBRANCH  23  24
ENDBRANCH   1  23
TORSDOF 16
ENDMDL
MODEL 2
REMARK VINA RESULT:     -10.1      4.721      9.197
REMARK SMILES CC[C@](C)(NC(=O)NC[C@@H](C)[NH+](C)C)C(=O)NCCCCNC(=O)c1ccc(-c2c3nc(c(-c4ccccc4)c4ccc([nH]4)c(-c4ccccc4)c4nc(c(-c5ccccc5)c5ccc2[nH]5)C=C4)C=C3)cc1
REMARK SMILES IDX 18 1 17 2 15 3 16 4 3 6 4 7 2 8 1 9 5 10 6 11 7 13 8 14 9 16
REMARK SMILES IDX 10 17 11 18 12 19 13 20 14 21 19 23 20 24 21 25 22 26 23 27
REMARK SMILES IDX 24 29 25 30 26 31 72 32 27 33 71 34 28 35 29 36 30 37 65 38
REMARK SMILES IDX 31 39 70 40 64 41 66 42 32 43 69 44 63 45 62 46 33 48 55 49
REMARK SMILES IDX 40 50 54 51 41 52 44 53 53 54 67 55 42 56 43 57 52 59 68 60
REMARK SMILES IDX 45 61 34 62 35 63 39 64 36 65 38 66 37 67 56 68 57 69 61 70
REMARK SMILES IDX 58 71 60 72 59 73 46 74 47 75 51 76 48 77 50 78 49 79
REMARK H PARENT 17 5 5 12 8 15 12 22 22 28 66 47 44 58
REMARK Flexibility Score: inf
ROOT
ATOM      1  C   UNL A   1      32.656  30.001  26.372  1.00  0.00     0.116 C 
ENDROOT
BRANCH   1   2
ATOM      2  N   UNL A   1      33.524  29.669  25.254  1.00  0.00    -0.354 N 
ATOM      3  C   UNL A   1      33.500  28.652  24.335  1.00  0.00     0.245 C 
ATOM      4  O   UNL A   1      33.984  28.897  23.223  1.00  0.00    -0.272 OA
ATOM      5  H   UNL A   1      34.274  30.296  25.133  1.00  0.00     0.163 HD
BRANCH   3   6
ATOM      6  C   UNL A   1      32.758  27.316  24.579  1.00  0.00     0.117 C 
ATOM      7  C   UNL A   1      31.393  27.476  25.283  1.00  0.00     0.045 C 
BRANCH   6   8
ATOM      8  C   UNL A   1      33.656  26.465  25.540  1.00  0.00     0.035 C 
ATOM      9  C   UNL A   1      34.281  25.220  24.903  1.00  0.00     0.007 C 
ENDBRANCH   6   8
BRANCH   6  10
ATOM     10  N   UNL A   1      32.551  26.603  23.308  1.00  0.00    -0.324 N 
ATOM     11  C   UNL A   1      31.757  26.766  22.244  1.00  0.00     0.315 C 
ATOM     12  H   UNL A   1      33.138  25.818  23.220  1.00  0.00     0.166 HD
ATOM     13  O   UNL A   1      31.740  25.839  21.425  1.00  0.00    -0.249 OA
ATOM     14  N   UNL A   1      31.027  27.844  21.944  1.00  0.00    -0.332 N 
ATOM     15  H   UNL A   1      30.631  27.762  21.047  1.00  0.00     0.165 HD
BRANCH  14  16
ATOM     16  C   UNL A   1      30.649  29.113  22.573  1.00  0.00     0.182 C 
BRANCH  16  17
ATOM     17  C   UNL A   1      29.269  29.687  22.120  1.00  0.00     0.200 C 
ATOM     18  C   UNL A   1      28.100  28.939  22.769  1.00  0.00     0.077 C 
BRANCH  17  19
ATOM     19  N   UNL A   1      29.193  31.152  22.271  1.00  0.00    -0.336 N 
ATOM     20  C   UNL A   1      28.435  31.838  21.236  1.00  0.00     0.332 C 
ATOM     21  C   UNL A   1      28.841  31.635  23.598  1.00  0.00     0.332 C 
ATOM     22  H   UNL A   1      30.170  31.413  22.137  1.00  0.00     0.347 HD
ENDBRANCH  17  19
ENDBRANCH  16  17
ENDBRANCH  14  16
ENDBRANCH   6  10
ENDBRANCH   3   6
ENDBRANCH   1   2
BRANCH   1  23
ATOM     23  C   UNL A   1      31.404  30.849  26.125  1.00  0.00     0.023 C 
BRANCH  23  24
ATOM     24  C   UNL A   1      31.345  32.285  26.648  1.00  0.00     0.023 C 
BRANCH  24  25
ATOM     25  C   UNL A   1      32.672  32.912  27.047  1.00  0.00     0.116 C 
BRANCH  25  26
ATOM     26  N   UNL A   1      32.495  34.232  27.626  1.00  0.00    -0.352 N 
ATOM     27  C   UNL A   1      33.126  34.794  28.703  1.00  0.00     0.251 C 
ATOM     28  H   UNL A   1      31.828  34.803  27.181  1.00  0.00     0.163 HD
ATOM     29  O   UNL A   1      32.705  35.862  29.166  1.00  0.00    -0.269 OA
BRANCH  27  30
ATOM     30  C   UNL A   1      34.295  34.144  29.333  1.00  0.00     0.039 A 
ATOM     31  C   UNL A   1      34.078  33.233  30.372  1.00  0.00     0.014 A 
ATOM     32  C   UNL A   1      35.601  34.465  28.950  1.00  0.00     0.014 A 
ATOM     33  C   UNL A   1      35.163  32.624  31.006  1.00  0.00     0.010 A 
ATOM     34  C   UNL A   1      36.683  33.817  29.549  1.00  0.00     0.010 A 
ATOM     35  C   UNL A   1      36.475  32.899  30.592  1.00  0.00    -0.014 A 
BRANCH  35  36
ATOM     36  C   UNL A   1      37.637  32.256  31.256  1.00  0.00     0.031 A 
ATOM     37  C   UNL A   1      38.364  31.121  30.586  1.00  0.00     0.074 A 
ATOM     38  C   UNL A   1      38.019  32.664  32.481  1.00  0.00     0.049 A 
ATOM     39  N   UNL A   1      39.374  30.414  31.025  1.00  0.00    -0.248 NA
ATOM     40  C   UNL A   1      37.880  30.717  29.257  1.00  0.00     0.031 C 
ATOM     41  C   UNL A   1      37.388  33.736  33.254  1.00  0.00     0.029 A 
ATOM     42  N   UNL A   1      39.033  32.220  33.295  1.00  0.00    -0.354 N 
ATOM     43  C   UNL A   1      39.635  29.473  30.037  1.00  0.00     0.074 A 
ATOM     44  C   UNL A   1      38.653  29.673  28.993  1.00  0.00     0.031 C 
ATOM     45  C   UNL A   1      38.042  33.881  34.418  1.00  0.00     0.029 A 
ATOM     46  C   UNL A   1      39.114  32.893  34.490  1.00  0.00     0.049 A 
ATOM     47  H   UNL A   1      39.642  31.489  33.045  1.00  0.00     0.167 HD
ATOM     48  C   UNL A   1      40.612  28.535  29.993  1.00  0.00     0.031 A 
ATOM     49  C   UNL A   1      39.956  32.731  35.528  1.00  0.00     0.031 A 
ATOM     50  C   UNL A   1      41.602  28.341  31.020  1.00  0.00     0.049 A 
ATOM     51  C   UNL A   1      41.024  31.676  35.459  1.00  0.00     0.074 A 
ATOM     52  C   UNL A   1      42.665  27.454  31.035  1.00  0.00     0.029 A 
ATOM     53  N   UNL A   1      41.649  29.044  32.212  1.00  0.00    -0.354 N 
ATOM     54  N   UNL A   1      41.293  30.835  34.491  1.00  0.00    -0.248 NA
ATOM     55  C   UNL A   1      41.910  31.556  36.626  1.00  0.00     0.031 C 
ATOM     56  C   UNL A   1      43.330  27.592  32.258  1.00  0.00     0.029 A 
ATOM     57  C   UNL A   1      42.709  28.596  32.982  1.00  0.00     0.049 A 
ATOM     58  H   UNL A   1      41.022  29.757  32.474  1.00  0.00     0.167 HD
ATOM     59  C   UNL A   1      42.394  30.106  34.919  1.00  0.00     0.074 A 
ATOM     60  C   UNL A   1      42.751  30.611  36.229  1.00  0.00     0.031 C 
ATOM     61  C   UNL A   1      43.053  29.107  34.282  1.00  0.00     0.031 A 
BRANCH  48  62
ATOM     62  C   UNL A   1      40.654  27.636  28.790  1.00  0.00    -0.014 A 
ATOM     63  C   UNL A   1      39.957  26.418  28.768  1.00  0.00     0.009 A 
ATOM     64  C   UNL A   1      41.364  28.034  27.646  1.00  0.00     0.009 A 
ATOM     65  C   UNL A   1      40.000  25.599  27.637  1.00  0.00     0.001 A 
ATOM     66  C   UNL A   1      41.383  27.225  26.507  1.00  0.00     0.001 A 
ATOM     67  C   UNL A   1      40.710  26.004  26.508  1.00  0.00     0.000 A 
ENDBRANCH  48  62
BRANCH  49  68
ATOM     68  C   UNL A   1      39.836  33.604  36.724  1.00  0.00    -0.014 A 
ATOM     69  C   UNL A   1      40.567  34.799  36.808  1.00  0.00     0.009 A 
ATOM     70  C   UNL A   1      39.000  33.243  37.792  1.00  0.00     0.009 A 
ATOM     71  C   UNL A   1      40.483  35.602  37.947  1.00  0.00     0.001 A 
ATOM     72  C   UNL A   1      38.897  34.060  38.919  1.00  0.00     0.001 A 
ATOM     73  C   UNL A   1      39.646  35.233  38.999  1.00  0.00     0.000 A 
ENDBRANCH  49  68
BRANCH  61  74
ATOM     74  C   UNL A   1      44.245  28.518  34.978  1.00  0.00    -0.014 A 
ATOM     75  C   UNL A   1      45.526  29.068  34.818  1.00  0.00     0.009 A 
ATOM     76  C   UNL A   1      44.077  27.420  35.837  1.00  0.00     0.009 A 
ATOM     77  C   UNL A   1      46.621  28.509  35.481  1.00  0.00     0.001 A 
ATOM     78  C   UNL A   1      45.169  26.879  36.518  1.00  0.00     0.001 A 
ATOM     79  C   UNL A   1      46.440  27.419  36.333  1.00  0.00     0.000 A 
ENDBRANCH  61  74
ENDBRANCH  35  36
ENDBRANCH  27  30
ENDBRANCH  25  26
ENDBRANCH  24  25
ENDBRANCH  23  24
ENDBRANCH   1  23
TORSDOF 16
ENDMDL
MODEL 3
REMARK VINA RESULT:     -10.1      1.354      6.665
REMARK SMILES CC[C@](C)(NC(=O)NC[C@@H](C)[NH+](C)C)C(=O)NCCCCNC(=O)c1ccc(-c2c3nc(c(-c4ccccc4)c4ccc([nH]4)c(-c4ccccc4)c4nc(c(-c5ccccc5)c5ccc2[nH]5)C=C4)C=C3)cc1
REMARK SMILES IDX 18 1 17 2 15 3 16 4 3 6 4 7 2 8 1 9 5 10 6 11 7 13 8 14 9 16
REMARK SMILES IDX 10 17 11 18 12 19 13 20 14 21 19 23 20 24 21 25 22 26 23 27
REMARK SMILES IDX 24 29 25 30 26 31 72 32 27 33 71 34 28 35 29 36 30 37 65 38
REMARK SMILES IDX 31 39 70 40 64 41 66 42 32 43 69 44 63 45 62 46 33 48 55 49
REMARK SMILES IDX 40 50 54 51 41 52 44 53 53 54 67 55 42 56 43 57 52 59 68 60
REMARK SMILES IDX 45 61 34 62 35 63 39 64 36 65 38 66 37 67 56 68 57 69 61 70
REMARK SMILES IDX 58 71 60 72 59 73 46 74 47 75 51 76 48 77 50 78 49 79
REMARK H PARENT 17 5 5 12 8 15 12 22 22 28 66 47 44 58
REMARK Flexibility Score: inf
ROOT
ATOM      1  C   UNL A   1      37.159  22.305  25.286  1.00  0.00     0.116 C 
ENDROOT
BRANCH   1   2
ATOM      2  N   UNL A   1      36.246  22.210  26.412  1.00  0.00    -0.354 N 
ATOM      3  C   UNL A   1      34.886  22.352  26.516  1.00  0.00     0.245 C 
ATOM      4  O   UNL A   1      34.327  21.708  27.412  1.00  0.00    -0.272 OA
ATOM      5  H   UNL A   1      36.689  22.003  27.267  1.00  0.00     0.163 HD
BRANCH   3   6
ATOM      6  C   UNL A   1      34.041  23.127  25.477  1.00  0.00     0.117 C 
ATOM      7  C   UNL A   1      34.207  22.620  24.028  1.00  0.00     0.045 C 
BRANCH   6   8
ATOM      8  C   UNL A   1      34.550  24.610  25.490  1.00  0.00     0.035 C 
ATOM      9  C   UNL A   1      33.462  25.662  25.727  1.00  0.00     0.007 C 
ENDBRANCH   6   8
BRANCH   6  10
ATOM     10  N   UNL A   1      32.613  23.075  25.833  1.00  0.00    -0.324 N 
ATOM     11  C   UNL A   1      31.660  22.137  25.806  1.00  0.00     0.315 C 
ATOM     12  H   UNL A   1      32.281  23.937  26.173  1.00  0.00     0.166 HD
ATOM     13  O   UNL A   1      30.504  22.523  26.020  1.00  0.00    -0.249 OA
ATOM     14  N   UNL A   1      31.829  20.824  25.628  1.00  0.00    -0.332 N 
ATOM     15  H   UNL A   1      30.987  20.337  25.775  1.00  0.00     0.165 HD
BRANCH  14  16
ATOM     16  C   UNL A   1      32.916  19.904  25.277  1.00  0.00     0.182 C 
BRANCH  16  17
ATOM     17  C   UNL A   1      32.497  18.712  24.358  1.00  0.00     0.200 C 
ATOM     18  C   UNL A   1      32.336  19.149  22.898  1.00  0.00     0.077 C 
BRANCH  17  19
ATOM     19  N   UNL A   1      33.368  17.535  24.532  1.00  0.00    -0.336 N 
ATOM     20  C   UNL A   1      32.960  16.620  25.589  1.00  0.00     0.332 C 
ATOM     21  C   UNL A   1      33.719  16.820  23.315  1.00  0.00     0.332 C 
ATOM     22  H   UNL A   1      34.231  17.977  24.848  1.00  0.00     0.347 HD
ENDBRANCH  17  19
ENDBRANCH  16  17
ENDBRANCH  14  16
ENDBRANCH   6  10
ENDBRANCH   3   6
ENDBRANCH   1   2
BRANCH   1  23
ATOM     23  C   UNL A   1      37.375  21.082  24.387  1.00  0.00     0.023 C 
BRANCH  23  24
ATOM     24  C   UNL A   1      38.089  19.850  24.944  1.00  0.00     0.023 C 
BRANCH  24  25
ATOM     25  C   UNL A   1      39.096  20.099  26.056  1.00  0.00     0.116 C 
BRANCH  25  26
ATOM     26  N   UNL A   1      40.266  19.249  25.927  1.00  0.00    -0.352 N 
ATOM     27  C   UNL A   1      41.590  19.583  26.014  1.00  0.00     0.251 C 
ATOM     28  H   UNL A   1      40.080  18.298  25.754  1.00  0.00     0.163 HD
ATOM     29  O   UNL A   1      42.451  18.755  25.686  1.00  0.00    -0.269 OA
BRANCH  27  30
ATOM     30  C   UNL A   1      42.015  20.921  26.481  1.00  0.00     0.039 A 
ATOM     31  C   UNL A   1      42.034  21.178  27.855  1.00  0.00     0.014 A 
ATOM     32  C   UNL A   1      42.338  21.939  25.578  1.00  0.00     0.014 A 
ATOM     33  C   UNL A   1      42.403  22.440  28.327  1.00  0.00     0.010 A 
ATOM     34  C   UNL A   1      42.756  23.184  26.052  1.00  0.00     0.010 A 
ATOM     35  C   UNL A   1      42.781  23.451  27.430  1.00  0.00    -0.014 A 
BRANCH  35  36
ATOM     36  C   UNL A   1      43.177  24.796  27.918  1.00  0.00     0.031 A 
ATOM     37  C   UNL A   1      42.132  25.840  28.205  1.00  0.00     0.074 A 
ATOM     38  C   UNL A   1      44.482  25.096  28.070  1.00  0.00     0.049 A 
ATOM     39  N   UNL A   1      42.288  27.077  28.602  1.00  0.00    -0.248 NA
ATOM     40  C   UNL A   1      40.729  25.446  28.001  1.00  0.00     0.031 C 
ATOM     41  C   UNL A   1      45.598  24.187  27.806  1.00  0.00     0.029 A 
ATOM     42  N   UNL A   1      45.088  26.257  28.482  1.00  0.00    -0.354 N 
ATOM     43  C   UNL A   1      41.009  27.614  28.678  1.00  0.00     0.074 A 
ATOM     44  C   UNL A   1      40.091  26.581  28.250  1.00  0.00     0.031 C 
ATOM     45  C   UNL A   1      46.751  24.816  28.082  1.00  0.00     0.029 A 
ATOM     46  C   UNL A   1      46.460  26.181  28.510  1.00  0.00     0.049 A 
ATOM     47  H   UNL A   1      44.588  27.067  28.732  1.00  0.00     0.167 HD
ATOM     48  C   UNL A   1      40.629  28.850  29.084  1.00  0.00     0.031 A 
ATOM     49  C   UNL A   1      47.380  27.107  28.841  1.00  0.00     0.031 A 
ATOM     50  C   UNL A   1      41.535  29.876  29.527  1.00  0.00     0.049 A 
ATOM     51  C   UNL A   1      46.933  28.474  29.275  1.00  0.00     0.074 A 
ATOM     52  C   UNL A   1      41.237  31.139  30.009  1.00  0.00     0.029 A 
ATOM     53  N   UNL A   1      42.914  29.757  29.541  1.00  0.00    -0.354 N 
ATOM     54  N   UNL A   1      45.715  28.945  29.398  1.00  0.00    -0.248 NA
ATOM     55  C   UNL A   1      47.989  29.435  29.625  1.00  0.00     0.031 C 
ATOM     56  C   UNL A   1      42.440  31.800  30.275  1.00  0.00     0.029 A 
ATOM     57  C   UNL A   1      43.484  30.933  30.002  1.00  0.00     0.049 A 
ATOM     58  H   UNL A   1      43.416  28.957  29.264  1.00  0.00     0.167 HD
ATOM     59  C   UNL A   1      45.858  30.245  29.865  1.00  0.00     0.074 A 
ATOM     60  C   UNL A   1      47.279  30.485  30.015  1.00  0.00     0.031 C 
ATOM     61  C   UNL A   1      44.898  31.158  30.147  1.00  0.00     0.031 A 
BRANCH  48  62
ATOM     62  C   UNL A   1      39.160  29.164  29.057  1.00  0.00    -0.014 A 
ATOM     63  C   UNL A   1      38.543  29.660  27.898  1.00  0.00     0.009 A 
ATOM     64  C   UNL A   1      38.373  28.921  30.194  1.00  0.00     0.009 A 
ATOM     65  C   UNL A   1      37.174  29.938  27.889  1.00  0.00     0.001 A 
ATOM     66  C   UNL A   1      37.000  29.176  30.174  1.00  0.00     0.001 A 
ATOM     67  C   UNL A   1      36.405  29.693  29.025  1.00  0.00     0.000 A 
ENDBRANCH  48  62
BRANCH  49  68
ATOM     68  C   UNL A   1      48.826  26.768  28.792  1.00  0.00    -0.014 A 
ATOM     69  C   UNL A   1      49.469  26.236  29.919  1.00  0.00     0.009 A 
ATOM     70  C   UNL A   1      49.571  26.985  27.622  1.00  0.00     0.009 A 
ATOM     71  C   UNL A   1      50.836  25.952  29.885  1.00  0.00     0.001 A 
ATOM     72  C   UNL A   1      50.931  26.676  27.582  1.00  0.00     0.001 A 
ATOM     73  C   UNL A   1      51.564  26.168  28.716  1.00  0.00     0.000 A 
ENDBRANCH  49  68
BRANCH  61  74
ATOM     74  C   UNL A   1      45.349  32.488  30.676  1.00  0.00    -0.014 A 
ATOM     75  C   UNL A   1      45.534  32.699  32.051  1.00  0.00     0.009 A 
ATOM     76  C   UNL A   1      45.629  33.534  29.782  1.00  0.00     0.009 A 
ATOM     77  C   UNL A   1      45.962  33.942  32.522  1.00  0.00     0.001 A 
ATOM     78  C   UNL A   1      46.081  34.767  30.254  1.00  0.00     0.001 A 
ATOM     79  C   UNL A   1      46.239  34.972  31.623  1.00  0.00     0.000 A 
ENDBRANCH  61  74
ENDBRANCH  35  36
ENDBRANCH  27  30
ENDBRANCH  25  26
ENDBRANCH  24  25
ENDBRANCH  23  24
ENDBRANCH   1  23
TORSDOF 16
ENDMDL
