MODEL 1
REMARK VINA RESULT:     -11.6      0.000      0.000
REMARK SMILES CCc1c(C(=O)NCCCCNC(=O)c2ccc(-c3c4nc(c(-c5ccccc5)c5ccc([nH]5)c(-c5ccccc5)c5nc(c(-c6ccccc6)c6ccc3[nH]6)C=C5)C=C4)cc2)nnn1C[C@H]1C[C@H]2CC[C@@H]1C2
REMARK SMILES IDX 9 1 8 2 7 3 5 4 6 5 4 7 3 8 65 9 63 10 64 11 2 12 1 13 66 14
REMARK SMILES IDX 67 15 68 16 72 17 69 18 71 19 73 20 70 21 10 22 11 23 12 24
REMARK SMILES IDX 13 25 14 27 15 28 16 29 62 30 17 31 61 32 18 33 19 34 20 35
REMARK SMILES IDX 55 36 21 37 60 38 54 39 56 40 22 41 59 42 53 43 52 44 23 46
REMARK SMILES IDX 45 47 30 48 44 49 31 50 34 51 43 52 57 53 32 54 33 55 42 57
REMARK SMILES IDX 58 58 35 59 24 60 25 61 29 62 26 63 28 64 27 65 46 66 47 67
REMARK SMILES IDX 51 68 48 69 50 70 49 71 36 72 37 73 41 74 38 75 40 76 39 77
REMARK H PARENT 7 6 12 26 56 45 34 56
REMARK Flexibility Score: inf
ROOT
ATOM      1  C   UNL A   1      36.236  21.074  25.679  1.00  0.00     0.023 C 
ENDROOT
BRANCH   1   2
ATOM      2  C   UNL A   1      35.137  21.603  24.755  1.00  0.00     0.116 C 
BRANCH   2   3
ATOM      3  N   UNL A   1      33.875  20.945  24.946  1.00  0.00    -0.351 N 
ATOM      4  C   UNL A   1      32.595  21.356  25.205  1.00  0.00     0.273 C 
ATOM      5  O   UNL A   1      31.784  20.420  25.172  1.00  0.00    -0.267 OA
ATOM      6  H   UNL A   1      33.948  19.966  24.875  1.00  0.00     0.163 HD
BRANCH   4   7
ATOM      7  C   UNL A   1      32.138  22.718  25.529  1.00  0.00     0.173 A 
ATOM      8  C   UNL A   1      31.940  23.951  24.872  1.00  0.00     0.071 A 
ATOM      9  N   UNL A   1      31.521  24.776  25.898  1.00  0.00    -0.248 N 
ATOM     10  N   UNL A   1      31.782  22.885  26.857  1.00  0.00    -0.125 NA
ATOM     11  N   UNL A   1      31.416  24.126  27.060  1.00  0.00    -0.066 NA
BRANCH   8  12
ATOM     12  C   UNL A   1      32.090  24.356  23.438  1.00  0.00     0.055 C 
ATOM     13  C   UNL A   1      33.282  23.957  22.589  1.00  0.00     0.011 C 
ENDBRANCH   8  12
BRANCH   9  14
ATOM     14  C   UNL A   1      31.243  26.193  25.944  1.00  0.00     0.150 C 
BRANCH  14  15
ATOM     15  C   UNL A   1      32.254  26.980  26.782  1.00  0.00     0.014 C 
ATOM     16  C   UNL A   1      33.663  27.022  26.147  1.00  0.00     0.009 C 
ATOM     17  C   UNL A   1      31.898  28.487  26.916  1.00  0.00    -0.006 C 
ATOM     18  C   UNL A   1      33.867  28.520  25.882  1.00  0.00    -0.011 C 
ATOM     19  C   UNL A   1      31.546  29.091  25.549  1.00  0.00     0.004 C 
ATOM     20  C   UNL A   1      33.269  29.124  27.152  1.00  0.00     0.007 C 
ATOM     21  C   UNL A   1      32.875  28.973  24.789  1.00  0.00     0.004 C 
ENDBRANCH  14  15
ENDBRANCH   9  14
ENDBRANCH   4   7
ENDBRANCH   2   3
ENDBRANCH   1   2
BRANCH   1  22
ATOM     22  C   UNL A   1      37.255  20.148  25.000  1.00  0.00     0.023 C 
BRANCH  22  23
ATOM     23  C   UNL A   1      38.713  20.524  25.242  1.00  0.00     0.116 C 
BRANCH  23  24
ATOM     24  N   UNL A   1      39.565  19.393  25.640  1.00  0.00    -0.352 N 
ATOM     25  C   UNL A   1      40.916  19.409  25.978  1.00  0.00     0.251 C 
ATOM     26  H   UNL A   1      39.125  18.514  25.671  1.00  0.00     0.163 HD
ATOM     27  O   UNL A   1      41.607  18.409  25.922  1.00  0.00    -0.269 OA
BRANCH  25  28
ATOM     28  C   UNL A   1      41.475  20.681  26.469  1.00  0.00     0.039 A 
ATOM     29  C   UNL A   1      42.391  21.472  25.764  1.00  0.00     0.014 A 
ATOM     30  C   UNL A   1      40.956  21.103  27.681  1.00  0.00     0.014 A 
ATOM     31  C   UNL A   1      42.749  22.707  26.307  1.00  0.00     0.010 A 
ATOM     32  C   UNL A   1      41.025  22.421  27.991  1.00  0.00     0.010 A 
ATOM     33  C   UNL A   1      42.057  23.156  27.436  1.00  0.00    -0.014 A 
BRANCH  33  34
ATOM     34  C   UNL A   1      42.334  24.387  28.152  1.00  0.00     0.031 A 
ATOM     35  C   UNL A   1      41.295  25.436  28.029  1.00  0.00     0.074 A 
ATOM     36  C   UNL A   1      43.271  24.387  29.130  1.00  0.00     0.049 A 
ATOM     37  N   UNL A   1      41.435  26.614  27.526  1.00  0.00    -0.248 NA
ATOM     38  C   UNL A   1      39.906  25.104  28.390  1.00  0.00     0.031 C 
ATOM     39  C   UNL A   1      44.116  23.274  29.601  1.00  0.00     0.029 A 
ATOM     40  N   UNL A   1      43.549  25.355  30.036  1.00  0.00    -0.354 N 
ATOM     41  C   UNL A   1      40.201  27.241  27.653  1.00  0.00     0.074 A 
ATOM     42  C   UNL A   1      39.262  26.211  28.016  1.00  0.00     0.031 C 
ATOM     43  C   UNL A   1      44.602  23.560  30.831  1.00  0.00     0.029 A 
ATOM     44  C   UNL A   1      44.234  24.923  31.165  1.00  0.00     0.049 A 
ATOM     45  H   UNL A   1      43.285  26.294  29.903  1.00  0.00     0.167 HD
ATOM     46  C   UNL A   1      40.089  28.599  27.660  1.00  0.00     0.031 A 
ATOM     47  C   UNL A   1      44.429  25.629  32.310  1.00  0.00     0.031 A 
ATOM     48  C   UNL A   1      41.338  29.225  27.301  1.00  0.00     0.049 A 
ATOM     49  C   UNL A   1      44.201  27.060  31.974  1.00  0.00     0.074 A 
ATOM     50  C   UNL A   1      42.125  29.221  26.167  1.00  0.00     0.029 A 
ATOM     51  N   UNL A   1      42.159  29.614  28.337  1.00  0.00    -0.354 N 
ATOM     52  N   UNL A   1      44.964  27.722  31.150  1.00  0.00    -0.248 NA
ATOM     53  C   UNL A   1      42.851  27.585  32.127  1.00  0.00     0.031 C 
ATOM     54  C   UNL A   1      43.459  29.110  26.657  1.00  0.00     0.029 A 
ATOM     55  C   UNL A   1      43.422  29.156  28.053  1.00  0.00     0.049 A 
ATOM     56  H   UNL A   1      41.890  30.126  29.133  1.00  0.00     0.167 HD
ATOM     57  C   UNL A   1      44.086  28.448  30.356  1.00  0.00     0.074 A 
ATOM     58  C   UNL A   1      42.805  28.397  31.063  1.00  0.00     0.031 C 
ATOM     59  C   UNL A   1      44.386  28.751  29.056  1.00  0.00     0.031 A 
BRANCH  46  60
ATOM     60  C   UNL A   1      38.989  29.373  28.330  1.00  0.00    -0.014 A 
ATOM     61  C   UNL A   1      38.916  29.354  29.735  1.00  0.00     0.009 A 
ATOM     62  C   UNL A   1      37.882  29.907  27.646  1.00  0.00     0.009 A 
ATOM     63  C   UNL A   1      37.767  29.779  30.412  1.00  0.00     0.001 A 
ATOM     64  C   UNL A   1      36.749  30.369  28.321  1.00  0.00     0.001 A 
ATOM     65  C   UNL A   1      36.680  30.278  29.704  1.00  0.00     0.000 A 
ENDBRANCH  46  60
BRANCH  47  66
ATOM     66  C   UNL A   1      44.480  25.117  33.702  1.00  0.00    -0.014 A 
ATOM     67  C   UNL A   1      45.531  25.449  34.571  1.00  0.00     0.009 A 
ATOM     68  C   UNL A   1      43.348  24.498  34.267  1.00  0.00     0.009 A 
ATOM     69  C   UNL A   1      45.438  25.200  35.951  1.00  0.00     0.001 A 
ATOM     70  C   UNL A   1      43.253  24.247  35.642  1.00  0.00     0.001 A 
ATOM     71  C   UNL A   1      44.294  24.612  36.486  1.00  0.00     0.000 A 
ENDBRANCH  47  66
BRANCH  59  72
ATOM     72  C   UNL A   1      45.767  28.401  28.541  1.00  0.00    -0.014 A 
ATOM     73  C   UNL A   1      46.094  27.140  28.007  1.00  0.00     0.009 A 
ATOM     74  C   UNL A   1      46.707  29.432  28.406  1.00  0.00     0.009 A 
ATOM     75  C   UNL A   1      47.325  26.913  27.381  1.00  0.00     0.001 A 
ATOM     76  C   UNL A   1      47.928  29.213  27.762  1.00  0.00     0.001 A 
ATOM     77  C   UNL A   1      48.239  27.955  27.253  1.00  0.00     0.000 A 
ENDBRANCH  59  72
ENDBRANCH  33  34
ENDBRANCH  25  28
ENDBRANCH  23  24
ENDBRANCH  22  23
ENDBRANCH   1  22
TORSDOF 14
ENDMDL
MODEL 2
REMARK VINA RESULT:     -11.4      4.377      9.285
REMARK SMILES CCc1c(C(=O)NCCCCNC(=O)c2ccc(-c3c4nc(c(-c5ccccc5)c5ccc([nH]5)c(-c5ccccc5)c5nc(c(-c6ccccc6)c6ccc3[nH]6)C=C5)C=C4)cc2)nnn1C[C@H]1C[C@H]2CC[C@@H]1C2
REMARK SMILES IDX 9 1 8 2 7 3 5 4 6 5 4 7 3 8 65 9 63 10 64 11 2 12 1 13 66 14
REMARK SMILES IDX 67 15 68 16 72 17 69 18 71 19 73 20 70 21 10 22 11 23 12 24
REMARK SMILES IDX 13 25 14 27 15 28 16 29 62 30 17 31 61 32 18 33 19 34 20 35
REMARK SMILES IDX 55 36 21 37 60 38 54 39 56 40 22 41 59 42 53 43 52 44 23 46
REMARK SMILES IDX 45 47 30 48 44 49 31 50 34 51 43 52 57 53 32 54 33 55 42 57
REMARK SMILES IDX 58 58 35 59 24 60 25 61 29 62 26 63 28 64 27 65 46 66 47 67
REMARK SMILES IDX 51 68 48 69 50 70 49 71 36 72 37 73 41 74 38 75 40 76 39 77
REMARK H PARENT 7 6 12 26 56 45 34 56
REMARK Flexibility Score: inf
ROOT
ATOM      1  C   UNL A   1      31.970  30.519  25.729  1.00  0.00     0.023 C 
ENDROOT
BRANCH   1   2
ATOM      2  C   UNL A   1      30.904  29.574  25.172  1.00  0.00     0.116 C 
BRANCH   2   3
ATOM      3  N   UNL A   1      30.790  29.634  23.742  1.00  0.00    -0.351 N 
ATOM      4  C   UNL A   1      31.119  28.802  22.706  1.00  0.00     0.273 C 
ATOM      5  O   UNL A   1      30.717  29.227  21.614  1.00  0.00    -0.267 OA
ATOM      6  H   UNL A   1      30.378  30.473  23.433  1.00  0.00     0.163 HD
BRANCH   4   7
ATOM      7  C   UNL A   1      31.886  27.545  22.772  1.00  0.00     0.173 A 
ATOM      8  C   UNL A   1      33.006  27.026  23.453  1.00  0.00     0.071 A 
ATOM      9  N   UNL A   1      33.119  25.754  22.923  1.00  0.00    -0.248 N 
ATOM     10  N   UNL A   1      31.395  26.549  21.944  1.00  0.00    -0.125 NA
ATOM     11  N   UNL A   1      32.149  25.484  22.047  1.00  0.00    -0.066 NA
BRANCH   8  12
ATOM     12  C   UNL A   1      33.894  27.608  24.511  1.00  0.00     0.055 C 
ATOM     13  C   UNL A   1      33.743  27.281  25.984  1.00  0.00     0.011 C 
ENDBRANCH   8  12
BRANCH   9  14
ATOM     14  C   UNL A   1      34.111  24.720  23.102  1.00  0.00     0.150 C 
BRANCH  14  15
ATOM     15  C   UNL A   1      33.812  23.794  24.284  1.00  0.00     0.014 C 
ATOM     16  C   UNL A   1      33.849  22.296  23.903  1.00  0.00     0.009 C 
ATOM     17  C   UNL A   1      34.875  23.881  25.416  1.00  0.00    -0.006 C 
ATOM     18  C   UNL A   1      35.004  21.760  24.760  1.00  0.00    -0.011 C 
ATOM     19  C   UNL A   1      36.296  23.796  24.841  1.00  0.00     0.004 C 
ATOM     20  C   UNL A   1      34.763  22.504  26.072  1.00  0.00     0.007 C 
ATOM     21  C   UNL A   1      36.327  22.377  24.255  1.00  0.00     0.004 C 
ENDBRANCH  14  15
ENDBRANCH   9  14
ENDBRANCH   4   7
ENDBRANCH   2   3
ENDBRANCH   1   2
BRANCH   1  22
ATOM     22  C   UNL A   1      31.420  31.807  26.358  1.00  0.00     0.023 C 
BRANCH  22  23
ATOM     23  C   UNL A   1      32.274  32.375  27.488  1.00  0.00     0.116 C 
BRANCH  23  24
ATOM     24  N   UNL A   1      32.255  33.843  27.573  1.00  0.00    -0.352 N 
ATOM     25  C   UNL A   1      32.971  34.666  28.438  1.00  0.00     0.251 C 
ATOM     26  H   UNL A   1      31.660  34.302  26.937  1.00  0.00     0.163 HD
ATOM     27  O   UNL A   1      32.617  35.802  28.689  1.00  0.00    -0.269 OA
BRANCH  25  28
ATOM     28  C   UNL A   1      34.220  34.126  29.004  1.00  0.00     0.039 A 
ATOM     29  C   UNL A   1      34.374  33.698  30.328  1.00  0.00     0.014 A 
ATOM     30  C   UNL A   1      35.249  33.989  28.089  1.00  0.00     0.014 A 
ATOM     31  C   UNL A   1      35.585  33.108  30.693  1.00  0.00     0.010 A 
ATOM     32  C   UNL A   1      36.240  33.104  28.356  1.00  0.00     0.010 A 
ATOM     33  C   UNL A   1      36.514  32.832  29.685  1.00  0.00    -0.014 A 
BRANCH  33  34
ATOM     34  C   UNL A   1      37.834  32.269  29.895  1.00  0.00     0.031 A 
ATOM     35  C   UNL A   1      38.004  30.871  29.437  1.00  0.00     0.074 A 
ATOM     36  C   UNL A   1      38.878  33.100  30.133  1.00  0.00     0.049 A 
ATOM     37  N   UNL A   1      38.309  29.848  30.159  1.00  0.00    -0.248 NA
ATOM     38  C   UNL A   1      37.680  30.537  28.039  1.00  0.00     0.031 C 
ATOM     39  C   UNL A   1      38.883  34.572  30.235  1.00  0.00     0.029 A 
ATOM     40  N   UNL A   1      40.200  32.810  30.167  1.00  0.00    -0.354 N 
ATOM     41  C   UNL A   1      38.380  28.765  29.291  1.00  0.00     0.074 A 
ATOM     42  C   UNL A   1      37.808  29.209  28.046  1.00  0.00     0.031 C 
ATOM     43  C   UNL A   1      40.143  35.034  30.064  1.00  0.00     0.029 A 
ATOM     44  C   UNL A   1      41.045  33.900  29.997  1.00  0.00     0.049 A 
ATOM     45  H   UNL A   1      40.537  31.895  30.302  1.00  0.00     0.167 HD
ATOM     46  C   UNL A   1      39.103  27.651  29.598  1.00  0.00     0.031 A 
ATOM     47  C   UNL A   1      42.383  33.856  29.763  1.00  0.00     0.031 A 
ATOM     48  C   UNL A   1      39.549  27.684  30.969  1.00  0.00     0.049 A 
ATOM     49  C   UNL A   1      42.844  32.504  30.177  1.00  0.00     0.074 A 
ATOM     50  C   UNL A   1      38.906  27.694  32.190  1.00  0.00     0.029 A 
ATOM     51  N   UNL A   1      40.817  28.172  31.198  1.00  0.00    -0.354 N 
ATOM     52  N   UNL A   1      42.804  32.092  31.414  1.00  0.00    -0.248 NA
ATOM     53  C   UNL A   1      42.844  31.450  29.173  1.00  0.00     0.031 C 
ATOM     54  C   UNL A   1      39.629  28.644  32.968  1.00  0.00     0.029 A 
ATOM     55  C   UNL A   1      40.727  29.082  32.222  1.00  0.00     0.049 A 
ATOM     56  H   UNL A   1      41.636  27.915  30.718  1.00  0.00     0.167 HD
ATOM     57  C   UNL A   1      42.323  30.791  31.341  1.00  0.00     0.074 A 
ATOM     58  C   UNL A   1      42.455  30.418  29.931  1.00  0.00     0.031 C 
ATOM     59  C   UNL A   1      41.573  30.251  32.350  1.00  0.00     0.031 A 
BRANCH  46  60
ATOM     60  C   UNL A   1      39.718  26.715  28.595  1.00  0.00    -0.014 A 
ATOM     61  C   UNL A   1      40.423  27.266  27.509  1.00  0.00     0.009 A 
ATOM     62  C   UNL A   1      39.425  25.342  28.528  1.00  0.00     0.009 A 
ATOM     63  C   UNL A   1      40.752  26.496  26.387  1.00  0.00     0.001 A 
ATOM     64  C   UNL A   1      39.786  24.561  27.426  1.00  0.00     0.001 A 
ATOM     65  C   UNL A   1      40.424  25.147  26.342  1.00  0.00     0.000 A 
ENDBRANCH  46  60
BRANCH  47  66
ATOM     66  C   UNL A   1      43.195  34.773  28.925  1.00  0.00    -0.014 A 
ATOM     67  C   UNL A   1      43.303  34.599  27.536  1.00  0.00     0.009 A 
ATOM     68  C   UNL A   1      43.667  35.986  29.461  1.00  0.00     0.009 A 
ATOM     69  C   UNL A   1      43.832  35.611  26.717  1.00  0.00     0.001 A 
ATOM     70  C   UNL A   1      44.197  36.996  28.647  1.00  0.00     0.001 A 
ATOM     71  C   UNL A   1      44.266  36.813  27.272  1.00  0.00     0.000 A 
ENDBRANCH  47  66
BRANCH  59  72
ATOM     72  C   UNL A   1      41.398  31.057  33.620  1.00  0.00    -0.014 A 
ATOM     73  C   UNL A   1      40.407  32.046  33.777  1.00  0.00     0.009 A 
ATOM     74  C   UNL A   1      42.121  30.671  34.757  1.00  0.00     0.009 A 
ATOM     75  C   UNL A   1      40.164  32.640  35.020  1.00  0.00     0.001 A 
ATOM     76  C   UNL A   1      41.866  31.248  36.004  1.00  0.00     0.001 A 
ATOM     77  C   UNL A   1      40.891  32.234  36.136  1.00  0.00     0.000 A 
ENDBRANCH  59  72
ENDBRANCH  33  34
ENDBRANCH  25  28
ENDBRANCH  23  24
ENDBRANCH  22  23
ENDBRANCH   1  22
TORSDOF 14
ENDMDL
MODEL 3
REMARK VINA RESULT:     -11.1      3.111      7.295
REMARK SMILES CCc1c(C(=O)NCCCCNC(=O)c2ccc(-c3c4nc(c(-c5ccccc5)c5ccc([nH]5)c(-c5ccccc5)c5nc(c(-c6ccccc6)c6ccc3[nH]6)C=C5)C=C4)cc2)nnn1C[C@H]1C[C@H]2CC[C@@H]1C2
REMARK SMILES IDX 9 1 8 2 7 3 5 4 6 5 4 7 3 8 65 9 63 10 64 11 2 12 1 13 66 14
REMARK SMILES IDX 67 15 68 16 72 17 69 18 71 19 73 20 70 21 10 22 11 23 12 24
REMARK SMILES IDX 13 25 14 27 15 28 16 29 62 30 17 31 61 32 18 33 19 34 20 35
REMARK SMILES IDX 55 36 21 37 60 38 54 39 56 40 22 41 59 42 53 43 52 44 23 46
REMARK SMILES IDX 45 47 30 48 44 49 31 50 34 51 43 52 57 53 32 54 33 55 42 57
REMARK SMILES IDX 58 58 35 59 24 60 25 61 29 62 26 63 28 64 27 65 46 66 47 67
REMARK SMILES IDX 51 68 48 69 50 70 49 71 36 72 37 73 41 74 38 75 40 76 39 77
REMARK H PARENT 7 6 12 26 56 45 34 56
REMARK Flexibility Score: inf
ROOT
ATOM      1  C   UNL A   1      31.719  29.490  25.476  1.00  0.00     0.023 C 
ENDROOT
BRANCH   1   2
ATOM      2  C   UNL A   1      31.509  29.096  24.012  1.00  0.00     0.116 C 
BRANCH   2   3
ATOM      3  N   UNL A   1      30.358  28.261  23.813  1.00  0.00    -0.351 N 
ATOM      4  C   UNL A   1      29.963  27.030  24.262  1.00  0.00     0.273 C 
ATOM      5  O   UNL A   1      28.808  26.749  23.912  1.00  0.00    -0.267 OA
ATOM      6  H   UNL A   1      29.697  28.670  23.209  1.00  0.00     0.163 HD
BRANCH   4   7
ATOM      7  C   UNL A   1      30.752  26.064  25.045  1.00  0.00     0.173 A 
ATOM      8  C   UNL A   1      32.049  25.509  25.042  1.00  0.00     0.071 A 
ATOM      9  N   UNL A   1      32.002  24.624  26.102  1.00  0.00    -0.248 N 
ATOM     10  N   UNL A   1      30.061  25.516  26.114  1.00  0.00    -0.125 NA
ATOM     11  N   UNL A   1      30.826  24.654  26.734  1.00  0.00    -0.066 NA
BRANCH   8  12
ATOM     12  C   UNL A   1      33.245  25.765  24.177  1.00  0.00     0.055 C 
ATOM     13  C   UNL A   1      33.606  24.893  22.990  1.00  0.00     0.011 C 
ENDBRANCH   8  12
BRANCH   9  14
ATOM     14  C   UNL A   1      32.954  23.655  26.593  1.00  0.00     0.150 C 
BRANCH  14  15
ATOM     15  C   UNL A   1      32.551  22.208  26.297  1.00  0.00     0.014 C 
ATOM     16  C   UNL A   1      32.266  21.954  24.799  1.00  0.00     0.009 C 
ATOM     17  C   UNL A   1      33.677  21.182  26.606  1.00  0.00    -0.006 C 
ATOM     18  C   UNL A   1      33.343  20.926  24.423  1.00  0.00    -0.011 C 
ATOM     19  C   UNL A   1      35.015  21.640  26.009  1.00  0.00     0.004 C 
ATOM     20  C   UNL A   1      33.335  20.030  25.660  1.00  0.00     0.007 C 
ATOM     21  C   UNL A   1      34.728  21.605  24.501  1.00  0.00     0.004 C 
ENDBRANCH  14  15
ENDBRANCH   9  14
ENDBRANCH   4   7
ENDBRANCH   2   3
ENDBRANCH   1   2
BRANCH   1  22
ATOM     22  C   UNL A   1      33.083  29.093  26.058  1.00  0.00     0.023 C 
BRANCH  22  23
ATOM     23  C   UNL A   1      33.378  29.676  27.436  1.00  0.00     0.116 C 
BRANCH  23  24
ATOM     24  N   UNL A   1      33.698  31.112  27.422  1.00  0.00    -0.352 N 
ATOM     25  C   UNL A   1      34.782  31.759  28.009  1.00  0.00     0.251 C 
ATOM     26  H   UNL A   1      33.065  31.689  26.937  1.00  0.00     0.163 HD
ATOM     27  O   UNL A   1      34.763  32.948  28.265  1.00  0.00    -0.269 OA
BRANCH  25  28
ATOM     28  C   UNL A   1      35.993  30.956  28.258  1.00  0.00     0.039 A 
ATOM     29  C   UNL A   1      36.249  29.704  27.687  1.00  0.00     0.014 A 
ATOM     30  C   UNL A   1      36.934  31.578  29.060  1.00  0.00     0.014 A 
ATOM     31  C   UNL A   1      37.488  29.109  27.930  1.00  0.00     0.010 A 
ATOM     32  C   UNL A   1      38.225  31.172  28.977  1.00  0.00     0.010 A 
ATOM     33  C   UNL A   1      38.462  29.864  28.594  1.00  0.00    -0.014 A 
BRANCH  33  34
ATOM     34  C   UNL A   1      39.779  29.385  28.968  1.00  0.00     0.031 A 
ATOM     35  C   UNL A   1      39.936  29.027  30.397  1.00  0.00     0.074 A 
ATOM     36  C   UNL A   1      40.629  28.960  28.002  1.00  0.00     0.049 A 
ATOM     37  N   UNL A   1      40.745  29.560  31.247  1.00  0.00    -0.248 NA
ATOM     38  C   UNL A   1      39.007  28.050  30.990  1.00  0.00     0.031 C 
ATOM     39  C   UNL A   1      40.422  28.920  26.542  1.00  0.00     0.029 A 
ATOM     40  N   UNL A   1      41.808  28.310  28.139  1.00  0.00    -0.354 N 
ATOM     41  C   UNL A   1      40.554  28.881  32.445  1.00  0.00     0.074 A 
ATOM     42  C   UNL A   1      39.355  28.100  32.277  1.00  0.00     0.031 C 
ATOM     43  C   UNL A   1      41.310  28.067  25.982  1.00  0.00     0.029 A 
ATOM     44  C   UNL A   1      42.236  27.625  27.008  1.00  0.00     0.049 A 
ATOM     45  H   UNL A   1      42.324  28.322  28.978  1.00  0.00     0.167 HD
ATOM     46  C   UNL A   1      41.517  28.849  33.408  1.00  0.00     0.031 A 
ATOM     47  C   UNL A   1      43.247  26.720  26.946  1.00  0.00     0.031 A 
ATOM     48  C   UNL A   1      42.588  29.764  33.101  1.00  0.00     0.049 A 
ATOM     49  C   UNL A   1      44.089  26.938  28.153  1.00  0.00     0.074 A 
ATOM     50  C   UNL A   1      42.672  31.134  32.958  1.00  0.00     0.029 A 
ATOM     51  N   UNL A   1      43.684  29.241  32.449  1.00  0.00    -0.354 N 
ATOM     52  N   UNL A   1      44.763  28.035  28.356  1.00  0.00    -0.248 NA
ATOM     53  C   UNL A   1      43.762  26.180  29.354  1.00  0.00     0.031 C 
ATOM     54  C   UNL A   1      43.508  31.324  31.820  1.00  0.00     0.029 A 
ATOM     55  C   UNL A   1      43.970  30.075  31.396  1.00  0.00     0.049 A 
ATOM     56  H   UNL A   1      44.172  28.422  32.693  1.00  0.00     0.167 HD
ATOM     57  C   UNL A   1      44.553  28.340  29.695  1.00  0.00     0.074 A 
ATOM     58  C   UNL A   1      44.008  27.113  30.282  1.00  0.00     0.031 C 
ATOM     59  C   UNL A   1      44.538  29.634  30.138  1.00  0.00     0.031 A 
BRANCH  46  60
ATOM     60  C   UNL A   1      41.686  27.756  34.426  1.00  0.00    -0.014 A 
ATOM     61  C   UNL A   1      41.624  28.095  35.790  1.00  0.00     0.009 A 
ATOM     62  C   UNL A   1      42.151  26.466  34.116  1.00  0.00     0.009 A 
ATOM     63  C   UNL A   1      42.072  27.216  36.782  1.00  0.00     0.001 A 
ATOM     64  C   UNL A   1      42.563  25.570  35.107  1.00  0.00     0.001 A 
ATOM     65  C   UNL A   1      42.551  25.957  36.439  1.00  0.00     0.000 A 
ENDBRANCH  46  60
BRANCH  47  66
ATOM     66  C   UNL A   1      43.336  25.504  26.100  1.00  0.00    -0.014 A 
ATOM     67  C   UNL A   1      44.463  25.241  25.304  1.00  0.00     0.009 A 
ATOM     68  C   UNL A   1      42.408  24.459  26.269  1.00  0.00     0.009 A 
ATOM     69  C   UNL A   1      44.665  23.975  24.730  1.00  0.00     0.001 A 
ATOM     70  C   UNL A   1      42.607  23.196  25.695  1.00  0.00     0.001 A 
ATOM     71  C   UNL A   1      43.744  22.950  24.937  1.00  0.00     0.000 A 
ENDBRANCH  47  66
BRANCH  59  72
ATOM     72  C   UNL A   1      44.898  30.730  29.156  1.00  0.00    -0.014 A 
ATOM     73  C   UNL A   1      43.966  31.315  28.277  1.00  0.00     0.009 A 
ATOM     74  C   UNL A   1      46.162  31.325  29.261  1.00  0.00     0.009 A 
ATOM     75  C   UNL A   1      44.296  32.441  27.515  1.00  0.00     0.001 A 
ATOM     76  C   UNL A   1      46.486  32.463  28.515  1.00  0.00     0.001 A 
ATOM     77  C   UNL A   1      45.556  33.018  27.640  1.00  0.00     0.000 A 
ENDBRANCH  59  72
ENDBRANCH  33  34
ENDBRANCH  25  28
ENDBRANCH  23  24
ENDBRANCH  22  23
ENDBRANCH   1  22
TORSDOF 14
ENDMDL
