MODEL 1
REMARK VINA RESULT:     -11.7      0.000      0.000
REMARK SMILES O=C(NCCCCNC(=O)[C@@H]1Cc2[nH]cnc2CN1C(=O)NCC(F)(F)F)c1ccc(-c2c3nc(c(-c4ccccc4)c4ccc([nH]4)c(-c4ccccc4)c4nc(c(-c5ccccc5)c5ccc2[nH]5)C=C4)C=C3)cc1
REMARK SMILES IDX 6 1 5 2 4 3 3 4 1 5 2 6 28 8 29 9 75 10 30 11 74 12 31 13
REMARK SMILES IDX 32 14 33 15 68 16 34 17 73 18 67 19 69 20 35 21 72 22 66 23
REMARK SMILES IDX 65 24 36 26 58 27 43 28 57 29 44 30 47 31 56 32 70 33 45 34
REMARK SMILES IDX 46 35 55 37 71 38 48 39 37 40 38 41 42 42 39 43 41 44 40 45
REMARK SMILES IDX 59 46 60 47 64 48 61 49 63 50 62 51 49 52 50 53 54 54 51 55
REMARK SMILES IDX 53 56 52 57 7 58 8 59 9 60 10 62 11 63 12 64 19 65 13 66
REMARK SMILES IDX 18 67 14 68 17 69 15 70 16 72 20 73 21 74 22 75 23 77 24 78
REMARK SMILES IDX 25 79 26 80 27 81
REMARK H PARENT 3 7 69 25 47 36 8 61 14 71 22 76
REMARK Flexibility Score: inf
ROOT
ATOM      1  C   UNL A   1      33.799  28.766  26.529  1.00  0.00     0.023 C 
ENDROOT
BRANCH   1   2
ATOM      2  C   UNL A   1      34.669  29.447  27.581  1.00  0.00     0.023 C 
BRANCH   2   3
ATOM      3  C   UNL A   1      34.675  30.978  27.580  1.00  0.00     0.116 C 
BRANCH   3   4
ATOM      4  N   UNL A   1      34.683  31.623  28.876  1.00  0.00    -0.352 N 
ATOM      5  O   UNL A   1      35.382  32.655  30.704  1.00  0.00    -0.269 OA
ATOM      6  C   UNL A   1      35.631  31.816  29.851  1.00  0.00     0.251 C 
ATOM      7  H   UNL A   1      33.809  32.010  29.114  1.00  0.00     0.163 HD
BRANCH   6   8
ATOM      8  C   UNL A   1      36.875  31.011  29.978  1.00  0.00     0.039 A 
ATOM      9  C   UNL A   1      38.152  31.429  29.613  1.00  0.00     0.014 A 
ATOM     10  C   UNL A   1      36.707  29.697  30.452  1.00  0.00     0.014 A 
ATOM     11  C   UNL A   1      39.205  30.524  29.569  1.00  0.00     0.010 A 
ATOM     12  C   UNL A   1      37.764  28.795  30.456  1.00  0.00     0.010 A 
ATOM     13  C   UNL A   1      39.001  29.200  29.964  1.00  0.00    -0.014 A 
BRANCH  13  14
ATOM     14  C   UNL A   1      40.164  28.323  30.011  1.00  0.00     0.031 A 
ATOM     15  C   UNL A   1      40.795  28.216  31.356  1.00  0.00     0.074 A 
ATOM     16  C   UNL A   1      40.566  27.552  28.983  1.00  0.00     0.049 A 
ATOM     17  N   UNL A   1      42.002  28.525  31.702  1.00  0.00    -0.248 NA
ATOM     18  C   UNL A   1      39.931  27.814  32.478  1.00  0.00     0.031 C 
ATOM     19  C   UNL A   1      39.875  27.328  27.712  1.00  0.00     0.029 A 
ATOM     20  N   UNL A   1      41.628  26.699  28.917  1.00  0.00    -0.354 N 
ATOM     21  C   UNL A   1      42.110  28.184  33.050  1.00  0.00     0.074 A 
ATOM     22  C   UNL A   1      40.774  27.898  33.506  1.00  0.00     0.031 C 
ATOM     23  C   UNL A   1      40.397  26.233  27.114  1.00  0.00     0.029 A 
ATOM     24  C   UNL A   1      41.531  25.763  27.894  1.00  0.00     0.049 A 
ATOM     25  H   UNL A   1      42.392  26.741  29.535  1.00  0.00     0.167 HD
ATOM     26  C   UNL A   1      43.314  27.915  33.626  1.00  0.00     0.031 A 
ATOM     27  C   UNL A   1      42.275  24.640  27.746  1.00  0.00     0.031 A 
ATOM     28  C   UNL A   1      44.410  28.445  32.858  1.00  0.00     0.049 A 
ATOM     29  C   UNL A   1      43.493  24.783  28.572  1.00  0.00     0.074 A 
ATOM     30  C   UNL A   1      44.792  29.698  32.421  1.00  0.00     0.029 A 
ATOM     31  N   UNL A   1      45.153  27.553  32.124  1.00  0.00    -0.354 N 
ATOM     32  N   UNL A   1      44.458  25.612  28.301  1.00  0.00    -0.248 NA
ATOM     33  C   UNL A   1      43.463  24.285  29.938  1.00  0.00     0.031 C 
ATOM     34  C   UNL A   1      45.376  29.480  31.138  1.00  0.00     0.029 A 
ATOM     35  C   UNL A   1      45.358  28.107  30.892  1.00  0.00     0.049 A 
ATOM     36  H   UNL A   1      45.477  26.674  32.429  1.00  0.00     0.167 HD
ATOM     37  C   UNL A   1      44.874  26.083  29.536  1.00  0.00     0.074 A 
ATOM     38  C   UNL A   1      44.310  25.147  30.507  1.00  0.00     0.031 C 
ATOM     39  C   UNL A   1      45.392  27.339  29.669  1.00  0.00     0.031 A 
BRANCH  26  40
ATOM     40  C   UNL A   1      43.512  26.771  34.602  1.00  0.00    -0.014 A 
ATOM     41  C   UNL A   1      43.404  25.453  34.118  1.00  0.00     0.009 A 
ATOM     42  C   UNL A   1      43.467  26.930  36.001  1.00  0.00     0.009 A 
ATOM     43  C   UNL A   1      43.124  24.382  34.974  1.00  0.00     0.001 A 
ATOM     44  C   UNL A   1      43.235  25.855  36.863  1.00  0.00     0.001 A 
ATOM     45  C   UNL A   1      43.021  24.587  36.345  1.00  0.00     0.000 A 
ENDBRANCH  26  40
BRANCH  27  46
ATOM     46  C   UNL A   1      41.882  23.342  27.155  1.00  0.00    -0.014 A 
ATOM     47  C   UNL A   1      42.789  22.600  26.381  1.00  0.00     0.009 A 
ATOM     48  C   UNL A   1      40.701  22.702  27.569  1.00  0.00     0.009 A 
ATOM     49  C   UNL A   1      42.539  21.257  26.068  1.00  0.00     0.001 A 
ATOM     50  C   UNL A   1      40.447  21.364  27.251  1.00  0.00     0.001 A 
ATOM     51  C   UNL A   1      41.374  20.637  26.513  1.00  0.00     0.000 A 
ENDBRANCH  27  46
BRANCH  39  52
ATOM     52  C   UNL A   1      45.766  28.089  28.418  1.00  0.00    -0.014 A 
ATOM     53  C   UNL A   1      47.041  28.011  27.830  1.00  0.00     0.009 A 
ATOM     54  C   UNL A   1      44.755  28.778  27.732  1.00  0.00     0.009 A 
ATOM     55  C   UNL A   1      47.303  28.636  26.607  1.00  0.00     0.001 A 
ATOM     56  C   UNL A   1      45.011  29.384  26.501  1.00  0.00     0.001 A 
ATOM     57  C   UNL A   1      46.286  29.318  25.943  1.00  0.00     0.000 A 
ENDBRANCH  39  52
ENDBRANCH  13  14
ENDBRANCH   6   8
ENDBRANCH   3   4
ENDBRANCH   2   3
ENDBRANCH   1   2
BRANCH   1  58
ATOM     58  C   UNL A   1      32.300  28.983  26.654  1.00  0.00     0.116 C 
BRANCH  58  59
ATOM     59  N   UNL A   1      31.550  27.767  26.883  1.00  0.00    -0.354 N 
ATOM     60  C   UNL A   1      30.950  26.919  26.002  1.00  0.00     0.243 C 
ATOM     61  H   UNL A   1      31.457  27.511  27.830  1.00  0.00     0.163 HD
ATOM     62  O   UNL A   1      30.424  25.917  26.502  1.00  0.00    -0.273 OA
BRANCH  60  63
ATOM     63  C   UNL A   1      30.698  27.289  24.508  1.00  0.00     0.182 C 
ATOM     64  C   UNL A   1      29.765  26.210  23.863  1.00  0.00     0.091 C 
ATOM     65  N   UNL A   1      31.875  27.521  23.615  1.00  0.00    -0.306 N 
ATOM     66  C   UNL A   1      30.616  25.046  23.508  1.00  0.00     0.042 A 
ATOM     67  C   UNL A   1      32.783  26.354  23.430  1.00  0.00     0.180 C 
ATOM     68  N   UNL A   1      30.278  23.734  23.369  1.00  0.00    -0.348 N 
ATOM     69  C   UNL A   1      31.977  25.107  23.317  1.00  0.00     0.081 A 
ATOM     70  C   UNL A   1      31.444  23.054  23.125  1.00  0.00     0.197 A 
ATOM     71  H   UNL A   1      29.374  23.349  23.432  1.00  0.00     0.167 HD
ATOM     72  N   UNL A   1      32.486  23.858  23.087  1.00  0.00    -0.240 NA
BRANCH  65  73
ATOM     73  C   UNL A   1      32.269  28.673  23.006  1.00  0.00     0.318 C 
ATOM     74  O   UNL A   1      33.459  28.997  22.953  1.00  0.00    -0.249 OA
ATOM     75  N   UNL A   1      31.430  29.538  22.417  1.00  0.00    -0.329 N 
ATOM     76  H   UNL A   1      31.895  30.360  22.139  1.00  0.00     0.165 HD
BRANCH  75  77
ATOM     77  C   UNL A   1      30.006  29.582  22.080  1.00  0.00     0.233 C 
BRANCH  77  78
ATOM     78  C   UNL A   1      29.160  30.429  23.036  1.00  0.00     0.405 C 
ATOM     79  F   UNL A   1      27.935  29.882  23.209  1.00  0.00    -0.169 F 
ATOM     80  F   UNL A   1      29.748  30.509  24.251  1.00  0.00    -0.169 F 
ATOM     81  F   UNL A   1      28.992  31.690  22.581  1.00  0.00    -0.169 F 
ENDBRANCH  77  78
ENDBRANCH  75  77
ENDBRANCH  65  73
ENDBRANCH  60  63
ENDBRANCH  58  59
ENDBRANCH   1  58
TORSDOF 14
ENDMDL
MODEL 2
REMARK VINA RESULT:     -11.7      1.230      1.484
REMARK SMILES O=C(NCCCCNC(=O)[C@@H]1Cc2[nH]cnc2CN1C(=O)NCC(F)(F)F)c1ccc(-c2c3nc(c(-c4ccccc4)c4ccc([nH]4)c(-c4ccccc4)c4nc(c(-c5ccccc5)c5ccc2[nH]5)C=C4)C=C3)cc1
REMARK SMILES IDX 6 1 5 2 4 3 3 4 1 5 2 6 28 8 29 9 75 10 30 11 74 12 31 13
REMARK SMILES IDX 32 14 33 15 68 16 34 17 73 18 67 19 69 20 35 21 72 22 66 23
REMARK SMILES IDX 65 24 36 26 58 27 43 28 57 29 44 30 47 31 56 32 70 33 45 34
REMARK SMILES IDX 46 35 55 37 71 38 48 39 37 40 38 41 42 42 39 43 41 44 40 45
REMARK SMILES IDX 59 46 60 47 64 48 61 49 63 50 62 51 49 52 50 53 54 54 51 55
REMARK SMILES IDX 53 56 52 57 7 58 8 59 9 60 10 62 11 63 12 64 19 65 13 66
REMARK SMILES IDX 18 67 14 68 17 69 15 70 16 72 20 73 21 74 22 75 23 77 24 78
REMARK SMILES IDX 25 79 26 80 27 81
REMARK H PARENT 3 7 69 25 47 36 8 61 14 71 22 76
REMARK Flexibility Score: inf
ROOT
ATOM      1  C   UNL A   1      35.173  29.645  27.552  1.00  0.00     0.023 C 
ENDROOT
BRANCH   1   2
ATOM      2  C   UNL A   1      35.911  30.979  27.625  1.00  0.00     0.023 C 
BRANCH   2   3
ATOM      3  C   UNL A   1      35.118  32.172  28.166  1.00  0.00     0.116 C 
BRANCH   3   4
ATOM      4  N   UNL A   1      34.825  32.162  29.583  1.00  0.00    -0.352 N 
ATOM      5  O   UNL A   1      35.074  32.243  31.780  1.00  0.00    -0.269 OA
ATOM      6  C   UNL A   1      35.548  31.876  30.715  1.00  0.00     0.251 C 
ATOM      7  H   UNL A   1      33.895  32.417  29.781  1.00  0.00     0.163 HD
BRANCH   6   8
ATOM      8  C   UNL A   1      36.802  31.076  30.726  1.00  0.00     0.039 A 
ATOM      9  C   UNL A   1      38.085  31.576  30.514  1.00  0.00     0.014 A 
ATOM     10  C   UNL A   1      36.641  29.689  30.904  1.00  0.00     0.014 A 
ATOM     11  C   UNL A   1      39.156  30.711  30.329  1.00  0.00     0.010 A 
ATOM     12  C   UNL A   1      37.715  28.819  30.765  1.00  0.00     0.010 A 
ATOM     13  C   UNL A   1      38.963  29.332  30.426  1.00  0.00    -0.014 A 
BRANCH  13  14
ATOM     14  C   UNL A   1      40.141  28.478  30.340  1.00  0.00     0.031 A 
ATOM     15  C   UNL A   1      40.871  28.311  31.628  1.00  0.00     0.074 A 
ATOM     16  C   UNL A   1      40.478  27.772  29.244  1.00  0.00     0.049 A 
ATOM     17  N   UNL A   1      42.094  28.625  31.902  1.00  0.00    -0.248 NA
ATOM     18  C   UNL A   1      40.097  27.830  32.785  1.00  0.00     0.031 C 
ATOM     19  C   UNL A   1      39.701  27.604  28.016  1.00  0.00     0.029 A 
ATOM     20  N   UNL A   1      41.547  26.946  29.053  1.00  0.00    -0.354 N 
ATOM     21  C   UNL A   1      42.307  28.212  33.217  1.00  0.00     0.074 A 
ATOM     22  C   UNL A   1      41.012  27.875  33.752  1.00  0.00     0.031 C 
ATOM     23  C   UNL A   1      40.195  26.554  27.321  1.00  0.00     0.029 A 
ATOM     24  C   UNL A   1      41.390  26.066  27.990  1.00  0.00     0.049 A 
ATOM     25  H   UNL A   1      42.353  26.970  29.616  1.00  0.00     0.167 HD
ATOM     26  C   UNL A   1      43.553  27.937  33.689  1.00  0.00     0.031 A 
ATOM     27  C   UNL A   1      42.141  24.968  27.726  1.00  0.00     0.031 A 
ATOM     28  C   UNL A   1      44.581  28.531  32.875  1.00  0.00     0.049 A 
ATOM     29  C   UNL A   1      43.413  25.090  28.468  1.00  0.00     0.074 A 
ATOM     30  C   UNL A   1      44.910  29.814  32.483  1.00  0.00     0.029 A 
ATOM     31  N   UNL A   1      45.283  27.696  32.040  1.00  0.00    -0.354 N 
ATOM     32  N   UNL A   1      44.342  25.952  28.175  1.00  0.00    -0.248 NA
ATOM     33  C   UNL A   1      43.492  24.518  29.803  1.00  0.00     0.031 C 
ATOM     34  C   UNL A   1      45.401  29.678  31.150  1.00  0.00     0.029 A 
ATOM     35  C   UNL A   1      45.388  28.320  30.830  1.00  0.00     0.049 A 
ATOM     36  H   UNL A   1      45.643  26.808  32.271  1.00  0.00     0.167 HD
ATOM     37  C   UNL A   1      44.839  26.364  29.401  1.00  0.00     0.074 A 
ATOM     38  C   UNL A   1      44.364  25.365  30.357  1.00  0.00     0.031 C 
ATOM     39  C   UNL A   1      45.345  27.621  29.567  1.00  0.00     0.031 A 
BRANCH  26  40
ATOM     40  C   UNL A   1      43.841  26.746  34.583  1.00  0.00    -0.014 A 
ATOM     41  C   UNL A   1      43.700  25.454  34.040  1.00  0.00     0.009 A 
ATOM     42  C   UNL A   1      43.915  26.832  35.987  1.00  0.00     0.009 A 
ATOM     43  C   UNL A   1      43.501  24.337  34.860  1.00  0.00     0.001 A 
ATOM     44  C   UNL A   1      43.764  25.711  36.807  1.00  0.00     0.001 A 
ATOM     45  C   UNL A   1      43.514  24.469  36.243  1.00  0.00     0.000 A 
ENDBRANCH  26  40
BRANCH  27  46
ATOM     46  C   UNL A   1      41.726  23.696  27.093  1.00  0.00    -0.014 A 
ATOM     47  C   UNL A   1      42.547  23.065  26.143  1.00  0.00     0.009 A 
ATOM     48  C   UNL A   1      40.647  22.962  27.614  1.00  0.00     0.009 A 
ATOM     49  C   UNL A   1      42.316  21.736  25.762  1.00  0.00     0.001 A 
ATOM     50  C   UNL A   1      40.411  21.639  27.229  1.00  0.00     0.001 A 
ATOM     51  C   UNL A   1      41.255  21.021  26.313  1.00  0.00     0.000 A 
ENDBRANCH  27  46
BRANCH  39  52
ATOM     52  C   UNL A   1      45.614  28.445  28.336  1.00  0.00    -0.014 A 
ATOM     53  C   UNL A   1      44.662  29.311  27.769  1.00  0.00     0.009 A 
ATOM     54  C   UNL A   1      46.919  28.457  27.820  1.00  0.00     0.009 A 
ATOM     55  C   UNL A   1      44.999  30.138  26.694  1.00  0.00     0.001 A 
ATOM     56  C   UNL A   1      47.261  29.299  26.760  1.00  0.00     0.001 A 
ATOM     57  C   UNL A   1      46.300  30.134  26.194  1.00  0.00     0.000 A 
ENDBRANCH  39  52
ENDBRANCH  13  14
ENDBRANCH   6   8
ENDBRANCH   3   4
ENDBRANCH   2   3
ENDBRANCH   1   2
BRANCH   1  58
ATOM     58  C   UNL A   1      33.827  29.660  26.847  1.00  0.00     0.116 C 
BRANCH  58  59
ATOM     59  N   UNL A   1      32.749  29.098  27.632  1.00  0.00    -0.354 N 
ATOM     60  C   UNL A   1      31.827  28.147  27.314  1.00  0.00     0.243 C 
ATOM     61  H   UNL A   1      32.669  29.462  28.544  1.00  0.00     0.163 HD
ATOM     62  O   UNL A   1      31.054  27.830  28.227  1.00  0.00    -0.273 OA
BRANCH  60  63
ATOM     63  C   UNL A   1      31.567  27.673  25.851  1.00  0.00     0.182 C 
ATOM     64  C   UNL A   1      30.607  26.438  25.875  1.00  0.00     0.091 C 
ATOM     65  N   UNL A   1      32.740  27.370  24.974  1.00  0.00    -0.306 N 
ATOM     66  C   UNL A   1      31.430  25.244  26.194  1.00  0.00     0.042 A 
ATOM     67  C   UNL A   1      33.622  26.263  25.439  1.00  0.00     0.180 C 
ATOM     68  N   UNL A   1      31.065  24.067  26.772  1.00  0.00    -0.348 N 
ATOM     69  C   UNL A   1      32.791  25.164  26.003  1.00  0.00     0.081 A 
ATOM     70  C   UNL A   1      32.215  23.335  26.928  1.00  0.00     0.197 A 
ATOM     71  H   UNL A   1      30.154  23.794  27.028  1.00  0.00     0.167 HD
ATOM     72  N   UNL A   1      33.272  23.973  26.472  1.00  0.00    -0.240 NA
BRANCH  65  73
ATOM     73  C   UNL A   1      33.150  28.014  23.847  1.00  0.00     0.318 C 
ATOM     74  O   UNL A   1      34.311  28.416  23.724  1.00  0.00    -0.249 OA
ATOM     75  N   UNL A   1      32.361  28.263  22.792  1.00  0.00    -0.329 N 
ATOM     76  H   UNL A   1      32.811  28.837  22.131  1.00  0.00     0.165 HD
BRANCH  75  77
ATOM     77  C   UNL A   1      31.007  27.906  22.364  1.00  0.00     0.233 C 
BRANCH  77  78
ATOM     78  C   UNL A   1      29.940  28.945  22.723  1.00  0.00     0.405 C 
ATOM     79  F   UNL A   1      29.620  29.697  21.646  1.00  0.00    -0.169 F 
ATOM     80  F   UNL A   1      28.810  28.340  23.153  1.00  0.00    -0.169 F 
ATOM     81  F   UNL A   1      30.355  29.778  23.702  1.00  0.00    -0.169 F 
ENDBRANCH  77  78
ENDBRANCH  75  77
ENDBRANCH  65  73
ENDBRANCH  60  63
ENDBRANCH  58  59
ENDBRANCH   1  58
TORSDOF 14
ENDMDL
MODEL 3
REMARK VINA RESULT:     -11.5      4.289      8.722
REMARK SMILES O=C(NCCCCNC(=O)[C@@H]1Cc2[nH]cnc2CN1C(=O)NCC(F)(F)F)c1ccc(-c2c3nc(c(-c4ccccc4)c4ccc([nH]4)c(-c4ccccc4)c4nc(c(-c5ccccc5)c5ccc2[nH]5)C=C4)C=C3)cc1
REMARK SMILES IDX 6 1 5 2 4 3 3 4 1 5 2 6 28 8 29 9 75 10 30 11 74 12 31 13
REMARK SMILES IDX 32 14 33 15 68 16 34 17 73 18 67 19 69 20 35 21 72 22 66 23
REMARK SMILES IDX 65 24 36 26 58 27 43 28 57 29 44 30 47 31 56 32 70 33 45 34
REMARK SMILES IDX 46 35 55 37 71 38 48 39 37 40 38 41 42 42 39 43 41 44 40 45
REMARK SMILES IDX 59 46 60 47 64 48 61 49 63 50 62 51 49 52 50 53 54 54 51 55
REMARK SMILES IDX 53 56 52 57 7 58 8 59 9 60 10 62 11 63 12 64 19 65 13 66
REMARK SMILES IDX 18 67 14 68 17 69 15 70 16 72 20 73 21 74 22 75 23 77 24 78
REMARK SMILES IDX 25 79 26 80 27 81
REMARK H PARENT 3 7 69 25 47 36 8 61 14 71 22 76
REMARK Flexibility Score: inf
ROOT
ATOM      1  C   UNL A   1      36.888  22.957  25.816  1.00  0.00     0.023 C 
ENDROOT
BRANCH   1   2
ATOM      2  C   UNL A   1      38.325  23.395  26.088  1.00  0.00     0.023 C 
BRANCH   2   3
ATOM      3  C   UNL A   1      39.323  22.291  26.446  1.00  0.00     0.116 C 
BRANCH   3   4
ATOM      4  N   UNL A   1      40.680  22.473  25.978  1.00  0.00    -0.352 N 
ATOM      5  O   UNL A   1      42.804  23.086  25.879  1.00  0.00    -0.269 OA
ATOM      6  C   UNL A   1      41.672  23.388  26.229  1.00  0.00     0.251 C 
ATOM      7  H   UNL A   1      40.955  21.783  25.330  1.00  0.00     0.163 HD
BRANCH   6   8
ATOM      8  C   UNL A   1      41.436  24.740  26.804  1.00  0.00     0.039 A 
ATOM      9  C   UNL A   1      40.892  25.826  26.124  1.00  0.00     0.014 A 
ATOM     10  C   UNL A   1      41.868  24.923  28.131  1.00  0.00     0.014 A 
ATOM     11  C   UNL A   1      40.919  27.096  26.688  1.00  0.00     0.010 A 
ATOM     12  C   UNL A   1      41.857  26.181  28.721  1.00  0.00     0.010 A 
ATOM     13  C   UNL A   1      41.429  27.275  27.975  1.00  0.00    -0.014 A 
BRANCH  13  14
ATOM     14  C   UNL A   1      41.325  28.605  28.563  1.00  0.00     0.031 A 
ATOM     15  C   UNL A   1      42.474  29.501  28.254  1.00  0.00     0.074 A 
ATOM     16  C   UNL A   1      40.233  29.059  29.206  1.00  0.00     0.049 A 
ATOM     17  N   UNL A   1      43.295  30.065  29.078  1.00  0.00    -0.248 NA
ATOM     18  C   UNL A   1      42.812  29.702  26.835  1.00  0.00     0.031 C 
ATOM     19  C   UNL A   1      38.929  28.404  29.324  1.00  0.00     0.029 A 
ATOM     20  N   UNL A   1      40.025  30.276  29.787  1.00  0.00    -0.354 N 
ATOM     21  C   UNL A   1      44.145  30.845  28.294  1.00  0.00     0.074 A 
ATOM     22  C   UNL A   1      43.900  30.465  26.926  1.00  0.00     0.031 C 
ATOM     23  C   UNL A   1      38.011  29.317  29.715  1.00  0.00     0.029 A 
ATOM     24  C   UNL A   1      38.685  30.575  29.994  1.00  0.00     0.049 A 
ATOM     25  H   UNL A   1      40.757  30.885  30.035  1.00  0.00     0.167 HD
ATOM     26  C   UNL A   1      44.803  31.921  28.805  1.00  0.00     0.031 A 
ATOM     27  C   UNL A   1      38.159  31.789  30.293  1.00  0.00     0.031 A 
ATOM     28  C   UNL A   1      44.879  31.875  30.242  1.00  0.00     0.049 A 
ATOM     29  C   UNL A   1      39.248  32.649  30.803  1.00  0.00     0.074 A 
ATOM     30  C   UNL A   1      45.397  30.997  31.173  1.00  0.00     0.029 A 
ATOM     31  N   UNL A   1      44.046  32.713  30.942  1.00  0.00    -0.354 N 
ATOM     32  N   UNL A   1      39.829  32.474  31.955  1.00  0.00    -0.248 NA
ATOM     33  C   UNL A   1      39.979  33.474  29.855  1.00  0.00     0.031 C 
ATOM     34  C   UNL A   1      44.490  31.050  32.274  1.00  0.00     0.029 A 
ATOM     35  C   UNL A   1      43.505  31.989  31.967  1.00  0.00     0.049 A 
ATOM     36  H   UNL A   1      43.870  33.661  30.742  1.00  0.00     0.167 HD
ATOM     37  C   UNL A   1      41.162  32.776  31.724  1.00  0.00     0.074 A 
ATOM     38  C   UNL A   1      41.173  33.496  30.453  1.00  0.00     0.031 C 
ATOM     39  C   UNL A   1      42.152  32.167  32.440  1.00  0.00     0.031 A 
BRANCH  26  40
ATOM     40  C   UNL A   1      44.939  33.228  28.047  1.00  0.00    -0.014 A 
ATOM     41  C   UNL A   1      43.779  33.998  27.830  1.00  0.00     0.009 A 
ATOM     42  C   UNL A   1      46.064  33.558  27.268  1.00  0.00     0.009 A 
ATOM     43  C   UNL A   1      43.712  34.941  26.798  1.00  0.00     0.001 A 
ATOM     44  C   UNL A   1      46.015  34.533  26.268  1.00  0.00     0.001 A 
ATOM     45  C   UNL A   1      44.826  35.194  26.005  1.00  0.00     0.000 A 
ENDBRANCH  26  40
BRANCH  27  46
ATOM     46  C   UNL A   1      36.839  32.342  29.918  1.00  0.00    -0.014 A 
ATOM     47  C   UNL A   1      35.782  32.369  30.842  1.00  0.00     0.009 A 
ATOM     48  C   UNL A   1      36.693  33.088  28.735  1.00  0.00     0.009 A 
ATOM     49  C   UNL A   1      34.639  33.144  30.606  1.00  0.00     0.001 A 
ATOM     50  C   UNL A   1      35.550  33.856  28.496  1.00  0.00     0.001 A 
ATOM     51  C   UNL A   1      34.529  33.896  29.439  1.00  0.00     0.000 A 
ENDBRANCH  27  46
BRANCH  39  52
ATOM     52  C   UNL A   1      41.763  31.385  33.667  1.00  0.00    -0.014 A 
ATOM     53  C   UNL A   1      41.363  30.038  33.622  1.00  0.00     0.009 A 
ATOM     54  C   UNL A   1      41.949  31.986  34.921  1.00  0.00     0.009 A 
ATOM     55  C   UNL A   1      41.122  29.325  34.800  1.00  0.00     0.001 A 
ATOM     56  C   UNL A   1      41.729  31.267  36.097  1.00  0.00     0.001 A 
ATOM     57  C   UNL A   1      41.310  29.940  36.036  1.00  0.00     0.000 A 
ENDBRANCH  39  52
ENDBRANCH  13  14
ENDBRANCH   6   8
ENDBRANCH   3   4
ENDBRANCH   2   3
ENDBRANCH   1   2
BRANCH   1  58
ATOM     58  C   UNL A   1      36.660  22.161  24.542  1.00  0.00     0.116 C 
BRANCH  58  59
ATOM     59  N   UNL A   1      35.907  22.876  23.533  1.00  0.00    -0.354 N 
ATOM     60  C   UNL A   1      34.566  22.917  23.296  1.00  0.00     0.243 C 
ATOM     61  H   UNL A   1      36.452  23.419  22.919  1.00  0.00     0.163 HD
ATOM     62  O   UNL A   1      34.212  23.674  22.382  1.00  0.00    -0.273 OA
BRANCH  60  63
ATOM     63  C   UNL A   1      33.562  21.904  23.925  1.00  0.00     0.182 C 
ATOM     64  C   UNL A   1      32.215  21.955  23.128  1.00  0.00     0.091 C 
ATOM     65  N   UNL A   1      33.271  21.994  25.390  1.00  0.00    -0.306 N 
ATOM     66  C   UNL A   1      31.454  23.130  23.621  1.00  0.00     0.042 A 
ATOM     67  C   UNL A   1      32.654  23.271  25.846  1.00  0.00     0.180 C 
ATOM     68  N   UNL A   1      30.502  23.873  22.992  1.00  0.00    -0.348 N 
ATOM     69  C   UNL A   1      31.652  23.729  24.844  1.00  0.00     0.081 A 
ATOM     70  C   UNL A   1      30.181  24.900  23.844  1.00  0.00     0.197 A 
ATOM     71  H   UNL A   1      30.119  23.707  22.100  1.00  0.00     0.167 HD
ATOM     72  N   UNL A   1      30.861  24.836  24.971  1.00  0.00    -0.240 NA
BRANCH  65  73
ATOM     73  C   UNL A   1      33.561  21.097  26.372  1.00  0.00     0.318 C 
ATOM     74  O   UNL A   1      34.057  21.457  27.444  1.00  0.00    -0.249 OA
ATOM     75  N   UNL A   1      33.337  19.779  26.277  1.00  0.00    -0.329 N 
ATOM     76  H   UNL A   1      33.719  19.291  27.043  1.00  0.00     0.165 HD
BRANCH  75  77
ATOM     77  C   UNL A   1      32.675  18.873  25.336  1.00  0.00     0.233 C 
BRANCH  77  78
ATOM     78  C   UNL A   1      33.624  18.194  24.345  1.00  0.00     0.405 C 
ATOM     79  F   UNL A   1      34.836  18.792  24.351  1.00  0.00    -0.169 F 
ATOM     80  F   UNL A   1      33.806  16.894  24.672  1.00  0.00    -0.169 F 
ATOM     81  F   UNL A   1      33.148  18.233  23.081  1.00  0.00    -0.169 F 
ENDBRANCH  77  78
ENDBRANCH  75  77
ENDBRANCH  65  73
ENDBRANCH  60  63
ENDBRANCH  58  59
ENDBRANCH   1  58
TORSDOF 14
ENDMDL
