MODEL 1
REMARK VINA RESULT:      -8.5      0.000      0.000
REMARK SMILES O=C(CCCc1nc(-c2ccc(Cl)c(Cl)c2)c(-c2ccccc2)o1)NCCCCNC(=O)c1ccc(-c2c3nc(c(-c4ccccc4)c4ccc([nH]4)c(-c4ccccc4)c4nc(c(-c5ccccc5)c5ccc2[nH]5)C=C4)C=C3)cc1
REMARK SMILES IDX 26 1 25 2 1 3 2 4 3 6 4 7 5 8 6 9 7 10 24 11 8 12 17 13 9 14
REMARK SMILES IDX 10 15 16 16 11 17 14 18 12 19 15 20 13 21 18 22 19 23 23 24
REMARK SMILES IDX 20 25 22 26 21 27 27 28 28 29 29 30 30 31 31 32 32 34 33 35
REMARK SMILES IDX 34 36 80 37 35 38 79 39 36 40 37 41 38 42 73 43 39 44 78 45
REMARK SMILES IDX 72 46 74 47 40 48 77 49 71 50 70 51 41 53 63 54 48 55 62 56
REMARK SMILES IDX 49 57 52 58 61 59 75 60 50 61 51 62 60 64 76 65 53 66 42 67
REMARK SMILES IDX 43 68 47 69 44 70 46 71 45 72 64 73 65 74 69 75 66 76 68 77
REMARK SMILES IDX 67 78 54 79 55 80 59 81 56 82 58 83 57 84
REMARK H PARENT 25 5 30 33 74 52 52 63
REMARK Flexibility Score: inf
ROOT
ATOM      1  C   UNL A   1      33.974  36.842  33.322  1.00  0.00     0.116 C 
ENDROOT
BRANCH   1   2
ATOM      2  N   UNL A   1      34.424  35.732  34.138  1.00  0.00    -0.356 N 
ATOM      3  O   UNL A   1      36.163  35.157  32.751  1.00  0.00    -0.275 OA
ATOM      4  C   UNL A   1      35.521  34.979  33.781  1.00  0.00     0.220 C 
ATOM      5  H   UNL A   1      33.936  35.510  34.963  1.00  0.00     0.163 HD
BRANCH   4   6
ATOM      6  C   UNL A   1      35.909  33.929  34.798  1.00  0.00     0.100 C 
BRANCH   6   7
ATOM      7  C   UNL A   1      37.406  33.971  35.112  1.00  0.00     0.020 C 
BRANCH   7   8
ATOM      8  C   UNL A   1      37.851  33.071  36.269  1.00  0.00     0.098 C 
BRANCH   8   9
ATOM      9  C   UNL A   1      38.681  31.928  35.804  1.00  0.00     0.195 A 
ATOM     10  N   UNL A   1      39.781  31.444  36.344  1.00  0.00    -0.213 NA
ATOM     11  O   UNL A   1      38.298  31.319  34.635  1.00  0.00    -0.440 OA
ATOM     12  C   UNL A   1      40.157  30.450  35.478  1.00  0.00     0.117 A 
ATOM     13  C   UNL A   1      39.238  30.335  34.455  1.00  0.00     0.162 A 
BRANCH  12  14
ATOM     14  C   UNL A   1      41.347  29.646  35.642  1.00  0.00     0.006 A 
ATOM     15  C   UNL A   1      42.588  30.146  35.240  1.00  0.00     0.012 A 
ATOM     16  C   UNL A   1      41.266  28.370  36.217  1.00  0.00     0.032 A 
ATOM     17  C   UNL A   1      43.746  29.391  35.443  1.00  0.00     0.023 A 
ATOM     18  C   UNL A   1      42.423  27.609  36.411  1.00  0.00     0.060 A 
ATOM     19  C   UNL A   1      43.667  28.124  36.031  1.00  0.00     0.059 A 
ATOM     20  Cl  UNL A   1      42.244  26.049  37.129  1.00  0.00    -0.083 Cl
ATOM     21  Cl  UNL A   1      45.140  27.252  36.264  1.00  0.00    -0.083 Cl
ENDBRANCH  12  14
BRANCH  13  22
ATOM     22  C   UNL A   1      39.046  29.421  33.345  1.00  0.00     0.020 A 
ATOM     23  C   UNL A   1      37.817  29.324  32.687  1.00  0.00     0.012 A 
ATOM     24  C   UNL A   1      40.126  28.651  32.883  1.00  0.00     0.012 A 
ATOM     25  C   UNL A   1      37.666  28.469  31.592  1.00  0.00     0.001 A 
ATOM     26  C   UNL A   1      39.976  27.801  31.787  1.00  0.00     0.001 A 
ATOM     27  C   UNL A   1      38.746  27.710  31.142  1.00  0.00     0.000 A 
ENDBRANCH  13  22
ENDBRANCH   8   9
ENDBRANCH   7   8
ENDBRANCH   6   7
ENDBRANCH   4   6
ENDBRANCH   1   2
BRANCH   1  28
ATOM     28  C   UNL A   1      32.521  36.697  32.877  1.00  0.00     0.023 C 
BRANCH  28  29
ATOM     29  C   UNL A   1      32.274  35.641  31.798  1.00  0.00     0.023 C 
BRANCH  29  30
ATOM     30  C   UNL A   1      33.272  35.619  30.647  1.00  0.00     0.116 C 
BRANCH  30  31
ATOM     31  N   UNL A   1      32.843  34.766  29.552  1.00  0.00    -0.352 N 
ATOM     32  C   UNL A   1      33.555  33.838  28.833  1.00  0.00     0.251 C 
ATOM     33  H   UNL A   1      31.901  34.869  29.285  1.00  0.00     0.163 HD
ATOM     34  O   UNL A   1      33.056  33.330  27.829  1.00  0.00    -0.269 OA
BRANCH  32  35
ATOM     35  C   UNL A   1      34.928  33.457  29.235  1.00  0.00     0.039 A 
ATOM     36  C   UNL A   1      35.092  32.504  30.247  1.00  0.00     0.014 A 
ATOM     37  C   UNL A   1      36.050  34.046  28.646  1.00  0.00     0.014 A 
ATOM     38  C   UNL A   1      36.375  32.094  30.618  1.00  0.00     0.010 A 
ATOM     39  C   UNL A   1      37.327  33.588  28.970  1.00  0.00     0.010 A 
ATOM     40  C   UNL A   1      37.504  32.607  29.957  1.00  0.00    -0.014 A 
BRANCH  40  41
ATOM     41  C   UNL A   1      38.870  32.120  30.279  1.00  0.00     0.031 A 
ATOM     42  C   UNL A   1      39.708  32.825  31.310  1.00  0.00     0.074 A 
ATOM     43  C   UNL A   1      39.384  31.078  29.598  1.00  0.00     0.049 A 
ATOM     44  N   UNL A   1      40.944  32.585  31.675  1.00  0.00    -0.248 NA
ATOM     45  C   UNL A   1      39.086  33.962  32.007  1.00  0.00     0.031 C 
ATOM     46  C   UNL A   1      38.693  30.326  28.548  1.00  0.00     0.029 A 
ATOM     47  N   UNL A   1      40.615  30.474  29.683  1.00  0.00    -0.354 N 
ATOM     48  C   UNL A   1      41.251  33.548  32.628  1.00  0.00     0.074 A 
ATOM     49  C   UNL A   1      40.088  34.402  32.754  1.00  0.00     0.031 C 
ATOM     50  C   UNL A   1      39.501  29.349  28.105  1.00  0.00     0.029 A 
ATOM     51  C   UNL A   1      40.777  29.429  28.807  1.00  0.00     0.049 A 
ATOM     52  H   UNL A   1      41.314  30.763  30.313  1.00  0.00     0.167 HD
ATOM     53  C   UNL A   1      42.389  33.700  33.347  1.00  0.00     0.031 A 
ATOM     54  C   UNL A   1      41.838  28.628  28.586  1.00  0.00     0.031 A 
ATOM     55  C   UNL A   1      43.543  32.849  33.232  1.00  0.00     0.049 A 
ATOM     56  C   UNL A   1      43.094  28.825  29.388  1.00  0.00     0.074 A 
ATOM     57  C   UNL A   1      44.724  32.897  33.953  1.00  0.00     0.029 A 
ATOM     58  N   UNL A   1      43.663  31.796  32.341  1.00  0.00    -0.354 N 
ATOM     59  N   UNL A   1      43.346  29.706  30.325  1.00  0.00    -0.248 NA
ATOM     60  C   UNL A   1      44.208  27.908  29.107  1.00  0.00     0.031 C 
ATOM     61  C   UNL A   1      45.576  31.901  33.466  1.00  0.00     0.029 A 
ATOM     62  C   UNL A   1      44.905  31.200  32.478  1.00  0.00     0.049 A 
ATOM     63  H   UNL A   1      42.967  31.513  31.703  1.00  0.00     0.167 HD
ATOM     64  C   UNL A   1      44.636  29.434  30.762  1.00  0.00     0.074 A 
ATOM     65  C   UNL A   1      45.108  28.297  30.000  1.00  0.00     0.031 C 
ATOM     66  C   UNL A   1      45.364  30.070  31.713  1.00  0.00     0.031 A 
BRANCH  53  67
ATOM     67  C   UNL A   1      42.442  34.843  34.322  1.00  0.00    -0.014 A 
ATOM     68  C   UNL A   1      42.105  34.661  35.673  1.00  0.00     0.009 A 
ATOM     69  C   UNL A   1      42.874  36.108  33.895  1.00  0.00     0.009 A 
ATOM     70  C   UNL A   1      42.165  35.731  36.568  1.00  0.00     0.001 A 
ATOM     71  C   UNL A   1      42.960  37.170  34.798  1.00  0.00     0.001 A 
ATOM     72  C   UNL A   1      42.597  36.983  36.131  1.00  0.00     0.000 A 
ENDBRANCH  53  67
BRANCH  54  73
ATOM     73  C   UNL A   1      41.756  27.556  27.560  1.00  0.00    -0.014 A 
ATOM     74  C   UNL A   1      41.235  26.295  27.891  1.00  0.00     0.009 A 
ATOM     75  C   UNL A   1      42.208  27.784  26.252  1.00  0.00     0.009 A 
ATOM     76  C   UNL A   1      41.191  25.276  26.936  1.00  0.00     0.001 A 
ATOM     77  C   UNL A   1      42.138  26.771  25.292  1.00  0.00     0.001 A 
ATOM     78  C   UNL A   1      41.639  25.517  25.638  1.00  0.00     0.000 A 
ENDBRANCH  54  73
BRANCH  66  79
ATOM     79  C   UNL A   1      46.735  29.531  32.002  1.00  0.00    -0.014 A 
ATOM     80  C   UNL A   1      47.870  30.033  31.348  1.00  0.00     0.009 A 
ATOM     81  C   UNL A   1      46.897  28.531  32.976  1.00  0.00     0.009 A 
ATOM     82  C   UNL A   1      49.136  29.522  31.639  1.00  0.00     0.001 A 
ATOM     83  C   UNL A   1      48.166  28.042  33.283  1.00  0.00     0.001 A 
ATOM     84  C   UNL A   1      49.284  28.531  32.609  1.00  0.00     0.000 A 
ENDBRANCH  66  79
ENDBRANCH  40  41
ENDBRANCH  32  35
ENDBRANCH  30  31
ENDBRANCH  29  30
ENDBRANCH  28  29
ENDBRANCH   1  28
TORSDOF 16
ENDMDL
MODEL 2
REMARK VINA RESULT:      -8.4      2.687      4.141
REMARK SMILES O=C(CCCc1nc(-c2ccc(Cl)c(Cl)c2)c(-c2ccccc2)o1)NCCCCNC(=O)c1ccc(-c2c3nc(c(-c4ccccc4)c4ccc([nH]4)c(-c4ccccc4)c4nc(c(-c5ccccc5)c5ccc2[nH]5)C=C4)C=C3)cc1
REMARK SMILES IDX 26 1 25 2 1 3 2 4 3 6 4 7 5 8 6 9 7 10 24 11 8 12 17 13 9 14
REMARK SMILES IDX 10 15 16 16 11 17 14 18 12 19 15 20 13 21 18 22 19 23 23 24
REMARK SMILES IDX 20 25 22 26 21 27 27 28 28 29 29 30 30 31 31 32 32 34 33 35
REMARK SMILES IDX 34 36 80 37 35 38 79 39 36 40 37 41 38 42 73 43 39 44 78 45
REMARK SMILES IDX 72 46 74 47 40 48 77 49 71 50 70 51 41 53 63 54 48 55 62 56
REMARK SMILES IDX 49 57 52 58 61 59 75 60 50 61 51 62 60 64 76 65 53 66 42 67
REMARK SMILES IDX 43 68 47 69 44 70 46 71 45 72 64 73 65 74 69 75 66 76 68 77
REMARK SMILES IDX 67 78 54 79 55 80 59 81 56 82 58 83 57 84
REMARK H PARENT 25 5 30 33 74 52 52 63
REMARK Flexibility Score: inf
ROOT
ATOM      1  C   UNL A   1      34.408  36.391  33.442  1.00  0.00     0.116 C 
ENDROOT
BRANCH   1   2
ATOM      2  N   UNL A   1      34.565  34.969  33.671  1.00  0.00    -0.356 N 
ATOM      3  O   UNL A   1      36.838  35.067  33.985  1.00  0.00    -0.275 OA
ATOM      4  C   UNL A   1      35.797  34.419  33.949  1.00  0.00     0.220 C 
ATOM      5  H   UNL A   1      33.776  34.382  33.625  1.00  0.00     0.163 HD
BRANCH   4   6
ATOM      6  C   UNL A   1      35.760  32.940  34.260  1.00  0.00     0.100 C 
BRANCH   6   7
ATOM      7  C   UNL A   1      36.936  32.198  33.621  1.00  0.00     0.020 C 
BRANCH   7   8
ATOM      8  C   UNL A   1      37.777  31.360  34.590  1.00  0.00     0.098 C 
BRANCH   8   9
ATOM      9  C   UNL A   1      38.060  32.084  35.857  1.00  0.00     0.195 A 
ATOM     10  N   UNL A   1      38.865  33.109  36.051  1.00  0.00    -0.213 NA
ATOM     11  O   UNL A   1      37.453  31.608  36.993  1.00  0.00    -0.440 OA
ATOM     12  C   UNL A   1      38.794  33.327  37.402  1.00  0.00     0.117 A 
ATOM     13  C   UNL A   1      37.902  32.446  37.982  1.00  0.00     0.162 A 
BRANCH  12  14
ATOM     14  C   UNL A   1      39.547  34.347  38.095  1.00  0.00     0.006 A 
ATOM     15  C   UNL A   1      40.912  34.166  38.331  1.00  0.00     0.012 A 
ATOM     16  C   UNL A   1      38.920  35.527  38.519  1.00  0.00     0.032 A 
ATOM     17  C   UNL A   1      41.653  35.173  38.956  1.00  0.00     0.023 A 
ATOM     18  C   UNL A   1      39.658  36.530  39.153  1.00  0.00     0.060 A 
ATOM     19  C   UNL A   1      41.030  36.357  39.365  1.00  0.00     0.059 A 
ATOM     20  Cl  UNL A   1      38.815  37.957  39.643  1.00  0.00    -0.083 Cl
ATOM     21  Cl  UNL A   1      42.010  37.563  40.119  1.00  0.00    -0.083 Cl
ENDBRANCH  12  14
BRANCH  13  22
ATOM     22  C   UNL A   1      37.345  32.276  39.310  1.00  0.00     0.020 A 
ATOM     23  C   UNL A   1      35.963  32.216  39.516  1.00  0.00     0.012 A 
ATOM     24  C   UNL A   1      38.202  32.116  40.409  1.00  0.00     0.012 A 
ATOM     25  C   UNL A   1      35.447  32.007  40.797  1.00  0.00     0.001 A 
ATOM     26  C   UNL A   1      37.688  31.903  41.689  1.00  0.00     0.001 A 
ATOM     27  C   UNL A   1      36.310  31.849  41.882  1.00  0.00     0.000 A 
ENDBRANCH  13  22
ENDBRANCH   8   9
ENDBRANCH   7   8
ENDBRANCH   6   7
ENDBRANCH   4   6
ENDBRANCH   1   2
BRANCH   1  28
ATOM     28  C   UNL A   1      33.000  36.764  32.985  1.00  0.00     0.023 C 
BRANCH  28  29
ATOM     29  C   UNL A   1      32.473  35.968  31.789  1.00  0.00     0.023 C 
BRANCH  29  30
ATOM     30  C   UNL A   1      33.237  36.146  30.483  1.00  0.00     0.116 C 
BRANCH  30  31
ATOM     31  N   UNL A   1      32.597  35.473  29.365  1.00  0.00    -0.352 N 
ATOM     32  C   UNL A   1      33.062  34.450  28.576  1.00  0.00     0.251 C 
ATOM     33  H   UNL A   1      31.695  35.797  29.142  1.00  0.00     0.163 HD
ATOM     34  O   UNL A   1      32.434  34.123  27.569  1.00  0.00    -0.269 OA
BRANCH  32  35
ATOM     35  C   UNL A   1      34.325  33.752  28.904  1.00  0.00     0.039 A 
ATOM     36  C   UNL A   1      35.442  33.965  28.090  1.00  0.00     0.014 A 
ATOM     37  C   UNL A   1      34.412  32.873  29.987  1.00  0.00     0.014 A 
ATOM     38  C   UNL A   1      36.659  33.353  28.400  1.00  0.00     0.010 A 
ATOM     39  C   UNL A   1      35.643  32.315  30.334  1.00  0.00     0.010 A 
ATOM     40  C   UNL A   1      36.780  32.551  29.546  1.00  0.00    -0.014 A 
BRANCH  40  41
ATOM     41  C   UNL A   1      38.086  31.961  29.939  1.00  0.00     0.031 A 
ATOM     42  C   UNL A   1      39.031  32.723  30.826  1.00  0.00     0.074 A 
ATOM     43  C   UNL A   1      38.450  30.761  29.446  1.00  0.00     0.049 A 
ATOM     44  N   UNL A   1      40.239  32.399  31.218  1.00  0.00    -0.248 NA
ATOM     45  C   UNL A   1      38.572  34.032  31.318  1.00  0.00     0.031 C 
ATOM     46  C   UNL A   1      37.644  29.932  28.548  1.00  0.00     0.029 A 
ATOM     47  N   UNL A   1      39.600  30.033  29.627  1.00  0.00    -0.354 N 
ATOM     48  C   UNL A   1      40.687  33.465  31.988  1.00  0.00     0.074 A 
ATOM     49  C   UNL A   1      39.640  34.465  31.971  1.00  0.00     0.031 C 
ATOM     50  C   UNL A   1      38.314  28.800  28.277  1.00  0.00     0.029 A 
ATOM     51  C   UNL A   1      39.610  28.841  28.946  1.00  0.00     0.049 A 
ATOM     52  H   UNL A   1      40.347  30.338  30.193  1.00  0.00     0.167 HD
ATOM     53  C   UNL A   1      41.855  33.596  32.661  1.00  0.00     0.031 A 
ATOM     54  C   UNL A   1      40.559  27.889  28.861  1.00  0.00     0.031 A 
ATOM     55  C   UNL A   1      42.894  32.602  32.689  1.00  0.00     0.049 A 
ATOM     56  C   UNL A   1      41.852  28.063  29.608  1.00  0.00     0.074 A 
ATOM     57  C   UNL A   1      44.092  32.626  33.383  1.00  0.00     0.029 A 
ATOM     58  N   UNL A   1      42.860  31.404  31.994  1.00  0.00    -0.354 N 
ATOM     59  N   UNL A   1      42.235  29.054  30.375  1.00  0.00    -0.248 NA
ATOM     60  C   UNL A   1      42.839  26.981  29.484  1.00  0.00     0.031 C 
ATOM     61  C   UNL A   1      44.803  31.463  33.071  1.00  0.00     0.029 A 
ATOM     62  C   UNL A   1      44.024  30.691  32.224  1.00  0.00     0.049 A 
ATOM     63  H   UNL A   1      42.118  31.104  31.420  1.00  0.00     0.167 HD
ATOM     64  C   UNL A   1      43.495  28.703  30.845  1.00  0.00     0.074 A 
ATOM     65  C   UNL A   1      43.804  27.402  30.289  1.00  0.00     0.031 C 
ATOM     66  C   UNL A   1      44.321  29.398  31.664  1.00  0.00     0.031 A 
BRANCH  53  67
ATOM     67  C   UNL A   1      42.074  34.874  33.422  1.00  0.00    -0.014 A 
ATOM     68  C   UNL A   1      41.528  35.060  34.702  1.00  0.00     0.009 A 
ATOM     69  C   UNL A   1      42.869  35.890  32.870  1.00  0.00     0.009 A 
ATOM     70  C   UNL A   1      41.745  36.250  35.399  1.00  0.00     0.001 A 
ATOM     71  C   UNL A   1      43.108  37.068  33.580  1.00  0.00     0.001 A 
ATOM     72  C   UNL A   1      42.538  37.251  34.839  1.00  0.00     0.000 A 
ENDBRANCH  53  67
BRANCH  54  73
ATOM     73  C   UNL A   1      40.320  26.674  28.038  1.00  0.00    -0.014 A 
ATOM     74  C   UNL A   1      39.609  25.587  28.568  1.00  0.00     0.009 A 
ATOM     75  C   UNL A   1      40.809  26.593  26.726  1.00  0.00     0.009 A 
ATOM     76  C   UNL A   1      39.415  24.431  27.807  1.00  0.00     0.001 A 
ATOM     77  C   UNL A   1      40.589  25.448  25.958  1.00  0.00     0.001 A 
ATOM     78  C   UNL A   1      39.901  24.365  26.502  1.00  0.00     0.000 A 
ENDBRANCH  54  73
BRANCH  66  79
ATOM     79  C   UNL A   1      45.625  28.751  32.035  1.00  0.00    -0.014 A 
ATOM     80  C   UNL A   1      45.728  27.903  33.148  1.00  0.00     0.009 A 
ATOM     81  C   UNL A   1      46.757  28.962  31.232  1.00  0.00     0.009 A 
ATOM     82  C   UNL A   1      46.949  27.307  33.469  1.00  0.00     0.001 A 
ATOM     83  C   UNL A   1      47.969  28.343  31.540  1.00  0.00     0.001 A 
ATOM     84  C   UNL A   1      48.066  27.522  32.662  1.00  0.00     0.000 A 
ENDBRANCH  66  79
ENDBRANCH  40  41
ENDBRANCH  32  35
ENDBRANCH  30  31
ENDBRANCH  29  30
ENDBRANCH  28  29
ENDBRANCH   1  28
TORSDOF 16
ENDMDL
MODEL 3
REMARK VINA RESULT:      -8.1      2.473      4.361
REMARK SMILES O=C(CCCc1nc(-c2ccc(Cl)c(Cl)c2)c(-c2ccccc2)o1)NCCCCNC(=O)c1ccc(-c2c3nc(c(-c4ccccc4)c4ccc([nH]4)c(-c4ccccc4)c4nc(c(-c5ccccc5)c5ccc2[nH]5)C=C4)C=C3)cc1
REMARK SMILES IDX 26 1 25 2 1 3 2 4 3 6 4 7 5 8 6 9 7 10 24 11 8 12 17 13 9 14
REMARK SMILES IDX 10 15 16 16 11 17 14 18 12 19 15 20 13 21 18 22 19 23 23 24
REMARK SMILES IDX 20 25 22 26 21 27 27 28 28 29 29 30 30 31 31 32 32 34 33 35
REMARK SMILES IDX 34 36 80 37 35 38 79 39 36 40 37 41 38 42 73 43 39 44 78 45
REMARK SMILES IDX 72 46 74 47 40 48 77 49 71 50 70 51 41 53 63 54 48 55 62 56
REMARK SMILES IDX 49 57 52 58 61 59 75 60 50 61 51 62 60 64 76 65 53 66 42 67
REMARK SMILES IDX 43 68 47 69 44 70 46 71 45 72 64 73 65 74 69 75 66 76 68 77
REMARK SMILES IDX 67 78 54 79 55 80 59 81 56 82 58 83 57 84
REMARK H PARENT 25 5 30 33 74 52 52 63
REMARK Flexibility Score: inf
ROOT
ATOM      1  C   UNL A   1      34.113  36.891  33.238  1.00  0.00     0.116 C 
ENDROOT
BRANCH   1   2
ATOM      2  N   UNL A   1      34.388  35.689  34.000  1.00  0.00    -0.356 N 
ATOM      3  O   UNL A   1      36.353  35.209  32.912  1.00  0.00    -0.275 OA
ATOM      4  C   UNL A   1      35.525  34.944  33.777  1.00  0.00     0.220 C 
ATOM      5  H   UNL A   1      33.749  35.399  34.690  1.00  0.00     0.163 HD
BRANCH   4   6
ATOM      6  C   UNL A   1      35.701  33.784  34.730  1.00  0.00     0.100 C 
BRANCH   6   7
ATOM      7  C   UNL A   1      36.528  32.658  34.104  1.00  0.00     0.020 C 
BRANCH   7   8
ATOM      8  C   UNL A   1      37.920  32.460  34.713  1.00  0.00     0.098 C 
BRANCH   8   9
ATOM      9  C   UNL A   1      37.930  32.700  36.180  1.00  0.00     0.195 A 
ATOM     10  N   UNL A   1      37.291  32.035  37.121  1.00  0.00    -0.213 NA
ATOM     11  O   UNL A   1      38.650  33.780  36.628  1.00  0.00    -0.440 OA
ATOM     12  C   UNL A   1      37.601  32.717  38.269  1.00  0.00     0.117 A 
ATOM     13  C   UNL A   1      38.465  33.757  37.987  1.00  0.00     0.162 A 
BRANCH  12  14
ATOM     14  C   UNL A   1      37.093  32.370  39.576  1.00  0.00     0.006 A 
ATOM     15  C   UNL A   1      35.914  32.956  40.044  1.00  0.00     0.012 A 
ATOM     16  C   UNL A   1      37.767  31.435  40.374  1.00  0.00     0.032 A 
ATOM     17  C   UNL A   1      35.393  32.584  41.286  1.00  0.00     0.023 A 
ATOM     18  C   UNL A   1      37.253  31.071  41.621  1.00  0.00     0.060 A 
ATOM     19  C   UNL A   1      36.058  31.640  42.075  1.00  0.00     0.059 A 
ATOM     20  Cl  UNL A   1      38.138  29.910  42.545  1.00  0.00    -0.083 Cl
ATOM     21  Cl  UNL A   1      35.350  31.218  43.593  1.00  0.00    -0.083 Cl
ENDBRANCH  12  14
BRANCH  13  22
ATOM     22  C   UNL A   1      39.203  34.721  38.780  1.00  0.00     0.020 A 
ATOM     23  C   UNL A   1      39.988  34.321  39.866  1.00  0.00     0.012 A 
ATOM     24  C   UNL A   1      39.176  36.080  38.427  1.00  0.00     0.012 A 
ATOM     25  C   UNL A   1      40.726  35.261  40.590  1.00  0.00     0.001 A 
ATOM     26  C   UNL A   1      39.917  37.018  39.147  1.00  0.00     0.001 A 
ATOM     27  C   UNL A   1      40.691  36.607  40.229  1.00  0.00     0.000 A 
ENDBRANCH  13  22
ENDBRANCH   8   9
ENDBRANCH   7   8
ENDBRANCH   6   7
ENDBRANCH   4   6
ENDBRANCH   1   2
BRANCH   1  28
ATOM     28  C   UNL A   1      32.637  37.034  32.873  1.00  0.00     0.023 C 
BRANCH  28  29
ATOM     29  C   UNL A   1      32.157  36.128  31.738  1.00  0.00     0.023 C 
BRANCH  29  30
ATOM     30  C   UNL A   1      33.231  35.645  30.771  1.00  0.00     0.116 C 
BRANCH  30  31
ATOM     31  N   UNL A   1      32.674  35.044  29.572  1.00  0.00    -0.352 N 
ATOM     32  C   UNL A   1      33.228  34.128  28.712  1.00  0.00     0.251 C 
ATOM     33  H   UNL A   1      31.763  35.336  29.342  1.00  0.00     0.163 HD
ATOM     34  O   UNL A   1      32.658  33.862  27.655  1.00  0.00    -0.269 OA
BRANCH  32  35
ATOM     35  C   UNL A   1      34.519  33.475  29.028  1.00  0.00     0.039 A 
ATOM     36  C   UNL A   1      35.636  33.781  28.243  1.00  0.00     0.014 A 
ATOM     37  C   UNL A   1      34.633  32.550  30.069  1.00  0.00     0.014 A 
ATOM     38  C   UNL A   1      36.876  33.213  28.543  1.00  0.00     0.010 A 
ATOM     39  C   UNL A   1      35.884  32.036  30.409  1.00  0.00     0.010 A 
ATOM     40  C   UNL A   1      37.019  32.362  29.652  1.00  0.00    -0.014 A 
BRANCH  40  41
ATOM     41  C   UNL A   1      38.347  31.817  30.038  1.00  0.00     0.031 A 
ATOM     42  C   UNL A   1      39.252  32.590  30.956  1.00  0.00     0.074 A 
ATOM     43  C   UNL A   1      38.766  30.650  29.511  1.00  0.00     0.049 A 
ATOM     44  N   UNL A   1      40.469  32.305  31.349  1.00  0.00    -0.248 NA
ATOM     45  C   UNL A   1      38.732  33.862  31.486  1.00  0.00     0.031 C 
ATOM     46  C   UNL A   1      38.003  29.816  28.580  1.00  0.00     0.029 A 
ATOM     47  N   UNL A   1      39.945  29.966  29.679  1.00  0.00    -0.354 N 
ATOM     48  C   UNL A   1      40.865  33.365  32.156  1.00  0.00     0.074 A 
ATOM     49  C   UNL A   1      39.776  34.320  32.161  1.00  0.00     0.031 C 
ATOM     50  C   UNL A   1      38.723  28.723  28.279  1.00  0.00     0.029 A 
ATOM     51  C   UNL A   1      40.011  28.798  28.961  1.00  0.00     0.049 A 
ATOM     52  H   UNL A   1      40.674  30.285  30.260  1.00  0.00     0.167 HD
ATOM     53  C   UNL A   1      42.021  33.525  32.843  1.00  0.00     0.031 A 
ATOM     54  C   UNL A   1      41.001  27.891  28.854  1.00  0.00     0.031 A 
ATOM     55  C   UNL A   1      43.102  32.575  32.849  1.00  0.00     0.049 A 
ATOM     56  C   UNL A   1      42.279  28.096  29.618  1.00  0.00     0.074 A 
ATOM     57  C   UNL A   1      44.292  32.629  33.554  1.00  0.00     0.029 A 
ATOM     58  N   UNL A   1      43.124  31.400  32.116  1.00  0.00    -0.354 N 
ATOM     59  N   UNL A   1      42.614  29.078  30.419  1.00  0.00    -0.248 NA
ATOM     60  C   UNL A   1      43.313  27.061  29.469  1.00  0.00     0.031 C 
ATOM     61  C   UNL A   1      45.055  31.508  33.212  1.00  0.00     0.029 A 
ATOM     62  C   UNL A   1      44.316  30.730  32.335  1.00  0.00     0.049 A 
ATOM     63  H   UNL A   1      42.400  31.087  31.527  1.00  0.00     0.167 HD
ATOM     64  C   UNL A   1      43.884  28.766  30.889  1.00  0.00     0.074 A 
ATOM     65  C   UNL A   1      44.253  27.498  30.295  1.00  0.00     0.031 C 
ATOM     66  C   UNL A   1      44.673  29.470  31.737  1.00  0.00     0.031 A 
BRANCH  53  67
ATOM     67  C   UNL A   1      42.179  34.786  33.646  1.00  0.00    -0.014 A 
ATOM     68  C   UNL A   1      42.847  35.904  33.119  1.00  0.00     0.009 A 
ATOM     69  C   UNL A   1      41.619  34.874  34.929  1.00  0.00     0.009 A 
ATOM     70  C   UNL A   1      42.980  37.070  33.874  1.00  0.00     0.001 A 
ATOM     71  C   UNL A   1      41.730  36.050  35.673  1.00  0.00     0.001 A 
ATOM     72  C   UNL A   1      42.418  37.144  35.149  1.00  0.00     0.000 A 
ENDBRANCH  53  67
BRANCH  54  73
ATOM     73  C   UNL A   1      40.820  26.694  27.992  1.00  0.00    -0.014 A 
ATOM     74  C   UNL A   1      41.252  26.709  26.656  1.00  0.00     0.009 A 
ATOM     75  C   UNL A   1      40.208  25.537  28.496  1.00  0.00     0.009 A 
ATOM     76  C   UNL A   1      41.051  25.597  25.836  1.00  0.00     0.001 A 
ATOM     77  C   UNL A   1      40.033  24.416  27.680  1.00  0.00     0.001 A 
ATOM     78  C   UNL A   1      40.445  24.451  26.349  1.00  0.00     0.000 A 
ENDBRANCH  54  73
BRANCH  66  79
ATOM     79  C   UNL A   1      46.000  28.867  32.099  1.00  0.00    -0.014 A 
ATOM     80  C   UNL A   1      47.156  29.147  31.353  1.00  0.00     0.009 A 
ATOM     81  C   UNL A   1      46.103  28.038  33.227  1.00  0.00     0.009 A 
ATOM     82  C   UNL A   1      48.381  28.581  31.712  1.00  0.00     0.001 A 
ATOM     83  C   UNL A   1      47.333  27.496  33.599  1.00  0.00     0.001 A 
ATOM     84  C   UNL A   1      48.470  27.761  32.836  1.00  0.00     0.000 A 
ENDBRANCH  66  79
ENDBRANCH  40  41
ENDBRANCH  32  35
ENDBRANCH  30  31
ENDBRANCH  29  30
ENDBRANCH  28  29
ENDBRANCH   1  28
TORSDOF 16
ENDMDL
