MODEL 1
REMARK VINA RESULT:     -11.4      0.000      0.000
REMARK SMILES O=C(CSc1nnc(-c2cccc(C(F)(F)F)c2F)o1)NCCCCNC(=O)c1ccc(-c2c3nc(c(-c4ccccc4)c4ccc([nH]4)c(-c4ccccc4)c4nc(c(-c5ccccc5)c5ccc2[nH]5)C=C4)C=C3)cc1
REMARK SMILES IDX 22 1 21 2 1 3 2 4 3 6 4 7 5 8 6 9 20 10 7 11 8 12 9 13 10 14
REMARK SMILES IDX 18 15 11 16 13 17 19 18 12 19 14 20 15 21 16 22 17 23 23 24
REMARK SMILES IDX 24 25 25 26 26 27 27 28 28 30 29 31 30 32 76 33 31 34 75 35
REMARK SMILES IDX 32 36 33 37 34 38 69 39 35 40 74 41 68 42 70 43 36 44 73 45
REMARK SMILES IDX 67 46 66 47 37 49 59 50 44 51 58 52 45 53 48 54 57 55 71 56
REMARK SMILES IDX 46 57 47 58 56 60 72 61 49 62 38 63 39 64 43 65 40 66 42 67
REMARK SMILES IDX 41 68 60 69 61 70 65 71 62 72 64 73 63 74 50 75 51 76 55 77
REMARK SMILES IDX 52 78 54 79 53 80
REMARK H PARENT 21 5 26 29 70 48 48 59
REMARK Flexibility Score: inf
ROOT
ATOM      1  C   UNL A   1      30.834  26.796  25.663  1.00  0.00     0.116 C 
ENDROOT
BRANCH   1   2
ATOM      2  N   UNL A   1      31.329  27.156  24.350  1.00  0.00    -0.355 N 
ATOM      3  O   UNL A   1      30.719  29.368  24.454  1.00  0.00    -0.274 OA
ATOM      4  C   UNL A   1      31.269  28.444  23.861  1.00  0.00     0.230 C 
ATOM      5  H   UNL A   1      31.726  26.452  23.785  1.00  0.00     0.163 HD
BRANCH   4   6
ATOM      6  C   UNL A   1      31.854  28.632  22.473  1.00  0.00     0.179 C 
BRANCH   6   7
ATOM      7  S   UNL A   1      33.627  28.278  22.422  1.00  0.00    -0.055 SA
BRANCH   7   8
ATOM      8  C   UNL A   1      33.645  26.542  22.327  1.00  0.00     0.277 A 
ATOM      9  N   UNL A   1      33.260  25.891  21.249  1.00  0.00    -0.101 NA
ATOM     10  O   UNL A   1      34.056  25.698  23.326  1.00  0.00    -0.411 OA
ATOM     11  N   UNL A   1      33.439  24.550  21.507  1.00  0.00    -0.107 NA
ATOM     12  C   UNL A   1      33.886  24.470  22.743  1.00  0.00     0.251 A 
BRANCH  12  13
ATOM     13  C   UNL A   1      34.286  23.294  23.493  1.00  0.00     0.075 A 
ATOM     14  C   UNL A   1      35.590  23.219  24.005  1.00  0.00     0.017 A 
ATOM     15  C   UNL A   1      33.428  22.202  23.667  1.00  0.00     0.148 A 
ATOM     16  C   UNL A   1      36.022  22.083  24.689  1.00  0.00     0.002 A 
ATOM     17  C   UNL A   1      33.851  21.047  24.333  1.00  0.00     0.092 A 
ATOM     18  F   UNL A   1      32.195  22.246  23.144  1.00  0.00    -0.205 F 
ATOM     19  C   UNL A   1      35.158  21.003  24.851  1.00  0.00     0.016 A 
BRANCH  17  20
ATOM     20  C   UNL A   1      32.955  19.851  24.480  1.00  0.00     0.419 C 
ATOM     21  F   UNL A   1      31.795  20.166  25.126  1.00  0.00    -0.166 F 
ATOM     22  F   UNL A   1      32.572  19.348  23.274  1.00  0.00    -0.166 F 
ATOM     23  F   UNL A   1      33.485  18.807  25.170  1.00  0.00    -0.166 F 
ENDBRANCH  17  20
ENDBRANCH  12  13
ENDBRANCH   7   8
ENDBRANCH   6   7
ENDBRANCH   4   6
ENDBRANCH   1   2
BRANCH   1  24
ATOM     24  C   UNL A   1      31.925  26.847  26.731  1.00  0.00     0.023 C 
BRANCH  24  25
ATOM     25  C   UNL A   1      32.107  28.205  27.415  1.00  0.00     0.023 C 
BRANCH  25  26
ATOM     26  C   UNL A   1      33.496  28.827  27.291  1.00  0.00     0.116 C 
BRANCH  26  27
ATOM     27  N   UNL A   1      33.553  30.199  27.768  1.00  0.00    -0.352 N 
ATOM     28  C   UNL A   1      34.577  30.868  28.395  1.00  0.00     0.251 C 
ATOM     29  H   UNL A   1      32.737  30.728  27.620  1.00  0.00     0.163 HD
ATOM     30  O   UNL A   1      34.387  31.996  28.844  1.00  0.00    -0.269 OA
BRANCH  28  31
ATOM     31  C   UNL A   1      35.901  30.227  28.568  1.00  0.00     0.039 A 
ATOM     32  C   UNL A   1      36.789  30.216  27.487  1.00  0.00     0.014 A 
ATOM     33  C   UNL A   1      36.272  29.636  29.778  1.00  0.00     0.014 A 
ATOM     34  C   UNL A   1      38.070  29.681  27.643  1.00  0.00     0.010 A 
ATOM     35  C   UNL A   1      37.574  29.173  29.956  1.00  0.00     0.010 A 
ATOM     36  C   UNL A   1      38.491  29.194  28.892  1.00  0.00    -0.014 A 
BRANCH  36  37
ATOM     37  C   UNL A   1      39.883  28.720  29.106  1.00  0.00     0.031 A 
ATOM     38  C   UNL A   1      40.925  29.641  29.681  1.00  0.00     0.074 A 
ATOM     39  C   UNL A   1      40.231  27.475  28.722  1.00  0.00     0.049 A 
ATOM     40  N   UNL A   1      42.200  29.419  29.887  1.00  0.00    -0.248 NA
ATOM     41  C   UNL A   1      40.482  30.993  30.055  1.00  0.00     0.031 C 
ATOM     42  C   UNL A   1      39.329  26.491  28.119  1.00  0.00     0.029 A 
ATOM     43  N   UNL A   1      41.438  26.825  28.778  1.00  0.00    -0.354 N 
ATOM     44  C   UNL A   1      42.712  30.606  30.398  1.00  0.00     0.074 A 
ATOM     45  C   UNL A   1      41.624  31.558  30.423  1.00  0.00     0.031 C 
ATOM     46  C   UNL A   1      40.007  25.354  27.889  1.00  0.00     0.029 A 
ATOM     47  C   UNL A   1      41.399  25.544  28.283  1.00  0.00     0.049 A 
ATOM     48  H   UNL A   1      42.257  27.238  29.138  1.00  0.00     0.167 HD
ATOM     49  C   UNL A   1      43.969  30.875  30.824  1.00  0.00     0.031 A 
ATOM     50  C   UNL A   1      42.375  24.625  28.149  1.00  0.00     0.031 A 
ATOM     51  C   UNL A   1      45.054  29.929  30.802  1.00  0.00     0.049 A 
ATOM     52  C   UNL A   1      43.770  24.960  28.599  1.00  0.00     0.074 A 
ATOM     53  C   UNL A   1      46.350  30.093  31.261  1.00  0.00     0.029 A 
ATOM     54  N   UNL A   1      44.973  28.645  30.287  1.00  0.00    -0.354 N 
ATOM     55  N   UNL A   1      44.220  26.063  29.144  1.00  0.00    -0.248 NA
ATOM     56  C   UNL A   1      44.790  23.915  28.425  1.00  0.00     0.031 C 
ATOM     57  C   UNL A   1      47.069  28.931  30.968  1.00  0.00     0.029 A 
ATOM     58  C   UNL A   1      46.204  28.017  30.388  1.00  0.00     0.049 A 
ATOM     59  H   UNL A   1      44.161  28.240  29.905  1.00  0.00     0.167 HD
ATOM     60  C   UNL A   1      45.566  25.835  29.406  1.00  0.00     0.074 A 
ATOM     61  C   UNL A   1      45.853  24.482  28.977  1.00  0.00     0.031 C 
ATOM     62  C   UNL A   1      46.480  26.671  29.956  1.00  0.00     0.031 A 
BRANCH  49  63
ATOM     63  C   UNL A   1      44.245  32.261  31.342  1.00  0.00    -0.014 A 
ATOM     64  C   UNL A   1      44.113  32.570  32.705  1.00  0.00     0.009 A 
ATOM     65  C   UNL A   1      44.680  33.263  30.460  1.00  0.00     0.009 A 
ATOM     66  C   UNL A   1      44.373  33.863  33.167  1.00  0.00     0.001 A 
ATOM     67  C   UNL A   1      44.972  34.544  30.929  1.00  0.00     0.001 A 
ATOM     68  C   UNL A   1      44.807  34.847  32.280  1.00  0.00     0.000 A 
ENDBRANCH  49  63
BRANCH  50  69
ATOM     69  C   UNL A   1      42.068  23.289  27.570  1.00  0.00    -0.014 A 
ATOM     70  C   UNL A   1      42.302  23.030  26.210  1.00  0.00     0.009 A 
ATOM     71  C   UNL A   1      41.525  22.270  28.369  1.00  0.00     0.009 A 
ATOM     72  C   UNL A   1      41.972  21.791  25.657  1.00  0.00     0.001 A 
ATOM     73  C   UNL A   1      41.226  21.022  27.820  1.00  0.00     0.001 A 
ATOM     74  C   UNL A   1      41.439  20.787  26.463  1.00  0.00     0.000 A 
ENDBRANCH  50  69
BRANCH  62  75
ATOM     75  C   UNL A   1      47.869  26.134  30.164  1.00  0.00    -0.014 A 
ATOM     76  C   UNL A   1      48.783  26.035  29.104  1.00  0.00     0.009 A 
ATOM     77  C   UNL A   1      48.281  25.759  31.453  1.00  0.00     0.009 A 
ATOM     78  C   UNL A   1      50.069  25.536  29.324  1.00  0.00     0.001 A 
ATOM     79  C   UNL A   1      49.578  25.293  31.677  1.00  0.00     0.001 A 
ATOM     80  C   UNL A   1      50.467  25.172  30.610  1.00  0.00     0.000 A 
ENDBRANCH  62  75
ENDBRANCH  36  37
ENDBRANCH  28  31
ENDBRANCH  26  27
ENDBRANCH  25  26
ENDBRANCH  24  25
ENDBRANCH   1  24
TORSDOF 15
ENDMDL
MODEL 2
REMARK VINA RESULT:     -11.1      3.270      8.053
REMARK SMILES O=C(CSc1nnc(-c2cccc(C(F)(F)F)c2F)o1)NCCCCNC(=O)c1ccc(-c2c3nc(c(-c4ccccc4)c4ccc([nH]4)c(-c4ccccc4)c4nc(c(-c5ccccc5)c5ccc2[nH]5)C=C4)C=C3)cc1
REMARK SMILES IDX 22 1 21 2 1 3 2 4 3 6 4 7 5 8 6 9 20 10 7 11 8 12 9 13 10 14
REMARK SMILES IDX 18 15 11 16 13 17 19 18 12 19 14 20 15 21 16 22 17 23 23 24
REMARK SMILES IDX 24 25 25 26 26 27 27 28 28 30 29 31 30 32 76 33 31 34 75 35
REMARK SMILES IDX 32 36 33 37 34 38 69 39 35 40 74 41 68 42 70 43 36 44 73 45
REMARK SMILES IDX 67 46 66 47 37 49 59 50 44 51 58 52 45 53 48 54 57 55 71 56
REMARK SMILES IDX 46 57 47 58 56 60 72 61 49 62 38 63 39 64 43 65 40 66 42 67
REMARK SMILES IDX 41 68 60 69 61 70 65 71 62 72 64 73 63 74 50 75 51 76 55 77
REMARK SMILES IDX 52 78 54 79 53 80
REMARK H PARENT 21 5 26 29 70 48 48 59
REMARK Flexibility Score: inf
ROOT
ATOM      1  C   UNL A   1      34.721  23.205  23.192  1.00  0.00     0.116 C 
ENDROOT
BRANCH   1   2
ATOM      2  N   UNL A   1      33.940  22.469  24.165  1.00  0.00    -0.355 N 
ATOM      3  O   UNL A   1      32.371  21.686  22.681  1.00  0.00    -0.274 OA
ATOM      4  C   UNL A   1      32.834  21.722  23.818  1.00  0.00     0.230 C 
ATOM      5  H   UNL A   1      34.211  22.503  25.112  1.00  0.00     0.163 HD
BRANCH   4   6
ATOM      6  C   UNL A   1      32.155  21.005  24.971  1.00  0.00     0.179 C 
BRANCH   6   7
ATOM      7  S   UNL A   1      32.478  21.804  26.562  1.00  0.00    -0.055 SA
BRANCH   7   8
ATOM      8  C   UNL A   1      31.503  23.239  26.448  1.00  0.00     0.277 A 
ATOM      9  N   UNL A   1      30.358  23.365  27.087  1.00  0.00    -0.101 NA
ATOM     10  O   UNL A   1      31.816  24.354  25.715  1.00  0.00    -0.411 OA
ATOM     11  N   UNL A   1      29.880  24.625  26.804  1.00  0.00    -0.107 NA
ATOM     12  C   UNL A   1      30.748  25.171  25.978  1.00  0.00     0.251 A 
BRANCH  12  13
ATOM     13  C   UNL A   1      30.752  26.507  25.412  1.00  0.00     0.075 A 
ATOM     14  C   UNL A   1      30.201  26.712  24.137  1.00  0.00     0.017 A 
ATOM     15  C   UNL A   1      31.348  27.588  26.072  1.00  0.00     0.148 A 
ATOM     16  C   UNL A   1      30.233  27.973  23.543  1.00  0.00     0.002 A 
ATOM     17  C   UNL A   1      31.406  28.855  25.482  1.00  0.00     0.092 A 
ATOM     18  F   UNL A   1      31.917  27.392  27.270  1.00  0.00    -0.205 F 
ATOM     19  C   UNL A   1      30.833  29.038  24.211  1.00  0.00     0.016 A 
BRANCH  17  20
ATOM     20  C   UNL A   1      32.089  30.007  26.160  1.00  0.00     0.419 C 
ATOM     21  F   UNL A   1      33.405  30.091  25.809  1.00  0.00    -0.166 F 
ATOM     22  F   UNL A   1      31.543  31.204  25.807  1.00  0.00    -0.166 F 
ATOM     23  F   UNL A   1      32.075  29.976  27.519  1.00  0.00    -0.166 F 
ENDBRANCH  17  20
ENDBRANCH  12  13
ENDBRANCH   7   8
ENDBRANCH   6   7
ENDBRANCH   4   6
ENDBRANCH   1   2
BRANCH   1  24
ATOM     24  C   UNL A   1      36.219  22.935  23.322  1.00  0.00     0.023 C 
BRANCH  24  25
ATOM     25  C   UNL A   1      36.927  23.705  24.440  1.00  0.00     0.023 C 
BRANCH  25  26
ATOM     26  C   UNL A   1      36.935  23.027  25.807  1.00  0.00     0.116 C 
BRANCH  26  27
ATOM     27  N   UNL A   1      38.112  22.202  26.031  1.00  0.00    -0.352 N 
ATOM     28  C   UNL A   1      39.356  22.554  26.495  1.00  0.00     0.251 C 
ATOM     29  H   UNL A   1      38.000  21.248  25.818  1.00  0.00     0.163 HD
ATOM     30  O   UNL A   1      40.268  21.731  26.491  1.00  0.00    -0.269 OA
BRANCH  28  31
ATOM     31  C   UNL A   1      39.621  23.933  26.968  1.00  0.00     0.039 A 
ATOM     32  C   UNL A   1      39.264  24.275  28.276  1.00  0.00     0.014 A 
ATOM     33  C   UNL A   1      40.209  24.888  26.135  1.00  0.00     0.014 A 
ATOM     34  C   UNL A   1      39.566  25.546  28.770  1.00  0.00     0.010 A 
ATOM     35  C   UNL A   1      40.580  26.128  26.652  1.00  0.00     0.010 A 
ATOM     36  C   UNL A   1      40.266  26.471  27.978  1.00  0.00    -0.014 A 
BRANCH  36  37
ATOM     37  C   UNL A   1      40.690  27.788  28.521  1.00  0.00     0.031 A 
ATOM     38  C   UNL A   1      39.687  28.892  28.722  1.00  0.00     0.074 A 
ATOM     39  C   UNL A   1      41.994  28.016  28.776  1.00  0.00     0.049 A 
ATOM     40  N   UNL A   1      39.882  30.120  29.134  1.00  0.00    -0.248 NA
ATOM     41  C   UNL A   1      38.285  28.581  28.400  1.00  0.00     0.031 C 
ATOM     42  C   UNL A   1      43.077  27.047  28.593  1.00  0.00     0.029 A 
ATOM     43  N   UNL A   1      42.633  29.140  29.240  1.00  0.00    -0.354 N 
ATOM     44  C   UNL A   1      38.634  30.731  29.104  1.00  0.00     0.074 A 
ATOM     45  C   UNL A   1      37.700  29.755  28.588  1.00  0.00     0.031 C 
ATOM     46  C   UNL A   1      44.238  27.606  28.970  1.00  0.00     0.029 A 
ATOM     47  C   UNL A   1      43.992  28.987  29.374  1.00  0.00     0.049 A 
ATOM     48  H   UNL A   1      42.161  29.977  29.456  1.00  0.00     0.167 HD
ATOM     49  C   UNL A   1      38.292  31.984  29.488  1.00  0.00     0.031 A 
ATOM     50  C   UNL A   1      44.938  29.861  29.768  1.00  0.00     0.031 A 
ATOM     51  C   UNL A   1      39.220  32.957  30.003  1.00  0.00     0.049 A 
ATOM     52  C   UNL A   1      44.537  31.256  30.157  1.00  0.00     0.074 A 
ATOM     53  C   UNL A   1      38.958  34.235  30.468  1.00  0.00     0.029 A 
ATOM     54  N   UNL A   1      40.587  32.763  30.116  1.00  0.00    -0.354 N 
ATOM     55  N   UNL A   1      43.343  31.795  30.189  1.00  0.00    -0.248 NA
ATOM     56  C   UNL A   1      45.617  32.162  30.577  1.00  0.00     0.031 C 
ATOM     57  C   UNL A   1      40.175  34.836  30.804  1.00  0.00     0.029 A 
ATOM     58  C   UNL A   1      41.187  33.909  30.614  1.00  0.00     0.049 A 
ATOM     59  H   UNL A   1      41.062  31.935  29.878  1.00  0.00     0.167 HD
ATOM     60  C   UNL A   1      43.524  33.089  30.660  1.00  0.00     0.074 A 
ATOM     61  C   UNL A   1      44.940  33.249  30.918  1.00  0.00     0.031 C 
ATOM     62  C   UNL A   1      42.598  34.058  30.865  1.00  0.00     0.031 A 
BRANCH  49  63
ATOM     63  C   UNL A   1      36.847  32.382  29.351  1.00  0.00    -0.014 A 
ATOM     64  C   UNL A   1      35.942  32.222  30.413  1.00  0.00     0.009 A 
ATOM     65  C   UNL A   1      36.392  32.962  28.156  1.00  0.00     0.009 A 
ATOM     66  C   UNL A   1      34.605  32.597  30.267  1.00  0.00     0.001 A 
ATOM     67  C   UNL A   1      35.063  33.367  28.025  1.00  0.00     0.001 A 
ATOM     68  C   UNL A   1      34.167  33.174  29.075  1.00  0.00     0.000 A 
ENDBRANCH  49  63
BRANCH  50  69
ATOM     69  C   UNL A   1      46.365  29.441  29.825  1.00  0.00    -0.014 A 
ATOM     70  C   UNL A   1      47.194  29.579  28.701  1.00  0.00     0.009 A 
ATOM     71  C   UNL A   1      46.901  28.885  30.997  1.00  0.00     0.009 A 
ATOM     72  C   UNL A   1      48.521  29.143  28.740  1.00  0.00     0.001 A 
ATOM     73  C   UNL A   1      48.236  28.480  31.043  1.00  0.00     0.001 A 
ATOM     74  C   UNL A   1      49.042  28.598  29.913  1.00  0.00     0.000 A 
ENDBRANCH  50  69
BRANCH  62  75
ATOM     75  C   UNL A   1      43.079  35.365  31.430  1.00  0.00    -0.014 A 
ATOM     76  C   UNL A   1      43.113  35.598  32.813  1.00  0.00     0.009 A 
ATOM     77  C   UNL A   1      43.543  36.367  30.562  1.00  0.00     0.009 A 
ATOM     78  C   UNL A   1      43.567  36.821  33.314  1.00  0.00     0.001 A 
ATOM     79  C   UNL A   1      44.029  37.574  31.065  1.00  0.00     0.001 A 
ATOM     80  C   UNL A   1      44.030  37.804  32.440  1.00  0.00     0.000 A 
ENDBRANCH  62  75
ENDBRANCH  36  37
ENDBRANCH  28  31
ENDBRANCH  26  27
ENDBRANCH  25  26
ENDBRANCH  24  25
ENDBRANCH   1  24
TORSDOF 15
ENDMDL
MODEL 3
REMARK VINA RESULT:     -11.0      2.845      8.017
REMARK SMILES O=C(CSc1nnc(-c2cccc(C(F)(F)F)c2F)o1)NCCCCNC(=O)c1ccc(-c2c3nc(c(-c4ccccc4)c4ccc([nH]4)c(-c4ccccc4)c4nc(c(-c5ccccc5)c5ccc2[nH]5)C=C4)C=C3)cc1
REMARK SMILES IDX 22 1 21 2 1 3 2 4 3 6 4 7 5 8 6 9 20 10 7 11 8 12 9 13 10 14
REMARK SMILES IDX 18 15 11 16 13 17 19 18 12 19 14 20 15 21 16 22 17 23 23 24
REMARK SMILES IDX 24 25 25 26 26 27 27 28 28 30 29 31 30 32 76 33 31 34 75 35
REMARK SMILES IDX 32 36 33 37 34 38 69 39 35 40 74 41 68 42 70 43 36 44 73 45
REMARK SMILES IDX 67 46 66 47 37 49 59 50 44 51 58 52 45 53 48 54 57 55 71 56
REMARK SMILES IDX 46 57 47 58 56 60 72 61 49 62 38 63 39 64 43 65 40 66 42 67
REMARK SMILES IDX 41 68 60 69 61 70 65 71 62 72 64 73 63 74 50 75 51 76 55 77
REMARK SMILES IDX 52 78 54 79 53 80
REMARK H PARENT 21 5 26 29 70 48 48 59
REMARK Flexibility Score: inf
ROOT
ATOM      1  C   UNL A   1      35.984  21.693  24.563  1.00  0.00     0.116 C 
ENDROOT
BRANCH   1   2
ATOM      2  N   UNL A   1      34.544  21.772  24.416  1.00  0.00    -0.355 N 
ATOM      3  O   UNL A   1      34.554  23.336  22.733  1.00  0.00    -0.274 OA
ATOM      4  C   UNL A   1      33.938  22.569  23.468  1.00  0.00     0.230 C 
ATOM      5  H   UNL A   1      33.977  21.234  25.016  1.00  0.00     0.163 HD
BRANCH   4   6
ATOM      6  C   UNL A   1      32.421  22.506  23.451  1.00  0.00     0.179 C 
BRANCH   6   7
ATOM      7  S   UNL A   1      31.728  22.202  25.094  1.00  0.00    -0.055 SA
BRANCH   7   8
ATOM      8  C   UNL A   1      31.152  23.780  25.540  1.00  0.00     0.277 A 
ATOM      9  N   UNL A   1      30.338  23.972  26.557  1.00  0.00    -0.101 NA
ATOM     10  O   UNL A   1      31.480  24.952  24.908  1.00  0.00    -0.411 OA
ATOM     11  N   UNL A   1      30.120  25.329  26.643  1.00  0.00    -0.107 NA
ATOM     12  C   UNL A   1      30.787  25.873  25.648  1.00  0.00     0.251 A 
BRANCH  12  13
ATOM     13  C   UNL A   1      30.939  27.276  25.311  1.00  0.00     0.075 A 
ATOM     14  C   UNL A   1      31.807  28.073  26.073  1.00  0.00     0.017 A 
ATOM     15  C   UNL A   1      30.195  27.875  24.287  1.00  0.00     0.148 A 
ATOM     16  C   UNL A   1      31.940  29.436  25.807  1.00  0.00     0.002 A 
ATOM     17  C   UNL A   1      30.302  29.244  24.020  1.00  0.00     0.092 A 
ATOM     18  F   UNL A   1      29.331  27.131  23.583  1.00  0.00    -0.205 F 
ATOM     19  C   UNL A   1      31.190  30.018  24.787  1.00  0.00     0.016 A 
BRANCH  17  20
ATOM     20  C   UNL A   1      29.471  29.904  22.958  1.00  0.00     0.419 C 
ATOM     21  F   UNL A   1      28.165  29.513  23.024  1.00  0.00    -0.166 F 
ATOM     22  F   UNL A   1      29.449  31.260  23.095  1.00  0.00    -0.166 F 
ATOM     23  F   UNL A   1      29.860  29.664  21.679  1.00  0.00    -0.166 F 
ENDBRANCH  17  20
ENDBRANCH  12  13
ENDBRANCH   7   8
ENDBRANCH   6   7
ENDBRANCH   4   6
ENDBRANCH   1   2
BRANCH   1  24
ATOM     24  C   UNL A   1      36.447  20.312  25.024  1.00  0.00     0.023 C 
BRANCH  24  25
ATOM     25  C   UNL A   1      37.897  19.962  24.683  1.00  0.00     0.023 C 
BRANCH  25  26
ATOM     26  C   UNL A   1      38.925  20.274  25.766  1.00  0.00     0.116 C 
BRANCH  26  27
ATOM     27  N   UNL A   1      40.029  19.328  25.799  1.00  0.00    -0.352 N 
ATOM     28  C   UNL A   1      41.348  19.528  26.127  1.00  0.00     0.251 C 
ATOM     29  H   UNL A   1      39.795  18.405  25.550  1.00  0.00     0.163 HD
ATOM     30  O   UNL A   1      42.164  18.623  25.966  1.00  0.00    -0.269 OA
BRANCH  28  31
ATOM     31  C   UNL A   1      41.806  20.841  26.638  1.00  0.00     0.039 A 
ATOM     32  C   UNL A   1      42.238  21.806  25.723  1.00  0.00     0.014 A 
ATOM     33  C   UNL A   1      41.818  21.126  28.006  1.00  0.00     0.014 A 
ATOM     34  C   UNL A   1      42.609  23.075  26.172  1.00  0.00     0.010 A 
ATOM     35  C   UNL A   1      42.112  22.415  28.445  1.00  0.00     0.010 A 
ATOM     36  C   UNL A   1      42.508  23.407  27.533  1.00  0.00    -0.014 A 
BRANCH  36  37
ATOM     37  C   UNL A   1      42.795  24.784  28.015  1.00  0.00     0.031 A 
ATOM     38  C   UNL A   1      44.194  25.185  28.396  1.00  0.00     0.074 A 
ATOM     39  C   UNL A   1      41.782  25.660  28.173  1.00  0.00     0.049 A 
ATOM     40  N   UNL A   1      44.622  26.322  28.886  1.00  0.00    -0.248 NA
ATOM     41  C   UNL A   1      45.246  24.171  28.222  1.00  0.00     0.031 C 
ATOM     42  C   UNL A   1      40.373  25.391  27.875  1.00  0.00     0.029 A 
ATOM     43  N   UNL A   1      41.781  26.955  28.628  1.00  0.00    -0.354 N 
ATOM     44  C   UNL A   1      45.986  26.154  29.094  1.00  0.00     0.074 A 
ATOM     45  C   UNL A   1      46.304  24.792  28.724  1.00  0.00     0.031 C 
ATOM     46  C   UNL A   1      39.651  26.496  28.126  1.00  0.00     0.029 A 
ATOM     47  C   UNL A   1      40.535  27.533  28.647  1.00  0.00     0.049 A 
ATOM     48  H   UNL A   1      42.598  27.426  28.915  1.00  0.00     0.167 HD
ATOM     49  C   UNL A   1      46.896  27.055  29.535  1.00  0.00     0.031 A 
ATOM     50  C   UNL A   1      40.142  28.758  29.048  1.00  0.00     0.031 A 
ATOM     51  C   UNL A   1      46.584  28.411  29.902  1.00  0.00     0.049 A 
ATOM     52  C   UNL A   1      41.167  29.729  29.565  1.00  0.00     0.074 A 
ATOM     53  C   UNL A   1      47.447  29.414  30.310  1.00  0.00     0.029 A 
ATOM     54  N   UNL A   1      45.309  28.953  29.913  1.00  0.00    -0.354 N 
ATOM     55  N   UNL A   1      42.463  29.576  29.688  1.00  0.00    -0.248 NA
ATOM     56  C   UNL A   1      40.674  31.048  29.987  1.00  0.00     0.031 C 
ATOM     57  C   UNL A   1      46.687  30.543  30.627  1.00  0.00     0.029 A 
ATOM     58  C   UNL A   1      45.358  30.267  30.350  1.00  0.00     0.049 A 
ATOM     59  H   UNL A   1      44.489  28.476  29.649  1.00  0.00     0.167 HD
ATOM     60  C   UNL A   1      42.942  30.786  30.173  1.00  0.00     0.074 A 
ATOM     61  C   UNL A   1      41.802  31.668  30.303  1.00  0.00     0.031 C 
ATOM     62  C   UNL A   1      44.216  31.136  30.478  1.00  0.00     0.031 A 
BRANCH  49  63
ATOM     63  C   UNL A   1      48.324  26.595  29.658  1.00  0.00    -0.014 A 
ATOM     64  C   UNL A   1      49.241  26.773  28.610  1.00  0.00     0.009 A 
ATOM     65  C   UNL A   1      48.770  26.012  30.855  1.00  0.00     0.009 A 
ATOM     66  C   UNL A   1      50.562  26.340  28.743  1.00  0.00     0.001 A 
ATOM     67  C   UNL A   1      50.099  25.611  30.998  1.00  0.00     0.001 A 
ATOM     68  C   UNL A   1      50.992  25.765  29.938  1.00  0.00     0.000 A 
ENDBRANCH  49  63
BRANCH  50  69
ATOM     69  C   UNL A   1      38.707  29.145  28.968  1.00  0.00    -0.014 A 
ATOM     70  C   UNL A   1      38.178  29.683  27.785  1.00  0.00     0.009 A 
ATOM     71  C   UNL A   1      37.863  28.993  30.079  1.00  0.00     0.009 A 
ATOM     72  C   UNL A   1      36.842  30.087  27.724  1.00  0.00     0.001 A 
ATOM     73  C   UNL A   1      36.520  29.368  30.006  1.00  0.00     0.001 A 
ATOM     74  C   UNL A   1      36.014  29.925  28.833  1.00  0.00     0.000 A 
ENDBRANCH  50  69
BRANCH  62  75
ATOM     75  C   UNL A   1      44.452  32.546  30.947  1.00  0.00    -0.014 A 
ATOM     76  C   UNL A   1      44.437  32.878  32.310  1.00  0.00     0.009 A 
ATOM     77  C   UNL A   1      44.731  33.550  30.006  1.00  0.00     0.009 A 
ATOM     78  C   UNL A   1      44.662  34.194  32.719  1.00  0.00     0.001 A 
ATOM     79  C   UNL A   1      44.989  34.858  30.419  1.00  0.00     0.001 A 
ATOM     80  C   UNL A   1      44.944  35.181  31.774  1.00  0.00     0.000 A 
ENDBRANCH  62  75
ENDBRANCH  36  37
ENDBRANCH  28  31
ENDBRANCH  26  27
ENDBRANCH  25  26
ENDBRANCH  24  25
ENDBRANCH   1  24
TORSDOF 15
ENDMDL
