MODEL 1
REMARK VINA RESULT:     -11.8      0.000      0.000
REMARK SMILES Cc1ccc(NC(=O)C[C@H]([NH2+]Cc2cccnc2)C(=O)NCCCCNC(=O)c2ccc(-c3c4nc(c(-c5ccccc5)c5ccc([nH]5)c(-c5ccccc5)c5nc(c(-c6ccccc6)c6ccc3[nH]6)C=C5)C=C4)cc2)cc1Cl
REMARK SMILES IDX 23 1 22 2 21 3 19 4 20 5 10 7 9 8 7 9 6 10 8 12 5 13 1 14
REMARK SMILES IDX 2 15 3 16 78 17 4 18 77 19 79 20 11 21 12 24 13 25 14 26
REMARK SMILES IDX 18 27 15 28 17 29 16 30 24 31 25 32 26 33 27 34 28 36 29 37
REMARK SMILES IDX 30 38 76 39 31 40 75 41 32 42 33 43 34 44 69 45 35 46 74 47
REMARK SMILES IDX 68 48 70 49 36 50 73 51 67 52 66 53 37 55 59 56 44 57 58 58
REMARK SMILES IDX 45 59 48 60 57 61 71 62 46 63 47 64 56 66 72 67 49 68 38 69
REMARK SMILES IDX 39 70 43 71 40 72 42 73 41 74 60 75 61 76 65 77 62 78 64 79
REMARK SMILES IDX 63 80 50 81 51 82 55 83 52 84 54 85 53 86
REMARK H PARENT 21 6 6 11 11 22 11 23 26 35 70 54 48 65
REMARK Flexibility Score: inf
ROOT
ATOM      1  C   UNL A   1      36.868  22.883  24.519  1.00  0.00     0.023 C 
ENDROOT
BRANCH   1   2
ATOM      2  C   UNL A   1      36.186  23.733  25.593  1.00  0.00     0.116 C 
BRANCH   2   3
ATOM      3  N   UNL A   1      35.470  22.909  26.565  1.00  0.00    -0.351 N 
ATOM      4  C   UNL A   1      34.258  22.309  26.661  1.00  0.00     0.278 C 
ATOM      5  O   UNL A   1      34.053  21.725  27.739  1.00  0.00    -0.268 OA
ATOM      6  H   UNL A   1      36.017  22.743  27.367  1.00  0.00     0.163 HD
BRANCH   4   7
ATOM      7  C   UNL A   1      33.097  22.332  25.615  1.00  0.00     0.282 C 
BRANCH   7   8
ATOM      8  C   UNL A   1      31.686  22.344  26.160  1.00  0.00     0.175 C 
BRANCH   8   9
ATOM      9  C   UNL A   1      30.889  23.457  26.819  1.00  0.00     0.230 C 
ATOM     10  N   UNL A   1      30.873  24.795  26.695  1.00  0.00    -0.326 N 
ATOM     11  H   UNL A   1      30.198  25.170  27.306  1.00  0.00     0.169 HD
ATOM     12  O   UNL A   1      30.031  23.056  27.635  1.00  0.00    -0.274 OA
BRANCH  10  13
ATOM     13  C   UNL A   1      31.491  25.840  25.993  1.00  0.00     0.042 A 
ATOM     14  C   UNL A   1      33.733  28.945  23.933  1.00  0.00     0.046 C 
ATOM     15  C   UNL A   1      32.955  27.885  24.653  1.00  0.00    -0.032 A 
ATOM     16  C   UNL A   1      33.615  26.840  25.307  1.00  0.00     0.007 A 
ATOM     17  C   UNL A   1      31.562  27.894  24.683  1.00  0.00     0.046 A 
ATOM     18  C   UNL A   1      32.892  25.833  25.963  1.00  0.00     0.026 A 
ATOM     19  C   UNL A   1      30.858  26.897  25.366  1.00  0.00     0.047 A 
ATOM     20  Cl  UNL A   1      30.642  29.142  23.915  1.00  0.00    -0.084 Cl
ENDBRANCH  10  13
ENDBRANCH   8   9
ENDBRANCH   7   8
BRANCH   7  21
ATOM     21  N   UNL A   1      33.445  21.445  24.494  1.00  0.00    -0.332 N 
ATOM     22  H   UNL A   1      34.272  20.919  24.774  1.00  0.00     0.347 HD
ATOM     23  H   UNL A   1      33.561  22.081  23.703  1.00  0.00     0.347 HD
BRANCH  21  24
ATOM     24  C   UNL A   1      32.457  20.481  24.034  1.00  0.00     0.299 C 
BRANCH  24  25
ATOM     25  C   UNL A   1      33.116  19.140  23.812  1.00  0.00     0.024 A 
ATOM     26  C   UNL A   1      34.239  18.731  24.541  1.00  0.00     0.013 A 
ATOM     27  C   UNL A   1      32.578  18.216  22.917  1.00  0.00     0.120 A 
ATOM     28  C   UNL A   1      34.738  17.440  24.385  1.00  0.00     0.021 A 
ATOM     29  N   UNL A   1      33.049  16.960  22.732  1.00  0.00    -0.264 NA
ATOM     30  C   UNL A   1      34.110  16.597  23.484  1.00  0.00     0.111 A 
ENDBRANCH  24  25
ENDBRANCH  21  24
ENDBRANCH   7  21
ENDBRANCH   4   7
ENDBRANCH   2   3
ENDBRANCH   1   2
BRANCH   1  31
ATOM     31  C   UNL A   1      37.333  21.497  24.929  1.00  0.00     0.023 C 
BRANCH  31  32
ATOM     32  C   UNL A   1      38.636  21.463  25.710  1.00  0.00     0.116 C 
BRANCH  32  33
ATOM     33  N   UNL A   1      39.390  20.221  25.603  1.00  0.00    -0.352 N 
ATOM     34  C   UNL A   1      40.691  19.966  25.996  1.00  0.00     0.251 C 
ATOM     35  H   UNL A   1      38.908  19.463  25.198  1.00  0.00     0.163 HD
ATOM     36  O   UNL A   1      41.198  18.863  25.807  1.00  0.00    -0.269 OA
BRANCH  34  37
ATOM     37  C   UNL A   1      41.493  21.063  26.582  1.00  0.00     0.039 A 
ATOM     38  C   UNL A   1      42.076  22.006  25.733  1.00  0.00     0.014 A 
ATOM     39  C   UNL A   1      41.555  21.229  27.965  1.00  0.00     0.014 A 
ATOM     40  C   UNL A   1      42.601  23.186  26.271  1.00  0.00     0.010 A 
ATOM     41  C   UNL A   1      41.967  22.449  28.487  1.00  0.00     0.010 A 
ATOM     42  C   UNL A   1      42.481  23.450  27.646  1.00  0.00    -0.014 A 
BRANCH  42  43
ATOM     43  C   UNL A   1      42.857  24.763  28.235  1.00  0.00     0.031 A 
ATOM     44  C   UNL A   1      41.799  25.807  28.475  1.00  0.00     0.074 A 
ATOM     45  C   UNL A   1      44.156  25.063  28.446  1.00  0.00     0.049 A 
ATOM     46  N   UNL A   1      41.939  27.055  28.847  1.00  0.00    -0.248 NA
ATOM     47  C   UNL A   1      40.405  25.410  28.218  1.00  0.00     0.031 C 
ATOM     48  C   UNL A   1      45.293  24.174  28.193  1.00  0.00     0.029 A 
ATOM     49  N   UNL A   1      44.740  26.216  28.913  1.00  0.00    -0.354 N 
ATOM     50  C   UNL A   1      40.662  27.600  28.818  1.00  0.00     0.074 A 
ATOM     51  C   UNL A   1      39.768  26.563  28.350  1.00  0.00     0.031 C 
ATOM     52  C   UNL A   1      46.430  24.798  28.546  1.00  0.00     0.029 A 
ATOM     53  C   UNL A   1      46.109  26.144  29.005  1.00  0.00     0.049 A 
ATOM     54  H   UNL A   1      44.225  27.018  29.158  1.00  0.00     0.167 HD
ATOM     55  C   UNL A   1      40.260  28.843  29.169  1.00  0.00     0.031 A 
ATOM     56  C   UNL A   1      47.008  27.061  29.414  1.00  0.00     0.031 A 
ATOM     57  C   UNL A   1      41.133  29.855  29.695  1.00  0.00     0.049 A 
ATOM     58  C   UNL A   1      46.531  28.417  29.849  1.00  0.00     0.074 A 
ATOM     59  C   UNL A   1      40.805  31.111  30.176  1.00  0.00     0.029 A 
ATOM     60  N   UNL A   1      42.506  29.722  29.821  1.00  0.00    -0.354 N 
ATOM     61  N   UNL A   1      45.309  28.889  29.889  1.00  0.00    -0.248 NA
ATOM     62  C   UNL A   1      47.558  29.365  30.306  1.00  0.00     0.031 C 
ATOM     63  C   UNL A   1      41.987  31.751  30.565  1.00  0.00     0.029 A 
ATOM     64  C   UNL A   1      43.043  30.878  30.360  1.00  0.00     0.049 A 
ATOM     65  H   UNL A   1      43.023  28.924  29.565  1.00  0.00     0.167 HD
ATOM     66  C   UNL A   1      45.417  30.175  30.402  1.00  0.00     0.074 A 
ATOM     67  C   UNL A   1      46.822  30.405  30.669  1.00  0.00     0.031 C 
ATOM     68  C   UNL A   1      44.440  31.084  30.632  1.00  0.00     0.031 A 
BRANCH  55  69
ATOM     69  C   UNL A   1      38.804  29.172  29.002  1.00  0.00    -0.014 A 
ATOM     70  C   UNL A   1      37.896  29.013  30.062  1.00  0.00     0.009 A 
ATOM     71  C   UNL A   1      38.339  29.670  27.777  1.00  0.00     0.009 A 
ATOM     72  C   UNL A   1      36.543  29.307  29.883  1.00  0.00     0.001 A 
ATOM     73  C   UNL A   1      36.990  29.991  27.610  1.00  0.00     0.001 A 
ATOM     74  C   UNL A   1      36.093  29.800  28.659  1.00  0.00     0.000 A 
ENDBRANCH  55  69
BRANCH  56  75
ATOM     75  C   UNL A   1      48.455  26.723  29.466  1.00  0.00    -0.014 A 
ATOM     76  C   UNL A   1      48.995  26.114  30.609  1.00  0.00     0.009 A 
ATOM     77  C   UNL A   1      49.306  27.029  28.393  1.00  0.00     0.009 A 
ATOM     78  C   UNL A   1      50.363  25.844  30.690  1.00  0.00     0.001 A 
ATOM     79  C   UNL A   1      50.670  26.735  28.468  1.00  0.00     0.001 A 
ATOM     80  C   UNL A   1      51.198  26.154  29.619  1.00  0.00     0.000 A 
ENDBRANCH  56  75
BRANCH  68  81
ATOM     81  C   UNL A   1      44.849  32.393  31.239  1.00  0.00    -0.014 A 
ATOM     82  C   UNL A   1      45.180  33.495  30.438  1.00  0.00     0.009 A 
ATOM     83  C   UNL A   1      44.860  32.535  32.636  1.00  0.00     0.009 A 
ATOM     84  C   UNL A   1      45.539  34.710  31.025  1.00  0.00     0.001 A 
ATOM     85  C   UNL A   1      45.195  33.757  33.219  1.00  0.00     0.001 A 
ATOM     86  C   UNL A   1      45.542  34.841  32.413  1.00  0.00     0.000 A 
ENDBRANCH  68  81
ENDBRANCH  42  43
ENDBRANCH  34  37
ENDBRANCH  32  33
ENDBRANCH  31  32
ENDBRANCH   1  31
TORSDOF 17
ENDMDL
MODEL 2
REMARK VINA RESULT:     -11.8      1.369      2.574
REMARK SMILES Cc1ccc(NC(=O)C[C@H]([NH2+]Cc2cccnc2)C(=O)NCCCCNC(=O)c2ccc(-c3c4nc(c(-c5ccccc5)c5ccc([nH]5)c(-c5ccccc5)c5nc(c(-c6ccccc6)c6ccc3[nH]6)C=C5)C=C4)cc2)cc1Cl
REMARK SMILES IDX 23 1 22 2 21 3 19 4 20 5 10 7 9 8 7 9 6 10 8 12 5 13 1 14
REMARK SMILES IDX 2 15 3 16 78 17 4 18 77 19 79 20 11 21 12 24 13 25 14 26
REMARK SMILES IDX 18 27 15 28 17 29 16 30 24 31 25 32 26 33 27 34 28 36 29 37
REMARK SMILES IDX 30 38 76 39 31 40 75 41 32 42 33 43 34 44 69 45 35 46 74 47
REMARK SMILES IDX 68 48 70 49 36 50 73 51 67 52 66 53 37 55 59 56 44 57 58 58
REMARK SMILES IDX 45 59 48 60 57 61 71 62 46 63 47 64 56 66 72 67 49 68 38 69
REMARK SMILES IDX 39 70 43 71 40 72 42 73 41 74 60 75 61 76 65 77 62 78 64 79
REMARK SMILES IDX 63 80 50 81 51 82 55 83 52 84 54 85 53 86
REMARK H PARENT 21 6 6 11 11 22 11 23 26 35 70 54 48 65
REMARK Flexibility Score: inf
ROOT
ATOM      1  C   UNL A   1      36.346  20.716  25.061  1.00  0.00     0.023 C 
ENDROOT
BRANCH   1   2
ATOM      2  C   UNL A   1      35.157  21.232  25.875  1.00  0.00     0.116 C 
BRANCH   2   3
ATOM      3  N   UNL A   1      33.951  20.443  25.632  1.00  0.00    -0.351 N 
ATOM      4  C   UNL A   1      32.684  20.668  25.200  1.00  0.00     0.278 C 
ATOM      5  O   UNL A   1      31.953  19.662  25.198  1.00  0.00    -0.268 OA
ATOM      6  H   UNL A   1      34.097  19.491  25.837  1.00  0.00     0.163 HD
BRANCH   4   7
ATOM      7  C   UNL A   1      32.046  22.031  24.783  1.00  0.00     0.282 C 
BRANCH   7   8
ATOM      8  C   UNL A   1      30.757  22.421  25.471  1.00  0.00     0.175 C 
BRANCH   8   9
ATOM      9  C   UNL A   1      30.484  23.454  26.551  1.00  0.00     0.230 C 
ATOM     10  N   UNL A   1      30.389  24.794  26.560  1.00  0.00    -0.326 N 
ATOM     11  H   UNL A   1      30.194  25.100  27.476  1.00  0.00     0.169 HD
ATOM     12  O   UNL A   1      30.264  22.965  27.681  1.00  0.00    -0.274 OA
BRANCH  10  13
ATOM     13  C   UNL A   1      30.475  25.907  25.711  1.00  0.00     0.042 A 
ATOM     14  C   UNL A   1      30.594  29.146  22.812  1.00  0.00     0.046 C 
ATOM     15  C   UNL A   1      30.568  28.029  23.812  1.00  0.00    -0.032 A 
ATOM     16  C   UNL A   1      29.974  26.804  23.492  1.00  0.00     0.007 A 
ATOM     17  C   UNL A   1      31.115  28.174  25.085  1.00  0.00     0.046 A 
ATOM     18  C   UNL A   1      29.927  25.762  24.430  1.00  0.00     0.026 A 
ATOM     19  C   UNL A   1      31.083  27.115  25.998  1.00  0.00     0.047 A 
ATOM     20  Cl  UNL A   1      31.881  29.642  25.586  1.00  0.00    -0.084 Cl
ENDBRANCH  10  13
ENDBRANCH   8   9
ENDBRANCH   7   8
BRANCH   7  21
ATOM     21  N   UNL A   1      32.185  22.199  23.328  1.00  0.00    -0.332 N 
ATOM     22  H   UNL A   1      31.470  22.864  23.034  1.00  0.00     0.347 HD
ATOM     23  H   UNL A   1      32.100  21.251  22.961  1.00  0.00     0.347 HD
BRANCH  21  24
ATOM     24  C   UNL A   1      33.456  22.673  22.798  1.00  0.00     0.299 C 
BRANCH  24  25
ATOM     25  C   UNL A   1      33.426  24.177  22.667  1.00  0.00     0.024 A 
ATOM     26  C   UNL A   1      33.755  25.024  23.731  1.00  0.00     0.013 A 
ATOM     27  C   UNL A   1      33.143  24.784  21.444  1.00  0.00     0.120 A 
ATOM     28  C   UNL A   1      33.829  26.401  23.527  1.00  0.00     0.021 A 
ATOM     29  N   UNL A   1      33.192  26.119  21.219  1.00  0.00    -0.264 NA
ATOM     30  C   UNL A   1      33.550  26.894  22.264  1.00  0.00     0.111 A 
ENDBRANCH  24  25
ENDBRANCH  21  24
ENDBRANCH   7  21
ENDBRANCH   4   7
ENDBRANCH   2   3
ENDBRANCH   1   2
BRANCH   1  31
ATOM     31  C   UNL A   1      37.489  21.686  24.820  1.00  0.00     0.023 C 
BRANCH  31  32
ATOM     32  C   UNL A   1      38.663  21.543  25.775  1.00  0.00     0.116 C 
BRANCH  32  33
ATOM     33  N   UNL A   1      39.428  20.310  25.635  1.00  0.00    -0.352 N 
ATOM     34  C   UNL A   1      40.738  20.062  26.003  1.00  0.00     0.251 C 
ATOM     35  H   UNL A   1      38.947  19.555  25.225  1.00  0.00     0.163 HD
ATOM     36  O   UNL A   1      41.253  18.967  25.786  1.00  0.00    -0.269 OA
BRANCH  34  37
ATOM     37  C   UNL A   1      41.538  21.157  26.594  1.00  0.00     0.039 A 
ATOM     38  C   UNL A   1      42.124  22.103  25.750  1.00  0.00     0.014 A 
ATOM     39  C   UNL A   1      41.596  21.319  27.977  1.00  0.00     0.014 A 
ATOM     40  C   UNL A   1      42.647  23.280  26.293  1.00  0.00     0.010 A 
ATOM     41  C   UNL A   1      42.006  22.537  28.504  1.00  0.00     0.010 A 
ATOM     42  C   UNL A   1      42.523  23.540  27.669  1.00  0.00    -0.014 A 
BRANCH  42  43
ATOM     43  C   UNL A   1      42.898  24.851  28.262  1.00  0.00     0.031 A 
ATOM     44  C   UNL A   1      41.838  25.891  28.512  1.00  0.00     0.074 A 
ATOM     45  C   UNL A   1      44.196  25.154  28.470  1.00  0.00     0.049 A 
ATOM     46  N   UNL A   1      41.975  27.137  28.889  1.00  0.00    -0.248 NA
ATOM     47  C   UNL A   1      40.444  25.492  28.259  1.00  0.00     0.031 C 
ATOM     48  C   UNL A   1      45.335  24.270  28.208  1.00  0.00     0.029 A 
ATOM     49  N   UNL A   1      44.778  26.306  28.941  1.00  0.00    -0.354 N 
ATOM     50  C   UNL A   1      40.696  27.679  28.868  1.00  0.00     0.074 A 
ATOM     51  C   UNL A   1      39.803  26.642  28.399  1.00  0.00     0.031 C 
ATOM     52  C   UNL A   1      46.471  24.895  28.560  1.00  0.00     0.029 A 
ATOM     53  C   UNL A   1      46.149  26.238  29.027  1.00  0.00     0.049 A 
ATOM     54  H   UNL A   1      44.262  27.106  29.192  1.00  0.00     0.167 HD
ATOM     55  C   UNL A   1      40.292  28.919  29.228  1.00  0.00     0.031 A 
ATOM     56  C   UNL A   1      47.046  27.155  29.437  1.00  0.00     0.031 A 
ATOM     57  C   UNL A   1      41.164  29.931  29.755  1.00  0.00     0.049 A 
ATOM     58  C   UNL A   1      46.567  28.508  29.881  1.00  0.00     0.074 A 
ATOM     59  C   UNL A   1      40.835  31.183  30.244  1.00  0.00     0.029 A 
ATOM     60  N   UNL A   1      42.538  29.801  29.875  1.00  0.00    -0.354 N 
ATOM     61  N   UNL A   1      45.343  28.976  29.928  1.00  0.00    -0.248 NA
ATOM     62  C   UNL A   1      47.593  29.457  30.338  1.00  0.00     0.031 C 
ATOM     63  C   UNL A   1      42.016  31.825  30.632  1.00  0.00     0.029 A 
ATOM     64  C   UNL A   1      43.073  30.956  30.418  1.00  0.00     0.049 A 
ATOM     65  H   UNL A   1      43.056  29.006  29.613  1.00  0.00     0.167 HD
ATOM     66  C   UNL A   1      45.450  30.260  30.447  1.00  0.00     0.074 A 
ATOM     67  C   UNL A   1      46.855  30.493  30.710  1.00  0.00     0.031 C 
ATOM     68  C   UNL A   1      44.471  31.164  30.685  1.00  0.00     0.031 A 
BRANCH  55  69
ATOM     69  C   UNL A   1      38.835  29.244  29.068  1.00  0.00    -0.014 A 
ATOM     70  C   UNL A   1      37.940  29.124  30.145  1.00  0.00     0.009 A 
ATOM     71  C   UNL A   1      38.354  29.700  27.832  1.00  0.00     0.009 A 
ATOM     72  C   UNL A   1      36.585  29.414  29.973  1.00  0.00     0.001 A 
ATOM     73  C   UNL A   1      37.004  30.017  27.671  1.00  0.00     0.001 A 
ATOM     74  C   UNL A   1      36.120  29.865  28.738  1.00  0.00     0.000 A 
ENDBRANCH  55  69
BRANCH  56  75
ATOM     75  C   UNL A   1      48.494  26.822  29.481  1.00  0.00    -0.014 A 
ATOM     76  C   UNL A   1      49.313  27.093  28.374  1.00  0.00     0.009 A 
ATOM     77  C   UNL A   1      49.059  26.211  30.611  1.00  0.00     0.009 A 
ATOM     78  C   UNL A   1      50.662  26.733  28.384  1.00  0.00     0.001 A 
ATOM     79  C   UNL A   1      50.416  25.874  30.627  1.00  0.00     0.001 A 
ATOM     80  C   UNL A   1      51.212  26.125  29.511  1.00  0.00     0.000 A 
ENDBRANCH  56  75
BRANCH  68  81
ATOM     81  C   UNL A   1      44.879  32.472  31.298  1.00  0.00    -0.014 A 
ATOM     82  C   UNL A   1      45.213  33.576  30.501  1.00  0.00     0.009 A 
ATOM     83  C   UNL A   1      44.885  32.610  32.695  1.00  0.00     0.009 A 
ATOM     84  C   UNL A   1      45.570  34.789  31.092  1.00  0.00     0.001 A 
ATOM     85  C   UNL A   1      45.219  33.830  33.282  1.00  0.00     0.001 A 
ATOM     86  C   UNL A   1      45.569  34.916  32.481  1.00  0.00     0.000 A 
ENDBRANCH  68  81
ENDBRANCH  42  43
ENDBRANCH  34  37
ENDBRANCH  32  33
ENDBRANCH  31  32
ENDBRANCH   1  31
TORSDOF 17
ENDMDL
MODEL 3
REMARK VINA RESULT:     -11.6      2.569      7.093
REMARK SMILES Cc1ccc(NC(=O)C[C@H]([NH2+]Cc2cccnc2)C(=O)NCCCCNC(=O)c2ccc(-c3c4nc(c(-c5ccccc5)c5ccc([nH]5)c(-c5ccccc5)c5nc(c(-c6ccccc6)c6ccc3[nH]6)C=C5)C=C4)cc2)cc1Cl
REMARK SMILES IDX 23 1 22 2 21 3 19 4 20 5 10 7 9 8 7 9 6 10 8 12 5 13 1 14
REMARK SMILES IDX 2 15 3 16 78 17 4 18 77 19 79 20 11 21 12 24 13 25 14 26
REMARK SMILES IDX 18 27 15 28 17 29 16 30 24 31 25 32 26 33 27 34 28 36 29 37
REMARK SMILES IDX 30 38 76 39 31 40 75 41 32 42 33 43 34 44 69 45 35 46 74 47
REMARK SMILES IDX 68 48 70 49 36 50 73 51 67 52 66 53 37 55 59 56 44 57 58 58
REMARK SMILES IDX 45 59 48 60 57 61 71 62 46 63 47 64 56 66 72 67 49 68 38 69
REMARK SMILES IDX 39 70 43 71 40 72 42 73 41 74 60 75 61 76 65 77 62 78 64 79
REMARK SMILES IDX 63 80 50 81 51 82 55 83 52 84 54 85 53 86
REMARK H PARENT 21 6 6 11 11 22 11 23 26 35 70 54 48 65
REMARK Flexibility Score: inf
ROOT
ATOM      1  C   UNL A   1      36.363  20.804  24.677  1.00  0.00     0.023 C 
ENDROOT
BRANCH   1   2
ATOM      2  C   UNL A   1      34.896  20.616  25.071  1.00  0.00     0.116 C 
BRANCH   2   3
ATOM      3  N   UNL A   1      34.641  21.058  26.441  1.00  0.00    -0.351 N 
ATOM      4  C   UNL A   1      33.921  22.029  27.056  1.00  0.00     0.278 C 
ATOM      5  O   UNL A   1      34.047  22.062  28.292  1.00  0.00    -0.268 OA
ATOM      6  H   UNL A   1      35.122  20.500  27.094  1.00  0.00     0.163 HD
BRANCH   4   7
ATOM      7  C   UNL A   1      33.030  23.124  26.387  1.00  0.00     0.282 C 
BRANCH   7   8
ATOM      8  C   UNL A   1      31.553  22.822  26.264  1.00  0.00     0.175 C 
BRANCH   8   9
ATOM      9  C   UNL A   1      30.339  23.605  26.733  1.00  0.00     0.230 C 
ATOM     10  N   UNL A   1      29.836  24.816  26.436  1.00  0.00    -0.326 N 
ATOM     11  H   UNL A   1      29.015  24.963  26.959  1.00  0.00     0.169 HD
ATOM     12  O   UNL A   1      29.620  22.991  27.550  1.00  0.00    -0.274 OA
BRANCH  10  13
ATOM     13  C   UNL A   1      30.082  25.941  25.636  1.00  0.00     0.042 A 
ATOM     14  C   UNL A   1      30.691  29.245  22.874  1.00  0.00     0.046 C 
ATOM     15  C   UNL A   1      30.495  28.103  23.827  1.00  0.00    -0.032 A 
ATOM     16  C   UNL A   1      29.796  26.959  23.431  1.00  0.00     0.007 A 
ATOM     17  C   UNL A   1      30.986  28.147  25.130  1.00  0.00     0.046 A 
ATOM     18  C   UNL A   1      29.591  25.898  24.325  1.00  0.00     0.026 A 
ATOM     19  C   UNL A   1      30.796  27.067  25.999  1.00  0.00     0.047 A 
ATOM     20  Cl  UNL A   1      31.873  29.508  25.725  1.00  0.00    -0.084 Cl
ENDBRANCH  10  13
ENDBRANCH   8   9
ENDBRANCH   7   8
BRANCH   7  21
ATOM     21  N   UNL A   1      33.760  23.708  25.251  1.00  0.00    -0.332 N 
ATOM     22  H   UNL A   1      34.624  23.176  25.145  1.00  0.00     0.347 HD
ATOM     23  H   UNL A   1      33.862  24.692  25.502  1.00  0.00     0.347 HD
BRANCH  21  24
ATOM     24  C   UNL A   1      33.112  23.738  23.948  1.00  0.00     0.299 C 
BRANCH  24  25
ATOM     25  C   UNL A   1      33.291  25.100  23.319  1.00  0.00     0.024 A 
ATOM     26  C   UNL A   1      33.758  26.201  24.047  1.00  0.00     0.013 A 
ATOM     27  C   UNL A   1      33.067  25.296  21.957  1.00  0.00     0.120 A 
ATOM     28  C   UNL A   1      34.019  27.405  23.396  1.00  0.00     0.021 A 
ATOM     29  N   UNL A   1      33.297  26.457  21.300  1.00  0.00    -0.264 NA
ATOM     30  C   UNL A   1      33.784  27.480  22.034  1.00  0.00     0.111 A 
ENDBRANCH  24  25
ENDBRANCH  21  24
ENDBRANCH   7  21
ENDBRANCH   4   7
ENDBRANCH   2   3
ENDBRANCH   1   2
BRANCH   1  31
ATOM     31  C   UNL A   1      36.814  22.219  24.359  1.00  0.00     0.023 C 
BRANCH  31  32
ATOM     32  C   UNL A   1      37.626  22.893  25.452  1.00  0.00     0.116 C 
BRANCH  32  33
ATOM     33  N   UNL A   1      38.961  22.348  25.658  1.00  0.00    -0.352 N 
ATOM     34  C   UNL A   1      40.039  22.927  26.303  1.00  0.00     0.251 C 
ATOM     35  H   UNL A   1      39.116  21.448  25.289  1.00  0.00     0.163 HD
ATOM     36  O   UNL A   1      41.119  22.344  26.365  1.00  0.00    -0.269 OA
BRANCH  34  37
ATOM     37  C   UNL A   1      39.897  24.292  26.855  1.00  0.00     0.039 A 
ATOM     38  C   UNL A   1      39.298  24.461  28.105  1.00  0.00     0.014 A 
ATOM     39  C   UNL A   1      40.473  25.380  26.199  1.00  0.00     0.014 A 
ATOM     40  C   UNL A   1      39.398  25.695  28.756  1.00  0.00     0.010 A 
ATOM     41  C   UNL A   1      40.675  26.565  26.895  1.00  0.00     0.010 A 
ATOM     42  C   UNL A   1      40.154  26.734  28.188  1.00  0.00    -0.014 A 
BRANCH  42  43
ATOM     43  C   UNL A   1      40.442  27.995  28.922  1.00  0.00     0.031 A 
ATOM     44  C   UNL A   1      41.729  28.139  29.689  1.00  0.00     0.074 A 
ATOM     45  C   UNL A   1      39.504  28.963  28.998  1.00  0.00     0.049 A 
ATOM     46  N   UNL A   1      42.105  29.095  30.502  1.00  0.00    -0.248 NA
ATOM     47  C   UNL A   1      42.703  27.042  29.564  1.00  0.00     0.031 C 
ATOM     48  C   UNL A   1      38.184  28.929  28.362  1.00  0.00     0.029 A 
ATOM     49  N   UNL A   1      39.517  30.167  29.660  1.00  0.00    -0.354 N 
ATOM     50  C   UNL A   1      43.328  28.688  31.019  1.00  0.00     0.074 A 
ATOM     51  C   UNL A   1      43.611  27.382  30.465  1.00  0.00     0.031 C 
ATOM     52  C   UNL A   1      37.534  30.074  28.631  1.00  0.00     0.029 A 
ATOM     53  C   UNL A   1      38.368  30.902  29.493  1.00  0.00     0.049 A 
ATOM     54  H   UNL A   1      40.279  30.474  30.204  1.00  0.00     0.167 HD
ATOM     55  C   UNL A   1      44.156  29.348  31.861  1.00  0.00     0.031 A 
ATOM     56  C   UNL A   1      38.023  32.109  29.982  1.00  0.00     0.031 A 
ATOM     57  C   UNL A   1      43.911  30.672  32.362  1.00  0.00     0.049 A 
ATOM     58  C   UNL A   1      38.983  32.845  30.872  1.00  0.00     0.074 A 
ATOM     59  C   UNL A   1      44.737  31.466  33.139  1.00  0.00     0.029 A 
ATOM     60  N   UNL A   1      42.758  31.402  32.126  1.00  0.00    -0.354 N 
ATOM     61  N   UNL A   1      40.171  32.478  31.288  1.00  0.00    -0.248 NA
ATOM     62  C   UNL A   1      38.558  34.168  31.354  1.00  0.00     0.031 C 
ATOM     63  C   UNL A   1      44.069  32.667  33.398  1.00  0.00     0.029 A 
ATOM     64  C   UNL A   1      42.844  32.632  32.752  1.00  0.00     0.049 A 
ATOM     65  H   UNL A   1      41.991  31.090  31.592  1.00  0.00     0.167 HD
ATOM     66  C   UNL A   1      40.646  33.535  32.054  1.00  0.00     0.074 A 
ATOM     67  C   UNL A   1      39.624  34.562  32.036  1.00  0.00     0.031 C 
ATOM     68  C   UNL A   1      41.825  33.646  32.712  1.00  0.00     0.031 A 
BRANCH  55  69
ATOM     69  C   UNL A   1      45.414  28.645  32.285  1.00  0.00    -0.014 A 
ATOM     70  C   UNL A   1      45.443  27.836  33.433  1.00  0.00     0.009 A 
ATOM     71  C   UNL A   1      46.579  28.775  31.514  1.00  0.00     0.009 A 
ATOM     72  C   UNL A   1      46.626  27.204  33.821  1.00  0.00     0.001 A 
ATOM     73  C   UNL A   1      47.752  28.119  31.889  1.00  0.00     0.001 A 
ATOM     74  C   UNL A   1      47.778  27.343  33.047  1.00  0.00     0.000 A 
ENDBRANCH  55  69
BRANCH  56  75
ATOM     75  C   UNL A   1      36.720  32.724  29.616  1.00  0.00    -0.014 A 
ATOM     76  C   UNL A   1      35.626  32.628  30.491  1.00  0.00     0.009 A 
ATOM     77  C   UNL A   1      36.552  33.382  28.389  1.00  0.00     0.009 A 
ATOM     78  C   UNL A   1      34.383  33.152  30.132  1.00  0.00     0.001 A 
ATOM     79  C   UNL A   1      35.312  33.928  28.043  1.00  0.00     0.001 A 
ATOM     80  C   UNL A   1      34.227  33.803  28.910  1.00  0.00     0.000 A 
ENDBRANCH  56  75
BRANCH  68  81
ATOM     81  C   UNL A   1      42.091  34.935  33.431  1.00  0.00    -0.014 A 
ATOM     82  C   UNL A   1      41.563  35.179  34.707  1.00  0.00     0.009 A 
ATOM     83  C   UNL A   1      42.920  35.901  32.838  1.00  0.00     0.009 A 
ATOM     84  C   UNL A   1      41.840  36.379  35.366  1.00  0.00     0.001 A 
ATOM     85  C   UNL A   1      43.214  37.087  33.509  1.00  0.00     0.001 A 
ATOM     86  C   UNL A   1      42.668  37.329  34.769  1.00  0.00     0.000 A 
ENDBRANCH  68  81
ENDBRANCH  42  43
ENDBRANCH  34  37
ENDBRANCH  32  33
ENDBRANCH  31  32
ENDBRANCH   1  31
TORSDOF 17
ENDMDL
