MODEL 1
REMARK VINA RESULT:     -10.2      0.000      0.000
REMARK SMILES CC[C@H]1CCCCN1S(=O)(=O)CC(=O)NCCCCNC(=O)c1ccc(-c2c3nc(c(-c4ccccc4)c4ccc([nH]4)c(-c4ccccc4)c4nc(c(-c5ccccc5)c5ccc2[nH]5)C=C4)C=C3)cc1
REMARK SMILES IDX 17 1 16 2 15 3 13 4 14 5 12 7 9 8 10 9 11 10 8 11 3 12 4 13
REMARK SMILES IDX 5 14 7 15 6 16 2 17 1 18 18 19 19 20 20 21 21 22 22 24 23 25
REMARK SMILES IDX 24 26 70 27 25 28 69 29 26 30 27 31 28 32 63 33 29 34 68 35
REMARK SMILES IDX 62 36 64 37 30 38 67 39 61 40 60 41 31 43 53 44 38 45 52 46
REMARK SMILES IDX 39 47 42 48 51 49 65 50 40 51 41 52 50 54 66 55 43 56 32 57
REMARK SMILES IDX 33 58 37 59 34 60 36 61 35 62 54 63 55 64 59 65 56 66 58 67
REMARK SMILES IDX 57 68 44 69 45 70 49 71 46 72 48 73 47 74
REMARK H PARENT 15 6 20 23 64 42 42 53
REMARK Flexibility Score: inf
ROOT
ATOM      1  C   UNL A   1      31.662  29.770  26.004  1.00  0.00     0.023 C 
ENDROOT
BRANCH   1   2
ATOM      2  C   UNL A   1      31.295  29.307  24.594  1.00  0.00     0.116 C 
BRANCH   2   3
ATOM      3  N   UNL A   1      32.422  29.465  23.693  1.00  0.00    -0.355 N 
ATOM      4  C   UNL A   1      33.391  28.563  23.364  1.00  0.00     0.236 C 
ATOM      5  O   UNL A   1      34.361  28.971  22.721  1.00  0.00    -0.274 OA
ATOM      6  H   UNL A   1      32.498  30.346  23.259  1.00  0.00     0.163 HD
BRANCH   4   7
ATOM      7  C   UNL A   1      33.215  27.106  23.650  1.00  0.00     0.253 C 
BRANCH   7   8
ATOM      8  S   UNL A   1      32.528  26.195  22.295  1.00  0.00     0.223 S 
ATOM      9  O   UNL A   1      33.568  26.043  21.302  1.00  0.00    -0.212 OA
ATOM     10  O   UNL A   1      31.270  26.821  21.922  1.00  0.00    -0.212 OA
BRANCH   8  11
ATOM     11  N   UNL A   1      32.179  24.649  22.908  1.00  0.00    -0.198 NA
ATOM     12  C   UNL A   1      33.248  23.605  22.689  1.00  0.00     0.072 C 
ATOM     13  C   UNL A   1      32.687  22.224  23.071  1.00  0.00     0.020 C 
ATOM     14  C   UNL A   1      32.135  22.194  24.490  1.00  0.00     0.003 C 
ATOM     15  C   UNL A   1      31.593  24.641  24.280  1.00  0.00     0.102 C 
ATOM     16  C   UNL A   1      31.061  23.260  24.642  1.00  0.00     0.017 C 
BRANCH  12  17
ATOM     17  C   UNL A   1      34.567  23.971  23.398  1.00  0.00     0.017 C 
ATOM     18  C   UNL A   1      35.573  22.830  23.451  1.00  0.00     0.005 C 
ENDBRANCH  12  17
ENDBRANCH   8  11
ENDBRANCH   7   8
ENDBRANCH   4   7
ENDBRANCH   2   3
ENDBRANCH   1   2
BRANCH   1  19
ATOM     19  C   UNL A   1      31.473  31.269  26.251  1.00  0.00     0.023 C 
BRANCH  19  20
ATOM     20  C   UNL A   1      32.674  31.980  26.864  1.00  0.00     0.116 C 
BRANCH  20  21
ATOM     21  N   UNL A   1      32.365  33.318  27.344  1.00  0.00    -0.352 N 
ATOM     22  C   UNL A   1      33.069  34.098  28.229  1.00  0.00     0.251 C 
ATOM     23  H   UNL A   1      31.541  33.718  26.985  1.00  0.00     0.163 HD
ATOM     24  O   UNL A   1      32.611  35.169  28.613  1.00  0.00    -0.269 OA
BRANCH  22  25
ATOM     25  C   UNL A   1      34.367  33.622  28.751  1.00  0.00     0.039 A 
ATOM     26  C   UNL A   1      34.382  32.880  29.934  1.00  0.00     0.014 A 
ATOM     27  C   UNL A   1      35.557  33.889  28.068  1.00  0.00     0.014 A 
ATOM     28  C   UNL A   1      35.585  32.346  30.399  1.00  0.00     0.010 A 
ATOM     29  C   UNL A   1      36.744  33.303  28.496  1.00  0.00     0.010 A 
ATOM     30  C   UNL A   1      36.769  32.525  29.664  1.00  0.00    -0.014 A 
BRANCH  30  31
ATOM     31  C   UNL A   1      38.044  31.908  30.101  1.00  0.00     0.031 A 
ATOM     32  C   UNL A   1      38.920  32.609  31.099  1.00  0.00     0.074 A 
ATOM     33  C   UNL A   1      38.446  30.746  29.550  1.00  0.00     0.049 A 
ATOM     34  N   UNL A   1      40.096  32.260  31.556  1.00  0.00    -0.248 NA
ATOM     35  C   UNL A   1      38.419  33.884  31.638  1.00  0.00     0.031 C 
ATOM     36  C   UNL A   1      37.705  29.980  28.545  1.00  0.00     0.029 A 
ATOM     37  N   UNL A   1      39.584  30.008  29.758  1.00  0.00    -0.354 N 
ATOM     38  C   UNL A   1      40.482  33.279  32.418  1.00  0.00     0.074 A 
ATOM     39  C   UNL A   1      39.438  34.279  32.387  1.00  0.00     0.031 C 
ATOM     40  C   UNL A   1      38.393  28.866  28.247  1.00  0.00     0.029 A 
ATOM     41  C   UNL A   1      39.636  28.856  29.012  1.00  0.00     0.049 A 
ATOM     42  H   UNL A   1      40.294  30.278  30.383  1.00  0.00     0.167 HD
ATOM     43  C   UNL A   1      41.596  33.365  33.183  1.00  0.00     0.031 A 
ATOM     44  C   UNL A   1      40.581  27.899  28.949  1.00  0.00     0.031 A 
ATOM     45  C   UNL A   1      42.628  32.366  33.229  1.00  0.00     0.049 A 
ATOM     46  C   UNL A   1      41.813  28.024  29.799  1.00  0.00     0.074 A 
ATOM     47  C   UNL A   1      43.770  32.339  34.011  1.00  0.00     0.029 A 
ATOM     48  N   UNL A   1      42.643  31.214  32.459  1.00  0.00    -0.354 N 
ATOM     49  N   UNL A   1      42.138  28.967  30.650  1.00  0.00    -0.248 NA
ATOM     50  C   UNL A   1      42.806  26.946  29.684  1.00  0.00     0.031 C 
ATOM     51  C   UNL A   1      44.495  31.187  33.686  1.00  0.00     0.029 A 
ATOM     52  C   UNL A   1      43.782  30.477  32.733  1.00  0.00     0.049 A 
ATOM     53  H   UNL A   1      41.946  30.958  31.811  1.00  0.00     0.167 HD
ATOM     54  C   UNL A   1      43.357  28.583  31.192  1.00  0.00     0.074 A 
ATOM     55  C   UNL A   1      43.708  27.317  30.581  1.00  0.00     0.031 C 
ATOM     56  C   UNL A   1      44.116  29.220  32.117  1.00  0.00     0.031 A 
BRANCH  43  57
ATOM     57  C   UNL A   1      41.749  34.597  34.031  1.00  0.00    -0.014 A 
ATOM     58  C   UNL A   1      42.418  35.733  33.546  1.00  0.00     0.009 A 
ATOM     59  C   UNL A   1      41.209  34.626  35.325  1.00  0.00     0.009 A 
ATOM     60  C   UNL A   1      42.579  36.857  34.358  1.00  0.00     0.001 A 
ATOM     61  C   UNL A   1      41.348  35.762  36.124  1.00  0.00     0.001 A 
ATOM     62  C   UNL A   1      42.043  36.872  35.644  1.00  0.00     0.000 A 
ENDBRANCH  43  57
BRANCH  44  63
ATOM     63  C   UNL A   1      40.386  26.718  28.071  1.00  0.00    -0.014 A 
ATOM     64  C   UNL A   1      39.671  25.605  28.538  1.00  0.00     0.009 A 
ATOM     65  C   UNL A   1      40.910  26.695  26.770  1.00  0.00     0.009 A 
ATOM     66  C   UNL A   1      39.505  24.480  27.725  1.00  0.00     0.001 A 
ATOM     67  C   UNL A   1      40.722  25.580  25.952  1.00  0.00     0.001 A 
ATOM     68  C   UNL A   1      40.027  24.470  26.434  1.00  0.00     0.000 A 
ENDBRANCH  44  63
BRANCH  56  69
ATOM     69  C   UNL A   1      45.382  28.540  32.547  1.00  0.00    -0.014 A 
ATOM     70  C   UNL A   1      45.390  27.620  33.608  1.00  0.00     0.009 A 
ATOM     71  C   UNL A   1      46.578  28.800  31.860  1.00  0.00     0.009 A 
ATOM     72  C   UNL A   1      46.579  26.996  33.989  1.00  0.00     0.001 A 
ATOM     73  C   UNL A   1      47.759  28.156  32.228  1.00  0.00     0.001 A 
ATOM     74  C   UNL A   1      47.761  27.261  33.298  1.00  0.00     0.000 A 
ENDBRANCH  56  69
ENDBRANCH  30  31
ENDBRANCH  22  25
ENDBRANCH  20  21
ENDBRANCH  19  20
ENDBRANCH   1  19
TORSDOF 14
ENDMDL
MODEL 2
REMARK VINA RESULT:     -10.2      4.164      7.409
REMARK SMILES CC[C@H]1CCCCN1S(=O)(=O)CC(=O)NCCCCNC(=O)c1ccc(-c2c3nc(c(-c4ccccc4)c4ccc([nH]4)c(-c4ccccc4)c4nc(c(-c5ccccc5)c5ccc2[nH]5)C=C4)C=C3)cc1
REMARK SMILES IDX 17 1 16 2 15 3 13 4 14 5 12 7 9 8 10 9 11 10 8 11 3 12 4 13
REMARK SMILES IDX 5 14 7 15 6 16 2 17 1 18 18 19 19 20 20 21 21 22 22 24 23 25
REMARK SMILES IDX 24 26 70 27 25 28 69 29 26 30 27 31 28 32 63 33 29 34 68 35
REMARK SMILES IDX 62 36 64 37 30 38 67 39 61 40 60 41 31 43 53 44 38 45 52 46
REMARK SMILES IDX 39 47 42 48 51 49 65 50 40 51 41 52 50 54 66 55 43 56 32 57
REMARK SMILES IDX 33 58 37 59 34 60 36 61 35 62 54 63 55 64 59 65 56 66 58 67
REMARK SMILES IDX 57 68 44 69 45 70 49 71 46 72 48 73 47 74
REMARK H PARENT 15 6 20 23 64 42 42 53
REMARK Flexibility Score: inf
ROOT
ATOM      1  C   UNL A   1      34.544  35.045  28.802  1.00  0.00     0.023 C 
ENDROOT
BRANCH   1   2
ATOM      2  C   UNL A   1      33.705  34.968  30.078  1.00  0.00     0.116 C 
BRANCH   2   3
ATOM      3  N   UNL A   1      34.431  35.528  31.203  1.00  0.00    -0.355 N 
ATOM      4  C   UNL A   1      34.663  34.982  32.432  1.00  0.00     0.236 C 
ATOM      5  O   UNL A   1      35.144  35.711  33.302  1.00  0.00    -0.274 OA
ATOM      6  H   UNL A   1      34.807  36.427  31.061  1.00  0.00     0.163 HD
BRANCH   4   7
ATOM      7  C   UNL A   1      34.475  33.519  32.671  1.00  0.00     0.253 C 
BRANCH   7   8
ATOM      8  S   UNL A   1      35.961  32.680  33.148  1.00  0.00     0.223 S 
ATOM      9  O   UNL A   1      35.947  31.379  32.517  1.00  0.00    -0.212 OA
ATOM     10  O   UNL A   1      36.085  32.770  34.593  1.00  0.00    -0.212 OA
BRANCH   8  11
ATOM     11  N   UNL A   1      37.235  33.568  32.458  1.00  0.00    -0.198 NA
ATOM     12  C   UNL A   1      38.502  33.633  33.277  1.00  0.00     0.072 C 
ATOM     13  C   UNL A   1      39.455  34.662  32.645  1.00  0.00     0.020 C 
ATOM     14  C   UNL A   1      39.734  34.369  31.176  1.00  0.00     0.003 C 
ATOM     15  C   UNL A   1      37.462  33.304  31.007  1.00  0.00     0.102 C 
ATOM     16  C   UNL A   1      38.422  34.324  30.407  1.00  0.00     0.017 C 
BRANCH  12  17
ATOM     17  C   UNL A   1      39.125  32.239  33.491  1.00  0.00     0.017 C 
ATOM     18  C   UNL A   1      40.508  32.275  34.126  1.00  0.00     0.005 C 
ENDBRANCH  12  17
ENDBRANCH   8  11
ENDBRANCH   7   8
ENDBRANCH   4   7
ENDBRANCH   2   3
ENDBRANCH   1   2
BRANCH   1  19
ATOM     19  C   UNL A   1      34.837  33.692  28.149  1.00  0.00     0.023 C 
BRANCH  19  20
ATOM     20  C   UNL A   1      34.666  32.482  29.061  1.00  0.00     0.116 C 
BRANCH  20  21
ATOM     21  N   UNL A   1      34.011  31.360  28.409  1.00  0.00    -0.352 N 
ATOM     22  C   UNL A   1      34.554  30.165  28.002  1.00  0.00     0.251 C 
ATOM     23  H   UNL A   1      33.048  31.472  28.237  1.00  0.00     0.163 HD
ATOM     24  O   UNL A   1      33.880  29.362  27.366  1.00  0.00    -0.269 OA
BRANCH  22  25
ATOM     25  C   UNL A   1      35.970  29.867  28.300  1.00  0.00     0.039 A 
ATOM     26  C   UNL A   1      36.295  29.343  29.553  1.00  0.00     0.014 A 
ATOM     27  C   UNL A   1      36.967  30.085  27.345  1.00  0.00     0.014 A 
ATOM     28  C   UNL A   1      37.613  28.972  29.827  1.00  0.00     0.010 A 
ATOM     29  C   UNL A   1      38.266  29.656  27.595  1.00  0.00     0.010 A 
ATOM     30  C   UNL A   1      38.601  29.095  28.836  1.00  0.00    -0.014 A 
BRANCH  30  31
ATOM     31  C   UNL A   1      39.992  28.642  29.080  1.00  0.00     0.031 A 
ATOM     32  C   UNL A   1      40.985  29.567  29.724  1.00  0.00     0.074 A 
ATOM     33  C   UNL A   1      40.379  27.421  28.663  1.00  0.00     0.049 A 
ATOM     34  N   UNL A   1      42.258  29.376  29.962  1.00  0.00    -0.248 NA
ATOM     35  C   UNL A   1      40.488  30.891  30.131  1.00  0.00     0.031 C 
ATOM     36  C   UNL A   1      39.521  26.440  27.995  1.00  0.00     0.029 A 
ATOM     37  N   UNL A   1      41.599  26.799  28.739  1.00  0.00    -0.354 N 
ATOM     38  C   UNL A   1      42.716  30.558  30.528  1.00  0.00     0.074 A 
ATOM     39  C   UNL A   1      41.599  31.476  30.556  1.00  0.00     0.031 C 
ATOM     40  C   UNL A   1      40.234  25.328  27.750  1.00  0.00     0.029 A 
ATOM     41  C   UNL A   1      41.604  25.531  28.211  1.00  0.00     0.049 A 
ATOM     42  H   UNL A   1      42.395  27.221  29.135  1.00  0.00     0.167 HD
ATOM     43  C   UNL A   1      43.951  30.849  31.001  1.00  0.00     0.031 A 
ATOM     44  C   UNL A   1      42.602  24.633  28.107  1.00  0.00     0.031 A 
ATOM     45  C   UNL A   1      45.061  29.935  30.989  1.00  0.00     0.049 A 
ATOM     46  C   UNL A   1      43.966  24.984  28.628  1.00  0.00     0.074 A 
ATOM     47  C   UNL A   1      46.337  30.119  31.492  1.00  0.00     0.029 A 
ATOM     48  N   UNL A   1      45.024  28.660  30.446  1.00  0.00    -0.354 N 
ATOM     49  N   UNL A   1      44.369  26.087  29.210  1.00  0.00    -0.248 NA
ATOM     50  C   UNL A   1      45.010  23.960  28.485  1.00  0.00     0.031 C 
ATOM     51  C   UNL A   1      47.084  28.967  31.219  1.00  0.00     0.029 A 
ATOM     52  C   UNL A   1      46.260  28.052  30.584  1.00  0.00     0.049 A 
ATOM     53  H   UNL A   1      44.235  28.249  30.023  1.00  0.00     0.167 HD
ATOM     54  C   UNL A   1      45.705  25.880  29.528  1.00  0.00     0.074 A 
ATOM     55  C   UNL A   1      46.040  24.543  29.082  1.00  0.00     0.031 C 
ATOM     56  C   UNL A   1      46.575  26.721  30.136  1.00  0.00     0.031 A 
BRANCH  43  57
ATOM     57  C   UNL A   1      44.160  32.226  31.567  1.00  0.00    -0.014 A 
ATOM     58  C   UNL A   1      43.942  32.490  32.929  1.00  0.00     0.009 A 
ATOM     59  C   UNL A   1      44.590  33.267  30.732  1.00  0.00     0.009 A 
ATOM     60  C   UNL A   1      44.109  33.781  33.433  1.00  0.00     0.001 A 
ATOM     61  C   UNL A   1      44.783  34.551  31.245  1.00  0.00     0.001 A 
ATOM     62  C   UNL A   1      44.531  34.809  32.592  1.00  0.00     0.000 A 
ENDBRANCH  43  57
BRANCH  44  63
ATOM     63  C   UNL A   1      42.341  23.299  27.512  1.00  0.00    -0.014 A 
ATOM     64  C   UNL A   1      41.545  22.366  28.195  1.00  0.00     0.009 A 
ATOM     65  C   UNL A   1      42.882  22.949  26.266  1.00  0.00     0.009 A 
ATOM     66  C   UNL A   1      41.316  21.100  27.652  1.00  0.00     0.001 A 
ATOM     67  C   UNL A   1      42.632  21.691  25.715  1.00  0.00     0.001 A 
ATOM     68  C   UNL A   1      41.856  20.765  26.412  1.00  0.00     0.000 A 
ENDBRANCH  44  63
BRANCH  56  69
ATOM     69  C   UNL A   1      47.962  26.205  30.387  1.00  0.00    -0.014 A 
ATOM     70  C   UNL A   1      48.337  25.710  31.646  1.00  0.00     0.009 A 
ATOM     71  C   UNL A   1      48.895  26.185  29.340  1.00  0.00     0.009 A 
ATOM     72  C   UNL A   1      49.632  25.232  31.856  1.00  0.00     0.001 A 
ATOM     73  C   UNL A   1      50.180  25.684  29.547  1.00  0.00     0.001 A 
ATOM     74  C   UNL A   1      50.550  25.215  30.806  1.00  0.00     0.000 A 
ENDBRANCH  56  69
ENDBRANCH  30  31
ENDBRANCH  22  25
ENDBRANCH  20  21
ENDBRANCH  19  20
ENDBRANCH   1  19
TORSDOF 14
ENDMDL
MODEL 3
REMARK VINA RESULT:     -10.1      3.511      8.670
REMARK SMILES CC[C@H]1CCCCN1S(=O)(=O)CC(=O)NCCCCNC(=O)c1ccc(-c2c3nc(c(-c4ccccc4)c4ccc([nH]4)c(-c4ccccc4)c4nc(c(-c5ccccc5)c5ccc2[nH]5)C=C4)C=C3)cc1
REMARK SMILES IDX 17 1 16 2 15 3 13 4 14 5 12 7 9 8 10 9 11 10 8 11 3 12 4 13
REMARK SMILES IDX 5 14 7 15 6 16 2 17 1 18 18 19 19 20 20 21 21 22 22 24 23 25
REMARK SMILES IDX 24 26 70 27 25 28 69 29 26 30 27 31 28 32 63 33 29 34 68 35
REMARK SMILES IDX 62 36 64 37 30 38 67 39 61 40 60 41 31 43 53 44 38 45 52 46
REMARK SMILES IDX 39 47 42 48 51 49 65 50 40 51 41 52 50 54 66 55 43 56 32 57
REMARK SMILES IDX 33 58 37 59 34 60 36 61 35 62 54 63 55 64 59 65 56 66 58 67
REMARK SMILES IDX 57 68 44 69 45 70 49 71 46 72 48 73 47 74
REMARK H PARENT 15 6 20 23 64 42 42 53
REMARK Flexibility Score: inf
ROOT
ATOM      1  C   UNL A   1      36.362  21.333  25.023  1.00  0.00     0.023 C 
ENDROOT
BRANCH   1   2
ATOM      2  C   UNL A   1      34.985  20.684  25.172  1.00  0.00     0.116 C 
BRANCH   2   3
ATOM      3  N   UNL A   1      34.408  20.996  26.466  1.00  0.00    -0.355 N 
ATOM      4  C   UNL A   1      33.455  21.921  26.780  1.00  0.00     0.236 C 
ATOM      5  O   UNL A   1      33.247  22.148  27.974  1.00  0.00    -0.274 OA
ATOM      6  H   UNL A   1      34.751  20.468  27.223  1.00  0.00     0.163 HD
BRANCH   4   7
ATOM      7  C   UNL A   1      32.598  22.532  25.719  1.00  0.00     0.253 C 
BRANCH   7   8
ATOM      8  S   UNL A   1      33.351  23.913  24.904  1.00  0.00     0.223 S 
ATOM      9  O   UNL A   1      33.505  23.563  23.510  1.00  0.00    -0.212 OA
ATOM     10  O   UNL A   1      34.518  24.309  25.674  1.00  0.00    -0.212 OA
BRANCH   8  11
ATOM     11  N   UNL A   1      32.216  25.176  24.990  1.00  0.00    -0.198 NA
ATOM     12  C   UNL A   1      32.794  26.571  25.001  1.00  0.00     0.072 C 
ATOM     13  C   UNL A   1      31.675  27.574  25.329  1.00  0.00     0.020 C 
ATOM     14  C   UNL A   1      30.488  27.451  24.383  1.00  0.00     0.003 C 
ATOM     15  C   UNL A   1      31.036  25.013  24.091  1.00  0.00     0.102 C 
ATOM     16  C   UNL A   1      29.949  26.028  24.423  1.00  0.00     0.017 C 
BRANCH  12  17
ATOM     17  C   UNL A   1      33.568  26.886  23.706  1.00  0.00     0.017 C 
ATOM     18  C   UNL A   1      33.930  28.357  23.549  1.00  0.00     0.005 C 
ENDBRANCH  12  17
ENDBRANCH   8  11
ENDBRANCH   7   8
ENDBRANCH   4   7
ENDBRANCH   2   3
ENDBRANCH   1   2
BRANCH   1  19
ATOM     19  C   UNL A   1      37.523  20.344  24.900  1.00  0.00     0.023 C 
BRANCH  19  20
ATOM     20  C   UNL A   1      38.756  20.685  25.729  1.00  0.00     0.116 C 
BRANCH  20  21
ATOM     21  N   UNL A   1      39.772  19.645  25.702  1.00  0.00    -0.352 N 
ATOM     22  C   UNL A   1      41.098  19.728  26.051  1.00  0.00     0.251 C 
ATOM     23  H   UNL A   1      39.468  18.762  25.391  1.00  0.00     0.163 HD
ATOM     24  O   UNL A   1      41.850  18.777  25.867  1.00  0.00    -0.269 OA
BRANCH  22  25
ATOM     25  C   UNL A   1      41.626  20.987  26.617  1.00  0.00     0.039 A 
ATOM     26  C   UNL A   1      42.139  21.951  25.746  1.00  0.00     0.014 A 
ATOM     27  C   UNL A   1      41.599  21.223  27.994  1.00  0.00     0.014 A 
ATOM     28  C   UNL A   1      42.562  23.182  26.249  1.00  0.00     0.010 A 
ATOM     29  C   UNL A   1      41.961  22.472  28.488  1.00  0.00     0.010 A 
ATOM     30  C   UNL A   1      42.444  23.464  27.620  1.00  0.00    -0.014 A 
BRANCH  30  31
ATOM     31  C   UNL A   1      42.822  24.789  28.166  1.00  0.00     0.031 A 
ATOM     32  C   UNL A   1      41.775  25.845  28.377  1.00  0.00     0.074 A 
ATOM     33  C   UNL A   1      44.117  25.065  28.412  1.00  0.00     0.049 A 
ATOM     34  N   UNL A   1      41.918  27.081  28.785  1.00  0.00    -0.248 NA
ATOM     35  C   UNL A   1      40.387  25.471  28.065  1.00  0.00     0.031 C 
ATOM     36  C   UNL A   1      45.236  24.139  28.218  1.00  0.00     0.029 A 
ATOM     37  N   UNL A   1      44.712  26.211  28.876  1.00  0.00    -0.354 N 
ATOM     38  C   UNL A   1      40.645  27.635  28.760  1.00  0.00     0.074 A 
ATOM     39  C   UNL A   1      39.749  26.617  28.255  1.00  0.00     0.031 C 
ATOM     40  C   UNL A   1      46.376  24.744  28.590  1.00  0.00     0.029 A 
ATOM     41  C   UNL A   1      46.074  26.108  29.013  1.00  0.00     0.049 A 
ATOM     42  H   UNL A   1      44.209  27.029  29.091  1.00  0.00     0.167 HD
ATOM     43  C   UNL A   1      40.251  28.873  29.141  1.00  0.00     0.031 A 
ATOM     44  C   UNL A   1      46.980  27.011  29.432  1.00  0.00     0.031 A 
ATOM     45  C   UNL A   1      41.135  29.882  29.658  1.00  0.00     0.049 A 
ATOM     46  C   UNL A   1      46.520  28.382  29.839  1.00  0.00     0.074 A 
ATOM     47  C   UNL A   1      40.823  31.149  30.121  1.00  0.00     0.029 A 
ATOM     48  N   UNL A   1      42.508  29.737  29.782  1.00  0.00    -0.354 N 
ATOM     49  N   UNL A   1      45.305  28.872  29.861  1.00  0.00    -0.248 NA
ATOM     50  C   UNL A   1      47.559  29.320  30.287  1.00  0.00     0.031 C 
ATOM     51  C   UNL A   1      42.015  31.784  30.489  1.00  0.00     0.029 A 
ATOM     52  C   UNL A   1      43.061  30.897  30.296  1.00  0.00     0.049 A 
ATOM     53  H   UNL A   1      43.015  28.928  29.539  1.00  0.00     0.167 HD
ATOM     54  C   UNL A   1      45.428  30.165  30.351  1.00  0.00     0.074 A 
ATOM     55  C   UNL A   1      46.835  30.379  30.622  1.00  0.00     0.031 C 
ATOM     56  C   UNL A   1      44.462  31.092  30.560  1.00  0.00     0.031 A 
BRANCH  43  57
ATOM     57  C   UNL A   1      38.790  29.199  29.005  1.00  0.00    -0.014 A 
ATOM     58  C   UNL A   1      37.907  29.041  30.085  1.00  0.00     0.009 A 
ATOM     59  C   UNL A   1      38.293  29.679  27.784  1.00  0.00     0.009 A 
ATOM     60  C   UNL A   1      36.548  29.317  29.932  1.00  0.00     0.001 A 
ATOM     61  C   UNL A   1      36.937  29.980  27.643  1.00  0.00     0.001 A 
ATOM     62  C   UNL A   1      36.064  29.788  28.713  1.00  0.00     0.000 A 
ENDBRANCH  43  57
BRANCH  44  63
ATOM     63  C   UNL A   1      48.415  26.639  29.520  1.00  0.00    -0.014 A 
ATOM     64  C   UNL A   1      48.907  26.000  30.668  1.00  0.00     0.009 A 
ATOM     65  C   UNL A   1      49.295  26.918  28.465  1.00  0.00     0.009 A 
ATOM     66  C   UNL A   1      50.261  25.670  30.767  1.00  0.00     0.001 A 
ATOM     67  C   UNL A   1      50.643  26.566  28.557  1.00  0.00     0.001 A 
ATOM     68  C   UNL A   1      51.126  25.949  29.712  1.00  0.00     0.000 A 
ENDBRANCH  44  63
BRANCH  56  69
ATOM     69  C   UNL A   1      44.892  32.407  31.142  1.00  0.00    -0.014 A 
ATOM     70  C   UNL A   1      45.242  33.487  30.317  1.00  0.00     0.009 A 
ATOM     71  C   UNL A   1      44.916  32.576  32.535  1.00  0.00     0.009 A 
ATOM     72  C   UNL A   1      45.635  34.704  30.880  1.00  0.00     0.001 A 
ATOM     73  C   UNL A   1      45.285  33.800  33.093  1.00  0.00     0.001 A 
ATOM     74  C   UNL A   1      45.653  34.860  32.266  1.00  0.00     0.000 A 
ENDBRANCH  56  69
ENDBRANCH  30  31
ENDBRANCH  22  25
ENDBRANCH  20  21
ENDBRANCH  19  20
ENDBRANCH   1  19
TORSDOF 14
ENDMDL
