MODEL 1
REMARK VINA RESULT:     -11.4      0.000      0.000
REMARK SMILES CCCc1c(C(=O)NCCCCNC(=O)c2ccc(-c3c4nc(c(-c5ccccc5)c5ccc([nH]5)c(-c5ccccc5)c5nc(c(-c6ccccc6)c6ccc3[nH]6)C=C5)C=C4)cc2)nnn1-c1ccccc1[N+](=O)[O-]
REMARK SMILES IDX 10 1 9 2 8 3 6 4 7 5 5 7 4 8 66 9 64 10 65 11 3 12 2 13 1 14
REMARK SMILES IDX 67 15 68 16 72 17 69 18 71 19 70 20 73 21 74 22 75 23 11 24
REMARK SMILES IDX 12 25 13 26 14 27 15 29 16 30 17 31 63 32 18 33 62 34 19 35
REMARK SMILES IDX 20 36 21 37 56 38 22 39 61 40 55 41 57 42 23 43 60 44 54 45
REMARK SMILES IDX 53 46 24 48 46 49 31 50 45 51 32 52 35 53 44 54 58 55 33 56
REMARK SMILES IDX 34 57 43 59 59 60 36 61 25 62 26 63 30 64 27 65 29 66 28 67
REMARK SMILES IDX 47 68 48 69 52 70 49 71 51 72 50 73 37 74 38 75 42 76 39 77
REMARK SMILES IDX 41 78 40 79
REMARK H PARENT 8 6 13 28 57 47 35 58
REMARK Flexibility Score: inf
ROOT
ATOM      1  C   UNL A   1      33.097  29.746  25.939  1.00  0.00     0.023 C 
ENDROOT
BRANCH   1   2
ATOM      2  C   UNL A   1      32.616  29.041  24.681  1.00  0.00     0.116 C 
BRANCH   2   3
ATOM      3  N   UNL A   1      33.419  29.136  23.504  1.00  0.00    -0.351 N 
ATOM      4  C   UNL A   1      33.811  28.144  22.630  1.00  0.00     0.273 C 
ATOM      5  O   UNL A   1      34.355  28.569  21.604  1.00  0.00    -0.267 OA
ATOM      6  H   UNL A   1      33.738  30.042  23.285  1.00  0.00     0.163 HD
BRANCH   4   7
ATOM      7  C   UNL A   1      33.691  26.681  22.856  1.00  0.00     0.174 A 
ATOM      8  C   UNL A   1      33.695  25.768  23.932  1.00  0.00     0.078 A 
ATOM      9  N   UNL A   1      33.510  24.526  23.293  1.00  0.00    -0.210 N 
ATOM     10  N   UNL A   1      33.569  25.948  21.686  1.00  0.00    -0.124 NA
ATOM     11  N   UNL A   1      33.584  24.664  21.963  1.00  0.00    -0.061 NA
BRANCH   8  12
ATOM     12  C   UNL A   1      33.986  25.799  25.413  1.00  0.00     0.059 C 
BRANCH  12  13
ATOM     13  C   UNL A   1      32.904  25.425  26.434  1.00  0.00     0.003 C 
ATOM     14  C   UNL A   1      31.480  25.901  26.208  1.00  0.00     0.004 C 
ENDBRANCH  12  13
ENDBRANCH   8  12
BRANCH   9  15
ATOM     15  C   UNL A   1      33.517  23.221  23.847  1.00  0.00     0.144 A 
ATOM     16  C   UNL A   1      32.279  22.651  24.187  1.00  0.00     0.036 A 
ATOM     17  C   UNL A   1      34.681  22.457  24.002  1.00  0.00     0.294 A 
ATOM     18  C   UNL A   1      32.209  21.314  24.588  1.00  0.00     0.003 A 
ATOM     19  C   UNL A   1      34.610  21.114  24.400  1.00  0.00     0.088 A 
ATOM     20  C   UNL A   1      33.369  20.543  24.677  1.00  0.00     0.007 A 
BRANCH  17  21
ATOM     21  N   UNL A   1      36.009  23.038  23.839  1.00  0.00     0.065 N 
ATOM     22  O   UNL A   1      36.527  23.546  24.842  1.00  0.00    -0.258 OA
ATOM     23  O   UNL A   1      36.529  22.973  22.720  1.00  0.00    -0.258 OA
ENDBRANCH  17  21
ENDBRANCH   9  15
ENDBRANCH   4   7
ENDBRANCH   2   3
ENDBRANCH   1   2
BRANCH   1  24
ATOM     24  C   UNL A   1      33.752  28.882  27.014  1.00  0.00     0.023 C 
BRANCH  24  25
ATOM     25  C   UNL A   1      35.181  29.258  27.388  1.00  0.00     0.116 C 
BRANCH  25  26
ATOM     26  N   UNL A   1      35.314  30.024  28.625  1.00  0.00    -0.352 N 
ATOM     27  C   UNL A   1      36.326  29.886  29.570  1.00  0.00     0.251 C 
ATOM     28  H   UNL A   1      34.624  30.703  28.806  1.00  0.00     0.163 HD
ATOM     29  O   UNL A   1      36.197  30.274  30.713  1.00  0.00    -0.269 OA
BRANCH  27  30
ATOM     30  C   UNL A   1      37.582  29.252  29.125  1.00  0.00     0.039 A 
ATOM     31  C   UNL A   1      38.280  29.710  28.005  1.00  0.00     0.014 A 
ATOM     32  C   UNL A   1      38.098  28.240  29.932  1.00  0.00     0.014 A 
ATOM     33  C   UNL A   1      39.559  29.207  27.764  1.00  0.00     0.010 A 
ATOM     34  C   UNL A   1      39.403  27.846  29.768  1.00  0.00     0.010 A 
ATOM     35  C   UNL A   1      40.131  28.297  28.670  1.00  0.00    -0.014 A 
BRANCH  35  36
ATOM     36  C   UNL A   1      41.530  27.895  28.541  1.00  0.00     0.031 A 
ATOM     37  C   UNL A   1      41.780  26.659  27.744  1.00  0.00     0.074 A 
ATOM     38  C   UNL A   1      42.567  28.676  28.914  1.00  0.00     0.049 A 
ATOM     39  N   UNL A   1      42.243  25.530  28.169  1.00  0.00    -0.248 NA
ATOM     40  C   UNL A   1      41.394  26.645  26.323  1.00  0.00     0.031 C 
ATOM     41  C   UNL A   1      42.540  30.053  29.422  1.00  0.00     0.029 A 
ATOM     42  N   UNL A   1      43.899  28.427  28.802  1.00  0.00    -0.354 N 
ATOM     43  C   UNL A   1      42.375  24.711  27.050  1.00  0.00     0.074 A 
ATOM     44  C   UNL A   1      41.708  25.397  25.971  1.00  0.00     0.031 C 
ATOM     45  C   UNL A   1      43.778  30.591  29.338  1.00  0.00     0.029 A 
ATOM     46  C   UNL A   1      44.707  29.546  28.955  1.00  0.00     0.049 A 
ATOM     47  H   UNL A   1      44.261  27.528  28.626  1.00  0.00     0.167 HD
ATOM     48  C   UNL A   1      43.211  23.633  27.049  1.00  0.00     0.031 A 
ATOM     49  C   UNL A   1      46.047  29.612  28.771  1.00  0.00     0.031 A 
ATOM     50  C   UNL A   1      43.643  23.292  28.381  1.00  0.00     0.049 A 
ATOM     51  C   UNL A   1      46.575  28.234  28.865  1.00  0.00     0.074 A 
ATOM     52  C   UNL A   1      43.007  22.920  29.549  1.00  0.00     0.029 A 
ATOM     53  N   UNL A   1      44.902  23.700  28.754  1.00  0.00    -0.354 N 
ATOM     54  N   UNL A   1      46.575  27.545  29.970  1.00  0.00    -0.248 NA
ATOM     55  C   UNL A   1      46.697  27.456  27.644  1.00  0.00     0.031 C 
ATOM     56  C   UNL A   1      43.720  23.599  30.580  1.00  0.00     0.029 A 
ATOM     57  C   UNL A   1      44.787  24.279  29.990  1.00  0.00     0.049 A 
ATOM     58  H   UNL A   1      45.729  23.594  28.231  1.00  0.00     0.167 HD
ATOM     59  C   UNL A   1      46.240  26.257  29.580  1.00  0.00     0.074 A 
ATOM     60  C   UNL A   1      46.441  26.239  28.131  1.00  0.00     0.031 C 
ATOM     61  C   UNL A   1      45.565  25.419  30.421  1.00  0.00     0.031 A 
BRANCH  48  62
ATOM     62  C   UNL A   1      43.956  23.131  25.835  1.00  0.00    -0.014 A 
ATOM     63  C   UNL A   1      43.881  21.762  25.515  1.00  0.00     0.009 A 
ATOM     64  C   UNL A   1      44.946  23.880  25.175  1.00  0.00     0.009 A 
ATOM     65  C   UNL A   1      44.806  21.160  24.652  1.00  0.00     0.001 A 
ATOM     66  C   UNL A   1      45.845  23.290  24.280  1.00  0.00     0.001 A 
ATOM     67  C   UNL A   1      45.794  21.924  24.044  1.00  0.00     0.000 A 
ENDBRANCH  48  62
BRANCH  49  68
ATOM     68  C   UNL A   1      46.873  30.742  28.300  1.00  0.00    -0.014 A 
ATOM     69  C   UNL A   1      48.259  30.754  28.516  1.00  0.00     0.009 A 
ATOM     70  C   UNL A   1      46.340  31.671  27.389  1.00  0.00     0.009 A 
ATOM     71  C   UNL A   1      49.089  31.634  27.806  1.00  0.00     0.001 A 
ATOM     72  C   UNL A   1      47.168  32.549  26.681  1.00  0.00     0.001 A 
ATOM     73  C   UNL A   1      48.545  32.517  26.878  1.00  0.00     0.000 A 
ENDBRANCH  49  68
BRANCH  61  74
ATOM     74  C   UNL A   1      45.390  25.846  31.859  1.00  0.00    -0.014 A 
ATOM     75  C   UNL A   1      44.297  26.612  32.306  1.00  0.00     0.009 A 
ATOM     76  C   UNL A   1      46.271  25.328  32.818  1.00  0.00     0.009 A 
ATOM     77  C   UNL A   1      44.114  26.877  33.668  1.00  0.00     0.001 A 
ATOM     78  C   UNL A   1      46.077  25.573  34.180  1.00  0.00     0.001 A 
ATOM     79  C   UNL A   1      45.003  26.352  34.605  1.00  0.00     0.000 A 
ENDBRANCH  61  74
ENDBRANCH  35  36
ENDBRANCH  27  30
ENDBRANCH  25  26
ENDBRANCH  24  25
ENDBRANCH   1  24
TORSDOF 15
ENDMDL
MODEL 2
REMARK VINA RESULT:     -11.1      2.678      7.311
REMARK SMILES CCCc1c(C(=O)NCCCCNC(=O)c2ccc(-c3c4nc(c(-c5ccccc5)c5ccc([nH]5)c(-c5ccccc5)c5nc(c(-c6ccccc6)c6ccc3[nH]6)C=C5)C=C4)cc2)nnn1-c1ccccc1[N+](=O)[O-]
REMARK SMILES IDX 10 1 9 2 8 3 6 4 7 5 5 7 4 8 66 9 64 10 65 11 3 12 2 13 1 14
REMARK SMILES IDX 67 15 68 16 72 17 69 18 71 19 70 20 73 21 74 22 75 23 11 24
REMARK SMILES IDX 12 25 13 26 14 27 15 29 16 30 17 31 63 32 18 33 62 34 19 35
REMARK SMILES IDX 20 36 21 37 56 38 22 39 61 40 55 41 57 42 23 43 60 44 54 45
REMARK SMILES IDX 53 46 24 48 46 49 31 50 45 51 32 52 35 53 44 54 58 55 33 56
REMARK SMILES IDX 34 57 43 59 59 60 36 61 25 62 26 63 30 64 27 65 29 66 28 67
REMARK SMILES IDX 47 68 48 69 52 70 49 71 51 72 50 73 37 74 38 75 42 76 39 77
REMARK SMILES IDX 41 78 40 79
REMARK H PARENT 8 6 13 28 57 47 35 58
REMARK Flexibility Score: inf
ROOT
ATOM      1  C   UNL A   1      39.701  21.765  26.503  1.00  0.00     0.023 C 
ENDROOT
BRANCH   1   2
ATOM      2  C   UNL A   1      38.455  22.026  25.673  1.00  0.00     0.116 C 
BRANCH   2   3
ATOM      3  N   UNL A   1      37.590  20.926  25.388  1.00  0.00    -0.351 N 
ATOM      4  C   UNL A   1      36.220  20.907  25.232  1.00  0.00     0.273 C 
ATOM      5  O   UNL A   1      35.780  19.830  24.813  1.00  0.00    -0.267 OA
ATOM      6  H   UNL A   1      38.037  20.053  25.289  1.00  0.00     0.163 HD
BRANCH   4   7
ATOM      7  C   UNL A   1      35.285  22.009  25.577  1.00  0.00     0.174 A 
ATOM      8  C   UNL A   1      34.630  23.085  24.941  1.00  0.00     0.078 A 
ATOM      9  N   UNL A   1      33.891  23.667  25.989  1.00  0.00    -0.210 N 
ATOM     10  N   UNL A   1      34.955  22.054  26.923  1.00  0.00    -0.124 NA
ATOM     11  N   UNL A   1      34.222  23.117  27.164  1.00  0.00    -0.061 NA
BRANCH   8  12
ATOM     12  C   UNL A   1      34.669  23.770  23.597  1.00  0.00     0.059 C 
BRANCH  12  13
ATOM     13  C   UNL A   1      33.481  23.675  22.632  1.00  0.00     0.003 C 
ATOM     14  C   UNL A   1      32.729  24.939  22.260  1.00  0.00     0.004 C 
ENDBRANCH  12  13
ENDBRANCH   8  12
BRANCH   9  15
ATOM     15  C   UNL A   1      33.100  24.844  25.985  1.00  0.00     0.144 A 
ATOM     16  C   UNL A   1      33.770  26.078  25.924  1.00  0.00     0.036 A 
ATOM     17  C   UNL A   1      31.699  24.831  25.966  1.00  0.00     0.294 A 
ATOM     18  C   UNL A   1      33.045  27.262  25.758  1.00  0.00     0.003 A 
ATOM     19  C   UNL A   1      30.973  26.019  25.795  1.00  0.00     0.088 A 
ATOM     20  C   UNL A   1      31.653  27.231  25.676  1.00  0.00     0.007 A 
BRANCH  17  21
ATOM     21  N   UNL A   1      30.939  23.610  26.203  1.00  0.00     0.065 N 
ATOM     22  O   UNL A   1      30.507  23.430  27.349  1.00  0.00    -0.258 OA
ATOM     23  O   UNL A   1      30.768  22.847  25.246  1.00  0.00    -0.258 OA
ENDBRANCH  17  21
ENDBRANCH   9  15
ENDBRANCH   4   7
ENDBRANCH   2   3
ENDBRANCH   1   2
BRANCH   1  24
ATOM     24  C   UNL A   1      40.433  20.447  26.265  1.00  0.00     0.023 C 
BRANCH  24  25
ATOM     25  C   UNL A   1      41.747  20.273  27.019  1.00  0.00     0.116 C 
BRANCH  25  26
ATOM     26  N   UNL A   1      42.860  19.778  26.211  1.00  0.00    -0.352 N 
ATOM     27  C   UNL A   1      43.712  20.550  25.427  1.00  0.00     0.251 C 
ATOM     28  H   UNL A   1      43.023  18.806  26.223  1.00  0.00     0.163 HD
ATOM     29  O   UNL A   1      44.365  20.073  24.522  1.00  0.00    -0.269 OA
BRANCH  27  30
ATOM     30  C   UNL A   1      43.802  21.989  25.747  1.00  0.00     0.039 A 
ATOM     31  C   UNL A   1      42.997  22.935  25.108  1.00  0.00     0.014 A 
ATOM     32  C   UNL A   1      44.653  22.351  26.789  1.00  0.00     0.014 A 
ATOM     33  C   UNL A   1      42.981  24.240  25.602  1.00  0.00     0.010 A 
ATOM     34  C   UNL A   1      44.535  23.598  27.353  1.00  0.00     0.010 A 
ATOM     35  C   UNL A   1      43.729  24.559  26.748  1.00  0.00    -0.014 A 
BRANCH  35  36
ATOM     36  C   UNL A   1      43.590  25.865  27.391  1.00  0.00     0.031 A 
ATOM     37  C   UNL A   1      44.616  26.883  27.022  1.00  0.00     0.074 A 
ATOM     38  C   UNL A   1      42.502  26.232  28.102  1.00  0.00     0.049 A 
ATOM     39  N   UNL A   1      45.517  27.403  27.788  1.00  0.00    -0.248 NA
ATOM     40  C   UNL A   1      44.710  27.314  25.618  1.00  0.00     0.031 C 
ATOM     41  C   UNL A   1      41.252  25.493  28.312  1.00  0.00     0.029 A 
ATOM     42  N   UNL A   1      42.246  27.426  28.702  1.00  0.00    -0.354 N 
ATOM     43  C   UNL A   1      46.185  28.356  27.022  1.00  0.00     0.074 A 
ATOM     44  C   UNL A   1      45.743  28.158  25.663  1.00  0.00     0.031 C 
ATOM     45  C   UNL A   1      40.298  26.337  28.768  1.00  0.00     0.029 A 
ATOM     46  C   UNL A   1      40.918  27.615  29.059  1.00  0.00     0.049 A 
ATOM     47  H   UNL A   1      42.944  28.100  28.868  1.00  0.00     0.167 HD
ATOM     48  C   UNL A   1      46.885  29.374  27.600  1.00  0.00     0.031 A 
ATOM     49  C   UNL A   1      40.362  28.747  29.553  1.00  0.00     0.031 A 
ATOM     50  C   UNL A   1      47.101  29.142  29.005  1.00  0.00     0.049 A 
ATOM     51  C   UNL A   1      41.457  29.571  30.107  1.00  0.00     0.074 A 
ATOM     52  C   UNL A   1      47.727  28.160  29.748  1.00  0.00     0.029 A 
ATOM     53  N   UNL A   1      46.280  29.809  29.883  1.00  0.00    -0.354 N 
ATOM     54  N   UNL A   1      42.145  29.231  31.159  1.00  0.00    -0.248 NA
ATOM     55  C   UNL A   1      42.085  30.555  29.241  1.00  0.00     0.031 C 
ATOM     56  C   UNL A   1      46.879  27.967  30.879  1.00  0.00     0.029 A 
ATOM     57  C   UNL A   1      45.834  28.890  30.796  1.00  0.00     0.049 A 
ATOM     58  H   UNL A   1      46.057  30.767  29.861  1.00  0.00     0.167 HD
ATOM     59  C   UNL A   1      43.449  29.594  30.857  1.00  0.00     0.074 A 
ATOM     60  C   UNL A   1      43.332  30.505  29.719  1.00  0.00     0.031 C 
ATOM     61  C   UNL A   1      44.509  28.905  31.373  1.00  0.00     0.031 A 
BRANCH  48  62
ATOM     62  C   UNL A   1      47.031  30.754  27.006  1.00  0.00    -0.014 A 
ATOM     63  C   UNL A   1      48.260  31.426  27.152  1.00  0.00     0.009 A 
ATOM     64  C   UNL A   1      45.938  31.527  26.572  1.00  0.00     0.009 A 
ATOM     65  C   UNL A   1      48.365  32.810  26.962  1.00  0.00     0.001 A 
ATOM     66  C   UNL A   1      46.049  32.902  26.342  1.00  0.00     0.001 A 
ATOM     67  C   UNL A   1      47.256  33.548  26.567  1.00  0.00     0.000 A 
ENDBRANCH  48  62
BRANCH  49  68
ATOM     68  C   UNL A   1      38.991  29.267  29.384  1.00  0.00    -0.014 A 
ATOM     69  C   UNL A   1      38.491  29.568  28.107  1.00  0.00     0.009 A 
ATOM     70  C   UNL A   1      38.076  29.199  30.450  1.00  0.00     0.009 A 
ATOM     71  C   UNL A   1      37.117  29.744  27.897  1.00  0.00     0.001 A 
ATOM     72  C   UNL A   1      36.704  29.376  30.240  1.00  0.00     0.001 A 
ATOM     73  C   UNL A   1      36.223  29.631  28.959  1.00  0.00     0.000 A 
ENDBRANCH  49  68
BRANCH  61  74
ATOM     74  C   UNL A   1      44.235  27.883  32.451  1.00  0.00    -0.014 A 
ATOM     75  C   UNL A   1      44.166  26.500  32.201  1.00  0.00     0.009 A 
ATOM     76  C   UNL A   1      44.202  28.317  33.785  1.00  0.00     0.009 A 
ATOM     77  C   UNL A   1      44.034  25.585  33.252  1.00  0.00     0.001 A 
ATOM     78  C   UNL A   1      44.092  27.403  34.835  1.00  0.00     0.001 A 
ATOM     79  C   UNL A   1      44.002  26.038  34.570  1.00  0.00     0.000 A 
ENDBRANCH  61  74
ENDBRANCH  35  36
ENDBRANCH  27  30
ENDBRANCH  25  26
ENDBRANCH  24  25
ENDBRANCH   1  24
TORSDOF 15
ENDMDL
MODEL 3
REMARK VINA RESULT:     -11.0      2.931      7.553
REMARK SMILES CCCc1c(C(=O)NCCCCNC(=O)c2ccc(-c3c4nc(c(-c5ccccc5)c5ccc([nH]5)c(-c5ccccc5)c5nc(c(-c6ccccc6)c6ccc3[nH]6)C=C5)C=C4)cc2)nnn1-c1ccccc1[N+](=O)[O-]
REMARK SMILES IDX 10 1 9 2 8 3 6 4 7 5 5 7 4 8 66 9 64 10 65 11 3 12 2 13 1 14
REMARK SMILES IDX 67 15 68 16 72 17 69 18 71 19 70 20 73 21 74 22 75 23 11 24
REMARK SMILES IDX 12 25 13 26 14 27 15 29 16 30 17 31 63 32 18 33 62 34 19 35
REMARK SMILES IDX 20 36 21 37 56 38 22 39 61 40 55 41 57 42 23 43 60 44 54 45
REMARK SMILES IDX 53 46 24 48 46 49 31 50 45 51 32 52 35 53 44 54 58 55 33 56
REMARK SMILES IDX 34 57 43 59 59 60 36 61 25 62 26 63 30 64 27 65 29 66 28 67
REMARK SMILES IDX 47 68 48 69 52 70 49 71 51 72 50 73 37 74 38 75 42 76 39 77
REMARK SMILES IDX 41 78 40 79
REMARK H PARENT 8 6 13 28 57 47 35 58
REMARK Flexibility Score: inf
ROOT
ATOM      1  C   UNL A   1      38.069  23.095  25.756  1.00  0.00     0.023 C 
ENDROOT
BRANCH   1   2
ATOM      2  C   UNL A   1      36.703  23.025  25.094  1.00  0.00     0.116 C 
BRANCH   2   3
ATOM      3  N   UNL A   1      35.974  21.800  25.176  1.00  0.00    -0.351 N 
ATOM      4  C   UNL A   1      34.726  21.488  24.677  1.00  0.00     0.273 C 
ATOM      5  O   UNL A   1      34.444  20.286  24.756  1.00  0.00    -0.267 OA
ATOM      6  H   UNL A   1      36.429  21.071  25.659  1.00  0.00     0.163 HD
BRANCH   4   7
ATOM      7  C   UNL A   1      33.732  22.453  24.144  1.00  0.00     0.174 A 
ATOM      8  C   UNL A   1      33.432  23.830  24.234  1.00  0.00     0.078 A 
ATOM      9  N   UNL A   1      32.308  23.963  23.396  1.00  0.00    -0.210 N 
ATOM     10  N   UNL A   1      32.768  21.867  23.338  1.00  0.00    -0.124 NA
ATOM     11  N   UNL A   1      31.866  22.761  23.003  1.00  0.00    -0.061 NA
BRANCH   8  12
ATOM     12  C   UNL A   1      33.883  25.012  25.056  1.00  0.00     0.059 C 
BRANCH  12  13
ATOM     13  C   UNL A   1      33.015  25.547  26.203  1.00  0.00     0.003 C 
ATOM     14  C   UNL A   1      32.629  27.015  26.212  1.00  0.00     0.004 C 
ENDBRANCH  12  13
ENDBRANCH   8  12
BRANCH   9  15
ATOM     15  C   UNL A   1      31.499  25.101  23.152  1.00  0.00     0.144 A 
ATOM     16  C   UNL A   1      30.288  25.203  23.859  1.00  0.00     0.036 A 
ATOM     17  C   UNL A   1      31.880  26.150  22.305  1.00  0.00     0.294 A 
ATOM     18  C   UNL A   1      29.527  26.372  23.780  1.00  0.00     0.003 A 
ATOM     19  C   UNL A   1      31.117  27.325  22.230  1.00  0.00     0.088 A 
ATOM     20  C   UNL A   1      29.949  27.437  22.983  1.00  0.00     0.007 A 
BRANCH  17  21
ATOM     21  N   UNL A   1      33.026  26.037  21.411  1.00  0.00     0.065 N 
ATOM     22  O   UNL A   1      34.040  26.680  21.713  1.00  0.00    -0.258 OA
ATOM     23  O   UNL A   1      32.913  25.302  20.424  1.00  0.00    -0.258 OA
ENDBRANCH  17  21
ENDBRANCH   9  15
ENDBRANCH   4   7
ENDBRANCH   2   3
ENDBRANCH   1   2
BRANCH   1  24
ATOM     24  C   UNL A   1      38.877  21.802  25.824  1.00  0.00     0.023 C 
BRANCH  24  25
ATOM     25  C   UNL A   1      40.075  21.817  26.768  1.00  0.00     0.116 C 
BRANCH  25  26
ATOM     26  N   UNL A   1      41.374  21.945  26.112  1.00  0.00    -0.352 N 
ATOM     27  C   UNL A   1      42.097  23.123  25.946  1.00  0.00     0.251 C 
ATOM     28  H   UNL A   1      41.778  21.120  25.756  1.00  0.00     0.163 HD
ATOM     29  O   UNL A   1      42.965  23.233  25.105  1.00  0.00    -0.269 OA
BRANCH  27  30
ATOM     30  C   UNL A   1      41.771  24.246  26.847  1.00  0.00     0.039 A 
ATOM     31  C   UNL A   1      42.466  24.455  28.040  1.00  0.00     0.014 A 
ATOM     32  C   UNL A   1      40.808  25.150  26.406  1.00  0.00     0.014 A 
ATOM     33  C   UNL A   1      42.254  25.645  28.736  1.00  0.00     0.010 A 
ATOM     34  C   UNL A   1      40.700  26.374  27.020  1.00  0.00     0.010 A 
ATOM     35  C   UNL A   1      41.391  26.619  28.204  1.00  0.00    -0.014 A 
BRANCH  35  36
ATOM     36  C   UNL A   1      41.290  27.942  28.816  1.00  0.00     0.031 A 
ATOM     37  C   UNL A   1      42.322  28.933  28.395  1.00  0.00     0.074 A 
ATOM     38  C   UNL A   1      40.227  28.345  29.545  1.00  0.00     0.049 A 
ATOM     39  N   UNL A   1      43.250  29.458  29.124  1.00  0.00    -0.248 NA
ATOM     40  C   UNL A   1      42.386  29.328  26.978  1.00  0.00     0.031 C 
ATOM     41  C   UNL A   1      38.971  27.633  29.806  1.00  0.00     0.029 A 
ATOM     42  N   UNL A   1      40.005  29.558  30.120  1.00  0.00    -0.354 N 
ATOM     43  C   UNL A   1      43.913  30.381  28.316  1.00  0.00     0.074 A 
ATOM     44  C   UNL A   1      43.433  30.156  26.975  1.00  0.00     0.031 C 
ATOM     45  C   UNL A   1      38.043  28.503  30.264  1.00  0.00     0.029 A 
ATOM     46  C   UNL A   1      38.690  29.778  30.507  1.00  0.00     0.049 A 
ATOM     47  H   UNL A   1      40.718  30.224  30.252  1.00  0.00     0.167 HD
ATOM     48  C   UNL A   1      44.643  31.401  28.850  1.00  0.00     0.031 A 
ATOM     49  C   UNL A   1      38.165  30.931  30.986  1.00  0.00     0.031 A 
ATOM     50  C   UNL A   1      44.893  31.201  30.255  1.00  0.00     0.049 A 
ATOM     51  C   UNL A   1      39.287  31.751  31.490  1.00  0.00     0.074 A 
ATOM     52  C   UNL A   1      45.523  30.228  31.006  1.00  0.00     0.029 A 
ATOM     53  N   UNL A   1      44.106  31.904  31.136  1.00  0.00    -0.354 N 
ATOM     54  N   UNL A   1      39.996  31.426  32.532  1.00  0.00    -0.248 NA
ATOM     55  C   UNL A   1      39.908  32.702  30.584  1.00  0.00     0.031 C 
ATOM     56  C   UNL A   1      44.702  30.078  32.163  1.00  0.00     0.029 A 
ATOM     57  C   UNL A   1      43.670  31.015  32.083  1.00  0.00     0.049 A 
ATOM     58  H   UNL A   1      43.897  32.864  31.095  1.00  0.00     0.167 HD
ATOM     59  C   UNL A   1      41.298  31.760  32.188  1.00  0.00     0.074 A 
ATOM     60  C   UNL A   1      41.166  32.644  31.030  1.00  0.00     0.031 C 
ATOM     61  C   UNL A   1      42.360  31.066  32.694  1.00  0.00     0.031 A 
BRANCH  48  62
ATOM     62  C   UNL A   1      44.795  32.764  28.217  1.00  0.00    -0.014 A 
ATOM     63  C   UNL A   1      43.743  33.690  28.347  1.00  0.00     0.009 A 
ATOM     64  C   UNL A   1      45.787  33.066  27.267  1.00  0.00     0.009 A 
ATOM     65  C   UNL A   1      43.644  34.808  27.508  1.00  0.00     0.001 A 
ATOM     66  C   UNL A   1      45.713  34.203  26.456  1.00  0.00     0.001 A 
ATOM     67  C   UNL A   1      44.624  35.057  26.557  1.00  0.00     0.000 A 
ENDBRANCH  48  62
BRANCH  49  68
ATOM     68  C   UNL A   1      36.798  31.469  30.839  1.00  0.00    -0.014 A 
ATOM     69  C   UNL A   1      36.067  31.884  31.962  1.00  0.00     0.009 A 
ATOM     70  C   UNL A   1      36.321  31.841  29.569  1.00  0.00     0.009 A 
ATOM     71  C   UNL A   1      34.926  32.685  31.821  1.00  0.00     0.001 A 
ATOM     72  C   UNL A   1      35.181  32.640  29.428  1.00  0.00     0.001 A 
ATOM     73  C   UNL A   1      34.494  33.076  30.556  1.00  0.00     0.000 A 
ENDBRANCH  49  68
BRANCH  61  74
ATOM     74  C   UNL A   1      42.099  30.077  33.805  1.00  0.00    -0.014 A 
ATOM     75  C   UNL A   1      41.774  28.727  33.573  1.00  0.00     0.009 A 
ATOM     76  C   UNL A   1      42.341  30.482  35.125  1.00  0.00     0.009 A 
ATOM     77  C   UNL A   1      41.664  27.822  34.634  1.00  0.00     0.001 A 
ATOM     78  C   UNL A   1      42.252  29.573  36.183  1.00  0.00     0.001 A 
ATOM     79  C   UNL A   1      41.908  28.245  35.939  1.00  0.00     0.000 A 
ENDBRANCH  61  74
ENDBRANCH  35  36
ENDBRANCH  27  30
ENDBRANCH  25  26
ENDBRANCH  24  25
ENDBRANCH   1  24
TORSDOF 15
ENDMDL
