MODEL 1
REMARK VINA RESULT:      -9.5      0.000      0.000
REMARK SMILES CCOc1ccc(CC)cc1[C@@H]([NH3+])CC(=O)NCCCCNC(=O)c1ccc(-c2c3nc(c(-c4ccccc4)c4ccc([nH]4)c(-c4ccccc4)c4nc(c(-c5ccccc5)c5ccc2[nH]5)C=C4)C=C3)cc1
REMARK SMILES IDX 18 1 17 2 15 3 16 4 14 6 12 7 11 8 4 9 5 10 6 11 10 12 7 13
REMARK SMILES IDX 3 14 2 15 1 16 8 17 9 18 13 19 19 23 20 24 21 25 22 26 23 27
REMARK SMILES IDX 24 29 25 30 26 31 72 32 27 33 71 34 28 35 29 36 30 37 65 38
REMARK SMILES IDX 31 39 70 40 64 41 66 42 32 43 69 44 63 45 62 46 33 48 55 49
REMARK SMILES IDX 40 50 54 51 41 52 44 53 53 54 67 55 42 56 43 57 52 59 68 60
REMARK SMILES IDX 45 61 34 62 35 63 39 64 36 65 38 66 37 67 56 68 57 69 61 70
REMARK SMILES IDX 58 71 60 72 59 73 46 74 47 75 51 76 48 77 50 78 49 79
REMARK H PARENT 17 5 13 20 13 21 13 22 22 28 66 47 44 58
REMARK Flexibility Score: inf
ROOT
ATOM      1  C   UNL A   1      33.870  22.391  25.154  1.00  0.00     0.116 C 
ENDROOT
BRANCH   1   2
ATOM      2  N   UNL A   1      33.909  22.594  23.717  1.00  0.00    -0.356 N 
ATOM      3  C   UNL A   1      33.959  23.751  23.000  1.00  0.00     0.226 C 
ATOM      4  O   UNL A   1      33.745  23.681  21.787  1.00  0.00    -0.275 OA
ATOM      5  H   UNL A   1      33.898  21.770  23.179  1.00  0.00     0.163 HD
BRANCH   3   6
ATOM      6  C   UNL A   1      34.309  25.078  23.648  1.00  0.00     0.170 C 
BRANCH   6   7
ATOM      7  C   UNL A   1      33.222  26.152  23.445  1.00  0.00     0.225 C 
BRANCH   7   8
ATOM      8  C   UNL A   1      32.746  26.774  24.745  1.00  0.00     0.052 A 
ATOM      9  C   UNL A   1      31.488  26.490  25.292  1.00  0.00     0.128 A 
ATOM     10  C   UNL A   1      31.096  27.075  26.501  1.00  0.00     0.047 A 
ATOM     11  C   UNL A   1      31.967  27.930  27.194  1.00  0.00     0.007 A 
ATOM     12  C   UNL A   1      33.581  27.682  25.430  1.00  0.00     0.017 A 
ATOM     13  C   UNL A   1      33.224  28.248  26.663  1.00  0.00    -0.048 A 
BRANCH   9  14
ATOM     14  O   UNL A   1      30.582  25.740  24.590  1.00  0.00    -0.493 OA
BRANCH  14  15
ATOM     15  C   UNL A   1      29.284  26.343  24.512  1.00  0.00     0.226 C 
ATOM     16  C   UNL A   1      29.274  27.326  23.353  1.00  0.00     0.049 C 
ENDBRANCH  14  15
ENDBRANCH   9  14
BRANCH  13  17
ATOM     17  C   UNL A   1      34.267  29.043  27.417  1.00  0.00     0.032 C 
ATOM     18  C   UNL A   1      34.165  30.555  27.308  1.00  0.00     0.009 C 
ENDBRANCH  13  17
ENDBRANCH   7   8
BRANCH   7  19
ATOM     19  N   UNL A   1      33.733  27.223  22.570  1.00  0.00    -0.351 N 
ATOM     20  H   UNL A   1      33.758  28.103  23.087  1.00  0.00     0.345 HD
ATOM     21  H   UNL A   1      33.120  27.323  21.761  1.00  0.00     0.345 HD
ATOM     22  H   UNL A   1      34.674  26.987  22.256  1.00  0.00     0.345 HD
ENDBRANCH   7  19
ENDBRANCH   6   7
ENDBRANCH   3   6
ENDBRANCH   1   2
BRANCH   1  23
ATOM     23  C   UNL A   1      35.237  21.934  25.655  1.00  0.00     0.023 C 
BRANCH  23  24
ATOM     24  C   UNL A   1      36.215  23.034  26.034  1.00  0.00     0.023 C 
BRANCH  24  25
ATOM     25  C   UNL A   1      37.372  23.175  25.058  1.00  0.00     0.116 C 
BRANCH  25  26
ATOM     26  N   UNL A   1      38.576  22.441  25.442  1.00  0.00    -0.352 N 
ATOM     27  C   UNL A   1      39.620  22.845  26.242  1.00  0.00     0.251 C 
ATOM     28  H   UNL A   1      38.651  21.530  25.078  1.00  0.00     0.163 HD
ATOM     29  O   UNL A   1      40.581  22.108  26.437  1.00  0.00    -0.269 OA
BRANCH  27  30
ATOM     30  C   UNL A   1      39.600  24.211  26.801  1.00  0.00     0.039 A 
ATOM     31  C   UNL A   1      39.058  24.412  28.073  1.00  0.00     0.014 A 
ATOM     32  C   UNL A   1      40.225  25.258  26.125  1.00  0.00     0.014 A 
ATOM     33  C   UNL A   1      39.248  25.638  28.711  1.00  0.00     0.010 A 
ATOM     34  C   UNL A   1      40.514  26.431  26.805  1.00  0.00     0.010 A 
ATOM     35  C   UNL A   1      40.035  26.633  28.108  1.00  0.00    -0.014 A 
BRANCH  35  36
ATOM     36  C   UNL A   1      40.380  27.893  28.811  1.00  0.00     0.031 A 
ATOM     37  C   UNL A   1      41.716  28.027  29.488  1.00  0.00     0.074 A 
ATOM     38  C   UNL A   1      39.459  28.869  28.934  1.00  0.00     0.049 A 
ATOM     39  N   UNL A   1      42.160  28.987  30.258  1.00  0.00    -0.248 NA
ATOM     40  C   UNL A   1      42.661  26.909  29.316  1.00  0.00     0.031 C 
ATOM     41  C   UNL A   1      38.100  28.836  28.384  1.00  0.00     0.029 A 
ATOM     42  N   UNL A   1      39.526  30.082  29.570  1.00  0.00    -0.354 N 
ATOM     43  C   UNL A   1      43.411  28.569  30.692  1.00  0.00     0.074 A 
ATOM     44  C   UNL A   1      43.633  27.248  30.149  1.00  0.00     0.031 C 
ATOM     45  C   UNL A   1      37.480  29.991  28.673  1.00  0.00     0.029 A 
ATOM     46  C   UNL A   1      38.377  30.828  29.460  1.00  0.00     0.049 A 
ATOM     47  H   UNL A   1      40.323  30.390  30.060  1.00  0.00     0.167 HD
ATOM     48  C   UNL A   1      44.310  29.234  31.456  1.00  0.00     0.031 A 
ATOM     49  C   UNL A   1      38.083  32.051  29.940  1.00  0.00     0.031 A 
ATOM     50  C   UNL A   1      44.113  30.567  31.952  1.00  0.00     0.049 A 
ATOM     51  C   UNL A   1      39.117  32.793  30.738  1.00  0.00     0.074 A 
ATOM     52  C   UNL A   1      44.993  31.362  32.666  1.00  0.00     0.029 A 
ATOM     53  N   UNL A   1      42.954  31.307  31.773  1.00  0.00    -0.354 N 
ATOM     54  N   UNL A   1      40.322  32.410  31.086  1.00  0.00    -0.248 NA
ATOM     55  C   UNL A   1      38.754  34.141  31.198  1.00  0.00     0.031 C 
ATOM     56  C   UNL A   1      44.355  32.575  32.942  1.00  0.00     0.029 A 
ATOM     57  C   UNL A   1      43.094  32.549  32.368  1.00  0.00     0.049 A 
ATOM     58  H   UNL A   1      42.152  30.997  31.294  1.00  0.00     0.167 HD
ATOM     59  C   UNL A   1      40.870  33.478  31.784  1.00  0.00     0.074 A 
ATOM     60  C   UNL A   1      39.872  34.529  31.796  1.00  0.00     0.031 C 
ATOM     61  C   UNL A   1      42.091  33.580  32.362  1.00  0.00     0.031 A 
BRANCH  48  62
ATOM     62  C   UNL A   1      45.591  28.522  31.784  1.00  0.00    -0.014 A 
ATOM     63  C   UNL A   1      46.669  28.514  30.883  1.00  0.00     0.009 A 
ATOM     64  C   UNL A   1      45.725  27.856  33.011  1.00  0.00     0.009 A 
ATOM     65  C   UNL A   1      47.838  27.814  31.186  1.00  0.00     0.001 A 
ATOM     66  C   UNL A   1      46.908  27.181  33.323  1.00  0.00     0.001 A 
ATOM     67  C   UNL A   1      47.958  27.152  32.407  1.00  0.00     0.000 A 
ENDBRANCH  48  62
BRANCH  49  68
ATOM     68  C   UNL A   1      36.765  32.671  29.647  1.00  0.00    -0.014 A 
ATOM     69  C   UNL A   1      36.560  33.354  28.437  1.00  0.00     0.009 A 
ATOM     70  C   UNL A   1      35.709  32.587  30.567  1.00  0.00     0.009 A 
ATOM     71  C   UNL A   1      35.334  33.964  28.167  1.00  0.00     0.001 A 
ATOM     72  C   UNL A   1      34.476  33.179  30.283  1.00  0.00     0.001 A 
ATOM     73  C   UNL A   1      34.293  33.874  29.088  1.00  0.00     0.000 A 
ENDBRANCH  49  68
BRANCH  61  74
ATOM     74  C   UNL A   1      42.426  34.883  33.025  1.00  0.00    -0.014 A 
ATOM     75  C   UNL A   1      42.025  35.151  34.343  1.00  0.00     0.009 A 
ATOM     76  C   UNL A   1      43.192  35.836  32.336  1.00  0.00     0.009 A 
ATOM     77  C   UNL A   1      42.364  36.363  34.948  1.00  0.00     0.001 A 
ATOM     78  C   UNL A   1      43.549  37.035  32.952  1.00  0.00     0.001 A 
ATOM     79  C   UNL A   1      43.129  37.300  34.254  1.00  0.00     0.000 A 
ENDBRANCH  61  74
ENDBRANCH  35  36
ENDBRANCH  27  30
ENDBRANCH  25  26
ENDBRANCH  24  25
ENDBRANCH  23  24
ENDBRANCH   1  23
TORSDOF 17
ENDMDL
MODEL 2
REMARK VINA RESULT:      -9.4      3.640      8.523
REMARK SMILES CCOc1ccc(CC)cc1[C@@H]([NH3+])CC(=O)NCCCCNC(=O)c1ccc(-c2c3nc(c(-c4ccccc4)c4ccc([nH]4)c(-c4ccccc4)c4nc(c(-c5ccccc5)c5ccc2[nH]5)C=C4)C=C3)cc1
REMARK SMILES IDX 18 1 17 2 15 3 16 4 14 6 12 7 11 8 4 9 5 10 6 11 10 12 7 13
REMARK SMILES IDX 3 14 2 15 1 16 8 17 9 18 13 19 19 23 20 24 21 25 22 26 23 27
REMARK SMILES IDX 24 29 25 30 26 31 72 32 27 33 71 34 28 35 29 36 30 37 65 38
REMARK SMILES IDX 31 39 70 40 64 41 66 42 32 43 69 44 63 45 62 46 33 48 55 49
REMARK SMILES IDX 40 50 54 51 41 52 44 53 53 54 67 55 42 56 43 57 52 59 68 60
REMARK SMILES IDX 45 61 34 62 35 63 39 64 36 65 38 66 37 67 56 68 57 69 61 70
REMARK SMILES IDX 58 71 60 72 59 73 46 74 47 75 51 76 48 77 50 78 49 79
REMARK H PARENT 17 5 13 20 13 21 13 22 22 28 66 47 44 58
REMARK Flexibility Score: inf
ROOT
ATOM      1  C   UNL A   1      34.401  31.833  28.449  1.00  0.00     0.116 C 
ENDROOT
BRANCH   1   2
ATOM      2  N   UNL A   1      34.658  31.023  27.273  1.00  0.00    -0.356 N 
ATOM      3  C   UNL A   1      33.843  30.152  26.616  1.00  0.00     0.226 C 
ATOM      4  O   UNL A   1      34.359  29.403  25.783  1.00  0.00    -0.275 OA
ATOM      5  H   UNL A   1      35.561  31.119  26.890  1.00  0.00     0.163 HD
BRANCH   3   6
ATOM      6  C   UNL A   1      32.345  30.124  26.858  1.00  0.00     0.170 C 
BRANCH   6   7
ATOM      7  C   UNL A   1      31.791  28.697  27.037  1.00  0.00     0.225 C 
BRANCH   7   8
ATOM      8  C   UNL A   1      31.169  28.135  25.771  1.00  0.00     0.052 A 
ATOM      9  C   UNL A   1      30.703  26.816  25.691  1.00  0.00     0.128 A 
ATOM     10  C   UNL A   1      30.123  26.344  24.508  1.00  0.00     0.047 A 
ATOM     11  C   UNL A   1      29.975  27.192  23.398  1.00  0.00     0.007 A 
ATOM     12  C   UNL A   1      31.063  28.950  24.625  1.00  0.00     0.017 A 
ATOM     13  C   UNL A   1      30.448  28.509  23.443  1.00  0.00    -0.048 A 
BRANCH   9  14
ATOM     14  O   UNL A   1      30.924  25.941  26.720  1.00  0.00    -0.493 OA
BRANCH  14  15
ATOM     15  C   UNL A   1      31.146  24.594  26.283  1.00  0.00     0.226 C 
ATOM     16  C   UNL A   1      32.636  24.300  26.356  1.00  0.00     0.049 C 
ENDBRANCH  14  15
ENDBRANCH   9  14
BRANCH  13  17
ATOM     17  C   UNL A   1      30.198  29.519  22.344  1.00  0.00     0.032 C 
ATOM     18  C   UNL A   1      28.742  29.827  22.037  1.00  0.00     0.009 C 
ENDBRANCH  13  17
ENDBRANCH   7   8
BRANCH   7  19
ATOM     19  N   UNL A   1      32.869  27.791  27.474  1.00  0.00    -0.351 N 
ATOM     20  H   UNL A   1      33.527  27.650  26.707  1.00  0.00     0.345 HD
ATOM     21  H   UNL A   1      32.468  26.893  27.747  1.00  0.00     0.345 HD
ATOM     22  H   UNL A   1      33.357  28.202  28.269  1.00  0.00     0.345 HD
ENDBRANCH   7  19
ENDBRANCH   6   7
ENDBRANCH   3   6
ENDBRANCH   1   2
BRANCH   1  23
ATOM     23  C   UNL A   1      34.415  33.314  28.078  1.00  0.00     0.023 C 
BRANCH  23  24
ATOM     24  C   UNL A   1      33.269  34.152  28.619  1.00  0.00     0.023 C 
BRANCH  24  25
ATOM     25  C   UNL A   1      33.728  35.333  29.457  1.00  0.00     0.116 C 
BRANCH  25  26
ATOM     26  N   UNL A   1      32.734  35.814  30.416  1.00  0.00    -0.352 N 
ATOM     27  C   UNL A   1      32.745  35.735  31.789  1.00  0.00     0.251 C 
ATOM     28  H   UNL A   1      31.947  36.255  30.023  1.00  0.00     0.163 HD
ATOM     29  O   UNL A   1      31.804  36.164  32.449  1.00  0.00    -0.269 OA
BRANCH  27  30
ATOM     30  C   UNL A   1      33.876  35.057  32.453  1.00  0.00     0.039 A 
ATOM     31  C   UNL A   1      33.706  33.748  32.909  1.00  0.00     0.014 A 
ATOM     32  C   UNL A   1      35.129  35.669  32.508  1.00  0.00     0.014 A 
ATOM     33  C   UNL A   1      34.821  33.015  33.314  1.00  0.00     0.010 A 
ATOM     34  C   UNL A   1      36.247  34.902  32.798  1.00  0.00     0.010 A 
ATOM     35  C   UNL A   1      36.107  33.565  33.199  1.00  0.00    -0.014 A 
BRANCH  35  36
ATOM     36  C   UNL A   1      37.328  32.771  33.483  1.00  0.00     0.031 A 
ATOM     37  C   UNL A   1      38.084  32.998  34.763  1.00  0.00     0.074 A 
ATOM     38  C   UNL A   1      37.814  31.928  32.550  1.00  0.00     0.049 A 
ATOM     39  N   UNL A   1      39.234  32.504  35.142  1.00  0.00    -0.248 NA
ATOM     40  C   UNL A   1      37.491  33.945  35.723  1.00  0.00     0.031 C 
ATOM     41  C   UNL A   1      37.215  31.667  31.238  1.00  0.00     0.029 A 
ATOM     42  N   UNL A   1      38.934  31.137  32.564  1.00  0.00    -0.354 N 
ATOM     43  C   UNL A   1      39.518  33.111  36.358  1.00  0.00     0.074 A 
ATOM     44  C   UNL A   1      38.452  34.049  36.627  1.00  0.00     0.031 C 
ATOM     45  C   UNL A   1      37.952  30.749  30.592  1.00  0.00     0.029 A 
ATOM     46  C   UNL A   1      39.094  30.387  31.423  1.00  0.00     0.049 A 
ATOM     47  H   UNL A   1      39.565  31.108  33.319  1.00  0.00     0.167 HD
ATOM     48  C   UNL A   1      40.561  32.891  37.193  1.00  0.00     0.031 A 
ATOM     49  C   UNL A   1      40.054  29.505  31.087  1.00  0.00     0.031 A 
ATOM     50  C   UNL A   1      41.593  31.922  36.952  1.00  0.00     0.049 A 
ATOM     51  C   UNL A   1      41.173  29.236  32.053  1.00  0.00     0.074 A 
ATOM     52  C   UNL A   1      42.649  31.563  37.771  1.00  0.00     0.029 A 
ATOM     53  N   UNL A   1      41.689  31.146  35.807  1.00  0.00    -0.354 N 
ATOM     54  N   UNL A   1      41.393  29.771  33.230  1.00  0.00    -0.248 NA
ATOM     55  C   UNL A   1      42.167  28.232  31.650  1.00  0.00     0.031 C 
ATOM     56  C   UNL A   1      43.400  30.587  37.109  1.00  0.00     0.029 A 
ATOM     57  C   UNL A   1      42.790  30.312  35.895  1.00  0.00     0.049 A 
ATOM     58  H   UNL A   1      41.066  31.181  35.046  1.00  0.00     0.167 HD
ATOM     59  C   UNL A   1      42.535  29.152  33.718  1.00  0.00     0.074 A 
ATOM     60  C   UNL A   1      42.953  28.191  32.717  1.00  0.00     0.031 C 
ATOM     61  C   UNL A   1      43.182  29.360  34.891  1.00  0.00     0.031 A 
BRANCH  48  62
ATOM     62  C   UNL A   1      40.621  33.713  38.449  1.00  0.00    -0.014 A 
ATOM     63  C   UNL A   1      40.019  33.268  39.638  1.00  0.00     0.009 A 
ATOM     64  C   UNL A   1      41.290  34.946  38.446  1.00  0.00     0.009 A 
ATOM     65  C   UNL A   1      40.047  34.062  40.785  1.00  0.00     0.001 A 
ATOM     66  C   UNL A   1      41.343  35.723  39.605  1.00  0.00     0.001 A 
ATOM     67  C   UNL A   1      40.713  35.287  40.769  1.00  0.00     0.000 A 
ENDBRANCH  48  62
BRANCH  49  68
ATOM     68  C   UNL A   1      39.982  28.780  29.792  1.00  0.00    -0.014 A 
ATOM     69  C   UNL A   1      39.402  27.503  29.731  1.00  0.00     0.009 A 
ATOM     70  C   UNL A   1      40.491  29.353  28.617  1.00  0.00     0.009 A 
ATOM     71  C   UNL A   1      39.358  26.803  28.524  1.00  0.00     0.001 A 
ATOM     72  C   UNL A   1      40.423  28.659  27.406  1.00  0.00     0.001 A 
ATOM     73  C   UNL A   1      39.865  27.382  27.362  1.00  0.00     0.000 A 
ENDBRANCH  49  68
BRANCH  61  74
ATOM     74  C   UNL A   1      44.385  28.508  35.168  1.00  0.00    -0.014 A 
ATOM     75  C   UNL A   1      45.672  28.932  34.806  1.00  0.00     0.009 A 
ATOM     76  C   UNL A   1      44.230  27.287  35.842  1.00  0.00     0.009 A 
ATOM     77  C   UNL A   1      46.781  28.133  35.090  1.00  0.00     0.001 A 
ATOM     78  C   UNL A   1      45.343  26.503  36.146  1.00  0.00     0.001 A 
ATOM     79  C   UNL A   1      46.615  26.923  35.763  1.00  0.00     0.000 A 
ENDBRANCH  61  74
ENDBRANCH  35  36
ENDBRANCH  27  30
ENDBRANCH  25  26
ENDBRANCH  24  25
ENDBRANCH  23  24
ENDBRANCH   1  23
TORSDOF 17
ENDMDL
MODEL 3
REMARK VINA RESULT:      -9.3      3.173      6.575
REMARK SMILES CCOc1ccc(CC)cc1[C@@H]([NH3+])CC(=O)NCCCCNC(=O)c1ccc(-c2c3nc(c(-c4ccccc4)c4ccc([nH]4)c(-c4ccccc4)c4nc(c(-c5ccccc5)c5ccc2[nH]5)C=C4)C=C3)cc1
REMARK SMILES IDX 18 1 17 2 15 3 16 4 14 6 12 7 11 8 4 9 5 10 6 11 10 12 7 13
REMARK SMILES IDX 3 14 2 15 1 16 8 17 9 18 13 19 19 23 20 24 21 25 22 26 23 27
REMARK SMILES IDX 24 29 25 30 26 31 72 32 27 33 71 34 28 35 29 36 30 37 65 38
REMARK SMILES IDX 31 39 70 40 64 41 66 42 32 43 69 44 63 45 62 46 33 48 55 49
REMARK SMILES IDX 40 50 54 51 41 52 44 53 53 54 67 55 42 56 43 57 52 59 68 60
REMARK SMILES IDX 45 61 34 62 35 63 39 64 36 65 38 66 37 67 56 68 57 69 61 70
REMARK SMILES IDX 58 71 60 72 59 73 46 74 47 75 51 76 48 77 50 78 49 79
REMARK H PARENT 17 5 13 20 13 21 13 22 22 28 66 47 44 58
REMARK Flexibility Score: inf
ROOT
ATOM      1  C   UNL A   1      33.929  22.121  27.608  1.00  0.00     0.116 C 
ENDROOT
BRANCH   1   2
ATOM      2  N   UNL A   1      32.488  22.291  27.578  1.00  0.00    -0.356 N 
ATOM      3  C   UNL A   1      31.738  23.320  27.092  1.00  0.00     0.226 C 
ATOM      4  O   UNL A   1      30.542  23.346  27.392  1.00  0.00    -0.275 OA
ATOM      5  H   UNL A   1      31.973  21.547  27.967  1.00  0.00     0.163 HD
BRANCH   3   6
ATOM      6  C   UNL A   1      32.331  24.376  26.178  1.00  0.00     0.170 C 
BRANCH   6   7
ATOM      7  C   UNL A   1      31.665  25.756  26.343  1.00  0.00     0.225 C 
BRANCH   7   8
ATOM      8  C   UNL A   1      32.496  26.893  25.776  1.00  0.00     0.052 A 
ATOM      9  C   UNL A   1      32.601  27.125  24.398  1.00  0.00     0.128 A 
ATOM     10  C   UNL A   1      33.367  28.193  23.919  1.00  0.00     0.047 A 
ATOM     11  C   UNL A   1      34.017  29.061  24.812  1.00  0.00     0.007 A 
ATOM     12  C   UNL A   1      33.206  27.742  26.651  1.00  0.00     0.017 A 
ATOM     13  C   UNL A   1      33.947  28.843  26.194  1.00  0.00    -0.048 A 
BRANCH   9  14
ATOM     14  O   UNL A   1      32.061  26.239  23.504  1.00  0.00    -0.493 OA
BRANCH  14  15
ATOM     15  C   UNL A   1      33.043  25.585  22.690  1.00  0.00     0.226 C 
ATOM     16  C   UNL A   1      32.578  24.164  22.417  1.00  0.00     0.049 C 
ENDBRANCH  14  15
ENDBRANCH   9  14
BRANCH  13  17
ATOM     17  C   UNL A   1      34.498  29.811  27.216  1.00  0.00     0.032 C 
ATOM     18  C   UNL A   1      35.831  29.437  27.843  1.00  0.00     0.009 C 
ENDBRANCH  13  17
ENDBRANCH   7   8
BRANCH   7  19
ATOM     19  N   UNL A   1      30.347  25.760  25.680  1.00  0.00    -0.351 N 
ATOM     20  H   UNL A   1      30.188  26.669  25.244  1.00  0.00     0.345 HD
ATOM     21  H   UNL A   1      29.619  25.584  26.372  1.00  0.00     0.345 HD
ATOM     22  H   UNL A   1      30.323  25.033  24.967  1.00  0.00     0.345 HD
ENDBRANCH   7  19
ENDBRANCH   6   7
ENDBRANCH   3   6
ENDBRANCH   1   2
BRANCH   1  23
ATOM     23  C   UNL A   1      34.367  21.164  26.503  1.00  0.00     0.023 C 
BRANCH  23  24
ATOM     24  C   UNL A   1      34.921  21.803  25.241  1.00  0.00     0.023 C 
BRANCH  24  25
ATOM     25  C   UNL A   1      36.356  22.282  25.387  1.00  0.00     0.116 C 
BRANCH  25  26
ATOM     26  N   UNL A   1      37.354  21.215  25.337  1.00  0.00    -0.352 N 
ATOM     27  C   UNL A   1      38.643  21.211  25.820  1.00  0.00     0.251 C 
ATOM     28  H   UNL A   1      37.064  20.384  24.897  1.00  0.00     0.163 HD
ATOM     29  O   UNL A   1      39.366  20.233  25.663  1.00  0.00    -0.269 OA
BRANCH  27  30
ATOM     30  C   UNL A   1      39.165  22.432  26.465  1.00  0.00     0.039 A 
ATOM     31  C   UNL A   1      40.261  22.326  27.324  1.00  0.00     0.014 A 
ATOM     32  C   UNL A   1      38.653  23.683  26.121  1.00  0.00     0.014 A 
ATOM     33  C   UNL A   1      40.913  23.484  27.747  1.00  0.00     0.010 A 
ATOM     34  C   UNL A   1      39.371  24.823  26.445  1.00  0.00     0.010 A 
ATOM     35  C   UNL A   1      40.513  24.738  27.256  1.00  0.00    -0.014 A 
BRANCH  35  36
ATOM     36  C   UNL A   1      41.266  25.977  27.566  1.00  0.00     0.031 A 
ATOM     37  C   UNL A   1      40.644  27.028  28.445  1.00  0.00     0.074 A 
ATOM     38  C   UNL A   1      42.456  26.207  26.977  1.00  0.00     0.049 A 
ATOM     39  N   UNL A   1      41.078  28.227  28.733  1.00  0.00    -0.248 NA
ATOM     40  C   UNL A   1      39.336  26.703  29.040  1.00  0.00     0.031 C 
ATOM     41  C   UNL A   1      43.139  25.300  26.049  1.00  0.00     0.029 A 
ATOM     42  N   UNL A   1      43.301  27.283  27.067  1.00  0.00    -0.354 N 
ATOM     43  C   UNL A   1      40.080  28.811  29.502  1.00  0.00     0.074 A 
ATOM     44  C   UNL A   1      38.997  27.859  29.591  1.00  0.00     0.031 C 
ATOM     45  C   UNL A   1      44.314  25.842  25.689  1.00  0.00     0.029 A 
ATOM     46  C   UNL A   1      44.451  27.146  26.326  1.00  0.00     0.049 A 
ATOM     47  H   UNL A   1      43.104  28.079  27.612  1.00  0.00     0.167 HD
ATOM     48  C   UNL A   1      40.074  30.023  30.106  1.00  0.00     0.031 A 
ATOM     49  C   UNL A   1      45.497  27.980  26.178  1.00  0.00     0.031 A 
ATOM     50  C   UNL A   1      41.172  30.948  30.063  1.00  0.00     0.049 A 
ATOM     51  C   UNL A   1      45.492  29.297  26.902  1.00  0.00     0.074 A 
ATOM     52  C   UNL A   1      41.299  32.167  30.706  1.00  0.00     0.029 A 
ATOM     53  N   UNL A   1      42.339  30.748  29.342  1.00  0.00    -0.354 N 
ATOM     54  N   UNL A   1      44.568  29.807  27.680  1.00  0.00    -0.248 NA
ATOM     55  C   UNL A   1      46.681  30.145  26.737  1.00  0.00     0.031 C 
ATOM     56  C   UNL A   1      42.535  32.717  30.352  1.00  0.00     0.029 A 
ATOM     57  C   UNL A   1      43.191  31.823  29.520  1.00  0.00     0.049 A 
ATOM     58  H   UNL A   1      42.533  29.958  28.788  1.00  0.00     0.167 HD
ATOM     59  C   UNL A   1      45.073  31.024  28.116  1.00  0.00     0.074 A 
ATOM     60  C   UNL A   1      46.390  31.168  27.529  1.00  0.00     0.031 C 
ATOM     61  C   UNL A   1      44.499  31.941  28.932  1.00  0.00     0.031 A 
BRANCH  48  62
ATOM     62  C   UNL A   1      38.839  30.402  30.872  1.00  0.00    -0.014 A 
ATOM     63  C   UNL A   1      38.585  29.871  32.149  1.00  0.00     0.009 A 
ATOM     64  C   UNL A   1      37.920  31.303  30.316  1.00  0.00     0.009 A 
ATOM     65  C   UNL A   1      37.413  30.201  32.830  1.00  0.00     0.001 A 
ATOM     66  C   UNL A   1      36.763  31.654  31.014  1.00  0.00     0.001 A 
ATOM     67  C   UNL A   1      36.505  31.095  32.265  1.00  0.00     0.000 A 
ENDBRANCH  48  62
BRANCH  49  68
ATOM     68  C   UNL A   1      46.657  27.582  25.340  1.00  0.00    -0.014 A 
ATOM     69  C   UNL A   1      46.733  27.993  24.000  1.00  0.00     0.009 A 
ATOM     70  C   UNL A   1      47.689  26.791  25.868  1.00  0.00     0.009 A 
ATOM     71  C   UNL A   1      47.804  27.598  23.197  1.00  0.00     0.001 A 
ATOM     72  C   UNL A   1      48.772  26.417  25.068  1.00  0.00     0.001 A 
ATOM     73  C   UNL A   1      48.824  26.813  23.732  1.00  0.00     0.000 A 
ENDBRANCH  49  68
BRANCH  61  74
ATOM     74  C   UNL A   1      45.305  33.162  29.263  1.00  0.00    -0.014 A 
ATOM     75  C   UNL A   1      45.194  34.334  28.499  1.00  0.00     0.009 A 
ATOM     76  C   UNL A   1      46.152  33.151  30.382  1.00  0.00     0.009 A 
ATOM     77  C   UNL A   1      45.940  35.465  28.836  1.00  0.00     0.001 A 
ATOM     78  C   UNL A   1      46.877  34.291  30.729  1.00  0.00     0.001 A 
ATOM     79  C   UNL A   1      46.776  35.444  29.952  1.00  0.00     0.000 A 
ENDBRANCH  61  74
ENDBRANCH  35  36
ENDBRANCH  27  30
ENDBRANCH  25  26
ENDBRANCH  24  25
ENDBRANCH  23  24
ENDBRANCH   1  23
TORSDOF 17
ENDMDL
