MODEL 1
REMARK VINA RESULT:     -12.4      0.000      0.000
REMARK SMILES CCc1cc(S(F)(F)(F)(F)F)cc2c1O[C@@H](C(F)(F)F)C(C(=O)NCCCCNC(=O)c1ccc(-c3c4nc(c(-c5ccccc5)c5ccc([nH]5)c(-c5ccccc5)c5nc(c(-c6ccccc6)c6ccc3[nH]6)C=C5)C=C4)cc1)=C2
REMARK SMILES IDX 27 1 26 2 25 3 24 4 22 5 23 6 21 8 3 9 4 10 14 11 5 12 13 13
REMARK SMILES IDX 15 14 12 15 80 16 16 17 2 18 1 19 6 20 7 21 8 22 9 23 10 24
REMARK SMILES IDX 11 25 17 26 18 27 19 28 20 29 28 30 29 31 30 32 31 34 32 35
REMARK SMILES IDX 33 36 79 37 34 38 78 39 35 40 36 41 37 42 72 43 38 44 77 45
REMARK SMILES IDX 71 46 73 47 39 48 76 49 70 50 69 51 40 53 62 54 47 55 61 56
REMARK SMILES IDX 48 57 51 58 60 59 74 60 49 61 50 62 59 64 75 65 52 66 41 67
REMARK SMILES IDX 42 68 46 69 43 70 45 71 44 72 63 73 64 74 68 75 65 76 67 77
REMARK SMILES IDX 66 78 53 79 54 80 58 81 55 82 57 83 56 84
REMARK H PARENT 24 7 29 33 73 52 51 63
REMARK Flexibility Score: inf
ROOT
ATOM      1  C   UNL A   1      37.723  20.250  24.986  1.00  0.00     0.023 C 
ENDROOT
BRANCH   1   2
ATOM      2  C   UNL A   1      37.128  21.561  24.498  1.00  0.00     0.023 C 
BRANCH   2   3
ATOM      3  C   UNL A   1      36.422  22.257  25.651  1.00  0.00     0.116 C 
BRANCH   3   4
ATOM      4  N   UNL A   1      35.578  21.287  26.363  1.00  0.00    -0.352 N 
ATOM      5  C   UNL A   1      34.127  21.506  26.459  1.00  0.00     0.251 C 
ATOM      6  O   UNL A   1      33.398  20.667  27.075  1.00  0.00    -0.270 OA
ATOM      7  H   UNL A   1      35.983  20.490  26.776  1.00  0.00     0.163 HD
BRANCH   5   8
ATOM      8  C   UNL A   1      33.500  22.735  25.822  1.00  0.00     0.067 C 
ATOM      9  C   UNL A   1      32.120  26.057  23.700  1.00  0.00    -0.004 A 
ATOM     10  C   UNL A   1      32.279  27.326  24.226  1.00  0.00     0.032 A 
ATOM     11  C   UNL A   1      32.632  24.987  24.394  1.00  0.00     0.131 A 
ATOM     12  C   UNL A   1      32.936  27.521  25.412  1.00  0.00     0.108 A 
ATOM     13  C   UNL A   1      33.283  25.143  25.604  1.00  0.00     0.019 A 
ATOM     14  O   UNL A   1      32.566  23.748  23.806  1.00  0.00    -0.475 OA
ATOM     15  C   UNL A   1      33.429  26.433  26.101  1.00  0.00     0.036 A 
ATOM     16  C   UNL A   1      33.821  23.953  26.240  1.00  0.00     0.025 C 
ATOM     17  C   UNL A   1      32.490  22.596  24.693  1.00  0.00     0.314 C 
BRANCH   9  18
ATOM     18  C   UNL A   1      31.556  25.927  22.294  1.00  0.00     0.036 C 
ATOM     19  C   UNL A   1      32.693  25.984  21.286  1.00  0.00     0.009 C 
ENDBRANCH   9  18
BRANCH  12  20
ATOM     20  S   UNL A   1      33.153  29.193  26.071  1.00  0.00     0.310 S 
ATOM     21  F   UNL A   1      33.444  28.646  27.531  1.00  0.00    -0.094 F 
ATOM     22  F   UNL A   1      31.625  29.211  26.456  1.00  0.00    -0.094 F 
ATOM     23  F   UNL A   1      33.341  30.628  26.638  1.00  0.00    -0.094 F 
ATOM     24  F   UNL A   1      34.707  29.102  25.806  1.00  0.00    -0.094 F 
ATOM     25  F   UNL A   1      33.000  27.693  25.596  1.00  0.00    -0.094 F 
ENDBRANCH  12  20
BRANCH  17  26
ATOM     26  C   UNL A   1      32.802  21.338  23.899  1.00  0.00     0.429 C 
ATOM     27  F   UNL A   1      32.223  20.292  24.481  1.00  0.00    -0.167 F 
ATOM     28  F   UNL A   1      32.339  21.469  22.660  1.00  0.00    -0.167 F 
ATOM     29  F   UNL A   1      34.119  21.152  23.863  1.00  0.00    -0.167 F 
ENDBRANCH  17  26
ENDBRANCH   5   8
ENDBRANCH   3   4
ENDBRANCH   2   3
ENDBRANCH   1   2
BRANCH   1  30
ATOM     30  C   UNL A   1      38.996  20.530  25.768  1.00  0.00     0.116 C 
BRANCH  30  31
ATOM     31  N   UNL A   1      39.903  19.378  25.657  1.00  0.00    -0.352 N 
ATOM     32  C   UNL A   1      41.306  19.504  26.078  1.00  0.00     0.251 C 
ATOM     33  H   UNL A   1      39.570  18.522  25.303  1.00  0.00     0.163 HD
ATOM     34  O   UNL A   1      42.090  18.507  25.983  1.00  0.00    -0.269 OA
BRANCH  32  35
ATOM     35  C   UNL A   1      41.819  20.825  26.625  1.00  0.00     0.039 A 
ATOM     36  C   UNL A   1      41.683  21.116  27.973  1.00  0.00     0.014 A 
ATOM     37  C   UNL A   1      42.251  21.739  25.764  1.00  0.00     0.014 A 
ATOM     38  C   UNL A   1      41.752  22.498  28.271  1.00  0.00     0.010 A 
ATOM     39  C   UNL A   1      42.427  23.044  26.157  1.00  0.00     0.010 A 
ATOM     40  C   UNL A   1      42.253  23.414  27.462  1.00  0.00    -0.014 A 
BRANCH  40  41
ATOM     41  C   UNL A   1      42.614  24.806  27.954  1.00  0.00     0.031 A 
ATOM     42  C   UNL A   1      41.567  25.720  28.089  1.00  0.00     0.074 A 
ATOM     43  C   UNL A   1      43.913  25.051  28.364  1.00  0.00     0.049 A 
ATOM     44  N   UNL A   1      41.612  26.933  28.644  1.00  0.00    -0.248 NA
ATOM     45  C   UNL A   1      40.194  25.476  27.623  1.00  0.00     0.031 C 
ATOM     46  C   UNL A   1      44.972  24.131  28.239  1.00  0.00     0.029 A 
ATOM     47  N   UNL A   1      44.413  26.192  28.950  1.00  0.00    -0.354 N 
ATOM     48  C   UNL A   1      40.406  27.503  28.605  1.00  0.00     0.074 A 
ATOM     49  C   UNL A   1      39.479  26.576  27.942  1.00  0.00     0.031 C 
ATOM     50  C   UNL A   1      46.097  24.713  28.732  1.00  0.00     0.029 A 
ATOM     51  C   UNL A   1      45.760  26.007  29.174  1.00  0.00     0.049 A 
ATOM     52  H   UNL A   1      43.898  27.002  29.171  1.00  0.00     0.167 HD
ATOM     53  C   UNL A   1      40.043  28.756  29.098  1.00  0.00     0.031 A 
ATOM     54  C   UNL A   1      46.660  26.902  29.729  1.00  0.00     0.031 A 
ATOM     55  C   UNL A   1      40.935  29.636  29.693  1.00  0.00     0.049 A 
ATOM     56  C   UNL A   1      46.309  28.181  30.170  1.00  0.00     0.074 A 
ATOM     57  C   UNL A   1      40.585  30.901  30.201  1.00  0.00     0.029 A 
ATOM     58  N   UNL A   1      42.286  29.460  29.894  1.00  0.00    -0.354 N 
ATOM     59  N   UNL A   1      45.095  28.734  30.167  1.00  0.00    -0.248 NA
ATOM     60  C   UNL A   1      47.259  29.150  30.729  1.00  0.00     0.031 C 
ATOM     61  C   UNL A   1      41.710  31.484  30.695  1.00  0.00     0.029 A 
ATOM     62  C   UNL A   1      42.782  30.592  30.500  1.00  0.00     0.049 A 
ATOM     63  H   UNL A   1      42.807  28.662  29.647  1.00  0.00     0.167 HD
ATOM     64  C   UNL A   1      45.149  29.963  30.684  1.00  0.00     0.074 A 
ATOM     65  C   UNL A   1      46.544  30.252  31.046  1.00  0.00     0.031 C 
ATOM     66  C   UNL A   1      44.091  30.854  30.872  1.00  0.00     0.031 A 
BRANCH  53  67
ATOM     67  C   UNL A   1      38.590  29.183  28.977  1.00  0.00    -0.014 A 
ATOM     68  C   UNL A   1      38.153  29.781  27.806  1.00  0.00     0.009 A 
ATOM     69  C   UNL A   1      37.762  28.976  29.995  1.00  0.00     0.009 A 
ATOM     70  C   UNL A   1      36.882  30.393  27.915  1.00  0.00     0.001 A 
ATOM     71  C   UNL A   1      36.487  29.487  29.975  1.00  0.00     0.001 A 
ATOM     72  C   UNL A   1      36.009  30.141  28.874  1.00  0.00     0.000 A 
ENDBRANCH  53  67
BRANCH  54  73
ATOM     73  C   UNL A   1      48.110  26.469  29.866  1.00  0.00    -0.014 A 
ATOM     74  C   UNL A   1      48.993  26.715  28.828  1.00  0.00     0.009 A 
ATOM     75  C   UNL A   1      48.506  25.862  30.979  1.00  0.00     0.009 A 
ATOM     76  C   UNL A   1      50.220  26.019  28.943  1.00  0.00     0.001 A 
ATOM     77  C   UNL A   1      49.766  25.323  31.071  1.00  0.00     0.001 A 
ATOM     78  C   UNL A   1      50.672  25.478  30.058  1.00  0.00     0.000 A 
ENDBRANCH  54  73
BRANCH  66  79
ATOM     79  C   UNL A   1      44.394  32.194  31.523  1.00  0.00    -0.014 A 
ATOM     80  C   UNL A   1      44.275  32.312  32.899  1.00  0.00     0.009 A 
ATOM     81  C   UNL A   1      44.659  33.250  30.762  1.00  0.00     0.009 A 
ATOM     82  C   UNL A   1      44.165  33.647  33.352  1.00  0.00     0.001 A 
ATOM     83  C   UNL A   1      44.668  34.514  31.299  1.00  0.00     0.001 A 
ATOM     84  C   UNL A   1      44.498  34.710  32.641  1.00  0.00     0.000 A 
ENDBRANCH  66  79
ENDBRANCH  40  41
ENDBRANCH  32  35
ENDBRANCH  30  31
ENDBRANCH   1  30
TORSDOF 14
ENDMDL
MODEL 2
REMARK VINA RESULT:     -12.3      0.596      5.668
REMARK SMILES CCc1cc(S(F)(F)(F)(F)F)cc2c1O[C@@H](C(F)(F)F)C(C(=O)NCCCCNC(=O)c1ccc(-c3c4nc(c(-c5ccccc5)c5ccc([nH]5)c(-c5ccccc5)c5nc(c(-c6ccccc6)c6ccc3[nH]6)C=C5)C=C4)cc1)=C2
REMARK SMILES IDX 27 1 26 2 25 3 24 4 22 5 23 6 21 8 3 9 4 10 14 11 5 12 13 13
REMARK SMILES IDX 15 14 12 15 80 16 16 17 2 18 1 19 6 20 7 21 8 22 9 23 10 24
REMARK SMILES IDX 11 25 17 26 18 27 19 28 20 29 28 30 29 31 30 32 31 34 32 35
REMARK SMILES IDX 33 36 79 37 34 38 78 39 35 40 36 41 37 42 72 43 38 44 77 45
REMARK SMILES IDX 71 46 73 47 39 48 76 49 70 50 69 51 40 53 62 54 47 55 61 56
REMARK SMILES IDX 48 57 51 58 60 59 74 60 49 61 50 62 59 64 75 65 52 66 41 67
REMARK SMILES IDX 42 68 46 69 43 70 45 71 44 72 63 73 64 74 68 75 65 76 67 77
REMARK SMILES IDX 66 78 53 79 54 80 58 81 55 82 57 83 56 84
REMARK H PARENT 24 7 29 33 73 52 51 63
REMARK Flexibility Score: inf
ROOT
ATOM      1  C   UNL A   1      37.544  20.329  24.935  1.00  0.00     0.023 C 
ENDROOT
BRANCH   1   2
ATOM      2  C   UNL A   1      37.080  21.679  24.408  1.00  0.00     0.023 C 
BRANCH   2   3
ATOM      3  C   UNL A   1      36.165  22.334  25.430  1.00  0.00     0.116 C 
BRANCH   3   4
ATOM      4  N   UNL A   1      35.367  21.300  26.106  1.00  0.00    -0.352 N 
ATOM      5  C   UNL A   1      33.924  21.498  26.302  1.00  0.00     0.251 C 
ATOM      6  O   UNL A   1      33.234  20.603  26.886  1.00  0.00    -0.270 OA
ATOM      7  H   UNL A   1      35.799  20.475  26.426  1.00  0.00     0.163 HD
BRANCH   5   8
ATOM      8  C   UNL A   1      33.256  22.770  25.808  1.00  0.00     0.067 C 
ATOM      9  C   UNL A   1      31.759  26.260  24.069  1.00  0.00    -0.004 A 
ATOM     10  C   UNL A   1      31.896  27.471  24.724  1.00  0.00     0.032 A 
ATOM     11  C   UNL A   1      32.308  25.137  24.639  1.00  0.00     0.131 A 
ATOM     12  C   UNL A   1      32.568  27.556  25.915  1.00  0.00     0.108 A 
ATOM     13  C   UNL A   1      32.977  25.182  25.849  1.00  0.00     0.019 A 
ATOM     14  O   UNL A   1      32.263  23.965  23.924  1.00  0.00    -0.475 OA
ATOM     15  C   UNL A   1      33.100  26.415  26.477  1.00  0.00     0.036 A 
ATOM     16  C   UNL A   1      33.555  23.946  26.348  1.00  0.00     0.025 C 
ATOM     17  C   UNL A   1      32.231  22.725  24.685  1.00  0.00     0.314 C 
BRANCH   9  18
ATOM     18  C   UNL A   1      31.175  26.265  22.666  1.00  0.00     0.036 C 
ATOM     19  C   UNL A   1      30.482  27.593  22.411  1.00  0.00     0.009 C 
ENDBRANCH   9  18
BRANCH  12  20
ATOM     20  S   UNL A   1      32.756  29.155  26.744  1.00  0.00     0.310 S 
ATOM     21  F   UNL A   1      33.496  28.495  27.981  1.00  0.00    -0.094 F 
ATOM     22  F   UNL A   1      31.400  28.891  27.501  1.00  0.00    -0.094 F 
ATOM     23  F   UNL A   1      32.918  30.527  27.456  1.00  0.00    -0.094 F 
ATOM     24  F   UNL A   1      34.179  29.337  26.083  1.00  0.00    -0.094 F 
ATOM     25  F   UNL A   1      32.659  27.714  26.100  1.00  0.00    -0.094 F 
ENDBRANCH  12  20
BRANCH  17  26
ATOM     26  C   UNL A   1      32.560  21.566  23.758  1.00  0.00     0.429 C 
ATOM     27  F   UNL A   1      32.191  20.423  24.329  1.00  0.00    -0.167 F 
ATOM     28  F   UNL A   1      31.909  21.718  22.609  1.00  0.00    -0.167 F 
ATOM     29  F   UNL A   1      33.869  21.542  23.526  1.00  0.00    -0.167 F 
ENDBRANCH  17  26
ENDBRANCH   5   8
ENDBRANCH   3   4
ENDBRANCH   2   3
ENDBRANCH   1   2
BRANCH   1  30
ATOM     30  C   UNL A   1      38.793  20.516  25.779  1.00  0.00     0.116 C 
BRANCH  30  31
ATOM     31  N   UNL A   1      39.696  19.374  25.576  1.00  0.00    -0.352 N 
ATOM     32  C   UNL A   1      41.107  19.472  25.979  1.00  0.00     0.251 C 
ATOM     33  H   UNL A   1      39.357  18.544  25.172  1.00  0.00     0.163 HD
ATOM     34  O   UNL A   1      41.888  18.484  25.805  1.00  0.00    -0.269 OA
BRANCH  32  35
ATOM     35  C   UNL A   1      41.631  20.754  26.604  1.00  0.00     0.039 A 
ATOM     36  C   UNL A   1      41.504  20.963  27.967  1.00  0.00     0.014 A 
ATOM     37  C   UNL A   1      42.064  21.717  25.798  1.00  0.00     0.014 A 
ATOM     38  C   UNL A   1      41.584  22.324  28.349  1.00  0.00     0.010 A 
ATOM     39  C   UNL A   1      42.251  22.994  26.269  1.00  0.00     0.010 A 
ATOM     40  C   UNL A   1      42.086  23.284  27.595  1.00  0.00    -0.014 A 
BRANCH  40  41
ATOM     41  C   UNL A   1      42.458  24.642  28.169  1.00  0.00     0.031 A 
ATOM     42  C   UNL A   1      43.814  24.881  28.397  1.00  0.00     0.074 A 
ATOM     43  C   UNL A   1      41.468  25.600  28.307  1.00  0.00     0.049 A 
ATOM     44  N   UNL A   1      44.389  26.035  28.742  1.00  0.00    -0.248 NA
ATOM     45  C   UNL A   1      44.862  23.857  28.285  1.00  0.00     0.031 C 
ATOM     46  C   UNL A   1      40.099  25.368  28.070  1.00  0.00     0.029 A 
ATOM     47  N   UNL A   1      41.613  26.916  28.686  1.00  0.00    -0.354 N 
ATOM     48  C   UNL A   1      45.710  25.876  28.850  1.00  0.00     0.074 A 
ATOM     49  C   UNL A   1      46.032  24.472  28.565  1.00  0.00     0.031 C 
ATOM     50  C   UNL A   1      39.427  26.524  28.315  1.00  0.00     0.029 A 
ATOM     51  C   UNL A   1      40.365  27.498  28.708  1.00  0.00     0.049 A 
ATOM     52  H   UNL A   1      42.462  27.363  28.905  1.00  0.00     0.167 HD
ATOM     53  C   UNL A   1      46.658  26.848  29.175  1.00  0.00     0.031 A 
ATOM     54  C   UNL A   1      40.041  28.801  29.049  1.00  0.00     0.031 A 
ATOM     55  C   UNL A   1      46.338  28.164  29.474  1.00  0.00     0.049 A 
ATOM     56  C   UNL A   1      40.983  29.759  29.431  1.00  0.00     0.074 A 
ATOM     57  C   UNL A   1      47.282  29.157  29.797  1.00  0.00     0.029 A 
ATOM     58  N   UNL A   1      45.087  28.739  29.520  1.00  0.00    -0.354 N 
ATOM     59  N   UNL A   1      42.308  29.610  29.501  1.00  0.00    -0.248 NA
ATOM     60  C   UNL A   1      40.650  31.133  29.826  1.00  0.00     0.031 C 
ATOM     61  C   UNL A   1      46.610  30.314  30.042  1.00  0.00     0.029 A 
ATOM     62  C   UNL A   1      45.235  30.060  29.878  1.00  0.00     0.049 A 
ATOM     63  H   UNL A   1      44.236  28.283  29.329  1.00  0.00     0.167 HD
ATOM     64  C   UNL A   1      42.879  30.753  29.886  1.00  0.00     0.074 A 
ATOM     65  C   UNL A   1      41.819  31.748  30.108  1.00  0.00     0.031 C 
ATOM     66  C   UNL A   1      44.240  31.009  30.057  1.00  0.00     0.031 A 
BRANCH  53  67
ATOM     67  C   UNL A   1      48.122  26.442  29.201  1.00  0.00    -0.014 A 
ATOM     68  C   UNL A   1      48.881  26.560  28.048  1.00  0.00     0.009 A 
ATOM     69  C   UNL A   1      48.650  25.979  30.328  1.00  0.00     0.009 A 
ATOM     70  C   UNL A   1      50.124  25.889  28.109  1.00  0.00     0.001 A 
ATOM     71  C   UNL A   1      49.922  25.461  30.344  1.00  0.00     0.001 A 
ATOM     72  C   UNL A   1      50.708  25.492  29.226  1.00  0.00     0.000 A 
ENDBRANCH  53  67
BRANCH  54  73
ATOM     73  C   UNL A   1      38.578  29.211  29.006  1.00  0.00    -0.014 A 
ATOM     74  C   UNL A   1      38.057  29.744  27.839  1.00  0.00     0.009 A 
ATOM     75  C   UNL A   1      37.826  29.054  30.089  1.00  0.00     0.009 A 
ATOM     76  C   UNL A   1      36.789  30.352  28.003  1.00  0.00     0.001 A 
ATOM     77  C   UNL A   1      36.547  29.555  30.130  1.00  0.00     0.001 A 
ATOM     78  C   UNL A   1      35.988  30.147  29.031  1.00  0.00     0.000 A 
ENDBRANCH  54  73
BRANCH  66  79
ATOM     79  C   UNL A   1      44.657  32.412  30.467  1.00  0.00    -0.014 A 
ATOM     80  C   UNL A   1      44.710  32.727  31.815  1.00  0.00     0.009 A 
ATOM     81  C   UNL A   1      44.855  33.337  29.535  1.00  0.00     0.009 A 
ATOM     82  C   UNL A   1      44.693  34.117  32.079  1.00  0.00     0.001 A 
ATOM     83  C   UNL A   1      44.965  34.662  29.878  1.00  0.00     0.001 A 
ATOM     84  C   UNL A   1      44.965  35.053  31.188  1.00  0.00     0.000 A 
ENDBRANCH  66  79
ENDBRANCH  40  41
ENDBRANCH  32  35
ENDBRANCH  30  31
ENDBRANCH   1  30
TORSDOF 14
ENDMDL
MODEL 3
REMARK VINA RESULT:     -12.3      1.728      2.177
REMARK SMILES CCc1cc(S(F)(F)(F)(F)F)cc2c1O[C@@H](C(F)(F)F)C(C(=O)NCCCCNC(=O)c1ccc(-c3c4nc(c(-c5ccccc5)c5ccc([nH]5)c(-c5ccccc5)c5nc(c(-c6ccccc6)c6ccc3[nH]6)C=C5)C=C4)cc1)=C2
REMARK SMILES IDX 27 1 26 2 25 3 24 4 22 5 23 6 21 8 3 9 4 10 14 11 5 12 13 13
REMARK SMILES IDX 15 14 12 15 80 16 16 17 2 18 1 19 6 20 7 21 8 22 9 23 10 24
REMARK SMILES IDX 11 25 17 26 18 27 19 28 20 29 28 30 29 31 30 32 31 34 32 35
REMARK SMILES IDX 33 36 79 37 34 38 78 39 35 40 36 41 37 42 72 43 38 44 77 45
REMARK SMILES IDX 71 46 73 47 39 48 76 49 70 50 69 51 40 53 62 54 47 55 61 56
REMARK SMILES IDX 48 57 51 58 60 59 74 60 49 61 50 62 59 64 75 65 52 66 41 67
REMARK SMILES IDX 42 68 46 69 43 70 45 71 44 72 63 73 64 74 68 75 65 76 67 77
REMARK SMILES IDX 66 78 53 79 54 80 58 81 55 82 57 83 56 84
REMARK H PARENT 24 7 29 33 73 52 51 63
REMARK Flexibility Score: inf
ROOT
ATOM      1  C   UNL A   1      39.485  21.286  25.989  1.00  0.00     0.023 C 
ENDROOT
BRANCH   1   2
ATOM      2  C   UNL A   1      39.231  22.669  26.566  1.00  0.00     0.023 C 
BRANCH   2   3
ATOM      3  C   UNL A   1      37.896  23.192  26.059  1.00  0.00     0.116 C 
BRANCH   3   4
ATOM      4  N   UNL A   1      37.780  22.920  24.619  1.00  0.00    -0.352 N 
ATOM      5  C   UNL A   1      36.508  23.170  23.924  1.00  0.00     0.251 C 
ATOM      6  O   UNL A   1      36.409  22.935  22.679  1.00  0.00    -0.270 OA
ATOM      7  H   UNL A   1      38.554  22.572  24.119  1.00  0.00     0.163 HD
BRANCH   5   8
ATOM      8  C   UNL A   1      35.314  23.708  24.694  1.00  0.00     0.067 C 
ATOM      9  C   UNL A   1      31.749  25.050  26.408  1.00  0.00    -0.004 A 
ATOM     10  C   UNL A   1      31.549  26.403  26.614  1.00  0.00     0.032 A 
ATOM     11  C   UNL A   1      32.908  24.641  25.793  1.00  0.00     0.131 A 
ATOM     12  C   UNL A   1      32.481  27.322  26.211  1.00  0.00     0.108 A 
ATOM     13  C   UNL A   1      33.880  25.539  25.391  1.00  0.00     0.019 A 
ATOM     14  O   UNL A   1      33.042  23.307  25.495  1.00  0.00    -0.475 OA
ATOM     15  C   UNL A   1      33.644  26.891  25.609  1.00  0.00     0.036 A 
ATOM     16  C   UNL A   1      35.052  25.009  24.715  1.00  0.00     0.025 C 
ATOM     17  C   UNL A   1      34.393  22.768  25.458  1.00  0.00     0.314 C 
BRANCH   9  18
ATOM     18  C   UNL A   1      30.598  24.101  26.700  1.00  0.00     0.036 C 
ATOM     19  C   UNL A   1      29.281  24.791  26.386  1.00  0.00     0.009 C 
ENDBRANCH   9  18
BRANCH  12  20
ATOM     20  S   UNL A   1      32.189  29.090  26.468  1.00  0.00     0.310 S 
ATOM     21  F   UNL A   1      31.096  28.810  27.583  1.00  0.00    -0.094 F 
ATOM     22  F   UNL A   1      31.026  29.026  25.408  1.00  0.00    -0.094 F 
ATOM     23  F   UNL A   1      31.938  30.608  26.691  1.00  0.00    -0.094 F 
ATOM     24  F   UNL A   1      33.262  29.105  27.627  1.00  0.00    -0.094 F 
ATOM     25  F   UNL A   1      32.379  27.527  26.334  1.00  0.00    -0.094 F 
ENDBRANCH  12  20
BRANCH  17  26
ATOM     26  C   UNL A   1      34.370  21.419  24.759  1.00  0.00     0.429 C 
ATOM     27  F   UNL A   1      33.514  20.612  25.380  1.00  0.00    -0.167 F 
ATOM     28  F   UNL A   1      33.989  21.580  23.495  1.00  0.00    -0.167 F 
ATOM     29  F   UNL A   1      35.586  20.881  24.791  1.00  0.00    -0.167 F 
ENDBRANCH  17  26
ENDBRANCH   5   8
ENDBRANCH   3   4
ENDBRANCH   2   3
ENDBRANCH   1   2
BRANCH   1  30
ATOM     30  C   UNL A   1      40.406  20.511  26.916  1.00  0.00     0.116 C 
BRANCH  30  31
ATOM     31  N   UNL A   1      41.374  19.745  26.117  1.00  0.00    -0.352 N 
ATOM     32  C   UNL A   1      42.657  20.353  25.736  1.00  0.00     0.251 C 
ATOM     33  H   UNL A   1      41.164  18.825  25.838  1.00  0.00     0.163 HD
ATOM     34  O   UNL A   1      43.494  19.691  25.045  1.00  0.00    -0.269 OA
BRANCH  32  35
ATOM     35  C   UNL A   1      42.982  21.774  26.167  1.00  0.00     0.039 A 
ATOM     36  C   UNL A   1      43.135  22.072  27.511  1.00  0.00     0.014 A 
ATOM     37  C   UNL A   1      42.959  22.732  25.248  1.00  0.00     0.014 A 
ATOM     38  C   UNL A   1      42.965  23.443  27.818  1.00  0.00     0.010 A 
ATOM     39  C   UNL A   1      42.931  24.055  25.616  1.00  0.00     0.010 A 
ATOM     40  C   UNL A   1      43.020  24.420  26.931  1.00  0.00    -0.014 A 
BRANCH  40  41
ATOM     41  C   UNL A   1      43.171  25.874  27.350  1.00  0.00     0.031 A 
ATOM     42  C   UNL A   1      42.003  26.559  27.687  1.00  0.00     0.074 A 
ATOM     43  C   UNL A   1      44.446  26.393  27.503  1.00  0.00     0.049 A 
ATOM     44  N   UNL A   1      41.901  27.775  28.227  1.00  0.00    -0.248 NA
ATOM     45  C   UNL A   1      40.648  26.024  27.493  1.00  0.00     0.031 C 
ATOM     46  C   UNL A   1      45.629  25.704  27.174  1.00  0.00     0.029 A 
ATOM     47  N   UNL A   1      44.800  27.633  27.987  1.00  0.00    -0.354 N 
ATOM     48  C   UNL A   1      40.617  28.086  28.424  1.00  0.00     0.074 A 
ATOM     49  C   UNL A   1      39.793  26.966  27.948  1.00  0.00     0.031 C 
ATOM     50  C   UNL A   1      46.681  26.521  27.443  1.00  0.00     0.029 A 
ATOM     51  C   UNL A   1      46.173  27.734  27.946  1.00  0.00     0.049 A 
ATOM     52  H   UNL A   1      44.180  28.327  28.306  1.00  0.00     0.167 HD
ATOM     53  C   UNL A   1      40.103  29.256  28.982  1.00  0.00     0.031 A 
ATOM     54  C   UNL A   1      46.957  28.813  28.321  1.00  0.00     0.031 A 
ATOM     55  C   UNL A   1      40.890  30.320  29.397  1.00  0.00     0.049 A 
ATOM     56  C   UNL A   1      46.439  30.009  28.826  1.00  0.00     0.074 A 
ATOM     57  C   UNL A   1      40.387  31.505  29.968  1.00  0.00     0.029 A 
ATOM     58  N   UNL A   1      42.261  30.430  29.334  1.00  0.00    -0.354 N 
ATOM     59  N   UNL A   1      45.158  30.303  29.059  1.00  0.00    -0.248 NA
ATOM     60  C   UNL A   1      47.256  31.171  29.196  1.00  0.00     0.031 C 
ATOM     61  C   UNL A   1      41.440  32.322  30.238  1.00  0.00     0.029 A 
ATOM     62  C   UNL A   1      42.617  31.661  29.838  1.00  0.00     0.049 A 
ATOM     63  H   UNL A   1      42.879  29.747  28.988  1.00  0.00     0.167 HD
ATOM     64  C   UNL A   1      45.054  31.535  29.560  1.00  0.00     0.074 A 
ATOM     65  C   UNL A   1      46.402  32.114  29.649  1.00  0.00     0.031 C 
ATOM     66  C   UNL A   1      43.890  32.198  29.952  1.00  0.00     0.031 A 
BRANCH  53  67
ATOM     67  C   UNL A   1      38.596  29.373  29.144  1.00  0.00    -0.014 A 
ATOM     68  C   UNL A   1      37.826  29.768  28.063  1.00  0.00     0.009 A 
ATOM     69  C   UNL A   1      38.043  29.095  30.319  1.00  0.00     0.009 A 
ATOM     70  C   UNL A   1      36.499  30.122  28.403  1.00  0.00     0.001 A 
ATOM     71  C   UNL A   1      36.709  29.339  30.540  1.00  0.00     0.001 A 
ATOM     72  C   UNL A   1      35.900  29.787  29.533  1.00  0.00     0.000 A 
ENDBRANCH  53  67
BRANCH  54  73
ATOM     73  C   UNL A   1      48.465  28.690  28.175  1.00  0.00    -0.014 A 
ATOM     74  C   UNL A   1      49.064  29.061  26.983  1.00  0.00     0.009 A 
ATOM     75  C   UNL A   1      49.182  28.229  29.194  1.00  0.00     0.009 A 
ATOM     76  C   UNL A   1      50.408  28.633  26.861  1.00  0.00     0.001 A 
ATOM     77  C   UNL A   1      50.521  27.962  29.041  1.00  0.00     0.001 A 
ATOM     78  C   UNL A   1      51.166  28.248  27.870  1.00  0.00     0.000 A 
ENDBRANCH  54  73
BRANCH  66  79
ATOM     79  C   UNL A   1      44.027  33.594  30.538  1.00  0.00    -0.014 A 
ATOM     80  C   UNL A   1      44.148  33.734  31.911  1.00  0.00     0.009 A 
ATOM     81  C   UNL A   1      43.918  34.653  29.744  1.00  0.00     0.009 A 
ATOM     82  C   UNL A   1      43.852  35.034  32.382  1.00  0.00     0.001 A 
ATOM     83  C   UNL A   1      43.767  35.911  30.274  1.00  0.00     0.001 A 
ATOM     84  C   UNL A   1      43.817  36.117  31.625  1.00  0.00     0.000 A 
ENDBRANCH  66  79
ENDBRANCH  40  41
ENDBRANCH  32  35
ENDBRANCH  30  31
ENDBRANCH   1  30
TORSDOF 14
ENDMDL
