MODEL 1
REMARK VINA RESULT:     -10.8      0.000      0.000
REMARK SMILES COc1cc(C[N@@H+]2CCO[C@@H](CC(=O)NCCCCNC(=O)c3ccc(-c4c5nc(c(-c6ccccc6)c6ccc([nH]6)c(-c6ccccc6)c6nc(c(-c7ccccc7)c7ccc4[nH]7)C=C6)C=C5)cc3)C2)ccc1O
REMARK SMILES IDX 16 1 15 2 13 3 14 4 12 6 11 7 7 8 8 9 71 10 9 12 10 13 6 14
REMARK SMILES IDX 5 15 3 16 4 17 74 18 73 19 72 20 2 21 1 22 75 23 17 25 18 26
REMARK SMILES IDX 19 27 20 28 21 29 22 31 23 32 24 33 70 34 25 35 69 36 26 37
REMARK SMILES IDX 27 38 28 39 63 40 29 41 68 42 62 43 64 44 30 45 67 46 61 47
REMARK SMILES IDX 60 48 31 50 53 51 38 52 52 53 39 54 42 55 51 56 65 57 40 58
REMARK SMILES IDX 41 59 50 61 66 62 43 63 32 64 33 65 37 66 34 67 36 68 35 69
REMARK SMILES IDX 54 70 55 71 59 72 56 73 58 74 57 75 44 76 45 77 49 78 46 79
REMARK SMILES IDX 48 80 47 81
REMARK H PARENT 15 5 7 11 75 24 20 30 64 49 42 60
REMARK Flexibility Score: inf
ROOT
ATOM      1  C   UNL A   1      35.542  21.426  25.936  1.00  0.00     0.116 C 
ENDROOT
BRANCH   1   2
ATOM      2  N   UNL A   1      34.621  20.390  25.498  1.00  0.00    -0.356 N 
ATOM      3  C   UNL A   1      33.256  20.392  25.434  1.00  0.00     0.222 C 
ATOM      4  O   UNL A   1      32.692  19.346  25.107  1.00  0.00    -0.275 OA
ATOM      5  H   UNL A   1      35.050  19.554  25.200  1.00  0.00     0.163 HD
BRANCH   3   6
ATOM      6  C   UNL A   1      32.461  21.635  25.787  1.00  0.00     0.138 C 
BRANCH   6   7
ATOM      7  C   UNL A   1      32.183  22.538  24.577  1.00  0.00     0.182 C 
ATOM      8  N   UNL A   1      32.018  25.030  23.951  1.00  0.00    -0.327 N 
ATOM      9  C   UNL A   1      32.918  24.712  22.845  1.00  0.00     0.291 C 
ATOM     10  C   UNL A   1      32.092  24.014  24.996  1.00  0.00     0.295 C 
ATOM     11  H   UNL A   1      32.389  25.901  24.331  1.00  0.00     0.348 HD
ATOM     12  C   UNL A   1      33.025  23.217  22.484  1.00  0.00     0.222 C 
ATOM     13  O   UNL A   1      33.260  22.389  23.633  1.00  0.00    -0.366 OA
BRANCH   8  14
ATOM     14  C   UNL A   1      30.668  25.491  23.629  1.00  0.00     0.299 C 
BRANCH  14  15
ATOM     15  C   UNL A   1      30.431  26.972  23.790  1.00  0.00     0.010 A 
ATOM     16  C   UNL A   1      31.120  29.109  24.675  1.00  0.00     0.160 A 
ATOM     17  C   UNL A   1      31.238  27.723  24.653  1.00  0.00     0.060 A 
ATOM     18  C   UNL A   1      30.157  29.747  23.892  1.00  0.00     0.157 A 
ATOM     19  C   UNL A   1      29.325  29.017  23.059  1.00  0.00     0.051 A 
ATOM     20  C   UNL A   1      29.454  27.628  23.016  1.00  0.00     0.013 A 
BRANCH  16  21
ATOM     21  O   UNL A   1      31.932  29.843  25.500  1.00  0.00    -0.493 OA
ATOM     22  C   UNL A   1      33.286  29.399  25.372  1.00  0.00     0.278 C 
ENDBRANCH  16  21
BRANCH  18  23
ATOM     23  O   UNL A   1      30.010  31.104  23.933  1.00  0.00    -0.504 OA
ATOM     24  H   UNL A   1      29.689  31.517  24.711  1.00  0.00     0.293 HD
ENDBRANCH  18  23
ENDBRANCH  14  15
ENDBRANCH   8  14
ENDBRANCH   6   7
ENDBRANCH   3   6
ENDBRANCH   1   2
BRANCH   1  25
ATOM     25  C   UNL A   1      36.695  21.620  24.943  1.00  0.00     0.023 C 
BRANCH  25  26
ATOM     26  C   UNL A   1      37.704  20.492  24.881  1.00  0.00     0.023 C 
BRANCH  26  27
ATOM     27  C   UNL A   1      38.920  20.717  25.749  1.00  0.00     0.116 C 
BRANCH  27  28
ATOM     28  N   UNL A   1      39.885  19.625  25.701  1.00  0.00    -0.352 N 
ATOM     29  C   UNL A   1      41.216  19.658  26.040  1.00  0.00     0.251 C 
ATOM     30  H   UNL A   1      39.540  18.758  25.387  1.00  0.00     0.163 HD
ATOM     31  O   UNL A   1      41.942  18.686  25.866  1.00  0.00    -0.269 OA
BRANCH  29  32
ATOM     32  C   UNL A   1      41.762  20.917  26.576  1.00  0.00     0.039 A 
ATOM     33  C   UNL A   1      42.234  21.884  25.688  1.00  0.00     0.014 A 
ATOM     34  C   UNL A   1      41.673  21.179  27.945  1.00  0.00     0.014 A 
ATOM     35  C   UNL A   1      42.546  23.153  26.172  1.00  0.00     0.010 A 
ATOM     36  C   UNL A   1      41.866  22.472  28.400  1.00  0.00     0.010 A 
ATOM     37  C   UNL A   1      42.320  23.468  27.523  1.00  0.00    -0.014 A 
BRANCH  37  38
ATOM     38  C   UNL A   1      42.583  24.822  28.059  1.00  0.00     0.031 A 
ATOM     39  C   UNL A   1      43.973  25.179  28.508  1.00  0.00     0.074 A 
ATOM     40  C   UNL A   1      41.568  25.693  28.218  1.00  0.00     0.049 A 
ATOM     41  N   UNL A   1      44.401  26.274  29.081  1.00  0.00    -0.248 NA
ATOM     42  C   UNL A   1      45.012  24.150  28.327  1.00  0.00     0.031 C 
ATOM     43  C   UNL A   1      40.166  25.441  27.878  1.00  0.00     0.029 A 
ATOM     44  N   UNL A   1      41.564  26.972  28.713  1.00  0.00    -0.354 N 
ATOM     45  C   UNL A   1      45.744  26.051  29.353  1.00  0.00     0.074 A 
ATOM     46  C   UNL A   1      46.045  24.697  28.948  1.00  0.00     0.031 C 
ATOM     47  C   UNL A   1      39.445  26.543  28.141  1.00  0.00     0.029 A 
ATOM     48  C   UNL A   1      40.325  27.563  28.701  1.00  0.00     0.049 A 
ATOM     49  H   UNL A   1      42.374  27.422  29.047  1.00  0.00     0.167 HD
ATOM     50  C   UNL A   1      46.658  26.907  29.865  1.00  0.00     0.031 A 
ATOM     51  C   UNL A   1      39.944  28.792  29.097  1.00  0.00     0.031 A 
ATOM     52  C   UNL A   1      46.362  28.262  30.238  1.00  0.00     0.049 A 
ATOM     53  C   UNL A   1      40.979  29.734  29.643  1.00  0.00     0.074 A 
ATOM     54  C   UNL A   1      47.225  29.237  30.703  1.00  0.00     0.029 A 
ATOM     55  N   UNL A   1      45.100  28.834  30.181  1.00  0.00    -0.354 N 
ATOM     56  N   UNL A   1      42.262  29.536  29.826  1.00  0.00    -0.248 NA
ATOM     57  C   UNL A   1      40.515  31.076  30.023  1.00  0.00     0.031 C 
ATOM     58  C   UNL A   1      46.477  30.389  30.967  1.00  0.00     0.029 A 
ATOM     59  C   UNL A   1      45.157  30.145  30.619  1.00  0.00     0.049 A 
ATOM     60  H   UNL A   1      44.284  28.375  29.874  1.00  0.00     0.167 HD
ATOM     61  C   UNL A   1      42.764  30.732  30.320  1.00  0.00     0.074 A 
ATOM     62  C   UNL A   1      41.649  31.656  30.392  1.00  0.00     0.031 C 
ATOM     63  C   UNL A   1      44.033  31.042  30.682  1.00  0.00     0.031 A 
BRANCH  50  64
ATOM     64  C   UNL A   1      48.057  26.390  30.044  1.00  0.00    -0.014 A 
ATOM     65  C   UNL A   1      49.000  26.471  29.006  1.00  0.00     0.009 A 
ATOM     66  C   UNL A   1      48.437  25.809  31.262  1.00  0.00     0.009 A 
ATOM     67  C   UNL A   1      50.281  25.938  29.169  1.00  0.00     0.001 A 
ATOM     68  C   UNL A   1      49.729  25.306  31.433  1.00  0.00     0.001 A 
ATOM     69  C   UNL A   1      50.645  25.359  30.383  1.00  0.00     0.000 A 
ENDBRANCH  50  64
BRANCH  51  70
ATOM     70  C   UNL A   1      38.525  29.211  28.958  1.00  0.00    -0.014 A 
ATOM     71  C   UNL A   1      37.645  29.111  30.046  1.00  0.00     0.009 A 
ATOM     72  C   UNL A   1      38.046  29.720  27.742  1.00  0.00     0.009 A 
ATOM     73  C   UNL A   1      36.307  29.491  29.912  1.00  0.00     0.001 A 
ATOM     74  C   UNL A   1      36.714  30.125  27.619  1.00  0.00     0.001 A 
ATOM     75  C   UNL A   1      35.844  30.002  28.701  1.00  0.00     0.000 A 
ENDBRANCH  51  70
BRANCH  63  76
ATOM     76  C   UNL A   1      44.287  32.443  31.157  1.00  0.00    -0.014 A 
ATOM     77  C   UNL A   1      44.220  32.772  32.520  1.00  0.00     0.009 A 
ATOM     78  C   UNL A   1      44.646  33.435  30.231  1.00  0.00     0.009 A 
ATOM     79  C   UNL A   1      44.480  34.078  32.941  1.00  0.00     0.001 A 
ATOM     80  C   UNL A   1      44.932  34.731  30.658  1.00  0.00     0.001 A 
ATOM     81  C   UNL A   1      44.839  35.053  32.012  1.00  0.00     0.000 A 
ENDBRANCH  63  76
ENDBRANCH  37  38
ENDBRANCH  29  32
ENDBRANCH  27  28
ENDBRANCH  26  27
ENDBRANCH  25  26
ENDBRANCH   1  25
TORSDOF 16
ENDMDL
MODEL 2
REMARK VINA RESULT:     -10.7      1.502      2.224
REMARK SMILES COc1cc(C[N@@H+]2CCO[C@@H](CC(=O)NCCCCNC(=O)c3ccc(-c4c5nc(c(-c6ccccc6)c6ccc([nH]6)c(-c6ccccc6)c6nc(c(-c7ccccc7)c7ccc4[nH]7)C=C6)C=C5)cc3)C2)ccc1O
REMARK SMILES IDX 16 1 15 2 13 3 14 4 12 6 11 7 7 8 8 9 71 10 9 12 10 13 6 14
REMARK SMILES IDX 5 15 3 16 4 17 74 18 73 19 72 20 2 21 1 22 75 23 17 25 18 26
REMARK SMILES IDX 19 27 20 28 21 29 22 31 23 32 24 33 70 34 25 35 69 36 26 37
REMARK SMILES IDX 27 38 28 39 63 40 29 41 68 42 62 43 64 44 30 45 67 46 61 47
REMARK SMILES IDX 60 48 31 50 53 51 38 52 52 53 39 54 42 55 51 56 65 57 40 58
REMARK SMILES IDX 41 59 50 61 66 62 43 63 32 64 33 65 37 66 34 67 36 68 35 69
REMARK SMILES IDX 54 70 55 71 59 72 56 73 58 74 57 75 44 76 45 77 49 78 46 79
REMARK SMILES IDX 48 80 47 81
REMARK H PARENT 15 5 7 11 75 24 20 30 64 49 42 60
REMARK Flexibility Score: inf
ROOT
ATOM      1  C   UNL A   1      35.882  21.418  25.543  1.00  0.00     0.116 C 
ENDROOT
BRANCH   1   2
ATOM      2  N   UNL A   1      34.996  20.271  25.435  1.00  0.00    -0.356 N 
ATOM      3  C   UNL A   1      33.736  20.175  24.915  1.00  0.00     0.222 C 
ATOM      4  O   UNL A   1      33.148  19.097  25.021  1.00  0.00    -0.275 OA
ATOM      5  H   UNL A   1      35.362  19.430  25.795  1.00  0.00     0.163 HD
BRANCH   3   6
ATOM      6  C   UNL A   1      33.072  21.369  24.255  1.00  0.00     0.138 C 
BRANCH   6   7
ATOM      7  C   UNL A   1      32.585  22.422  25.260  1.00  0.00     0.182 C 
ATOM      8  N   UNL A   1      31.844  24.885  25.359  1.00  0.00    -0.327 N 
ATOM      9  C   UNL A   1      30.676  24.404  26.094  1.00  0.00     0.291 C 
ATOM     10  C   UNL A   1      32.469  23.805  24.602  1.00  0.00     0.295 C 
ATOM     11  H   UNL A   1      31.459  25.555  24.693  1.00  0.00     0.348 HD
ATOM     12  C   UNL A   1      30.808  22.992  26.698  1.00  0.00     0.222 C 
ATOM     13  O   UNL A   1      31.288  22.029  25.748  1.00  0.00    -0.366 OA
BRANCH   8  14
ATOM     14  C   UNL A   1      32.774  25.776  26.052  1.00  0.00     0.299 C 
BRANCH  14  15
ATOM     15  C   UNL A   1      32.489  27.251  25.911  1.00  0.00     0.010 A 
ATOM     16  C   UNL A   1      31.301  29.050  24.827  1.00  0.00     0.160 A 
ATOM     17  C   UNL A   1      31.691  27.715  24.859  1.00  0.00     0.060 A 
ATOM     18  C   UNL A   1      31.755  29.940  25.799  1.00  0.00     0.157 A 
ATOM     19  C   UNL A   1      32.575  29.507  26.829  1.00  0.00     0.051 A 
ATOM     20  C   UNL A   1      32.952  28.164  26.879  1.00  0.00     0.013 A 
BRANCH  16  21
ATOM     21  O   UNL A   1      30.495  29.493  23.811  1.00  0.00    -0.493 OA
ATOM     22  C   UNL A   1      30.948  28.962  22.562  1.00  0.00     0.278 C 
ENDBRANCH  16  21
BRANCH  18  23
ATOM     23  O   UNL A   1      31.406  31.260  25.757  1.00  0.00    -0.504 OA
ATOM     24  H   UNL A   1      31.952  31.874  25.308  1.00  0.00     0.293 HD
ENDBRANCH  18  23
ENDBRANCH  14  15
ENDBRANCH   8  14
ENDBRANCH   6   7
ENDBRANCH   3   6
ENDBRANCH   1   2
BRANCH   1  25
ATOM     25  C   UNL A   1      37.141  21.248  24.683  1.00  0.00     0.023 C 
BRANCH  25  26
ATOM     26  C   UNL A   1      37.967  20.011  24.966  1.00  0.00     0.023 C 
BRANCH  26  27
ATOM     27  C   UNL A   1      39.221  20.287  25.761  1.00  0.00     0.116 C 
BRANCH  27  28
ATOM     28  N   UNL A   1      40.141  19.157  25.817  1.00  0.00    -0.352 N 
ATOM     29  C   UNL A   1      41.489  19.177  26.082  1.00  0.00     0.251 C 
ATOM     30  H   UNL A   1      39.748  18.271  25.644  1.00  0.00     0.163 HD
ATOM     31  O   UNL A   1      42.168  18.159  26.008  1.00  0.00    -0.269 OA
BRANCH  29  32
ATOM     32  C   UNL A   1      42.110  20.472  26.409  1.00  0.00     0.039 A 
ATOM     33  C   UNL A   1      42.495  21.322  25.372  1.00  0.00     0.014 A 
ATOM     34  C   UNL A   1      42.177  20.887  27.742  1.00  0.00     0.014 A 
ATOM     35  C   UNL A   1      42.878  22.628  25.673  1.00  0.00     0.010 A 
ATOM     36  C   UNL A   1      42.439  22.216  28.024  1.00  0.00     0.010 A 
ATOM     37  C   UNL A   1      42.808  23.096  26.996  1.00  0.00    -0.014 A 
BRANCH  37  38
ATOM     38  C   UNL A   1      43.149  24.494  27.344  1.00  0.00     0.031 A 
ATOM     39  C   UNL A   1      44.587  24.930  27.313  1.00  0.00     0.074 A 
ATOM     40  C   UNL A   1      42.187  25.338  27.763  1.00  0.00     0.049 A 
ATOM     41  N   UNL A   1      45.111  26.077  27.660  1.00  0.00    -0.248 NA
ATOM     42  C   UNL A   1      45.575  23.927  26.876  1.00  0.00     0.031 C 
ATOM     43  C   UNL A   1      40.764  25.014  27.894  1.00  0.00     0.029 A 
ATOM     44  N   UNL A   1      42.266  26.649  28.160  1.00  0.00    -0.354 N 
ATOM     45  C   UNL A   1      46.482  25.921  27.509  1.00  0.00     0.074 A 
ATOM     46  C   UNL A   1      46.717  24.553  27.109  1.00  0.00     0.031 C 
ATOM     47  C   UNL A   1      40.101  26.107  28.306  1.00  0.00     0.029 A 
ATOM     48  C   UNL A   1      41.053  27.193  28.503  1.00  0.00     0.049 A 
ATOM     49  H   UNL A   1      43.113  27.149  28.197  1.00  0.00     0.167 HD
ATOM     50  C   UNL A   1      47.461  26.843  27.660  1.00  0.00     0.031 A 
ATOM     51  C   UNL A   1      40.747  28.434  28.928  1.00  0.00     0.031 A 
ATOM     52  C   UNL A   1      47.221  28.210  28.028  1.00  0.00     0.049 A 
ATOM     53  C   UNL A   1      41.846  29.448  29.067  1.00  0.00     0.074 A 
ATOM     54  C   UNL A   1      48.130  29.245  28.142  1.00  0.00     0.029 A 
ATOM     55  N   UNL A   1      45.974  28.733  28.337  1.00  0.00    -0.354 N 
ATOM     56  N   UNL A   1      43.132  29.308  28.850  1.00  0.00    -0.248 NA
ATOM     57  C   UNL A   1      41.450  30.797  29.496  1.00  0.00     0.031 C 
ATOM     58  C   UNL A   1      47.438  30.386  28.561  1.00  0.00     0.029 A 
ATOM     59  C   UNL A   1      46.092  30.073  28.658  1.00  0.00     0.049 A 
ATOM     60  H   UNL A   1      45.130  28.224  28.328  1.00  0.00     0.167 HD
ATOM     61  C   UNL A   1      43.696  30.554  29.092  1.00  0.00     0.074 A 
ATOM     62  C   UNL A   1      42.609  31.441  29.456  1.00  0.00     0.031 C 
ATOM     63  C   UNL A   1      44.994  30.932  29.019  1.00  0.00     0.031 A 
BRANCH  50  64
ATOM     64  C   UNL A   1      48.873  26.389  27.420  1.00  0.00    -0.014 A 
ATOM     65  C   UNL A   1      49.684  25.947  28.478  1.00  0.00     0.009 A 
ATOM     66  C   UNL A   1      49.402  26.407  26.122  1.00  0.00     0.009 A 
ATOM     67  C   UNL A   1      51.011  25.578  28.247  1.00  0.00     0.001 A 
ATOM     68  C   UNL A   1      50.720  26.007  25.889  1.00  0.00     0.001 A 
ATOM     69  C   UNL A   1      51.526  25.605  26.953  1.00  0.00     0.000 A 
ENDBRANCH  50  64
BRANCH  51  70
ATOM     70  C   UNL A   1      39.334  28.792  29.216  1.00  0.00    -0.014 A 
ATOM     71  C   UNL A   1      38.809  28.628  30.507  1.00  0.00     0.009 A 
ATOM     72  C   UNL A   1      38.506  29.308  28.207  1.00  0.00     0.009 A 
ATOM     73  C   UNL A   1      37.477  28.952  30.777  1.00  0.00     0.001 A 
ATOM     74  C   UNL A   1      37.182  29.655  28.486  1.00  0.00     0.001 A 
ATOM     75  C   UNL A   1      36.666  29.469  29.768  1.00  0.00     0.000 A 
ENDBRANCH  51  70
BRANCH  63  76
ATOM     76  C   UNL A   1      45.306  32.372  29.310  1.00  0.00    -0.014 A 
ATOM     77  C   UNL A   1      45.264  33.343  28.298  1.00  0.00     0.009 A 
ATOM     78  C   UNL A   1      45.597  32.766  30.625  1.00  0.00     0.009 A 
ATOM     79  C   UNL A   1      45.538  34.680  28.596  1.00  0.00     0.001 A 
ATOM     80  C   UNL A   1      45.843  34.106  30.924  1.00  0.00     0.001 A 
ATOM     81  C   UNL A   1      45.822  35.060  29.906  1.00  0.00     0.000 A 
ENDBRANCH  63  76
ENDBRANCH  37  38
ENDBRANCH  29  32
ENDBRANCH  27  28
ENDBRANCH  26  27
ENDBRANCH  25  26
ENDBRANCH   1  25
TORSDOF 16
ENDMDL
MODEL 3
REMARK VINA RESULT:     -10.7      0.752      6.005
REMARK SMILES COc1cc(C[N@@H+]2CCO[C@@H](CC(=O)NCCCCNC(=O)c3ccc(-c4c5nc(c(-c6ccccc6)c6ccc([nH]6)c(-c6ccccc6)c6nc(c(-c7ccccc7)c7ccc4[nH]7)C=C6)C=C5)cc3)C2)ccc1O
REMARK SMILES IDX 16 1 15 2 13 3 14 4 12 6 11 7 7 8 8 9 71 10 9 12 10 13 6 14
REMARK SMILES IDX 5 15 3 16 4 17 74 18 73 19 72 20 2 21 1 22 75 23 17 25 18 26
REMARK SMILES IDX 19 27 20 28 21 29 22 31 23 32 24 33 70 34 25 35 69 36 26 37
REMARK SMILES IDX 27 38 28 39 63 40 29 41 68 42 62 43 64 44 30 45 67 46 61 47
REMARK SMILES IDX 60 48 31 50 53 51 38 52 52 53 39 54 42 55 51 56 65 57 40 58
REMARK SMILES IDX 41 59 50 61 66 62 43 63 32 64 33 65 37 66 34 67 36 68 35 69
REMARK SMILES IDX 54 70 55 71 59 72 56 73 58 74 57 75 44 76 45 77 49 78 46 79
REMARK SMILES IDX 48 80 47 81
REMARK H PARENT 15 5 7 11 75 24 20 30 64 49 42 60
REMARK Flexibility Score: inf
ROOT
ATOM      1  C   UNL A   1      35.262  20.982  25.654  1.00  0.00     0.116 C 
ENDROOT
BRANCH   1   2
ATOM      2  N   UNL A   1      34.153  20.044  25.711  1.00  0.00    -0.356 N 
ATOM      3  C   UNL A   1      32.972  20.031  25.023  1.00  0.00     0.222 C 
ATOM      4  O   UNL A   1      32.143  19.168  25.317  1.00  0.00    -0.275 OA
ATOM      5  H   UNL A   1      34.271  19.302  26.347  1.00  0.00     0.163 HD
BRANCH   3   6
ATOM      6  C   UNL A   1      32.682  21.067  23.953  1.00  0.00     0.138 C 
BRANCH   6   7
ATOM      7  C   UNL A   1      32.511  22.485  24.516  1.00  0.00     0.182 C 
ATOM      8  N   UNL A   1      31.142  24.630  24.122  1.00  0.00    -0.327 N 
ATOM      9  C   UNL A   1      30.852  24.591  25.554  1.00  0.00     0.291 C 
ATOM     10  C   UNL A   1      31.565  23.319  23.638  1.00  0.00     0.295 C 
ATOM     11  H   UNL A   1      30.243  24.849  23.692  1.00  0.00     0.348 HD
ATOM     12  C   UNL A   1      31.789  23.705  26.397  1.00  0.00     0.222 C 
ATOM     13  O   UNL A   1      31.954  22.392  25.840  1.00  0.00    -0.366 OA
BRANCH   8  14
ATOM     14  C   UNL A   1      31.912  25.760  23.606  1.00  0.00     0.299 C 
BRANCH  14  15
ATOM     15  C   UNL A   1      31.273  27.116  23.779  1.00  0.00     0.010 A 
ATOM     16  C   UNL A   1      31.315  29.335  24.727  1.00  0.00     0.160 A 
ATOM     17  C   UNL A   1      31.809  28.035  24.689  1.00  0.00     0.060 A 
ATOM     18  C   UNL A   1      30.247  29.707  23.912  1.00  0.00     0.157 A 
ATOM     19  C   UNL A   1      29.680  28.801  23.030  1.00  0.00     0.051 A 
ATOM     20  C   UNL A   1      30.185  27.502  22.972  1.00  0.00     0.013 A 
BRANCH  16  21
ATOM     21  O   UNL A   1      31.862  30.239  25.599  1.00  0.00    -0.493 OA
ATOM     22  C   UNL A   1      31.962  29.660  26.904  1.00  0.00     0.278 C 
ENDBRANCH  16  21
BRANCH  18  23
ATOM     23  O   UNL A   1      29.732  30.971  23.967  1.00  0.00    -0.504 OA
ATOM     24  H   UNL A   1      29.404  31.377  23.189  1.00  0.00     0.293 HD
ENDBRANCH  18  23
ENDBRANCH  14  15
ENDBRANCH   8  14
ENDBRANCH   6   7
ENDBRANCH   3   6
ENDBRANCH   1   2
BRANCH   1  25
ATOM     25  C   UNL A   1      36.488  20.371  24.963  1.00  0.00     0.023 C 
BRANCH  25  26
ATOM     26  C   UNL A   1      37.650  21.315  24.732  1.00  0.00     0.023 C 
BRANCH  26  27
ATOM     27  C   UNL A   1      38.712  21.246  25.804  1.00  0.00     0.116 C 
BRANCH  27  28
ATOM     28  N   UNL A   1      39.563  20.066  25.710  1.00  0.00    -0.352 N 
ATOM     29  C   UNL A   1      40.894  19.956  26.035  1.00  0.00     0.251 C 
ATOM     30  H   UNL A   1      39.133  19.248  25.372  1.00  0.00     0.163 HD
ATOM     31  O   UNL A   1      41.519  18.924  25.822  1.00  0.00    -0.269 OA
BRANCH  29  32
ATOM     32  C   UNL A   1      41.566  21.137  26.605  1.00  0.00     0.039 A 
ATOM     33  C   UNL A   1      42.091  22.101  25.744  1.00  0.00     0.014 A 
ATOM     34  C   UNL A   1      41.546  21.342  27.987  1.00  0.00     0.014 A 
ATOM     35  C   UNL A   1      42.529  23.315  26.271  1.00  0.00     0.010 A 
ATOM     36  C   UNL A   1      41.867  22.590  28.491  1.00  0.00     0.010 A 
ATOM     37  C   UNL A   1      42.377  23.583  27.642  1.00  0.00    -0.014 A 
BRANCH  37  38
ATOM     38  C   UNL A   1      42.776  24.883  28.227  1.00  0.00     0.031 A 
ATOM     39  C   UNL A   1      41.731  25.941  28.452  1.00  0.00     0.074 A 
ATOM     40  C   UNL A   1      44.074  25.140  28.477  1.00  0.00     0.049 A 
ATOM     41  N   UNL A   1      41.877  27.170  28.873  1.00  0.00    -0.248 NA
ATOM     42  C   UNL A   1      40.342  25.582  28.117  1.00  0.00     0.031 C 
ATOM     43  C   UNL A   1      45.187  24.217  28.243  1.00  0.00     0.029 A 
ATOM     44  N   UNL A   1      44.676  26.264  28.983  1.00  0.00    -0.354 N 
ATOM     45  C   UNL A   1      40.609  27.733  28.824  1.00  0.00     0.074 A 
ATOM     46  C   UNL A   1      39.719  26.740  28.269  1.00  0.00     0.031 C 
ATOM     47  C   UNL A   1      46.331  24.799  28.638  1.00  0.00     0.029 A 
ATOM     48  C   UNL A   1      46.038  26.145  29.117  1.00  0.00     0.049 A 
ATOM     49  H   UNL A   1      44.179  27.078  29.225  1.00  0.00     0.167 HD
ATOM     50  C   UNL A   1      40.210  28.959  29.235  1.00  0.00     0.031 A 
ATOM     51  C   UNL A   1      46.945  27.026  29.576  1.00  0.00     0.031 A 
ATOM     52  C   UNL A   1      41.092  29.933  29.814  1.00  0.00     0.049 A 
ATOM     53  C   UNL A   1      46.479  28.374  30.047  1.00  0.00     0.074 A 
ATOM     54  C   UNL A   1      40.783  31.180  30.327  1.00  0.00     0.029 A 
ATOM     55  N   UNL A   1      42.460  29.764  29.963  1.00  0.00    -0.354 N 
ATOM     56  N   UNL A   1      45.264  28.868  30.065  1.00  0.00    -0.248 NA
ATOM     57  C   UNL A   1      47.507  29.281  30.576  1.00  0.00     0.031 C 
ATOM     58  C   UNL A   1      41.973  31.782  30.748  1.00  0.00     0.029 A 
ATOM     59  C   UNL A   1      43.014  30.890  30.544  1.00  0.00     0.049 A 
ATOM     60  H   UNL A   1      42.963  28.960  29.694  1.00  0.00     0.167 HD
ATOM     61  C   UNL A   1      45.376  30.132  30.627  1.00  0.00     0.074 A 
ATOM     62  C   UNL A   1      46.776  30.323  30.952  1.00  0.00     0.031 C 
ATOM     63  C   UNL A   1      44.410  31.055  30.855  1.00  0.00     0.031 A 
BRANCH  50  64
ATOM     64  C   UNL A   1      38.756  29.299  29.067  1.00  0.00    -0.014 A 
ATOM     65  C   UNL A   1      37.844  29.131  30.122  1.00  0.00     0.009 A 
ATOM     66  C   UNL A   1      38.290  29.788  27.838  1.00  0.00     0.009 A 
ATOM     67  C   UNL A   1      36.487  29.401  29.933  1.00  0.00     0.001 A 
ATOM     68  C   UNL A   1      36.938  30.088  27.663  1.00  0.00     0.001 A 
ATOM     69  C   UNL A   1      36.036  29.882  28.706  1.00  0.00     0.000 A 
ENDBRANCH  50  64
BRANCH  51  70
ATOM     70  C   UNL A   1      48.381  26.646  29.646  1.00  0.00    -0.014 A 
ATOM     71  C   UNL A   1      49.256  26.987  28.605  1.00  0.00     0.009 A 
ATOM     72  C   UNL A   1      48.883  25.950  30.756  1.00  0.00     0.009 A 
ATOM     73  C   UNL A   1      50.603  26.618  28.663  1.00  0.00     0.001 A 
ATOM     74  C   UNL A   1      50.235  25.606  30.823  1.00  0.00     0.001 A 
ATOM     75  C   UNL A   1      51.092  25.932  29.773  1.00  0.00     0.000 A 
ENDBRANCH  51  70
BRANCH  63  76
ATOM     76  C   UNL A   1      44.830  32.338  31.513  1.00  0.00    -0.014 A 
ATOM     77  C   UNL A   1      44.896  32.450  32.910  1.00  0.00     0.009 A 
ATOM     78  C   UNL A   1      45.210  33.431  30.719  1.00  0.00     0.009 A 
ATOM     79  C   UNL A   1      45.307  33.647  33.500  1.00  0.00     0.001 A 
ATOM     80  C   UNL A   1      45.647  34.616  31.312  1.00  0.00     0.001 A 
ATOM     81  C   UNL A   1      45.686  34.725  32.701  1.00  0.00     0.000 A 
ENDBRANCH  63  76
ENDBRANCH  37  38
ENDBRANCH  29  32
ENDBRANCH  27  28
ENDBRANCH  26  27
ENDBRANCH  25  26
ENDBRANCH   1  25
TORSDOF 16
ENDMDL
