MODEL 1
REMARK VINA RESULT:     -10.9      0.000      0.000
REMARK SMILES Cc1ccc(S(=O)(=O)Nc2ccc(C(=O)CCC(=O)NCCCCNC(=O)c3ccc(-c4c5nc(c(-c6ccccc6)c6ccc([nH]6)c(-c6ccccc6)c6nc(c(-c7ccccc7)c7ccc4[nH]7)C=C6)C=C5)cc3)cc2)c(C)c1
REMARK SMILES IDX 18 1 19 2 20 3 17 5 16 6 14 7 15 8 13 9 10 10 11 11 77 12
REMARK SMILES IDX 12 13 76 14 9 15 6 17 7 18 8 19 5 20 1 21 2 22 3 23 80 24
REMARK SMILES IDX 4 25 78 26 79 27 21 28 22 29 23 30 24 31 25 32 26 33 27 35
REMARK SMILES IDX 28 36 29 37 75 38 30 39 74 40 31 41 32 42 33 43 68 44 34 45
REMARK SMILES IDX 73 46 67 47 69 48 35 49 72 50 66 51 65 52 36 54 58 55 43 56
REMARK SMILES IDX 57 57 44 58 47 59 56 60 70 61 45 62 46 63 55 65 71 66 48 67
REMARK SMILES IDX 37 68 38 69 42 70 39 71 41 72 40 73 59 74 60 75 64 76 61 77
REMARK SMILES IDX 63 78 62 79 49 80 50 81 54 82 51 83 53 84 52 85
REMARK H PARENT 20 4 9 16 25 34 69 53 47 64
REMARK Flexibility Score: inf
ROOT
ATOM      1  C   UNL A   1      36.696  23.200  24.521  1.00  0.00     0.220 C 
ATOM      2  O   UNL A   1      36.554  23.224  23.297  1.00  0.00    -0.275 OA
ATOM      3  N   UNL A   1      37.951  23.095  25.023  1.00  0.00    -0.356 N 
ATOM      4  H   UNL A   1      38.603  22.686  24.410  1.00  0.00     0.163 HD
ENDROOT
BRANCH   1   5
ATOM      5  C   UNL A   1      35.515  23.126  25.442  1.00  0.00     0.108 C 
BRANCH   5   6
ATOM      6  C   UNL A   1      35.360  21.683  25.936  1.00  0.00     0.091 C 
BRANCH   6   7
ATOM      7  C   UNL A   1      34.331  20.889  25.144  1.00  0.00     0.163 C 
ATOM      8  O   UNL A   1      34.641  19.791  24.678  1.00  0.00    -0.294 OA
BRANCH   7   9
ATOM      9  C   UNL A   1      32.985  21.470  24.798  1.00  0.00     0.018 A 
ATOM     10  C   UNL A   1      30.968  23.340  24.164  1.00  0.00     0.049 A 
ATOM     11  C   UNL A   1      31.760  22.777  23.155  1.00  0.00     0.027 A 
ATOM     12  C   UNL A   1      31.040  22.790  25.442  1.00  0.00     0.027 A 
ATOM     13  C   UNL A   1      32.764  21.850  23.468  1.00  0.00     0.014 A 
ATOM     14  C   UNL A   1      32.030  21.835  25.750  1.00  0.00     0.014 A 
BRANCH  10  15
ATOM     15  N   UNL A   1      30.429  24.636  23.887  1.00  0.00    -0.280 N 
ATOM     16  H   UNL A   1      29.618  24.659  23.328  1.00  0.00     0.180 HD
BRANCH  15  17
ATOM     17  S   UNL A   1      31.016  26.118  24.404  1.00  0.00     0.262 S 
ATOM     18  O   UNL A   1      32.447  26.134  24.162  1.00  0.00    -0.201 OA
ATOM     19  O   UNL A   1      30.464  26.286  25.727  1.00  0.00    -0.201 OA
BRANCH  17  20
ATOM     20  C   UNL A   1      30.284  27.414  23.408  1.00  0.00     0.090 A 
ATOM     21  C   UNL A   1      28.691  31.117  21.893  1.00  0.00     0.044 C 
ATOM     22  C   UNL A   1      29.211  29.777  22.321  1.00  0.00    -0.051 A 
ATOM     23  C   UNL A   1      30.534  29.421  22.077  1.00  0.00     0.005 A 
ATOM     24  C   UNL A   1      28.381  28.841  22.939  1.00  0.00     0.008 A 
ATOM     25  C   UNL A   1      31.084  28.268  22.650  1.00  0.00     0.023 A 
ATOM     26  C   UNL A   1      28.895  27.632  23.449  1.00  0.00    -0.030 A 
ATOM     27  C   UNL A   1      27.899  26.599  23.899  1.00  0.00     0.046 C 
ENDBRANCH  17  20
ENDBRANCH  15  17
ENDBRANCH  10  15
ENDBRANCH   7   9
ENDBRANCH   6   7
ENDBRANCH   5   6
ENDBRANCH   1   5
BRANCH   3  28
ATOM     28  C   UNL A   1      38.498  23.485  26.314  1.00  0.00     0.116 C 
BRANCH  28  29
ATOM     29  C   UNL A   1      39.665  22.628  26.810  1.00  0.00     0.023 C 
BRANCH  29  30
ATOM     30  C   UNL A   1      39.861  21.324  26.041  1.00  0.00     0.023 C 
BRANCH  30  31
ATOM     31  C   UNL A   1      40.511  20.159  26.780  1.00  0.00     0.116 C 
BRANCH  31  32
ATOM     32  N   UNL A   1      41.766  19.785  26.155  1.00  0.00    -0.352 N 
ATOM     33  C   UNL A   1      42.819  20.545  25.707  1.00  0.00     0.251 C 
ATOM     34  H   UNL A   1      41.884  18.815  26.032  1.00  0.00     0.163 HD
ATOM     35  O   UNL A   1      43.606  20.023  24.916  1.00  0.00    -0.269 OA
BRANCH  33  36
ATOM     36  C   UNL A   1      43.062  21.953  26.135  1.00  0.00     0.039 A 
ATOM     37  C   UNL A   1      43.185  22.210  27.511  1.00  0.00     0.014 A 
ATOM     38  C   UNL A   1      43.050  23.038  25.256  1.00  0.00     0.014 A 
ATOM     39  C   UNL A   1      43.287  23.522  27.993  1.00  0.00     0.010 A 
ATOM     40  C   UNL A   1      43.237  24.343  25.732  1.00  0.00     0.010 A 
ATOM     41  C   UNL A   1      43.324  24.608  27.108  1.00  0.00    -0.014 A 
BRANCH  41  42
ATOM     42  C   UNL A   1      43.401  26.015  27.600  1.00  0.00     0.031 A 
ATOM     43  C   UNL A   1      44.741  26.685  27.799  1.00  0.00     0.074 A 
ATOM     44  C   UNL A   1      42.275  26.690  27.908  1.00  0.00     0.049 A 
ATOM     45  N   UNL A   1      45.012  27.876  28.278  1.00  0.00    -0.248 NA
ATOM     46  C   UNL A   1      45.936  25.912  27.423  1.00  0.00     0.031 C 
ATOM     47  C   UNL A   1      40.912  26.172  27.780  1.00  0.00     0.029 A 
ATOM     48  N   UNL A   1      42.099  27.963  28.400  1.00  0.00    -0.354 N 
ATOM     49  C   UNL A   1      46.399  27.977  28.293  1.00  0.00     0.074 A 
ATOM     50  C   UNL A   1      46.917  26.718  27.805  1.00  0.00     0.031 C 
ATOM     51  C   UNL A   1      40.042  27.120  28.162  1.00  0.00     0.029 A 
ATOM     52  C   UNL A   1      40.782  28.297  28.608  1.00  0.00     0.049 A 
ATOM     53  H   UNL A   1      42.847  28.576  28.585  1.00  0.00     0.167 HD
ATOM     54  C   UNL A   1      47.175  29.024  28.666  1.00  0.00     0.031 A 
ATOM     55  C   UNL A   1      40.229  29.417  29.113  1.00  0.00     0.031 A 
ATOM     56  C   UNL A   1      46.668  30.288  29.129  1.00  0.00     0.049 A 
ATOM     57  C   UNL A   1      41.117  30.553  29.546  1.00  0.00     0.074 A 
ATOM     58  C   UNL A   1      47.379  31.429  29.462  1.00  0.00     0.029 A 
ATOM     59  N   UNL A   1      45.329  30.580  29.326  1.00  0.00    -0.354 N 
ATOM     60  N   UNL A   1      42.422  30.653  29.485  1.00  0.00    -0.248 NA
ATOM     61  C   UNL A   1      40.449  31.736  30.109  1.00  0.00     0.031 C 
ATOM     62  C   UNL A   1      46.473  32.392  29.919  1.00  0.00     0.029 A 
ATOM     63  C   UNL A   1      45.194  31.872  29.806  1.00  0.00     0.049 A 
ATOM     64  H   UNL A   1      44.584  29.960  29.151  1.00  0.00     0.167 HD
ATOM     65  C   UNL A   1      42.726  31.920  29.968  1.00  0.00     0.074 A 
ATOM     66  C   UNL A   1      41.470  32.558  30.299  1.00  0.00     0.031 C 
ATOM     67  C   UNL A   1      43.940  32.503  30.122  1.00  0.00     0.031 A 
BRANCH  54  68
ATOM     68  C   UNL A   1      48.670  28.849  28.603  1.00  0.00    -0.014 A 
ATOM     69  C   UNL A   1      49.394  28.344  29.693  1.00  0.00     0.009 A 
ATOM     70  C   UNL A   1      49.352  29.128  27.407  1.00  0.00     0.009 A 
ATOM     71  C   UNL A   1      50.774  28.150  29.598  1.00  0.00     0.001 A 
ATOM     72  C   UNL A   1      50.726  28.905  27.305  1.00  0.00     0.001 A 
ATOM     73  C   UNL A   1      51.438  28.423  28.401  1.00  0.00     0.000 A 
ENDBRANCH  54  68
BRANCH  55  74
ATOM     74  C   UNL A   1      38.751  29.533  29.247  1.00  0.00    -0.014 A 
ATOM     75  C   UNL A   1      37.976  30.019  28.182  1.00  0.00     0.009 A 
ATOM     76  C   UNL A   1      38.112  29.200  30.452  1.00  0.00     0.009 A 
ATOM     77  C   UNL A   1      36.599  30.204  28.333  1.00  0.00     0.001 A 
ATOM     78  C   UNL A   1      36.731  29.354  30.589  1.00  0.00     0.001 A 
ATOM     79  C   UNL A   1      35.978  29.868  29.534  1.00  0.00     0.000 A 
ENDBRANCH  55  74
BRANCH  67  80
ATOM     80  C   UNL A   1      43.969  33.921  30.622  1.00  0.00    -0.014 A 
ATOM     81  C   UNL A   1      43.845  35.011  29.746  1.00  0.00     0.009 A 
ATOM     82  C   UNL A   1      44.083  34.166  32.000  1.00  0.00     0.009 A 
ATOM     83  C   UNL A   1      43.872  36.318  30.238  1.00  0.00     0.001 A 
ATOM     84  C   UNL A   1      44.077  35.473  32.491  1.00  0.00     0.001 A 
ATOM     85  C   UNL A   1      43.982  36.547  31.609  1.00  0.00     0.000 A 
ENDBRANCH  67  80
ENDBRANCH  41  42
ENDBRANCH  33  36
ENDBRANCH  31  32
ENDBRANCH  30  31
ENDBRANCH  29  30
ENDBRANCH  28  29
ENDBRANCH   3  28
TORSDOF 17
ENDMDL
MODEL 2
REMARK VINA RESULT:     -10.9      3.920      4.965
REMARK SMILES Cc1ccc(S(=O)(=O)Nc2ccc(C(=O)CCC(=O)NCCCCNC(=O)c3ccc(-c4c5nc(c(-c6ccccc6)c6ccc([nH]6)c(-c6ccccc6)c6nc(c(-c7ccccc7)c7ccc4[nH]7)C=C6)C=C5)cc3)cc2)c(C)c1
REMARK SMILES IDX 18 1 19 2 20 3 17 5 16 6 14 7 15 8 13 9 10 10 11 11 77 12
REMARK SMILES IDX 12 13 76 14 9 15 6 17 7 18 8 19 5 20 1 21 2 22 3 23 80 24
REMARK SMILES IDX 4 25 78 26 79 27 21 28 22 29 23 30 24 31 25 32 26 33 27 35
REMARK SMILES IDX 28 36 29 37 75 38 30 39 74 40 31 41 32 42 33 43 68 44 34 45
REMARK SMILES IDX 73 46 67 47 69 48 35 49 72 50 66 51 65 52 36 54 58 55 43 56
REMARK SMILES IDX 57 57 44 58 47 59 56 60 70 61 45 62 46 63 55 65 71 66 48 67
REMARK SMILES IDX 37 68 38 69 42 70 39 71 41 72 40 73 59 74 60 75 64 76 61 77
REMARK SMILES IDX 63 78 62 79 49 80 50 81 54 82 51 83 53 84 52 85
REMARK H PARENT 20 4 9 16 25 34 69 53 47 64
REMARK Flexibility Score: inf
ROOT
ATOM      1  C   UNL A   1      38.141  22.891  25.968  1.00  0.00     0.220 C 
ATOM      2  O   UNL A   1      37.834  24.079  26.069  1.00  0.00    -0.275 OA
ATOM      3  N   UNL A   1      39.456  22.565  25.908  1.00  0.00    -0.356 N 
ATOM      4  H   UNL A   1      40.041  23.288  25.586  1.00  0.00     0.163 HD
ENDROOT
BRANCH   1   5
ATOM      5  C   UNL A   1      37.100  21.832  25.752  1.00  0.00     0.108 C 
BRANCH   5   6
ATOM      6  C   UNL A   1      37.022  21.510  24.255  1.00  0.00     0.091 C 
BRANCH   6   7
ATOM      7  C   UNL A   1      36.016  22.378  23.511  1.00  0.00     0.163 C 
ATOM      8  O   UNL A   1      36.418  23.330  22.839  1.00  0.00    -0.294 OA
BRANCH   7   9
ATOM      9  C   UNL A   1      34.532  22.187  23.683  1.00  0.00     0.018 A 
ATOM     10  C   UNL A   1      31.860  22.625  24.481  1.00  0.00     0.049 A 
ATOM     11  C   UNL A   1      32.353  23.193  23.300  1.00  0.00     0.027 A 
ATOM     12  C   UNL A   1      32.636  21.663  25.122  1.00  0.00     0.027 A 
ATOM     13  C   UNL A   1      33.681  22.980  22.903  1.00  0.00     0.014 A 
ATOM     14  C   UNL A   1      33.961  21.425  24.706  1.00  0.00     0.014 A 
BRANCH  10  15
ATOM     15  N   UNL A   1      30.783  23.324  25.110  1.00  0.00    -0.280 N 
ATOM     16  H   UNL A   1      29.875  23.080  24.817  1.00  0.00     0.180 HD
BRANCH  15  17
ATOM     17  S   UNL A   1      30.886  24.511  26.289  1.00  0.00     0.262 S 
ATOM     18  O   UNL A   1      31.723  23.997  27.359  1.00  0.00    -0.201 OA
ATOM     19  O   UNL A   1      29.520  24.916  26.518  1.00  0.00    -0.201 OA
BRANCH  17  20
ATOM     20  C   UNL A   1      31.707  25.946  25.602  1.00  0.00     0.090 A 
ATOM     21  C   UNL A   1      33.483  28.901  23.022  1.00  0.00     0.044 C 
ATOM     22  C   UNL A   1      32.904  27.934  24.011  1.00  0.00    -0.051 A 
ATOM     23  C   UNL A   1      31.585  28.067  24.438  1.00  0.00     0.005 A 
ATOM     24  C   UNL A   1      33.672  26.905  24.556  1.00  0.00     0.008 A 
ATOM     25  C   UNL A   1      30.973  27.060  25.195  1.00  0.00     0.023 A 
ATOM     26  C   UNL A   1      33.097  25.927  25.391  1.00  0.00    -0.030 A 
ATOM     27  C   UNL A   1      34.038  24.992  26.100  1.00  0.00     0.046 C 
ENDBRANCH  17  20
ENDBRANCH  15  17
ENDBRANCH  10  15
ENDBRANCH   7   9
ENDBRANCH   6   7
ENDBRANCH   5   6
ENDBRANCH   1   5
BRANCH   3  28
ATOM     28  C   UNL A   1      40.149  21.330  26.240  1.00  0.00     0.116 C 
BRANCH  28  29
ATOM     29  C   UNL A   1      41.673  21.389  26.122  1.00  0.00     0.023 C 
BRANCH  29  30
ATOM     30  C   UNL A   1      42.219  22.741  25.667  1.00  0.00     0.023 C 
BRANCH  30  31
ATOM     31  C   UNL A   1      43.361  22.739  24.656  1.00  0.00     0.116 C 
BRANCH  31  32
ATOM     32  N   UNL A   1      44.639  22.573  25.321  1.00  0.00    -0.352 N 
ATOM     33  C   UNL A   1      45.235  23.285  26.335  1.00  0.00     0.251 C 
ATOM     34  H   UNL A   1      45.175  21.816  24.988  1.00  0.00     0.163 HD
ATOM     35  O   UNL A   1      46.451  23.156  26.487  1.00  0.00    -0.269 OA
BRANCH  33  36
ATOM     36  C   UNL A   1      44.489  24.186  27.259  1.00  0.00     0.039 A 
ATOM     37  C   UNL A   1      44.573  25.571  27.039  1.00  0.00     0.014 A 
ATOM     38  C   UNL A   1      43.818  23.735  28.398  1.00  0.00     0.014 A 
ATOM     39  C   UNL A   1      44.004  26.480  27.941  1.00  0.00     0.010 A 
ATOM     40  C   UNL A   1      43.176  24.641  29.254  1.00  0.00     0.010 A 
ATOM     41  C   UNL A   1      43.288  26.027  29.057  1.00  0.00    -0.014 A 
BRANCH  41  42
ATOM     42  C   UNL A   1      42.700  26.977  30.047  1.00  0.00     0.031 A 
ATOM     43  C   UNL A   1      43.334  27.155  31.408  1.00  0.00     0.074 A 
ATOM     44  C   UNL A   1      41.576  27.661  29.749  1.00  0.00     0.049 A 
ATOM     45  N   UNL A   1      42.933  27.884  32.422  1.00  0.00    -0.248 NA
ATOM     46  C   UNL A   1      44.573  26.405  31.669  1.00  0.00     0.031 C 
ATOM     47  C   UNL A   1      40.846  27.584  28.483  1.00  0.00     0.029 A 
ATOM     48  N   UNL A   1      40.846  28.554  30.498  1.00  0.00    -0.354 N 
ATOM     49  C   UNL A   1      43.846  27.652  33.445  1.00  0.00     0.074 A 
ATOM     50  C   UNL A   1      44.805  26.692  32.943  1.00  0.00     0.031 C 
ATOM     51  C   UNL A   1      39.787  28.409  28.535  1.00  0.00     0.029 A 
ATOM     52  C   UNL A   1      39.733  29.037  29.852  1.00  0.00     0.049 A 
ATOM     53  H   UNL A   1      41.097  28.822  31.412  1.00  0.00     0.167 HD
ATOM     54  C   UNL A   1      43.895  28.195  34.686  1.00  0.00     0.031 A 
ATOM     55  C   UNL A   1      38.768  29.877  30.272  1.00  0.00     0.031 A 
ATOM     56  C   UNL A   1      42.961  29.169  35.185  1.00  0.00     0.049 A 
ATOM     57  C   UNL A   1      38.832  30.443  31.665  1.00  0.00     0.074 A 
ATOM     58  C   UNL A   1      42.973  29.826  36.404  1.00  0.00     0.029 A 
ATOM     59  N   UNL A   1      41.850  29.625  34.496  1.00  0.00    -0.354 N 
ATOM     60  N   UNL A   1      39.743  30.265  32.591  1.00  0.00    -0.248 NA
ATOM     61  C   UNL A   1      37.734  31.337  32.067  1.00  0.00     0.031 C 
ATOM     62  C   UNL A   1      41.835  30.635  36.478  1.00  0.00     0.029 A 
ATOM     63  C   UNL A   1      41.151  30.532  35.277  1.00  0.00     0.049 A 
ATOM     64  H   UNL A   1      41.594  29.346  33.587  1.00  0.00     0.167 HD
ATOM     65  C   UNL A   1      39.346  31.050  33.667  1.00  0.00     0.074 A 
ATOM     66  C   UNL A   1      38.126  31.719  33.273  1.00  0.00     0.031 C 
ATOM     67  C   UNL A   1      39.944  31.202  34.874  1.00  0.00     0.031 A 
BRANCH  54  68
ATOM     68  C   UNL A   1      44.994  27.741  35.611  1.00  0.00    -0.014 A 
ATOM     69  C   UNL A   1      46.216  28.426  35.689  1.00  0.00     0.009 A 
ATOM     70  C   UNL A   1      44.772  26.652  36.470  1.00  0.00     0.009 A 
ATOM     71  C   UNL A   1      47.204  28.012  36.586  1.00  0.00     0.001 A 
ATOM     72  C   UNL A   1      45.750  26.259  37.386  1.00  0.00     0.001 A 
ATOM     73  C   UNL A   1      46.967  26.934  37.438  1.00  0.00     0.000 A 
ENDBRANCH  54  68
BRANCH  55  74
ATOM     74  C   UNL A   1      37.643  30.245  29.369  1.00  0.00    -0.014 A 
ATOM     75  C   UNL A   1      37.587  31.520  28.785  1.00  0.00     0.009 A 
ATOM     76  C   UNL A   1      36.600  29.340  29.119  1.00  0.00     0.009 A 
ATOM     77  C   UNL A   1      36.492  31.894  28.001  1.00  0.00     0.001 A 
ATOM     78  C   UNL A   1      35.523  29.705  28.309  1.00  0.00     0.001 A 
ATOM     79  C   UNL A   1      35.463  30.985  27.761  1.00  0.00     0.000 A 
ENDBRANCH  55  74
BRANCH  67  80
ATOM     80  C   UNL A   1      39.316  32.169  35.839  1.00  0.00    -0.014 A 
ATOM     81  C   UNL A   1      38.326  31.763  36.746  1.00  0.00     0.009 A 
ATOM     82  C   UNL A   1      39.755  33.504  35.864  1.00  0.00     0.009 A 
ATOM     83  C   UNL A   1      37.762  32.681  37.634  1.00  0.00     0.001 A 
ATOM     84  C   UNL A   1      39.212  34.411  36.775  1.00  0.00     0.001 A 
ATOM     85  C   UNL A   1      38.209  34.002  37.651  1.00  0.00     0.000 A 
ENDBRANCH  67  80
ENDBRANCH  41  42
ENDBRANCH  33  36
ENDBRANCH  31  32
ENDBRANCH  30  31
ENDBRANCH  29  30
ENDBRANCH  28  29
ENDBRANCH   3  28
TORSDOF 17
ENDMDL
MODEL 3
REMARK VINA RESULT:     -10.9      3.385      8.615
REMARK SMILES Cc1ccc(S(=O)(=O)Nc2ccc(C(=O)CCC(=O)NCCCCNC(=O)c3ccc(-c4c5nc(c(-c6ccccc6)c6ccc([nH]6)c(-c6ccccc6)c6nc(c(-c7ccccc7)c7ccc4[nH]7)C=C6)C=C5)cc3)cc2)c(C)c1
REMARK SMILES IDX 18 1 19 2 20 3 17 5 16 6 14 7 15 8 13 9 10 10 11 11 77 12
REMARK SMILES IDX 12 13 76 14 9 15 6 17 7 18 8 19 5 20 1 21 2 22 3 23 80 24
REMARK SMILES IDX 4 25 78 26 79 27 21 28 22 29 23 30 24 31 25 32 26 33 27 35
REMARK SMILES IDX 28 36 29 37 75 38 30 39 74 40 31 41 32 42 33 43 68 44 34 45
REMARK SMILES IDX 73 46 67 47 69 48 35 49 72 50 66 51 65 52 36 54 58 55 43 56
REMARK SMILES IDX 57 57 44 58 47 59 56 60 70 61 45 62 46 63 55 65 71 66 48 67
REMARK SMILES IDX 37 68 38 69 42 70 39 71 41 72 40 73 59 74 60 75 64 76 61 77
REMARK SMILES IDX 63 78 62 79 49 80 50 81 54 82 51 83 53 84 52 85
REMARK H PARENT 20 4 9 16 25 34 69 53 47 64
REMARK Flexibility Score: inf
ROOT
ATOM      1  C   UNL A   1      35.309  33.079  28.224  1.00  0.00     0.220 C 
ATOM      2  O   UNL A   1      36.364  32.849  27.630  1.00  0.00    -0.275 OA
ATOM      3  N   UNL A   1      35.022  34.361  28.558  1.00  0.00    -0.356 N 
ATOM      4  H   UNL A   1      35.808  34.948  28.637  1.00  0.00     0.163 HD
ENDROOT
BRANCH   1   5
ATOM      5  C   UNL A   1      34.432  31.966  28.714  1.00  0.00     0.108 C 
BRANCH   5   6
ATOM      6  C   UNL A   1      33.463  31.567  27.594  1.00  0.00     0.091 C 
BRANCH   6   7
ATOM      7  C   UNL A   1      33.530  30.085  27.250  1.00  0.00     0.163 C 
ATOM      8  O   UNL A   1      34.540  29.440  27.541  1.00  0.00    -0.294 OA
BRANCH   7   9
ATOM      9  C   UNL A   1      32.450  29.414  26.441  1.00  0.00     0.018 A 
ATOM     10  C   UNL A   1      31.178  27.810  24.499  1.00  0.00     0.049 A 
ATOM     11  C   UNL A   1      31.555  27.268  25.734  1.00  0.00     0.027 A 
ATOM     12  C   UNL A   1      31.231  29.193  24.343  1.00  0.00     0.027 A 
ATOM     13  C   UNL A   1      32.190  28.063  26.700  1.00  0.00     0.014 A 
ATOM     14  C   UNL A   1      31.842  29.996  25.326  1.00  0.00     0.014 A 
BRANCH  10  15
ATOM     15  N   UNL A   1      31.109  26.889  23.406  1.00  0.00    -0.280 N 
ATOM     16  H   UNL A   1      30.207  26.612  23.127  1.00  0.00     0.180 HD
BRANCH  15  17
ATOM     17  S   UNL A   1      32.387  26.229  22.546  1.00  0.00     0.262 S 
ATOM     18  O   UNL A   1      33.440  27.227  22.484  1.00  0.00    -0.201 OA
ATOM     19  O   UNL A   1      31.781  25.686  21.354  1.00  0.00    -0.201 OA
BRANCH  17  20
ATOM     20  C   UNL A   1      33.029  24.820  23.446  1.00  0.00     0.090 A 
ATOM     21  C   UNL A   1      34.899  21.128  24.636  1.00  0.00     0.044 C 
ATOM     22  C   UNL A   1      34.211  22.425  24.332  1.00  0.00    -0.051 A 
ATOM     23  C   UNL A   1      34.909  23.628  24.399  1.00  0.00     0.005 A 
ATOM     24  C   UNL A   1      32.854  22.469  24.010  1.00  0.00     0.008 A 
ATOM     25  C   UNL A   1      34.340  24.814  23.921  1.00  0.00     0.023 A 
ATOM     26  C   UNL A   1      32.236  23.670  23.608  1.00  0.00    -0.030 A 
ATOM     27  C   UNL A   1      30.737  23.664  23.494  1.00  0.00     0.046 C 
ENDBRANCH  17  20
ENDBRANCH  15  17
ENDBRANCH  10  15
ENDBRANCH   7   9
ENDBRANCH   6   7
ENDBRANCH   5   6
ENDBRANCH   1   5
BRANCH   3  28
ATOM     28  C   UNL A   1      33.750  35.017  28.818  1.00  0.00     0.116 C 
BRANCH  28  29
ATOM     29  C   UNL A   1      33.294  34.991  30.279  1.00  0.00     0.023 C 
BRANCH  29  30
ATOM     30  C   UNL A   1      34.407  34.697  31.282  1.00  0.00     0.023 C 
BRANCH  30  31
ATOM     31  C   UNL A   1      34.412  33.326  31.951  1.00  0.00     0.116 C 
BRANCH  31  32
ATOM     32  N   UNL A   1      35.129  33.368  33.211  1.00  0.00    -0.352 N 
ATOM     33  C   UNL A   1      36.259  32.710  33.636  1.00  0.00     0.251 C 
ATOM     34  H   UNL A   1      34.738  33.976  33.880  1.00  0.00     0.163 HD
ATOM     35  O   UNL A   1      36.468  32.658  34.848  1.00  0.00    -0.269 OA
BRANCH  33  36
ATOM     36  C   UNL A   1      37.240  32.075  32.710  1.00  0.00     0.039 A 
ATOM     37  C   UNL A   1      38.206  31.218  33.263  1.00  0.00     0.014 A 
ATOM     38  C   UNL A   1      37.326  32.382  31.350  1.00  0.00     0.014 A 
ATOM     39  C   UNL A   1      39.236  30.688  32.474  1.00  0.00     0.010 A 
ATOM     40  C   UNL A   1      38.305  31.784  30.545  1.00  0.00     0.010 A 
ATOM     41  C   UNL A   1      39.294  30.956  31.099  1.00  0.00    -0.014 A 
BRANCH  41  42
ATOM     42  C   UNL A   1      40.398  30.427  30.246  1.00  0.00     0.031 A 
ATOM     43  C   UNL A   1      41.618  31.274  29.961  1.00  0.00     0.074 A 
ATOM     44  C   UNL A   1      40.303  29.202  29.691  1.00  0.00     0.049 A 
ATOM     45  N   UNL A   1      42.649  31.013  29.193  1.00  0.00    -0.248 NA
ATOM     46  C   UNL A   1      41.682  32.592  30.613  1.00  0.00     0.031 C 
ATOM     47  C   UNL A   1      39.183  28.275  29.865  1.00  0.00     0.029 A 
ATOM     48  N   UNL A   1      41.164  28.525  28.859  1.00  0.00    -0.354 N 
ATOM     49  C   UNL A   1      43.459  32.143  29.243  1.00  0.00     0.074 A 
ATOM     50  C   UNL A   1      42.788  33.103  30.091  1.00  0.00     0.031 C 
ATOM     51  C   UNL A   1      39.434  27.148  29.181  1.00  0.00     0.029 A 
ATOM     52  C   UNL A   1      40.707  27.285  28.481  1.00  0.00     0.049 A 
ATOM     53  H   UNL A   1      42.028  28.894  28.563  1.00  0.00     0.167 HD
ATOM     54  C   UNL A   1      44.659  32.360  28.651  1.00  0.00     0.031 A 
ATOM     55  C   UNL A   1      41.241  26.367  27.653  1.00  0.00     0.031 A 
ATOM     56  C   UNL A   1      45.345  31.401  27.826  1.00  0.00     0.049 A 
ATOM     57  C   UNL A   1      42.561  26.648  26.985  1.00  0.00     0.074 A 
ATOM     58  C   UNL A   1      46.596  31.509  27.241  1.00  0.00     0.029 A 
ATOM     59  N   UNL A   1      44.842  30.162  27.469  1.00  0.00    -0.354 N 
ATOM     60  N   UNL A   1      43.342  27.693  27.102  1.00  0.00    -0.248 NA
ATOM     61  C   UNL A   1      43.075  25.611  26.076  1.00  0.00     0.031 C 
ATOM     62  C   UNL A   1      46.824  30.359  26.479  1.00  0.00     0.029 A 
ATOM     63  C   UNL A   1      45.744  29.507  26.645  1.00  0.00     0.049 A 
ATOM     64  H   UNL A   1      43.973  29.799  27.756  1.00  0.00     0.167 HD
ATOM     65  C   UNL A   1      44.453  27.424  26.312  1.00  0.00     0.074 A 
ATOM     66  C   UNL A   1      44.253  26.112  25.737  1.00  0.00     0.031 C 
ATOM     67  C   UNL A   1      45.543  28.197  26.086  1.00  0.00     0.031 A 
BRANCH  54  68
ATOM     68  C   UNL A   1      45.313  33.701  28.858  1.00  0.00    -0.014 A 
ATOM     69  C   UNL A   1      46.170  33.938  29.944  1.00  0.00     0.009 A 
ATOM     70  C   UNL A   1      45.126  34.719  27.908  1.00  0.00     0.009 A 
ATOM     71  C   UNL A   1      46.800  35.176  30.092  1.00  0.00     0.001 A 
ATOM     72  C   UNL A   1      45.780  35.945  28.043  1.00  0.00     0.001 A 
ATOM     73  C   UNL A   1      46.611  36.175  29.137  1.00  0.00     0.000 A 
ENDBRANCH  54  68
BRANCH  55  74
ATOM     74  C   UNL A   1      40.533  25.083  27.394  1.00  0.00    -0.014 A 
ATOM     75  C   UNL A   1      41.022  23.880  27.928  1.00  0.00     0.009 A 
ATOM     76  C   UNL A   1      39.390  25.046  26.579  1.00  0.00     0.009 A 
ATOM     77  C   UNL A   1      40.405  22.665  27.622  1.00  0.00     0.001 A 
ATOM     78  C   UNL A   1      38.756  23.834  26.302  1.00  0.00     0.001 A 
ATOM     79  C   UNL A   1      39.270  22.643  26.812  1.00  0.00     0.000 A 
ENDBRANCH  55  74
BRANCH  67  80
ATOM     80  C   UNL A   1      46.630  27.624  25.220  1.00  0.00    -0.014 A 
ATOM     81  C   UNL A   1      46.774  28.002  23.876  1.00  0.00     0.009 A 
ATOM     82  C   UNL A   1      47.550  26.718  25.773  1.00  0.00     0.009 A 
ATOM     83  C   UNL A   1      47.795  27.456  23.095  1.00  0.00     0.001 A 
ATOM     84  C   UNL A   1      48.589  26.199  24.998  1.00  0.00     0.001 A 
ATOM     85  C   UNL A   1      48.704  26.560  23.658  1.00  0.00     0.000 A 
ENDBRANCH  67  80
ENDBRANCH  41  42
ENDBRANCH  33  36
ENDBRANCH  31  32
ENDBRANCH  30  31
ENDBRANCH  29  30
ENDBRANCH  28  29
ENDBRANCH   3  28
TORSDOF 17
ENDMDL
