MODEL 1
REMARK VINA RESULT:     -10.7      0.000      0.000
REMARK SMILES O=C(Cc1csc(Sc2ncnc3c2CCCC3)n1)NCCCCNC(=O)c1ccc(-c2c3nc(c(-c4ccccc4)c4ccc([nH]4)c(-c4ccccc4)c4nc(c(-c5ccccc5)c5ccc2[nH]5)C=C4)C=C3)cc1
REMARK SMILES IDX 22 1 21 2 20 3 1 4 2 5 3 7 4 8 5 9 19 10 6 11 7 12 8 13 9 14
REMARK SMILES IDX 10 15 14 16 11 17 13 18 15 19 12 20 18 21 16 22 17 23 23 24
REMARK SMILES IDX 24 25 25 26 26 27 27 29 28 30 29 31 75 32 30 33 74 34 31 35
REMARK SMILES IDX 32 36 33 37 68 38 34 39 73 40 67 41 69 42 35 43 72 44 66 45
REMARK SMILES IDX 65 46 36 48 58 49 43 50 57 51 44 52 47 53 56 54 70 55 45 56
REMARK SMILES IDX 46 57 55 59 71 60 48 61 37 62 38 63 42 64 39 65 41 66 40 67
REMARK SMILES IDX 59 68 60 69 64 70 61 71 63 72 62 73 49 74 50 75 54 76 51 77
REMARK SMILES IDX 53 78 52 79
REMARK H PARENT 20 6 25 28 69 47 47 58
REMARK Flexibility Score: inf
ROOT
ATOM      1  C   UNL A   1      31.789  29.690  25.370  1.00  0.00     0.023 C 
ENDROOT
BRANCH   1   2
ATOM      2  C   UNL A   1      31.080  29.243  24.090  1.00  0.00     0.116 C 
BRANCH   2   3
ATOM      3  N   UNL A   1      31.697  28.078  23.492  1.00  0.00    -0.356 N 
ATOM      4  O   UNL A   1      33.566  29.157  22.697  1.00  0.00    -0.275 OA
ATOM      5  C   UNL A   1      32.904  28.130  22.826  1.00  0.00     0.226 C 
ATOM      6  H   UNL A   1      31.236  27.212  23.564  1.00  0.00     0.163 HD
BRANCH   5   7
ATOM      7  C   UNL A   1      33.325  26.819  22.194  1.00  0.00     0.157 C 
BRANCH   7   8
ATOM      8  C   UNL A   1      32.764  25.636  22.909  1.00  0.00     0.062 A 
ATOM      9  C   UNL A   1      31.726  24.838  22.464  1.00  0.00     0.092 A 
ATOM     10  N   UNL A   1      33.259  25.296  24.167  1.00  0.00    -0.234 NA
ATOM     11  S   UNL A   1      31.336  23.665  23.643  1.00  0.00    -0.116 S 
ATOM     12  C   UNL A   1      32.567  24.293  24.668  1.00  0.00     0.156 A 
BRANCH  12  13
ATOM     13  S   UNL A   1      32.809  23.594  26.253  1.00  0.00    -0.039 SA
BRANCH  13  14
ATOM     14  C   UNL A   1      33.799  22.162  25.867  1.00  0.00     0.110 A 
ATOM     15  N   UNL A   1      33.103  21.054  25.533  1.00  0.00    -0.229 NA
ATOM     16  C   UNL A   1      35.186  22.251  25.761  1.00  0.00     0.006 A 
ATOM     17  C   UNL A   1      33.814  20.020  25.090  1.00  0.00     0.223 A 
ATOM     18  C   UNL A   1      35.815  21.129  25.243  1.00  0.00     0.048 A 
ATOM     19  C   UNL A   1      35.964  23.501  26.078  1.00  0.00     0.040 C 
ATOM     20  N   UNL A   1      35.142  20.002  24.930  1.00  0.00    -0.241 NA
ATOM     21  C   UNL A   1      37.309  21.085  25.026  1.00  0.00     0.056 C 
ATOM     22  C   UNL A   1      37.476  23.282  26.166  1.00  0.00     0.005 C 
ATOM     23  C   UNL A   1      37.960  22.460  24.981  1.00  0.00     0.007 C 
ENDBRANCH  13  14
ENDBRANCH  12  13
ENDBRANCH   7   8
ENDBRANCH   5   7
ENDBRANCH   2   3
ENDBRANCH   1   2
BRANCH   1  24
ATOM     24  C   UNL A   1      32.121  28.568  26.360  1.00  0.00     0.023 C 
BRANCH  24  25
ATOM     25  C   UNL A   1      33.274  28.843  27.321  1.00  0.00     0.116 C 
BRANCH  25  26
ATOM     26  N   UNL A   1      33.383  30.243  27.714  1.00  0.00    -0.352 N 
ATOM     27  C   UNL A   1      34.429  30.940  28.277  1.00  0.00     0.251 C 
ATOM     28  H   UNL A   1      32.574  30.779  27.550  1.00  0.00     0.163 HD
ATOM     29  O   UNL A   1      34.247  32.109  28.626  1.00  0.00    -0.269 OA
BRANCH  27  30
ATOM     30  C   UNL A   1      35.769  30.329  28.485  1.00  0.00     0.039 A 
ATOM     31  C   UNL A   1      36.692  30.284  27.433  1.00  0.00     0.014 A 
ATOM     32  C   UNL A   1      36.116  29.748  29.699  1.00  0.00     0.014 A 
ATOM     33  C   UNL A   1      37.969  29.734  27.632  1.00  0.00     0.010 A 
ATOM     34  C   UNL A   1      37.394  29.244  29.919  1.00  0.00     0.010 A 
ATOM     35  C   UNL A   1      38.338  29.237  28.891  1.00  0.00    -0.014 A 
BRANCH  35  36
ATOM     36  C   UNL A   1      39.716  28.799  29.214  1.00  0.00     0.031 A 
ATOM     37  C   UNL A   1      40.717  29.743  29.817  1.00  0.00     0.074 A 
ATOM     38  C   UNL A   1      40.112  27.582  28.796  1.00  0.00     0.049 A 
ATOM     39  N   UNL A   1      41.968  29.521  30.137  1.00  0.00    -0.248 NA
ATOM     40  C   UNL A   1      40.268  31.120  30.069  1.00  0.00     0.031 C 
ATOM     41  C   UNL A   1      39.269  26.618  28.086  1.00  0.00     0.029 A 
ATOM     42  N   UNL A   1      41.332  26.960  28.882  1.00  0.00    -0.354 N 
ATOM     43  C   UNL A   1      42.451  30.723  30.635  1.00  0.00     0.074 A 
ATOM     44  C   UNL A   1      41.378  31.688  30.521  1.00  0.00     0.031 C 
ATOM     45  C   UNL A   1      39.992  25.521  27.813  1.00  0.00     0.029 A 
ATOM     46  C   UNL A   1      41.348  25.708  28.320  1.00  0.00     0.049 A 
ATOM     47  H   UNL A   1      42.119  27.372  29.306  1.00  0.00     0.167 HD
ATOM     48  C   UNL A   1      43.672  30.991  31.159  1.00  0.00     0.031 A 
ATOM     49  C   UNL A   1      42.338  24.802  28.233  1.00  0.00     0.031 A 
ATOM     50  C   UNL A   1      44.741  30.031  31.254  1.00  0.00     0.049 A 
ATOM     51  C   UNL A   1      43.674  25.109  28.839  1.00  0.00     0.074 A 
ATOM     52  C   UNL A   1      45.977  30.174  31.862  1.00  0.00     0.029 A 
ATOM     53  N   UNL A   1      44.708  28.757  30.711  1.00  0.00    -0.354 N 
ATOM     54  N   UNL A   1      44.075  26.204  29.438  1.00  0.00    -0.248 NA
ATOM     55  C   UNL A   1      44.687  24.046  28.782  1.00  0.00     0.031 C 
ATOM     56  C   UNL A   1      46.710  29.003  31.644  1.00  0.00     0.029 A 
ATOM     57  C   UNL A   1      45.911  28.113  30.944  1.00  0.00     0.049 A 
ATOM     58  H   UNL A   1      43.942  28.368  30.230  1.00  0.00     0.167 HD
ATOM     59  C   UNL A   1      45.375  25.955  29.851  1.00  0.00     0.074 A 
ATOM     60  C   UNL A   1      45.695  24.602  29.441  1.00  0.00     0.031 C 
ATOM     61  C   UNL A   1      46.224  26.773  30.519  1.00  0.00     0.031 A 
BRANCH  48  62
ATOM     62  C   UNL A   1      43.911  32.374  31.702  1.00  0.00    -0.014 A 
ATOM     63  C   UNL A   1      44.415  33.392  30.875  1.00  0.00     0.009 A 
ATOM     64  C   UNL A   1      43.560  32.688  33.024  1.00  0.00     0.009 A 
ATOM     65  C   UNL A   1      44.589  34.686  31.368  1.00  0.00     0.001 A 
ATOM     66  C   UNL A   1      43.711  33.990  33.507  1.00  0.00     0.001 A 
ATOM     67  C   UNL A   1      44.231  34.986  32.681  1.00  0.00     0.000 A 
ENDBRANCH  48  62
BRANCH  49  68
ATOM     68  C   UNL A   1      42.056  23.483  27.616  1.00  0.00    -0.014 A 
ATOM     69  C   UNL A   1      41.422  22.484  28.369  1.00  0.00     0.009 A 
ATOM     70  C   UNL A   1      42.354  23.239  26.267  1.00  0.00     0.009 A 
ATOM     71  C   UNL A   1      41.096  21.260  27.784  1.00  0.00     0.001 A 
ATOM     72  C   UNL A   1      42.009  22.019  25.680  1.00  0.00     0.001 A 
ATOM     73  C   UNL A   1      41.384  21.030  26.439  1.00  0.00     0.000 A 
ENDBRANCH  49  68
BRANCH  61  74
ATOM     74  C   UNL A   1      47.581  26.228  30.859  1.00  0.00    -0.014 A 
ATOM     75  C   UNL A   1      47.854  25.708  32.133  1.00  0.00     0.009 A 
ATOM     76  C   UNL A   1      48.582  26.186  29.876  1.00  0.00     0.009 A 
ATOM     77  C   UNL A   1      49.110  25.174  32.422  1.00  0.00     0.001 A 
ATOM     78  C   UNL A   1      49.829  25.631  30.161  1.00  0.00     0.001 A 
ATOM     79  C   UNL A   1      50.095  25.131  31.435  1.00  0.00     0.000 A 
ENDBRANCH  61  74
ENDBRANCH  35  36
ENDBRANCH  27  30
ENDBRANCH  25  26
ENDBRANCH  24  25
ENDBRANCH   1  24
TORSDOF 14
ENDMDL
MODEL 2
REMARK VINA RESULT:     -10.6      2.218      7.894
REMARK SMILES O=C(Cc1csc(Sc2ncnc3c2CCCC3)n1)NCCCCNC(=O)c1ccc(-c2c3nc(c(-c4ccccc4)c4ccc([nH]4)c(-c4ccccc4)c4nc(c(-c5ccccc5)c5ccc2[nH]5)C=C4)C=C3)cc1
REMARK SMILES IDX 22 1 21 2 20 3 1 4 2 5 3 7 4 8 5 9 19 10 6 11 7 12 8 13 9 14
REMARK SMILES IDX 10 15 14 16 11 17 13 18 15 19 12 20 18 21 16 22 17 23 23 24
REMARK SMILES IDX 24 25 25 26 26 27 27 29 28 30 29 31 75 32 30 33 74 34 31 35
REMARK SMILES IDX 32 36 33 37 68 38 34 39 73 40 67 41 69 42 35 43 72 44 66 45
REMARK SMILES IDX 65 46 36 48 58 49 43 50 57 51 44 52 47 53 56 54 70 55 45 56
REMARK SMILES IDX 46 57 55 59 71 60 48 61 37 62 38 63 42 64 39 65 41 66 40 67
REMARK SMILES IDX 59 68 60 69 64 70 61 71 63 72 62 73 49 74 50 75 54 76 51 77
REMARK SMILES IDX 53 78 52 79
REMARK H PARENT 20 6 25 28 69 47 47 58
REMARK Flexibility Score: inf
ROOT
ATOM      1  C   UNL A   1      36.337  20.324  25.001  1.00  0.00     0.023 C 
ENDROOT
BRANCH   1   2
ATOM      2  C   UNL A   1      36.000  21.770  24.631  1.00  0.00     0.116 C 
BRANCH   2   3
ATOM      3  N   UNL A   1      34.643  22.131  24.984  1.00  0.00    -0.356 N 
ATOM      4  O   UNL A   1      35.135  22.972  27.067  1.00  0.00    -0.275 OA
ATOM      5  C   UNL A   1      34.313  22.703  26.195  1.00  0.00     0.226 C 
ATOM      6  H   UNL A   1      33.926  21.962  24.332  1.00  0.00     0.163 HD
BRANCH   5   7
ATOM      7  C   UNL A   1      32.826  22.916  26.399  1.00  0.00     0.157 C 
BRANCH   7   8
ATOM      8  C   UNL A   1      32.177  23.572  25.228  1.00  0.00     0.062 A 
ATOM      9  C   UNL A   1      30.943  23.247  24.698  1.00  0.00     0.092 A 
ATOM     10  N   UNL A   1      32.860  24.571  24.535  1.00  0.00    -0.234 NA
ATOM     11  S   UNL A   1      30.638  24.175  23.297  1.00  0.00    -0.116 S 
ATOM     12  C   UNL A   1      32.165  24.946  23.482  1.00  0.00     0.156 A 
BRANCH  12  13
ATOM     13  S   UNL A   1      32.682  26.129  22.302  1.00  0.00    -0.039 SA
BRANCH  13  14
ATOM     14  C   UNL A   1      31.801  27.582  22.837  1.00  0.00     0.110 A 
ATOM     15  N   UNL A   1      30.648  27.833  22.179  1.00  0.00    -0.229 NA
ATOM     16  C   UNL A   1      32.203  28.295  23.967  1.00  0.00     0.006 A 
ATOM     17  C   UNL A   1      29.894  28.818  22.661  1.00  0.00     0.223 A 
ATOM     18  C   UNL A   1      31.314  29.265  24.404  1.00  0.00     0.048 A 
ATOM     19  C   UNL A   1      33.458  27.985  24.739  1.00  0.00     0.040 C 
ATOM     20  N   UNL A   1      30.172  29.551  23.745  1.00  0.00    -0.241 NA
ATOM     21  C   UNL A   1      31.586  30.093  25.638  1.00  0.00     0.056 C 
ATOM     22  C   UNL A   1      33.841  29.064  25.754  1.00  0.00     0.005 C 
ATOM     23  C   UNL A   1      32.625  29.481  26.567  1.00  0.00     0.007 C 
ENDBRANCH  13  14
ENDBRANCH  12  13
ENDBRANCH   7   8
ENDBRANCH   5   7
ENDBRANCH   2   3
ENDBRANCH   1   2
BRANCH   1  24
ATOM     24  C   UNL A   1      37.778  19.893  24.705  1.00  0.00     0.023 C 
BRANCH  24  25
ATOM     25  C   UNL A   1      38.826  20.315  25.731  1.00  0.00     0.116 C 
BRANCH  25  26
ATOM     26  N   UNL A   1      39.951  19.392  25.828  1.00  0.00    -0.352 N 
ATOM     27  C   UNL A   1      41.269  19.614  26.157  1.00  0.00     0.251 C 
ATOM     28  H   UNL A   1      39.730  18.455  25.625  1.00  0.00     0.163 HD
ATOM     29  O   UNL A   1      42.070  18.679  26.066  1.00  0.00    -0.269 OA
BRANCH  27  30
ATOM     30  C   UNL A   1      41.762  20.941  26.611  1.00  0.00     0.039 A 
ATOM     31  C   UNL A   1      42.256  21.864  25.682  1.00  0.00     0.014 A 
ATOM     32  C   UNL A   1      41.791  21.276  27.960  1.00  0.00     0.014 A 
ATOM     33  C   UNL A   1      42.695  23.130  26.103  1.00  0.00     0.010 A 
ATOM     34  C   UNL A   1      42.179  22.544  28.381  1.00  0.00     0.010 A 
ATOM     35  C   UNL A   1      42.630  23.488  27.458  1.00  0.00    -0.014 A 
BRANCH  35  36
ATOM     36  C   UNL A   1      42.918  24.857  27.945  1.00  0.00     0.031 A 
ATOM     37  C   UNL A   1      44.294  25.253  28.399  1.00  0.00     0.074 A 
ATOM     38  C   UNL A   1      41.883  25.696  28.138  1.00  0.00     0.049 A 
ATOM     39  N   UNL A   1      44.705  26.403  28.874  1.00  0.00    -0.248 NA
ATOM     40  C   UNL A   1      45.339  24.219  28.342  1.00  0.00     0.031 C 
ATOM     41  C   UNL A   1      40.481  25.385  27.854  1.00  0.00     0.029 A 
ATOM     42  N   UNL A   1      41.848  26.969  28.647  1.00  0.00    -0.354 N 
ATOM     43  C   UNL A   1      46.053  26.236  29.161  1.00  0.00     0.074 A 
ATOM     44  C   UNL A   1      46.379  24.857  28.864  1.00  0.00     0.031 C 
ATOM     45  C   UNL A   1      39.723  26.444  28.178  1.00  0.00     0.029 A 
ATOM     46  C   UNL A   1      40.584  27.501  28.701  1.00  0.00     0.049 A 
ATOM     47  H   UNL A   1      42.650  27.454  28.945  1.00  0.00     0.167 HD
ATOM     48  C   UNL A   1      46.941  27.155  29.611  1.00  0.00     0.031 A 
ATOM     49  C   UNL A   1      40.161  28.711  29.111  1.00  0.00     0.031 A 
ATOM     50  C   UNL A   1      46.607  28.520  29.921  1.00  0.00     0.049 A 
ATOM     51  C   UNL A   1      41.162  29.721  29.584  1.00  0.00     0.074 A 
ATOM     52  C   UNL A   1      47.454  29.554  30.283  1.00  0.00     0.029 A 
ATOM     53  N   UNL A   1      45.322  29.037  29.924  1.00  0.00    -0.354 N 
ATOM     54  N   UNL A   1      42.460  29.595  29.715  1.00  0.00    -0.248 NA
ATOM     55  C   UNL A   1      40.645  31.049  29.940  1.00  0.00     0.031 C 
ATOM     56  C   UNL A   1      46.675  30.684  30.552  1.00  0.00     0.029 A 
ATOM     57  C   UNL A   1      45.348  30.367  30.308  1.00  0.00     0.049 A 
ATOM     58  H   UNL A   1      44.510  28.532  29.689  1.00  0.00     0.167 HD
ATOM     59  C   UNL A   1      42.919  30.831  30.143  1.00  0.00     0.074 A 
ATOM     60  C   UNL A   1      41.762  31.698  30.244  1.00  0.00     0.031 C 
ATOM     61  C   UNL A   1      44.189  31.215  30.420  1.00  0.00     0.031 A 
BRANCH  48  62
ATOM     62  C   UNL A   1      48.374  26.723  29.768  1.00  0.00    -0.014 A 
ATOM     63  C   UNL A   1      48.824  26.153  30.970  1.00  0.00     0.009 A 
ATOM     64  C   UNL A   1      49.264  26.811  28.686  1.00  0.00     0.009 A 
ATOM     65  C   UNL A   1      50.142  25.708  31.095  1.00  0.00     0.001 A 
ATOM     66  C   UNL A   1      50.574  26.342  28.805  1.00  0.00     0.001 A 
ATOM     67  C   UNL A   1      51.013  25.796  30.011  1.00  0.00     0.000 A 
ENDBRANCH  48  62
BRANCH  49  68
ATOM     68  C   UNL A   1      38.721  29.047  29.001  1.00  0.00    -0.014 A 
ATOM     69  C   UNL A   1      37.900  28.970  30.136  1.00  0.00     0.009 A 
ATOM     70  C   UNL A   1      38.176  29.505  27.792  1.00  0.00     0.009 A 
ATOM     71  C   UNL A   1      36.556  29.341  30.061  1.00  0.00     0.001 A 
ATOM     72  C   UNL A   1      36.836  29.893  27.726  1.00  0.00     0.001 A 
ATOM     73  C   UNL A   1      36.027  29.808  28.859  1.00  0.00     0.000 A 
ENDBRANCH  49  68
BRANCH  61  74
ATOM     74  C   UNL A   1      44.400  32.638  30.850  1.00  0.00    -0.014 A 
ATOM     75  C   UNL A   1      44.645  33.650  29.910  1.00  0.00     0.009 A 
ATOM     76  C   UNL A   1      44.299  32.978  32.209  1.00  0.00     0.009 A 
ATOM     77  C   UNL A   1      44.805  34.973  30.325  1.00  0.00     0.001 A 
ATOM     78  C   UNL A   1      44.437  34.304  32.618  1.00  0.00     0.001 A 
ATOM     79  C   UNL A   1      44.696  35.299  31.677  1.00  0.00     0.000 A 
ENDBRANCH  61  74
ENDBRANCH  35  36
ENDBRANCH  27  30
ENDBRANCH  25  26
ENDBRANCH  24  25
ENDBRANCH   1  24
TORSDOF 14
ENDMDL
MODEL 3
REMARK VINA RESULT:     -10.5      4.245      7.614
REMARK SMILES O=C(Cc1csc(Sc2ncnc3c2CCCC3)n1)NCCCCNC(=O)c1ccc(-c2c3nc(c(-c4ccccc4)c4ccc([nH]4)c(-c4ccccc4)c4nc(c(-c5ccccc5)c5ccc2[nH]5)C=C4)C=C3)cc1
REMARK SMILES IDX 22 1 21 2 20 3 1 4 2 5 3 7 4 8 5 9 19 10 6 11 7 12 8 13 9 14
REMARK SMILES IDX 10 15 14 16 11 17 13 18 15 19 12 20 18 21 16 22 17 23 23 24
REMARK SMILES IDX 24 25 25 26 26 27 27 29 28 30 29 31 75 32 30 33 74 34 31 35
REMARK SMILES IDX 32 36 33 37 68 38 34 39 73 40 67 41 69 42 35 43 72 44 66 45
REMARK SMILES IDX 65 46 36 48 58 49 43 50 57 51 44 52 47 53 56 54 70 55 45 56
REMARK SMILES IDX 46 57 55 59 71 60 48 61 37 62 38 63 42 64 39 65 41 66 40 67
REMARK SMILES IDX 59 68 60 69 64 70 61 71 63 72 62 73 49 74 50 75 54 76 51 77
REMARK SMILES IDX 53 78 52 79
REMARK H PARENT 20 6 25 28 69 47 47 58
REMARK Flexibility Score: inf
ROOT
ATOM      1  C   UNL A   1      33.647  34.929  28.473  1.00  0.00     0.023 C 
ENDROOT
BRANCH   1   2
ATOM      2  C   UNL A   1      33.019  35.975  29.396  1.00  0.00     0.116 C 
BRANCH   2   3
ATOM      3  N   UNL A   1      33.771  36.157  30.620  1.00  0.00    -0.356 N 
ATOM      4  O   UNL A   1      31.964  36.620  31.965  1.00  0.00    -0.275 OA
ATOM      5  C   UNL A   1      33.176  36.478  31.822  1.00  0.00     0.226 C 
ATOM      6  H   UNL A   1      34.748  36.046  30.593  1.00  0.00     0.163 HD
BRANCH   5   7
ATOM      7  C   UNL A   1      34.152  36.715  32.957  1.00  0.00     0.157 C 
BRANCH   7   8
ATOM      8  C   UNL A   1      34.974  35.509  33.264  1.00  0.00     0.062 A 
ATOM      9  C   UNL A   1      34.940  34.782  34.439  1.00  0.00     0.092 A 
ATOM     10  N   UNL A   1      35.916  35.067  32.336  1.00  0.00    -0.234 NA
ATOM     11  S   UNL A   1      36.120  33.548  34.406  1.00  0.00    -0.116 S 
ATOM     12  C   UNL A   1      36.603  34.059  32.835  1.00  0.00     0.156 A 
BRANCH  12  13
ATOM     13  S   UNL A   1      37.927  33.246  32.033  1.00  0.00    -0.039 SA
BRANCH  13  14
ATOM     14  C   UNL A   1      39.218  33.365  33.255  1.00  0.00     0.110 A 
ATOM     15  N   UNL A   1      39.483  34.615  33.693  1.00  0.00    -0.229 NA
ATOM     16  C   UNL A   1      39.779  32.223  33.826  1.00  0.00     0.006 A 
ATOM     17  C   UNL A   1      40.330  34.717  34.716  1.00  0.00     0.223 A 
ATOM     18  C   UNL A   1      40.608  32.450  34.915  1.00  0.00     0.048 A 
ATOM     19  C   UNL A   1      39.446  30.825  33.381  1.00  0.00     0.040 C 
ATOM     20  N   UNL A   1      40.909  33.692  35.349  1.00  0.00    -0.241 NA
ATOM     21  C   UNL A   1      41.258  31.314  35.668  1.00  0.00     0.056 C 
ATOM     22  C   UNL A   1      40.385  29.756  33.946  1.00  0.00     0.005 C 
ATOM     23  C   UNL A   1      40.588  29.967  35.438  1.00  0.00     0.007 C 
ENDBRANCH  13  14
ENDBRANCH  12  13
ENDBRANCH   7   8
ENDBRANCH   5   7
ENDBRANCH   2   3
ENDBRANCH   1   2
BRANCH   1  24
ATOM     24  C   UNL A   1      34.961  34.321  28.972  1.00  0.00     0.023 C 
BRANCH  24  25
ATOM     25  C   UNL A   1      34.861  32.928  29.588  1.00  0.00     0.116 C 
BRANCH  25  26
ATOM     26  N   UNL A   1      34.110  31.982  28.772  1.00  0.00    -0.352 N 
ATOM     27  C   UNL A   1      34.497  30.801  28.178  1.00  0.00     0.251 C 
ATOM     28  H   UNL A   1      33.169  32.228  28.621  1.00  0.00     0.163 HD
ATOM     29  O   UNL A   1      33.702  30.220  27.435  1.00  0.00    -0.269 OA
BRANCH  27  30
ATOM     30  C   UNL A   1      35.842  30.207  28.396  1.00  0.00     0.039 A 
ATOM     31  C   UNL A   1      36.756  30.126  27.338  1.00  0.00     0.014 A 
ATOM     32  C   UNL A   1      36.204  29.677  29.629  1.00  0.00     0.014 A 
ATOM     33  C   UNL A   1      38.038  29.592  27.547  1.00  0.00     0.010 A 
ATOM     34  C   UNL A   1      37.488  29.190  29.857  1.00  0.00     0.010 A 
ATOM     35  C   UNL A   1      38.422  29.148  28.821  1.00  0.00    -0.014 A 
BRANCH  35  36
ATOM     36  C   UNL A   1      39.805  28.731  29.147  1.00  0.00     0.031 A 
ATOM     37  C   UNL A   1      40.791  29.690  29.752  1.00  0.00     0.074 A 
ATOM     38  C   UNL A   1      40.221  27.519  28.732  1.00  0.00     0.049 A 
ATOM     39  N   UNL A   1      42.044  29.488  30.075  1.00  0.00    -0.248 NA
ATOM     40  C   UNL A   1      40.320  31.061  30.001  1.00  0.00     0.031 C 
ATOM     41  C   UNL A   1      39.394  26.542  28.021  1.00  0.00     0.029 A 
ATOM     42  N   UNL A   1      41.450  26.916  28.822  1.00  0.00    -0.354 N 
ATOM     43  C   UNL A   1      42.508  30.698  30.573  1.00  0.00     0.074 A 
ATOM     44  C   UNL A   1      41.421  31.646  30.455  1.00  0.00     0.031 C 
ATOM     45  C   UNL A   1      40.134  25.456  27.751  1.00  0.00     0.029 A 
ATOM     46  C   UNL A   1      41.486  25.664  28.261  1.00  0.00     0.049 A 
ATOM     47  H   UNL A   1      42.229  27.340  29.247  1.00  0.00     0.167 HD
ATOM     48  C   UNL A   1      43.723  30.984  31.100  1.00  0.00     0.031 A 
ATOM     49  C   UNL A   1      42.490  24.772  28.178  1.00  0.00     0.031 A 
ATOM     50  C   UNL A   1      44.806  30.041  31.198  1.00  0.00     0.049 A 
ATOM     51  C   UNL A   1      43.820  25.100  28.787  1.00  0.00     0.074 A 
ATOM     52  C   UNL A   1      46.039  30.203  31.808  1.00  0.00     0.029 A 
ATOM     53  N   UNL A   1      44.794  28.766  30.656  1.00  0.00    -0.354 N 
ATOM     54  N   UNL A   1      44.203  26.202  29.385  1.00  0.00    -0.248 NA
ATOM     55  C   UNL A   1      44.848  24.052  28.733  1.00  0.00     0.031 C 
ATOM     56  C   UNL A   1      46.790  29.043  31.594  1.00  0.00     0.029 A 
ATOM     57  C   UNL A   1      46.006  28.140  30.893  1.00  0.00     0.049 A 
ATOM     58  H   UNL A   1      44.035  28.365  30.174  1.00  0.00     0.167 HD
ATOM     59  C   UNL A   1      45.505  25.973  29.802  1.00  0.00     0.074 A 
ATOM     60  C   UNL A   1      45.846  24.624  29.394  1.00  0.00     0.031 C 
ATOM     61  C   UNL A   1      46.341  26.804  30.470  1.00  0.00     0.031 A 
BRANCH  48  62
ATOM     62  C   UNL A   1      43.941  32.371  31.641  1.00  0.00    -0.014 A 
ATOM     63  C   UNL A   1      43.651  32.671  32.983  1.00  0.00     0.009 A 
ATOM     64  C   UNL A   1      44.511  33.367  30.833  1.00  0.00     0.009 A 
ATOM     65  C   UNL A   1      43.901  33.945  33.495  1.00  0.00     0.001 A 
ATOM     66  C   UNL A   1      44.784  34.633  31.355  1.00  0.00     0.001 A 
ATOM     67  C   UNL A   1      44.473  34.923  32.683  1.00  0.00     0.000 A 
ENDBRANCH  48  62
BRANCH  49  68
ATOM     68  C   UNL A   1      42.229  23.449  27.562  1.00  0.00    -0.014 A 
ATOM     69  C   UNL A   1      42.598  23.217  26.228  1.00  0.00     0.009 A 
ATOM     70  C   UNL A   1      41.679  22.399  28.312  1.00  0.00     0.009 A 
ATOM     71  C   UNL A   1      42.414  21.959  25.654  1.00  0.00     0.001 A 
ATOM     72  C   UNL A   1      41.514  21.135  27.739  1.00  0.00     0.001 A 
ATOM     73  C   UNL A   1      41.879  20.918  26.410  1.00  0.00     0.000 A 
ENDBRANCH  49  68
BRANCH  61  74
ATOM     74  C   UNL A   1      47.704  26.281  30.815  1.00  0.00    -0.014 A 
ATOM     75  C   UNL A   1      48.761  26.349  29.894  1.00  0.00     0.009 A 
ATOM     76  C   UNL A   1      47.948  25.762  32.096  1.00  0.00     0.009 A 
ATOM     77  C   UNL A   1      50.031  25.888  30.244  1.00  0.00     0.001 A 
ATOM     78  C   UNL A   1      49.224  25.324  32.451  1.00  0.00     0.001 A 
ATOM     79  C   UNL A   1      50.263  25.381  31.522  1.00  0.00     0.000 A 
ENDBRANCH  61  74
ENDBRANCH  35  36
ENDBRANCH  27  30
ENDBRANCH  25  26
ENDBRANCH  24  25
ENDBRANCH   1  24
TORSDOF 14
ENDMDL
