MODEL 1
REMARK VINA RESULT:     -12.5      0.000      0.000
REMARK SMILES NS(=O)(=O)c1ccc(-n2nc(C(=O)NCCCCNC(=O)c3ccc(-c4c5nc(c(-c6ccccc6)c6ccc([nH]6)c(-c6ccccc6)c6nc(c(-c7ccccc7)c7ccc4[nH]7)C=C6)C=C5)cc3)cc2-c2cc3ccccc3s2)cc1
REMARK SMILES IDX 16 1 15 2 14 3 12 4 13 5 11 7 9 8 10 9 71 10 70 11 8 12 5 13
REMARK SMILES IDX 6 14 82 15 7 16 81 17 2 18 3 19 4 20 1 21 72 24 73 25 80 26
REMARK SMILES IDX 74 27 79 28 75 29 78 30 76 31 77 32 17 33 18 34 19 35 20 36
REMARK SMILES IDX 21 38 22 39 23 40 69 41 24 42 68 43 25 44 26 45 27 46 62 47
REMARK SMILES IDX 28 48 67 49 61 50 63 51 29 52 66 53 60 54 59 55 30 57 52 58
REMARK SMILES IDX 37 59 51 60 38 61 41 62 50 63 64 64 39 65 40 66 49 68 65 69
REMARK SMILES IDX 42 70 31 71 32 72 36 73 33 74 35 75 34 76 53 77 54 78 58 79
REMARK SMILES IDX 55 80 57 81 56 82 43 83 44 84 48 85 45 86 47 87 46 88
REMARK H PARENT 14 6 1 22 1 23 19 37 63 56 41 67
REMARK Flexibility Score: inf
ROOT
ATOM      1  C   UNL A   1      45.553  31.408  26.537  1.00  0.00     0.023 C 
ENDROOT
BRANCH   1   2
ATOM      2  C   UNL A   1      45.611  29.874  26.440  1.00  0.00     0.116 C 
BRANCH   2   3
ATOM      3  N   UNL A   1      46.418  29.414  25.319  1.00  0.00    -0.351 N 
ATOM      4  C   UNL A   1      46.561  28.174  24.712  1.00  0.00     0.271 C 
ATOM      5  O   UNL A   1      47.237  28.154  23.681  1.00  0.00    -0.267 OA
ATOM      6  H   UNL A   1      46.969  30.120  24.911  1.00  0.00     0.163 HD
BRANCH   4   7
ATOM      7  C   UNL A   1      45.887  26.971  25.245  1.00  0.00     0.151 A 
ATOM      8  N   UNL A   1      45.001  25.006  25.208  1.00  0.00    -0.231 N 
ATOM      9  N   UNL A   1      45.983  25.765  24.646  1.00  0.00    -0.162 NA
ATOM     10  C   UNL A   1      44.291  25.731  26.136  1.00  0.00     0.085 A 
ATOM     11  C   UNL A   1      45.070  26.845  26.382  1.00  0.00     0.066 A 
BRANCH   8  12
ATOM     12  C   UNL A   1      45.015  23.599  25.082  1.00  0.00     0.065 A 
ATOM     13  C   UNL A   1      45.231  20.835  25.015  1.00  0.00     0.082 A 
ATOM     14  C   UNL A   1      44.021  21.425  25.399  1.00  0.00     0.024 A 
ATOM     15  C   UNL A   1      46.331  21.617  24.653  1.00  0.00     0.024 A 
ATOM     16  C   UNL A   1      43.918  22.819  25.460  1.00  0.00     0.030 A 
ATOM     17  C   UNL A   1      46.213  23.003  24.657  1.00  0.00     0.030 A 
BRANCH  13  18
ATOM     18  S   UNL A   1      45.392  19.075  24.977  1.00  0.00     0.238 S 
ATOM     19  O   UNL A   1      45.737  18.660  23.628  1.00  0.00    -0.207 OA
ATOM     20  O   UNL A   1      44.305  18.497  25.714  1.00  0.00    -0.207 OA
BRANCH  18  21
ATOM     21  N   UNL A   1      46.782  18.816  25.883  1.00  0.00    -0.225 NA
ATOM     22  H   UNL A   1      46.580  18.159  26.637  1.00  0.00     0.137 HD
ATOM     23  H   UNL A   1      47.099  19.701  26.280  1.00  0.00     0.137 HD
ENDBRANCH  18  21
ENDBRANCH  13  18
ENDBRANCH   8  12
BRANCH  10  24
ATOM     24  C   UNL A   1      42.968  25.537  26.662  1.00  0.00     0.054 A 
ATOM     25  C   UNL A   1      42.648  25.495  28.015  1.00  0.00     0.031 A 
ATOM     26  S   UNL A   1      41.702  26.484  25.928  1.00  0.00    -0.134 S 
ATOM     27  C   UNL A   1      42.305  26.861  28.385  1.00  0.00    -0.007 A 
ATOM     28  C   UNL A   1      41.860  27.582  27.267  1.00  0.00     0.035 A 
ATOM     29  C   UNL A   1      42.488  27.561  29.599  1.00  0.00     0.009 A 
ATOM     30  C   UNL A   1      41.643  28.967  27.300  1.00  0.00     0.019 A 
ATOM     31  C   UNL A   1      42.336  28.951  29.625  1.00  0.00     0.001 A 
ATOM     32  C   UNL A   1      41.934  29.645  28.486  1.00  0.00     0.001 A 
ENDBRANCH  10  24
ENDBRANCH   4   7
ENDBRANCH   2   3
ENDBRANCH   1   2
BRANCH   1  33
ATOM     33  C   UNL A   1      44.148  32.030  26.454  1.00  0.00     0.023 C 
BRANCH  33  34
ATOM     34  C   UNL A   1      44.097  33.432  25.856  1.00  0.00     0.116 C 
BRANCH  34  35
ATOM     35  N   UNL A   1      45.121  34.356  26.365  1.00  0.00    -0.352 N 
ATOM     36  C   UNL A   1      44.967  35.308  27.370  1.00  0.00     0.251 C 
ATOM     37  H   UNL A   1      46.012  34.296  25.950  1.00  0.00     0.163 HD
ATOM     38  O   UNL A   1      45.718  36.267  27.477  1.00  0.00    -0.269 OA
BRANCH  36  39
ATOM     39  C   UNL A   1      43.882  35.093  28.340  1.00  0.00     0.039 A 
ATOM     40  C   UNL A   1      42.641  35.738  28.285  1.00  0.00     0.014 A 
ATOM     41  C   UNL A   1      44.127  34.091  29.266  1.00  0.00     0.014 A 
ATOM     42  C   UNL A   1      41.621  35.286  29.124  1.00  0.00     0.010 A 
ATOM     43  C   UNL A   1      43.067  33.493  29.876  1.00  0.00     0.010 A 
ATOM     44  C   UNL A   1      41.843  34.144  29.907  1.00  0.00    -0.014 A 
BRANCH  44  45
ATOM     45  C   UNL A   1      40.817  33.522  30.732  1.00  0.00     0.031 A 
ATOM     46  C   UNL A   1      41.198  33.301  32.151  1.00  0.00     0.074 A 
ATOM     47  C   UNL A   1      39.534  33.428  30.308  1.00  0.00     0.049 A 
ATOM     48  N   UNL A   1      41.393  32.174  32.747  1.00  0.00    -0.248 NA
ATOM     49  C   UNL A   1      41.524  34.477  32.976  1.00  0.00     0.031 C 
ATOM     50  C   UNL A   1      38.944  33.930  29.053  1.00  0.00     0.029 A 
ATOM     51  N   UNL A   1      38.441  32.978  30.976  1.00  0.00    -0.354 N 
ATOM     52  C   UNL A   1      41.653  32.487  34.078  1.00  0.00     0.074 A 
ATOM     53  C   UNL A   1      41.912  33.904  34.116  1.00  0.00     0.031 C 
ATOM     54  C   UNL A   1      37.599  33.984  29.164  1.00  0.00     0.029 A 
ATOM     55  C   UNL A   1      37.224  33.326  30.397  1.00  0.00     0.049 A 
ATOM     56  H   UNL A   1      38.504  32.447  31.803  1.00  0.00     0.167 HD
ATOM     57  C   UNL A   1      41.355  31.611  35.079  1.00  0.00     0.031 A 
ATOM     58  C   UNL A   1      35.990  33.085  30.897  1.00  0.00     0.031 A 
ATOM     59  C   UNL A   1      41.056  30.301  34.557  1.00  0.00     0.049 A 
ATOM     60  C   UNL A   1      36.133  31.992  31.880  1.00  0.00     0.074 A 
ATOM     61  C   UNL A   1      41.745  29.327  33.867  1.00  0.00     0.029 A 
ATOM     62  N   UNL A   1      39.721  30.026  34.383  1.00  0.00    -0.354 N 
ATOM     63  N   UNL A   1      36.504  30.786  31.558  1.00  0.00    -0.248 NA
ATOM     64  C   UNL A   1      36.291  32.342  33.281  1.00  0.00     0.031 C 
ATOM     65  C   UNL A   1      40.792  28.775  32.956  1.00  0.00     0.029 A 
ATOM     66  C   UNL A   1      39.557  29.386  33.184  1.00  0.00     0.049 A 
ATOM     67  H   UNL A   1      39.002  30.251  35.016  1.00  0.00     0.167 HD
ATOM     68  C   UNL A   1      37.343  30.390  32.589  1.00  0.00     0.074 A 
ATOM     69  C   UNL A   1      37.063  31.325  33.677  1.00  0.00     0.031 C 
ATOM     70  C   UNL A   1      38.376  29.526  32.355  1.00  0.00     0.031 A 
BRANCH  57  71
ATOM     71  C   UNL A   1      40.868  32.034  36.447  1.00  0.00    -0.014 A 
ATOM     72  C   UNL A   1      39.562  32.547  36.567  1.00  0.00     0.009 A 
ATOM     73  C   UNL A   1      41.722  32.228  37.550  1.00  0.00     0.009 A 
ATOM     74  C   UNL A   1      39.162  33.275  37.695  1.00  0.00     0.001 A 
ATOM     75  C   UNL A   1      41.314  32.920  38.695  1.00  0.00     0.001 A 
ATOM     76  C   UNL A   1      40.042  33.468  38.754  1.00  0.00     0.000 A 
ENDBRANCH  57  71
BRANCH  58  77
ATOM     77  C   UNL A   1      34.774  33.919  30.814  1.00  0.00    -0.014 A 
ATOM     78  C   UNL A   1      34.431  34.800  31.850  1.00  0.00     0.009 A 
ATOM     79  C   UNL A   1      34.115  34.070  29.579  1.00  0.00     0.009 A 
ATOM     80  C   UNL A   1      33.497  35.825  31.645  1.00  0.00     0.001 A 
ATOM     81  C   UNL A   1      33.186  35.095  29.373  1.00  0.00     0.001 A 
ATOM     82  C   UNL A   1      32.889  35.983  30.401  1.00  0.00     0.000 A 
ENDBRANCH  58  77
BRANCH  70  83
ATOM     83  C   UNL A   1      38.396  28.816  31.020  1.00  0.00    -0.014 A 
ATOM     84  C   UNL A   1      38.227  29.471  29.785  1.00  0.00     0.009 A 
ATOM     85  C   UNL A   1      38.709  27.450  31.004  1.00  0.00     0.009 A 
ATOM     86  C   UNL A   1      38.338  28.772  28.577  1.00  0.00     0.001 A 
ATOM     87  C   UNL A   1      38.839  26.757  29.798  1.00  0.00     0.001 A 
ATOM     88  C   UNL A   1      38.647  27.415  28.585  1.00  0.00     0.000 A 
ENDBRANCH  70  83
ENDBRANCH  44  45
ENDBRANCH  36  39
ENDBRANCH  34  35
ENDBRANCH  33  34
ENDBRANCH   1  33
TORSDOF 15
ENDMDL
MODEL 2
REMARK VINA RESULT:     -12.4      4.464     12.971
REMARK SMILES NS(=O)(=O)c1ccc(-n2nc(C(=O)NCCCCNC(=O)c3ccc(-c4c5nc(c(-c6ccccc6)c6ccc([nH]6)c(-c6ccccc6)c6nc(c(-c7ccccc7)c7ccc4[nH]7)C=C6)C=C5)cc3)cc2-c2cc3ccccc3s2)cc1
REMARK SMILES IDX 16 1 15 2 14 3 12 4 13 5 11 7 9 8 10 9 71 10 70 11 8 12 5 13
REMARK SMILES IDX 6 14 82 15 7 16 81 17 2 18 3 19 4 20 1 21 72 24 73 25 80 26
REMARK SMILES IDX 74 27 79 28 75 29 78 30 76 31 77 32 17 33 18 34 19 35 20 36
REMARK SMILES IDX 21 38 22 39 23 40 69 41 24 42 68 43 25 44 26 45 27 46 62 47
REMARK SMILES IDX 28 48 67 49 61 50 63 51 29 52 66 53 60 54 59 55 30 57 52 58
REMARK SMILES IDX 37 59 51 60 38 61 41 62 50 63 64 64 39 65 40 66 49 68 65 69
REMARK SMILES IDX 42 70 31 71 32 72 36 73 33 74 35 75 34 76 53 77 54 78 58 79
REMARK SMILES IDX 55 80 57 81 56 82 43 83 44 84 48 85 45 86 47 87 46 88
REMARK H PARENT 14 6 1 22 1 23 19 37 63 56 41 67
REMARK Flexibility Score: inf
ROOT
ATOM      1  C   UNL A   1      41.233  28.905  34.799  1.00  0.00     0.023 C 
ENDROOT
BRANCH   1   2
ATOM      2  C   UNL A   1      40.929  30.311  35.341  1.00  0.00     0.116 C 
BRANCH   2   3
ATOM      3  N   UNL A   1      39.791  30.326  36.251  1.00  0.00    -0.351 N 
ATOM      4  C   UNL A   1      38.492  30.795  36.120  1.00  0.00     0.271 C 
ATOM      5  O   UNL A   1      37.727  30.529  37.049  1.00  0.00    -0.267 OA
ATOM      6  H   UNL A   1      39.980  29.926  37.129  1.00  0.00     0.163 HD
BRANCH   4   7
ATOM      7  C   UNL A   1      38.048  31.514  34.906  1.00  0.00     0.151 A 
ATOM      8  N   UNL A   1      36.682  32.524  33.579  1.00  0.00    -0.231 N 
ATOM      9  N   UNL A   1      36.957  32.309  34.896  1.00  0.00    -0.162 NA
ATOM     10  C   UNL A   1      37.581  31.863  32.776  1.00  0.00     0.085 A 
ATOM     11  C   UNL A   1      38.617  31.515  33.621  1.00  0.00     0.066 A 
BRANCH   8  12
ATOM     12  C   UNL A   1      35.826  33.576  33.184  1.00  0.00     0.065 A 
ATOM     13  C   UNL A   1      33.948  35.467  32.414  1.00  0.00     0.082 A 
ATOM     14  C   UNL A   1      34.653  35.639  33.612  1.00  0.00     0.024 A 
ATOM     15  C   UNL A   1      34.184  34.362  31.593  1.00  0.00     0.024 A 
ATOM     16  C   UNL A   1      35.580  34.672  34.016  1.00  0.00     0.030 A 
ATOM     17  C   UNL A   1      35.148  33.429  31.964  1.00  0.00     0.030 A 
BRANCH  13  18
ATOM     18  S   UNL A   1      32.741  36.656  31.912  1.00  0.00     0.238 S 
ATOM     19  O   UNL A   1      31.655  36.665  32.878  1.00  0.00    -0.207 OA
ATOM     20  O   UNL A   1      32.525  36.525  30.500  1.00  0.00    -0.207 OA
BRANCH  18  21
ATOM     21  N   UNL A   1      33.545  38.112  32.144  1.00  0.00    -0.225 NA
ATOM     22  H   UNL A   1      33.387  38.441  33.097  1.00  0.00     0.137 HD
ATOM     23  H   UNL A   1      33.191  38.805  31.483  1.00  0.00     0.137 HD
ENDBRANCH  18  21
ENDBRANCH  13  18
ENDBRANCH   8  12
BRANCH  10  24
ATOM     24  C   UNL A   1      37.479  31.442  31.405  1.00  0.00     0.054 A 
ATOM     25  C   UNL A   1      38.409  31.732  30.413  1.00  0.00     0.031 A 
ATOM     26  S   UNL A   1      37.043  29.775  31.143  1.00  0.00    -0.134 S 
ATOM     27  C   UNL A   1      39.343  30.616  30.406  1.00  0.00    -0.007 A 
ATOM     28  C   UNL A   1      38.735  29.456  30.909  1.00  0.00     0.035 A 
ATOM     29  C   UNL A   1      40.727  30.574  30.125  1.00  0.00     0.009 A 
ATOM     30  C   UNL A   1      39.458  28.286  31.188  1.00  0.00     0.019 A 
ATOM     31  C   UNL A   1      41.467  29.434  30.459  1.00  0.00     0.001 A 
ATOM     32  C   UNL A   1      40.841  28.313  30.998  1.00  0.00     0.001 A 
ENDBRANCH  10  24
ENDBRANCH   4   7
ENDBRANCH   2   3
ENDBRANCH   1   2
BRANCH   1  33
ATOM     33  C   UNL A   1      41.494  27.821  35.860  1.00  0.00     0.023 C 
BRANCH  33  34
ATOM     34  C   UNL A   1      42.321  26.633  35.380  1.00  0.00     0.116 C 
BRANCH  34  35
ATOM     35  N   UNL A   1      43.504  26.334  36.200  1.00  0.00    -0.352 N 
ATOM     36  C   UNL A   1      44.584  25.527  35.852  1.00  0.00     0.251 C 
ATOM     37  H   UNL A   1      43.536  26.749  37.092  1.00  0.00     0.163 HD
ATOM     38  O   UNL A   1      45.323  25.032  36.691  1.00  0.00    -0.269 OA
BRANCH  36  39
ATOM     39  C   UNL A   1      44.839  25.327  34.416  1.00  0.00     0.039 A 
ATOM     40  C   UNL A   1      44.740  24.090  33.769  1.00  0.00     0.014 A 
ATOM     41  C   UNL A   1      45.067  26.492  33.703  1.00  0.00     0.014 A 
ATOM     42  C   UNL A   1      44.786  24.067  32.373  1.00  0.00     0.010 A 
ATOM     43  C   UNL A   1      44.843  26.490  32.360  1.00  0.00     0.010 A 
ATOM     44  C   UNL A   1      44.819  25.284  31.676  1.00  0.00    -0.014 A 
BRANCH  44  45
ATOM     45  C   UNL A   1      44.757  25.381  30.225  1.00  0.00     0.031 A 
ATOM     46  C   UNL A   1      45.836  26.189  29.601  1.00  0.00     0.074 A 
ATOM     47  C   UNL A   1      43.957  24.564  29.498  1.00  0.00     0.049 A 
ATOM     48  N   UNL A   1      45.722  27.324  28.998  1.00  0.00    -0.248 NA
ATOM     49  C   UNL A   1      47.229  25.744  29.776  1.00  0.00     0.031 C 
ATOM     50  C   UNL A   1      43.090  23.470  29.973  1.00  0.00     0.029 A 
ATOM     51  N   UNL A   1      43.849  24.447  28.150  1.00  0.00    -0.354 N 
ATOM     52  C   UNL A   1      46.994  27.634  28.525  1.00  0.00     0.074 A 
ATOM     53  C   UNL A   1      47.902  26.739  29.194  1.00  0.00     0.031 C 
ATOM     54  C   UNL A   1      42.759  22.662  28.943  1.00  0.00     0.029 A 
ATOM     55  C   UNL A   1      43.201  23.294  27.718  1.00  0.00     0.049 A 
ATOM     56  H   UNL A   1      44.200  25.125  27.527  1.00  0.00     0.167 HD
ATOM     57  C   UNL A   1      47.164  28.406  27.415  1.00  0.00     0.031 A 
ATOM     58  C   UNL A   1      43.036  22.887  26.438  1.00  0.00     0.031 A 
ATOM     59  C   UNL A   1      45.934  29.056  27.036  1.00  0.00     0.049 A 
ATOM     60  C   UNL A   1      43.218  24.078  25.584  1.00  0.00     0.074 A 
ATOM     61  C   UNL A   1      45.093  29.993  27.597  1.00  0.00     0.029 A 
ATOM     62  N   UNL A   1      45.205  28.417  26.061  1.00  0.00    -0.354 N 
ATOM     63  N   UNL A   1      42.421  25.108  25.616  1.00  0.00    -0.248 NA
ATOM     64  C   UNL A   1      44.529  24.321  25.010  1.00  0.00     0.031 C 
ATOM     65  C   UNL A   1      43.776  29.573  27.233  1.00  0.00     0.029 A 
ATOM     66  C   UNL A   1      43.882  28.447  26.412  1.00  0.00     0.049 A 
ATOM     67  H   UNL A   1      45.573  28.007  25.246  1.00  0.00     0.167 HD
ATOM     68  C   UNL A   1      43.259  26.205  25.491  1.00  0.00     0.074 A 
ATOM     69  C   UNL A   1      44.516  25.657  24.985  1.00  0.00     0.031 C 
ATOM     70  C   UNL A   1      42.940  27.397  26.078  1.00  0.00     0.031 A 
BRANCH  57  71
ATOM     71  C   UNL A   1      48.278  28.201  26.413  1.00  0.00    -0.014 A 
ATOM     72  C   UNL A   1      48.189  27.113  25.523  1.00  0.00     0.009 A 
ATOM     73  C   UNL A   1      49.529  28.840  26.501  1.00  0.00     0.009 A 
ATOM     74  C   UNL A   1      49.310  26.648  24.822  1.00  0.00     0.001 A 
ATOM     75  C   UNL A   1      50.641  28.404  25.773  1.00  0.00     0.001 A 
ATOM     76  C   UNL A   1      50.537  27.289  24.955  1.00  0.00     0.000 A 
ENDBRANCH  57  71
BRANCH  58  77
ATOM     77  C   UNL A   1      43.038  21.515  25.891  1.00  0.00    -0.014 A 
ATOM     78  C   UNL A   1      44.204  20.957  25.346  1.00  0.00     0.009 A 
ATOM     79  C   UNL A   1      41.968  20.647  26.182  1.00  0.00     0.009 A 
ATOM     80  C   UNL A   1      44.314  19.574  25.144  1.00  0.00     0.001 A 
ATOM     81  C   UNL A   1      42.080  19.267  25.984  1.00  0.00     0.001 A 
ATOM     82  C   UNL A   1      43.258  18.728  25.480  1.00  0.00     0.000 A 
ENDBRANCH  58  77
BRANCH  70  83
ATOM     83  C   UNL A   1      41.535  27.550  26.618  1.00  0.00    -0.014 A 
ATOM     84  C   UNL A   1      40.897  26.581  27.416  1.00  0.00     0.009 A 
ATOM     85  C   UNL A   1      40.875  28.767  26.404  1.00  0.00     0.009 A 
ATOM     86  C   UNL A   1      39.626  26.815  27.955  1.00  0.00     0.001 A 
ATOM     87  C   UNL A   1      39.614  29.008  26.957  1.00  0.00     0.001 A 
ATOM     88  C   UNL A   1      38.987  28.031  27.726  1.00  0.00     0.000 A 
ENDBRANCH  70  83
ENDBRANCH  44  45
ENDBRANCH  36  39
ENDBRANCH  34  35
ENDBRANCH  33  34
ENDBRANCH   1  33
TORSDOF 15
ENDMDL
MODEL 3
REMARK VINA RESULT:     -11.9      5.723     10.103
REMARK SMILES NS(=O)(=O)c1ccc(-n2nc(C(=O)NCCCCNC(=O)c3ccc(-c4c5nc(c(-c6ccccc6)c6ccc([nH]6)c(-c6ccccc6)c6nc(c(-c7ccccc7)c7ccc4[nH]7)C=C6)C=C5)cc3)cc2-c2cc3ccccc3s2)cc1
REMARK SMILES IDX 16 1 15 2 14 3 12 4 13 5 11 7 9 8 10 9 71 10 70 11 8 12 5 13
REMARK SMILES IDX 6 14 82 15 7 16 81 17 2 18 3 19 4 20 1 21 72 24 73 25 80 26
REMARK SMILES IDX 74 27 79 28 75 29 78 30 76 31 77 32 17 33 18 34 19 35 20 36
REMARK SMILES IDX 21 38 22 39 23 40 69 41 24 42 68 43 25 44 26 45 27 46 62 47
REMARK SMILES IDX 28 48 67 49 61 50 63 51 29 52 66 53 60 54 59 55 30 57 52 58
REMARK SMILES IDX 37 59 51 60 38 61 41 62 50 63 64 64 39 65 40 66 49 68 65 69
REMARK SMILES IDX 42 70 31 71 32 72 36 73 33 74 35 75 34 76 53 77 54 78 58 79
REMARK SMILES IDX 55 80 57 81 56 82 43 83 44 84 48 85 45 86 47 87 46 88
REMARK H PARENT 14 6 1 22 1 23 19 37 63 56 41 67
REMARK Flexibility Score: inf
ROOT
ATOM      1  C   UNL A   1      36.663  31.020  28.182  1.00  0.00     0.023 C 
ENDROOT
BRANCH   1   2
ATOM      2  C   UNL A   1      35.434  30.220  27.719  1.00  0.00     0.116 C 
BRANCH   2   3
ATOM      3  N   UNL A   1      34.244  31.049  27.589  1.00  0.00    -0.351 N 
ATOM      4  C   UNL A   1      32.994  30.815  27.034  1.00  0.00     0.271 C 
ATOM      5  O   UNL A   1      32.153  31.699  27.210  1.00  0.00    -0.267 OA
ATOM      6  H   UNL A   1      34.345  31.951  27.969  1.00  0.00     0.163 HD
BRANCH   4   7
ATOM      7  C   UNL A   1      32.685  29.552  26.331  1.00  0.00     0.151 A 
ATOM      8  N   UNL A   1      32.997  27.538  25.627  1.00  0.00    -0.231 N 
ATOM      9  N   UNL A   1      33.265  28.379  26.665  1.00  0.00    -0.162 NA
ATOM     10  C   UNL A   1      32.271  28.179  24.651  1.00  0.00     0.085 A 
ATOM     11  C   UNL A   1      31.804  29.329  25.258  1.00  0.00     0.066 A 
BRANCH   8  12
ATOM     12  C   UNL A   1      33.148  26.141  25.773  1.00  0.00     0.065 A 
ATOM     13  C   UNL A   1      33.625  23.449  26.242  1.00  0.00     0.082 A 
ATOM     14  C   UNL A   1      32.353  23.980  26.490  1.00  0.00     0.024 A 
ATOM     15  C   UNL A   1      34.657  24.253  25.749  1.00  0.00     0.024 A 
ATOM     16  C   UNL A   1      32.118  25.343  26.281  1.00  0.00     0.030 A 
ATOM     17  C   UNL A   1      34.409  25.597  25.486  1.00  0.00     0.030 A 
BRANCH  13  18
ATOM     18  S   UNL A   1      33.952  21.739  26.544  1.00  0.00     0.238 S 
ATOM     19  O   UNL A   1      33.966  21.505  27.978  1.00  0.00    -0.207 OA
ATOM     20  O   UNL A   1      35.011  21.312  25.675  1.00  0.00    -0.207 OA
BRANCH  18  21
ATOM     21  N   UNL A   1      32.549  20.998  25.994  1.00  0.00    -0.225 NA
ATOM     22  H   UNL A   1      31.832  21.045  26.718  1.00  0.00     0.137 HD
ATOM     23  H   UNL A   1      32.745  20.020  25.774  1.00  0.00     0.137 HD
ENDBRANCH  18  21
ENDBRANCH  13  18
ENDBRANCH   8  12
BRANCH  10  24
ATOM     24  C   UNL A   1      32.115  27.882  23.253  1.00  0.00     0.054 A 
ATOM     25  C   UNL A   1      32.973  27.080  22.509  1.00  0.00     0.031 A 
ATOM     26  S   UNL A   1      30.513  27.426  22.739  1.00  0.00    -0.134 S 
ATOM     27  C   UNL A   1      32.425  25.733  22.582  1.00  0.00    -0.007 A 
ATOM     28  C   UNL A   1      31.044  25.773  22.829  1.00  0.00     0.035 A 
ATOM     29  C   UNL A   1      33.067  24.475  22.592  1.00  0.00     0.009 A 
ATOM     30  C   UNL A   1      30.299  24.623  23.131  1.00  0.00     0.019 A 
ATOM     31  C   UNL A   1      32.345  23.333  22.954  1.00  0.00     0.001 A 
ATOM     32  C   UNL A   1      30.984  23.411  23.235  1.00  0.00     0.001 A 
ENDBRANCH  10  24
ENDBRANCH   4   7
ENDBRANCH   2   3
ENDBRANCH   1   2
BRANCH   1  33
ATOM     33  C   UNL A   1      36.383  32.447  28.685  1.00  0.00     0.023 C 
BRANCH  33  34
ATOM     34  C   UNL A   1      37.602  33.360  28.751  1.00  0.00     0.116 C 
BRANCH  34  35
ATOM     35  N   UNL A   1      37.701  34.168  29.975  1.00  0.00    -0.352 N 
ATOM     36  C   UNL A   1      37.953  33.709  31.265  1.00  0.00     0.251 C 
ATOM     37  H   UNL A   1      37.575  35.139  29.872  1.00  0.00     0.163 HD
ATOM     38  O   UNL A   1      37.655  34.360  32.257  1.00  0.00    -0.269 OA
BRANCH  36  39
ATOM     39  C   UNL A   1      38.643  32.416  31.396  1.00  0.00     0.039 A 
ATOM     40  C   UNL A   1      37.992  31.202  31.641  1.00  0.00     0.014 A 
ATOM     41  C   UNL A   1      40.003  32.459  31.132  1.00  0.00     0.014 A 
ATOM     42  C   UNL A   1      38.727  30.019  31.521  1.00  0.00     0.010 A 
ATOM     43  C   UNL A   1      40.632  31.310  30.760  1.00  0.00     0.010 A 
ATOM     44  C   UNL A   1      40.049  30.087  31.059  1.00  0.00    -0.014 A 
BRANCH  44  45
ATOM     45  C   UNL A   1      40.869  28.914  30.793  1.00  0.00     0.031 A 
ATOM     46  C   UNL A   1      41.506  28.306  31.989  1.00  0.00     0.074 A 
ATOM     47  C   UNL A   1      40.811  28.271  29.602  1.00  0.00     0.049 A 
ATOM     48  N   UNL A   1      42.762  28.271  32.281  1.00  0.00    -0.248 NA
ATOM     49  C   UNL A   1      40.632  27.781  33.052  1.00  0.00     0.031 C 
ATOM     50  C   UNL A   1      39.950  28.566  28.442  1.00  0.00     0.029 A 
ATOM     51  N   UNL A   1      41.420  27.119  29.219  1.00  0.00    -0.354 N 
ATOM     52  C   UNL A   1      42.861  27.530  33.455  1.00  0.00     0.074 A 
ATOM     53  C   UNL A   1      41.523  27.427  33.980  1.00  0.00     0.031 C 
ATOM     54  C   UNL A   1      39.909  27.499  27.614  1.00  0.00     0.029 A 
ATOM     55  C   UNL A   1      40.895  26.542  28.067  1.00  0.00     0.049 A 
ATOM     56  H   UNL A   1      42.172  26.724  29.717  1.00  0.00     0.167 HD
ATOM     57  C   UNL A   1      43.988  26.823  33.749  1.00  0.00     0.031 A 
ATOM     58  C   UNL A   1      41.252  25.357  27.518  1.00  0.00     0.031 A 
ATOM     59  C   UNL A   1      45.080  27.194  32.883  1.00  0.00     0.049 A 
ATOM     60  C   UNL A   1      42.588  25.025  28.051  1.00  0.00     0.074 A 
ATOM     61  C   UNL A   1      45.818  28.335  32.651  1.00  0.00     0.029 A 
ATOM     62  N   UNL A   1      45.268  26.383  31.790  1.00  0.00    -0.354 N 
ATOM     63  N   UNL A   1      43.652  25.736  27.806  1.00  0.00    -0.248 NA
ATOM     64  C   UNL A   1      42.671  24.157  29.213  1.00  0.00     0.031 C 
ATOM     65  C   UNL A   1      46.060  28.338  31.243  1.00  0.00     0.029 A 
ATOM     66  C   UNL A   1      45.522  27.170  30.698  1.00  0.00     0.049 A 
ATOM     67  H   UNL A   1      45.228  25.400  31.791  1.00  0.00     0.167 HD
ATOM     68  C   UNL A   1      44.350  25.749  29.004  1.00  0.00     0.074 A 
ATOM     69  C   UNL A   1      43.773  24.655  29.783  1.00  0.00     0.031 C 
ATOM     70  C   UNL A   1      45.123  26.822  29.349  1.00  0.00     0.031 A 
BRANCH  57  71
ATOM     71  C   UNL A   1      43.980  25.490  34.464  1.00  0.00    -0.014 A 
ATOM     72  C   UNL A   1      44.820  25.321  35.581  1.00  0.00     0.009 A 
ATOM     73  C   UNL A   1      43.416  24.321  33.920  1.00  0.00     0.009 A 
ATOM     74  C   UNL A   1      45.136  24.049  36.074  1.00  0.00     0.001 A 
ATOM     75  C   UNL A   1      43.697  23.050  34.434  1.00  0.00     0.001 A 
ATOM     76  C   UNL A   1      44.580  22.913  35.494  1.00  0.00     0.000 A 
ENDBRANCH  57  71
BRANCH  58  77
ATOM     77  C   UNL A   1      40.409  24.364  26.822  1.00  0.00    -0.014 A 
ATOM     78  C   UNL A   1      40.812  23.024  26.715  1.00  0.00     0.009 A 
ATOM     79  C   UNL A   1      39.068  24.672  26.528  1.00  0.00     0.009 A 
ATOM     80  C   UNL A   1      39.894  22.022  26.371  1.00  0.00     0.001 A 
ATOM     81  C   UNL A   1      38.151  23.671  26.190  1.00  0.00     0.001 A 
ATOM     82  C   UNL A   1      38.560  22.344  26.126  1.00  0.00     0.000 A 
ENDBRANCH  58  77
BRANCH  70  83
ATOM     83  C   UNL A   1      45.407  27.846  28.272  1.00  0.00    -0.014 A 
ATOM     84  C   UNL A   1      44.565  28.939  27.995  1.00  0.00     0.009 A 
ATOM     85  C   UNL A   1      46.628  27.764  27.590  1.00  0.00     0.009 A 
ATOM     86  C   UNL A   1      44.923  29.900  27.041  1.00  0.00     0.001 A 
ATOM     87  C   UNL A   1      46.994  28.733  26.652  1.00  0.00     0.001 A 
ATOM     88  C   UNL A   1      46.140  29.797  26.373  1.00  0.00     0.000 A 
ENDBRANCH  70  83
ENDBRANCH  44  45
ENDBRANCH  36  39
ENDBRANCH  34  35
ENDBRANCH  33  34
ENDBRANCH   1  33
TORSDOF 15
ENDMDL
