MODEL 1
REMARK VINA RESULT:     -10.6      0.000      0.000
REMARK SMILES CC[C@@H](O)C[NH+]1CC(n2cc(C(=O)NCCCCNC(=O)c3ccc(-c4c5nc(c(-c6ccccc6)c6ccc([nH]6)c(-c6ccccc6)c6nc(c(-c7ccccc7)c7ccc4[nH]7)C=C6)C=C5)cc3)nn2)C1
REMARK SMILES IDX 15 1 14 2 12 3 13 4 11 6 9 7 10 8 71 9 70 10 8 11 6 12 7 13
REMARK SMILES IDX 72 14 5 16 3 17 2 18 1 19 4 20 16 22 17 23 18 24 19 25 20 26
REMARK SMILES IDX 21 28 22 29 23 30 69 31 24 32 68 33 25 34 26 35 27 36 62 37
REMARK SMILES IDX 28 38 67 39 61 40 63 41 29 42 66 43 60 44 59 45 30 47 52 48
REMARK SMILES IDX 37 49 51 50 38 51 41 52 50 53 64 54 39 55 40 56 49 58 65 59
REMARK SMILES IDX 42 60 31 61 32 62 36 63 33 64 35 65 34 66 53 67 54 68 58 69
REMARK SMILES IDX 55 70 57 71 56 72 43 73 44 74 48 75 45 76 47 77 46 78
REMARK H PARENT 14 5 6 15 4 21 19 27 63 46 41 57
REMARK Flexibility Score: inf
ROOT
ATOM      1  C   UNL A   1      32.119  28.527  27.334  1.00  0.00     0.116 C 
ENDROOT
BRANCH   1   2
ATOM      2  N   UNL A   1      31.592  28.321  25.998  1.00  0.00    -0.351 N 
ATOM      3  C   UNL A   1      31.554  27.200  25.197  1.00  0.00     0.273 C 
ATOM      4  O   UNL A   1      30.915  27.292  24.149  1.00  0.00    -0.267 OA
ATOM      5  H   UNL A   1      31.191  29.123  25.593  1.00  0.00     0.163 HD
BRANCH   3   6
ATOM      6  C   UNL A   1      32.208  25.960  25.597  1.00  0.00     0.170 A 
ATOM      7  N   UNL A   1      32.758  23.950  26.203  1.00  0.00    -0.237 N 
ATOM      8  C   UNL A   1      31.683  24.783  26.093  1.00  0.00     0.145 A 
ATOM      9  N   UNL A   1      33.896  24.577  25.882  1.00  0.00    -0.066 NA
ATOM     10  N   UNL A   1      33.580  25.819  25.539  1.00  0.00    -0.125 NA
BRANCH   7  11
ATOM     11  C   UNL A   1      32.653  22.588  26.605  1.00  0.00     0.218 C 
ATOM     12  N   UNL A   1      32.524  20.627  25.934  1.00  0.00    -0.329 N 
ATOM     13  C   UNL A   1      33.660  21.599  25.977  1.00  0.00     0.296 C 
ATOM     14  C   UNL A   1      31.625  21.805  25.742  1.00  0.00     0.296 C 
ATOM     15  H   UNL A   1      32.380  19.935  26.669  1.00  0.00     0.348 HD
BRANCH  12  16
ATOM     16  C   UNL A   1      32.558  19.783  24.734  1.00  0.00     0.294 C 
BRANCH  16  17
ATOM     17  C   UNL A   1      32.697  18.273  25.036  1.00  0.00     0.169 C 
BRANCH  17  18
ATOM     18  C   UNL A   1      34.005  17.666  24.512  1.00  0.00     0.034 C 
ATOM     19  C   UNL A   1      33.836  17.054  23.128  1.00  0.00     0.007 C 
ENDBRANCH  17  18
BRANCH  17  20
ATOM     20  O   UNL A   1      32.616  18.097  26.454  1.00  0.00    -0.387 OA
ATOM     21  H   UNL A   1      31.999  18.748  26.826  1.00  0.00     0.211 HD
ENDBRANCH  17  20
ENDBRANCH  16  17
ENDBRANCH  12  16
ENDBRANCH   7  11
ENDBRANCH   3   6
ENDBRANCH   1   2
BRANCH   1  22
ATOM     22  C   UNL A   1      33.460  29.265  27.310  1.00  0.00     0.023 C 
BRANCH  22  23
ATOM     23  C   UNL A   1      33.364  30.796  27.404  1.00  0.00     0.023 C 
BRANCH  23  24
ATOM     24  C   UNL A   1      34.682  31.508  27.701  1.00  0.00     0.116 C 
BRANCH  24  25
ATOM     25  N   UNL A   1      34.691  32.173  29.004  1.00  0.00    -0.352 N 
ATOM     26  C   UNL A   1      35.437  31.848  30.119  1.00  0.00     0.251 C 
ATOM     27  H   UNL A   1      34.091  32.947  29.098  1.00  0.00     0.163 HD
ATOM     28  O   UNL A   1      35.095  32.218  31.241  1.00  0.00    -0.269 OA
BRANCH  26  29
ATOM     29  C   UNL A   1      36.667  31.062  29.946  1.00  0.00     0.039 A 
ATOM     30  C   UNL A   1      37.892  31.671  29.656  1.00  0.00     0.014 A 
ATOM     31  C   UNL A   1      36.577  29.682  30.114  1.00  0.00     0.014 A 
ATOM     32  C   UNL A   1      39.045  30.888  29.625  1.00  0.00     0.010 A 
ATOM     33  C   UNL A   1      37.723  28.935  30.214  1.00  0.00     0.010 A 
ATOM     34  C   UNL A   1      38.955  29.521  29.927  1.00  0.00    -0.014 A 
BRANCH  34  35
ATOM     35  C   UNL A   1      40.151  28.696  30.068  1.00  0.00     0.031 A 
ATOM     36  C   UNL A   1      40.681  28.582  31.455  1.00  0.00     0.074 A 
ATOM     37  C   UNL A   1      40.575  27.876  29.081  1.00  0.00     0.049 A 
ATOM     38  N   UNL A   1      41.831  28.966  31.900  1.00  0.00    -0.248 NA
ATOM     39  C   UNL A   1      39.781  28.067  32.502  1.00  0.00     0.031 C 
ATOM     40  C   UNL A   1      39.945  27.642  27.775  1.00  0.00     0.029 A 
ATOM     41  N   UNL A   1      41.584  26.963  29.094  1.00  0.00    -0.354 N 
ATOM     42  C   UNL A   1      41.883  28.569  33.235  1.00  0.00     0.074 A 
ATOM     43  C   UNL A   1      40.540  28.185  33.592  1.00  0.00     0.031 C 
ATOM     44  C   UNL A   1      40.427  26.499  27.238  1.00  0.00     0.029 A 
ATOM     45  C   UNL A   1      41.516  26.025  28.069  1.00  0.00     0.049 A 
ATOM     46  H   UNL A   1      42.300  26.967  29.770  1.00  0.00     0.167 HD
ATOM     47  C   UNL A   1      43.069  28.344  33.866  1.00  0.00     0.031 A 
ATOM     48  C   UNL A   1      42.287  24.921  27.922  1.00  0.00     0.031 A 
ATOM     49  C   UNL A   1      44.177  28.867  33.109  1.00  0.00     0.049 A 
ATOM     50  C   UNL A   1      43.492  25.112  28.752  1.00  0.00     0.074 A 
ATOM     51  C   UNL A   1      44.578  30.115  32.680  1.00  0.00     0.029 A 
ATOM     52  N   UNL A   1      44.872  27.958  32.349  1.00  0.00    -0.354 N 
ATOM     53  N   UNL A   1      44.404  26.004  28.496  1.00  0.00    -0.248 NA
ATOM     54  C   UNL A   1      43.497  24.586  30.108  1.00  0.00     0.031 C 
ATOM     55  C   UNL A   1      45.152  29.896  31.393  1.00  0.00     0.029 A 
ATOM     56  C   UNL A   1      45.130  28.524  31.131  1.00  0.00     0.049 A 
ATOM     57  H   UNL A   1      45.139  27.054  32.633  1.00  0.00     0.167 HD
ATOM     58  C   UNL A   1      44.784  26.481  29.740  1.00  0.00     0.074 A 
ATOM     59  C   UNL A   1      44.305  25.477  30.689  1.00  0.00     0.031 C 
ATOM     60  C   UNL A   1      45.186  27.777  29.894  1.00  0.00     0.031 A 
BRANCH  47  61
ATOM     61  C   UNL A   1      43.281  27.271  34.914  1.00  0.00    -0.014 A 
ATOM     62  C   UNL A   1      43.194  25.922  34.521  1.00  0.00     0.009 A 
ATOM     63  C   UNL A   1      43.262  27.522  36.298  1.00  0.00     0.009 A 
ATOM     64  C   UNL A   1      43.006  24.896  35.456  1.00  0.00     0.001 A 
ATOM     65  C   UNL A   1      43.118  26.495  37.238  1.00  0.00     0.001 A 
ATOM     66  C   UNL A   1      42.957  25.186  36.815  1.00  0.00     0.000 A 
ENDBRANCH  47  61
BRANCH  48  67
ATOM     67  C   UNL A   1      41.983  23.628  27.281  1.00  0.00    -0.014 A 
ATOM     68  C   UNL A   1      42.568  23.284  26.053  1.00  0.00     0.009 A 
ATOM     69  C   UNL A   1      41.344  22.611  28.012  1.00  0.00     0.009 A 
ATOM     70  C   UNL A   1      42.561  21.959  25.598  1.00  0.00     0.001 A 
ATOM     71  C   UNL A   1      41.335  21.288  27.557  1.00  0.00     0.001 A 
ATOM     72  C   UNL A   1      41.960  20.959  26.359  1.00  0.00     0.000 A 
ENDBRANCH  48  67
BRANCH  60  73
ATOM     73  C   UNL A   1      45.476  28.566  28.640  1.00  0.00    -0.014 A 
ATOM     74  C   UNL A   1      44.497  29.295  27.940  1.00  0.00     0.009 A 
ATOM     75  C   UNL A   1      46.811  28.681  28.226  1.00  0.00     0.009 A 
ATOM     76  C   UNL A   1      44.841  30.083  26.838  1.00  0.00     0.001 A 
ATOM     77  C   UNL A   1      47.158  29.486  27.139  1.00  0.00     0.001 A 
ATOM     78  C   UNL A   1      46.172  30.180  26.441  1.00  0.00     0.000 A 
ENDBRANCH  60  73
ENDBRANCH  34  35
ENDBRANCH  26  29
ENDBRANCH  24  25
ENDBRANCH  23  24
ENDBRANCH  22  23
ENDBRANCH   1  22
TORSDOF 16
ENDMDL
MODEL 2
REMARK VINA RESULT:     -10.6      4.278      9.667
REMARK SMILES CC[C@@H](O)C[NH+]1CC(n2cc(C(=O)NCCCCNC(=O)c3ccc(-c4c5nc(c(-c6ccccc6)c6ccc([nH]6)c(-c6ccccc6)c6nc(c(-c7ccccc7)c7ccc4[nH]7)C=C6)C=C5)cc3)nn2)C1
REMARK SMILES IDX 15 1 14 2 12 3 13 4 11 6 9 7 10 8 71 9 70 10 8 11 6 12 7 13
REMARK SMILES IDX 72 14 5 16 3 17 2 18 1 19 4 20 16 22 17 23 18 24 19 25 20 26
REMARK SMILES IDX 21 28 22 29 23 30 69 31 24 32 68 33 25 34 26 35 27 36 62 37
REMARK SMILES IDX 28 38 67 39 61 40 63 41 29 42 66 43 60 44 59 45 30 47 52 48
REMARK SMILES IDX 37 49 51 50 38 51 41 52 50 53 64 54 39 55 40 56 49 58 65 59
REMARK SMILES IDX 42 60 31 61 32 62 36 63 33 64 35 65 34 66 53 67 54 68 58 69
REMARK SMILES IDX 55 70 57 71 56 72 43 73 44 74 48 75 45 76 47 77 46 78
REMARK H PARENT 14 5 6 15 4 21 19 27 63 46 41 57
REMARK Flexibility Score: inf
ROOT
ATOM      1  C   UNL A   1      44.729  23.027  24.208  1.00  0.00     0.116 C 
ENDROOT
BRANCH   1   2
ATOM      2  N   UNL A   1      45.506  21.862  24.587  1.00  0.00    -0.351 N 
ATOM      3  C   UNL A   1      45.122  20.636  25.086  1.00  0.00     0.273 C 
ATOM      4  O   UNL A   1      46.003  19.782  25.190  1.00  0.00    -0.267 OA
ATOM      5  H   UNL A   1      46.476  21.964  24.466  1.00  0.00     0.163 HD
BRANCH   3   6
ATOM      6  C   UNL A   1      43.734  20.360  25.436  1.00  0.00     0.170 A 
ATOM      7  N   UNL A   1      41.670  20.376  26.108  1.00  0.00    -0.237 N 
ATOM      8  C   UNL A   1      42.840  21.074  26.208  1.00  0.00     0.145 A 
ATOM      9  N   UNL A   1      41.831  19.255  25.395  1.00  0.00    -0.066 NA
ATOM     10  N   UNL A   1      43.097  19.214  25.003  1.00  0.00    -0.125 NA
BRANCH   7  11
ATOM     11  C   UNL A   1      40.448  20.812  26.695  1.00  0.00     0.218 C 
ATOM     12  N   UNL A   1      38.888  22.175  26.546  1.00  0.00    -0.329 N 
ATOM     13  C   UNL A   1      39.238  20.960  25.747  1.00  0.00     0.296 C 
ATOM     14  C   UNL A   1      40.355  22.362  26.758  1.00  0.00     0.296 C 
ATOM     15  H   UNL A   1      38.219  22.139  27.314  1.00  0.00     0.348 HD
BRANCH  12  16
ATOM     16  C   UNL A   1      38.330  23.247  25.715  1.00  0.00     0.294 C 
BRANCH  16  17
ATOM     17  C   UNL A   1      36.805  23.438  25.884  1.00  0.00     0.169 C 
BRANCH  17  18
ATOM     18  C   UNL A   1      36.076  23.704  24.560  1.00  0.00     0.034 C 
ATOM     19  C   UNL A   1      36.654  22.882  23.415  1.00  0.00     0.007 C 
ENDBRANCH  17  18
BRANCH  17  20
ATOM     20  O   UNL A   1      36.277  22.258  26.497  1.00  0.00    -0.387 OA
ATOM     21  H   UNL A   1      35.363  22.423  26.782  1.00  0.00     0.211 HD
ENDBRANCH  17  20
ENDBRANCH  16  17
ENDBRANCH  12  16
ENDBRANCH   7  11
ENDBRANCH   3   6
ENDBRANCH   1   2
BRANCH   1  22
ATOM     22  C   UNL A   1      44.809  24.132  25.265  1.00  0.00     0.023 C 
BRANCH  22  23
ATOM     23  C   UNL A   1      46.091  24.134  26.112  1.00  0.00     0.023 C 
BRANCH  23  24
ATOM     24  C   UNL A   1      45.919  24.642  27.542  1.00  0.00     0.116 C 
BRANCH  24  25
ATOM     25  N   UNL A   1      45.038  23.796  28.347  1.00  0.00    -0.352 N 
ATOM     26  C   UNL A   1      44.103  24.190  29.281  1.00  0.00     0.251 C 
ATOM     27  H   UNL A   1      45.124  22.826  28.204  1.00  0.00     0.163 HD
ATOM     28  O   UNL A   1      43.706  23.412  30.148  1.00  0.00    -0.269 OA
BRANCH  26  29
ATOM     29  C   UNL A   1      43.566  25.557  29.218  1.00  0.00     0.039 A 
ATOM     30  C   UNL A   1      42.921  26.039  28.075  1.00  0.00     0.014 A 
ATOM     31  C   UNL A   1      43.696  26.351  30.354  1.00  0.00     0.014 A 
ATOM     32  C   UNL A   1      42.326  27.299  28.117  1.00  0.00     0.010 A 
ATOM     33  C   UNL A   1      43.001  27.531  30.440  1.00  0.00     0.010 A 
ATOM     34  C   UNL A   1      42.352  28.032  29.313  1.00  0.00    -0.014 A 
BRANCH  34  35
ATOM     35  C   UNL A   1      41.605  29.277  29.454  1.00  0.00     0.031 A 
ATOM     36  C   UNL A   1      42.390  30.519  29.203  1.00  0.00     0.074 A 
ATOM     37  C   UNL A   1      40.255  29.298  29.523  1.00  0.00     0.049 A 
ATOM     38  N   UNL A   1      42.644  31.477  30.031  1.00  0.00    -0.248 NA
ATOM     39  C   UNL A   1      43.061  30.664  27.900  1.00  0.00     0.031 C 
ATOM     40  C   UNL A   1      39.334  28.158  29.442  1.00  0.00     0.029 A 
ATOM     41  N   UNL A   1      39.410  30.365  29.533  1.00  0.00    -0.354 N 
ATOM     42  C   UNL A   1      43.341  32.441  29.304  1.00  0.00     0.074 A 
ATOM     43  C   UNL A   1      43.717  31.814  28.062  1.00  0.00     0.031 C 
ATOM     44  C   UNL A   1      38.088  28.600  29.163  1.00  0.00     0.029 A 
ATOM     45  C   UNL A   1      38.091  30.049  29.224  1.00  0.00     0.049 A 
ATOM     46  H   UNL A   1      39.706  31.281  29.741  1.00  0.00     0.167 HD
ATOM     47  C   UNL A   1      43.332  33.754  29.669  1.00  0.00     0.031 A 
ATOM     48  C   UNL A   1      37.073  30.916  29.011  1.00  0.00     0.031 A 
ATOM     49  C   UNL A   1      42.819  33.926  31.004  1.00  0.00     0.049 A 
ATOM     50  C   UNL A   1      37.468  32.211  29.600  1.00  0.00     0.074 A 
ATOM     51  C   UNL A   1      43.196  33.519  32.267  1.00  0.00     0.029 A 
ATOM     52  N   UNL A   1      41.504  34.309  31.100  1.00  0.00    -0.354 N 
ATOM     53  N   UNL A   1      37.605  32.404  30.879  1.00  0.00    -0.248 NA
ATOM     54  C   UNL A   1      38.110  33.199  28.747  1.00  0.00     0.031 C 
ATOM     55  C   UNL A   1      41.972  33.258  32.951  1.00  0.00     0.029 A 
ATOM     56  C   UNL A   1      40.915  33.578  32.096  1.00  0.00     0.049 A 
ATOM     57  H   UNL A   1      41.060  34.993  30.548  1.00  0.00     0.167 HD
ATOM     58  C   UNL A   1      38.704  33.240  30.990  1.00  0.00     0.074 A 
ATOM     59  C   UNL A   1      38.878  33.809  29.655  1.00  0.00     0.031 C 
ATOM     60  C   UNL A   1      39.531  33.159  32.074  1.00  0.00     0.031 A 
BRANCH  47  61
ATOM     61  C   UNL A   1      43.348  34.907  28.687  1.00  0.00    -0.014 A 
ATOM     62  C   UNL A   1      44.386  35.854  28.780  1.00  0.00     0.009 A 
ATOM     63  C   UNL A   1      42.246  35.262  27.887  1.00  0.00     0.009 A 
ATOM     64  C   UNL A   1      44.283  37.117  28.184  1.00  0.00     0.001 A 
ATOM     65  C   UNL A   1      42.159  36.507  27.253  1.00  0.00     0.001 A 
ATOM     66  C   UNL A   1      43.163  37.446  27.429  1.00  0.00     0.000 A 
ENDBRANCH  47  61
BRANCH  48  67
ATOM     67  C   UNL A   1      35.869  30.781  28.170  1.00  0.00    -0.014 A 
ATOM     68  C   UNL A   1      35.511  29.537  27.628  1.00  0.00     0.009 A 
ATOM     69  C   UNL A   1      34.913  31.812  28.136  1.00  0.00     0.009 A 
ATOM     70  C   UNL A   1      34.225  29.316  27.119  1.00  0.00     0.001 A 
ATOM     71  C   UNL A   1      33.629  31.592  27.626  1.00  0.00     0.001 A 
ATOM     72  C   UNL A   1      33.279  30.339  27.134  1.00  0.00     0.000 A 
ENDBRANCH  48  67
BRANCH  60  73
ATOM     73  C   UNL A   1      39.050  32.351  33.254  1.00  0.00    -0.014 A 
ATOM     74  C   UNL A   1      39.416  31.011  33.475  1.00  0.00     0.009 A 
ATOM     75  C   UNL A   1      38.306  33.008  34.245  1.00  0.00     0.009 A 
ATOM     76  C   UNL A   1      39.016  30.340  34.635  1.00  0.00     0.001 A 
ATOM     77  C   UNL A   1      37.926  32.345  35.413  1.00  0.00     0.001 A 
ATOM     78  C   UNL A   1      38.274  31.010  35.605  1.00  0.00     0.000 A 
ENDBRANCH  60  73
ENDBRANCH  34  35
ENDBRANCH  26  29
ENDBRANCH  24  25
ENDBRANCH  23  24
ENDBRANCH  22  23
ENDBRANCH   1  22
TORSDOF 16
ENDMDL
MODEL 3
REMARK VINA RESULT:     -10.4      2.387      6.333
REMARK SMILES CC[C@@H](O)C[NH+]1CC(n2cc(C(=O)NCCCCNC(=O)c3ccc(-c4c5nc(c(-c6ccccc6)c6ccc([nH]6)c(-c6ccccc6)c6nc(c(-c7ccccc7)c7ccc4[nH]7)C=C6)C=C5)cc3)nn2)C1
REMARK SMILES IDX 15 1 14 2 12 3 13 4 11 6 9 7 10 8 71 9 70 10 8 11 6 12 7 13
REMARK SMILES IDX 72 14 5 16 3 17 2 18 1 19 4 20 16 22 17 23 18 24 19 25 20 26
REMARK SMILES IDX 21 28 22 29 23 30 69 31 24 32 68 33 25 34 26 35 27 36 62 37
REMARK SMILES IDX 28 38 67 39 61 40 63 41 29 42 66 43 60 44 59 45 30 47 52 48
REMARK SMILES IDX 37 49 51 50 38 51 41 52 50 53 64 54 39 55 40 56 49 58 65 59
REMARK SMILES IDX 42 60 31 61 32 62 36 63 33 64 35 65 34 66 53 67 54 68 58 69
REMARK SMILES IDX 55 70 57 71 56 72 43 73 44 74 48 75 45 76 47 77 46 78
REMARK H PARENT 14 5 6 15 4 21 19 27 63 46 41 57
REMARK Flexibility Score: inf
ROOT
ATOM      1  C   UNL A   1      32.192  27.529  25.151  1.00  0.00     0.116 C 
ENDROOT
BRANCH   1   2
ATOM      2  N   UNL A   1      31.029  26.903  25.749  1.00  0.00    -0.351 N 
ATOM      3  C   UNL A   1      30.586  25.598  25.729  1.00  0.00     0.273 C 
ATOM      4  O   UNL A   1      29.623  25.330  26.448  1.00  0.00    -0.267 OA
ATOM      5  H   UNL A   1      30.455  27.517  26.260  1.00  0.00     0.163 HD
BRANCH   3   6
ATOM      6  C   UNL A   1      31.253  24.583  24.922  1.00  0.00     0.170 A 
ATOM      7  N   UNL A   1      32.506  23.019  24.089  1.00  0.00    -0.237 N 
ATOM      8  C   UNL A   1      32.435  23.901  25.129  1.00  0.00     0.145 A 
ATOM      9  N   UNL A   1      31.488  23.187  23.237  1.00  0.00    -0.066 NA
ATOM     10  N   UNL A   1      30.728  24.163  23.717  1.00  0.00    -0.125 NA
BRANCH   7  11
ATOM     11  C   UNL A   1      33.542  22.051  23.955  1.00  0.00     0.218 C 
ATOM     12  N   UNL A   1      35.397  21.444  24.664  1.00  0.00    -0.329 N 
ATOM     13  C   UNL A   1      34.024  21.368  25.254  1.00  0.00     0.296 C 
ATOM     14  C   UNL A   1      34.953  22.701  23.989  1.00  0.00     0.296 C 
ATOM     15  H   UNL A   1      35.810  20.661  24.159  1.00  0.00     0.348 HD
BRANCH  12  16
ATOM     16  C   UNL A   1      36.423  21.719  25.676  1.00  0.00     0.294 C 
BRANCH  16  17
ATOM     17  C   UNL A   1      37.869  21.486  25.178  1.00  0.00     0.169 C 
BRANCH  17  18
ATOM     18  C   UNL A   1      38.936  22.054  26.123  1.00  0.00     0.034 C 
ATOM     19  C   UNL A   1      40.122  21.110  26.278  1.00  0.00     0.007 C 
ENDBRANCH  17  18
BRANCH  17  20
ATOM     20  O   UNL A   1      38.061  20.076  25.024  1.00  0.00    -0.387 OA
ATOM     21  H   UNL A   1      38.170  19.667  25.897  1.00  0.00     0.211 HD
ENDBRANCH  17  20
ENDBRANCH  16  17
ENDBRANCH  12  16
ENDBRANCH   7  11
ENDBRANCH   3   6
ENDBRANCH   1   2
BRANCH   1  22
ATOM     22  C   UNL A   1      33.413  27.461  26.073  1.00  0.00     0.023 C 
BRANCH  22  23
ATOM     23  C   UNL A   1      33.607  28.678  26.990  1.00  0.00     0.023 C 
BRANCH  23  24
ATOM     24  C   UNL A   1      35.059  29.102  27.200  1.00  0.00     0.116 C 
BRANCH  24  25
ATOM     25  N   UNL A   1      35.244  29.937  28.387  1.00  0.00    -0.352 N 
ATOM     26  C   UNL A   1      36.265  29.884  29.314  1.00  0.00     0.251 C 
ATOM     27  H   UNL A   1      34.555  30.622  28.545  1.00  0.00     0.163 HD
ATOM     28  O   UNL A   1      36.124  30.354  30.441  1.00  0.00    -0.269 OA
BRANCH  26  29
ATOM     29  C   UNL A   1      37.543  29.268  28.928  1.00  0.00     0.039 A 
ATOM     30  C   UNL A   1      38.248  29.689  27.796  1.00  0.00     0.014 A 
ATOM     31  C   UNL A   1      38.048  28.265  29.752  1.00  0.00     0.014 A 
ATOM     32  C   UNL A   1      39.511  29.154  27.550  1.00  0.00     0.010 A 
ATOM     33  C   UNL A   1      39.340  27.837  29.585  1.00  0.00     0.010 A 
ATOM     34  C   UNL A   1      40.060  28.241  28.462  1.00  0.00    -0.014 A 
BRANCH  34  35
ATOM     35  C   UNL A   1      41.439  27.781  28.335  1.00  0.00     0.031 A 
ATOM     36  C   UNL A   1      41.606  26.454  27.679  1.00  0.00     0.074 A 
ATOM     37  C   UNL A   1      42.491  28.606  28.533  1.00  0.00     0.049 A 
ATOM     38  N   UNL A   1      42.105  25.375  28.185  1.00  0.00    -0.248 NA
ATOM     39  C   UNL A   1      41.056  26.276  26.324  1.00  0.00     0.031 C 
ATOM     40  C   UNL A   1      42.460  30.038  28.859  1.00  0.00     0.029 A 
ATOM     41  N   UNL A   1      43.818  28.373  28.339  1.00  0.00    -0.354 N 
ATOM     42  C   UNL A   1      42.114  24.434  27.157  1.00  0.00     0.074 A 
ATOM     43  C   UNL A   1      41.303  24.984  26.100  1.00  0.00     0.031 C 
ATOM     44  C   UNL A   1      43.666  30.589  28.598  1.00  0.00     0.029 A 
ATOM     45  C   UNL A   1      44.592  29.526  28.262  1.00  0.00     0.049 A 
ATOM     46  H   UNL A   1      44.196  27.468  28.259  1.00  0.00     0.167 HD
ATOM     47  C   UNL A   1      42.995  23.394  27.151  1.00  0.00     0.031 A 
ATOM     48  C   UNL A   1      45.902  29.606  27.926  1.00  0.00     0.031 A 
ATOM     49  C   UNL A   1      43.629  23.233  28.434  1.00  0.00     0.049 A 
ATOM     50  C   UNL A   1      46.485  28.261  28.098  1.00  0.00     0.074 A 
ATOM     51  C   UNL A   1      43.208  22.942  29.715  1.00  0.00     0.029 A 
ATOM     52  N   UNL A   1      44.888  23.769  28.555  1.00  0.00    -0.354 N 
ATOM     53  N   UNL A   1      46.631  27.687  29.257  1.00  0.00    -0.248 NA
ATOM     54  C   UNL A   1      46.539  27.372  26.950  1.00  0.00     0.031 C 
ATOM     55  C   UNL A   1      44.044  23.725  30.565  1.00  0.00     0.029 A 
ATOM     56  C   UNL A   1      44.971  24.400  29.767  1.00  0.00     0.049 A 
ATOM     57  H   UNL A   1      45.608  23.708  27.886  1.00  0.00     0.167 HD
ATOM     58  C   UNL A   1      46.335  26.354  29.024  1.00  0.00     0.074 A 
ATOM     59  C   UNL A   1      46.432  26.196  27.574  1.00  0.00     0.031 C 
ATOM     60  C   UNL A   1      45.759  25.590  30.000  1.00  0.00     0.031 A 
BRANCH  47  61
ATOM     61  C   UNL A   1      43.620  22.819  25.897  1.00  0.00    -0.014 A 
ATOM     62  C   UNL A   1      43.676  21.419  25.755  1.00  0.00     0.009 A 
ATOM     63  C   UNL A   1      44.410  23.570  25.007  1.00  0.00     0.009 A 
ATOM     64  C   UNL A   1      44.543  20.808  24.840  1.00  0.00     0.001 A 
ATOM     65  C   UNL A   1      45.245  22.965  24.061  1.00  0.00     0.001 A 
ATOM     66  C   UNL A   1      45.335  21.583  24.001  1.00  0.00     0.000 A 
ENDBRANCH  47  61
BRANCH  48  67
ATOM     67  C   UNL A   1      46.652  30.701  27.281  1.00  0.00    -0.014 A 
ATOM     68  C   UNL A   1      45.991  31.854  26.833  1.00  0.00     0.009 A 
ATOM     69  C   UNL A   1      48.056  30.737  27.363  1.00  0.00     0.009 A 
ATOM     70  C   UNL A   1      46.704  33.021  26.530  1.00  0.00     0.001 A 
ATOM     71  C   UNL A   1      48.768  31.902  27.058  1.00  0.00     0.001 A 
ATOM     72  C   UNL A   1      48.091  33.050  26.659  1.00  0.00     0.000 A 
ENDBRANCH  48  67
BRANCH  60  73
ATOM     73  C   UNL A   1      45.729  26.158  31.398  1.00  0.00    -0.014 A 
ATOM     74  C   UNL A   1      44.703  26.996  31.870  1.00  0.00     0.009 A 
ATOM     75  C   UNL A   1      46.705  25.725  32.307  1.00  0.00     0.009 A 
ATOM     76  C   UNL A   1      44.678  27.417  33.204  1.00  0.00     0.001 A 
ATOM     77  C   UNL A   1      46.668  26.128  33.644  1.00  0.00     0.001 A 
ATOM     78  C   UNL A   1      45.660  26.979  34.090  1.00  0.00     0.000 A 
ENDBRANCH  60  73
ENDBRANCH  34  35
ENDBRANCH  26  29
ENDBRANCH  24  25
ENDBRANCH  23  24
ENDBRANCH  22  23
ENDBRANCH   1  22
TORSDOF 16
ENDMDL
