MODEL 1
REMARK VINA RESULT:     -11.7      0.000      0.000
REMARK SMILES COCc1c(C(=O)NCCCCNC(=O)c2ccc(-c3c4nc(c(-c5ccccc5)c5ccc([nH]5)c(-c5ccccc5)c5nc(c(-c6ccccc6)c6ccc3[nH]6)C=C5)C=C4)cc2)nnn1-c1ccc(S(C)(=O)=O)cc1
REMARK SMILES IDX 10 1 9 2 8 3 6 4 7 5 5 7 4 8 66 9 64 10 65 11 3 12 2 13 1 14
REMARK SMILES IDX 67 15 68 16 76 17 69 18 75 19 70 20 71 21 72 22 73 23 74 24
REMARK SMILES IDX 11 25 12 26 13 27 14 28 15 30 16 31 17 32 63 33 18 34 62 35
REMARK SMILES IDX 19 36 20 37 21 38 56 39 22 40 61 41 55 42 57 43 23 44 60 45
REMARK SMILES IDX 54 46 53 47 24 49 46 50 31 51 45 52 32 53 35 54 44 55 58 56
REMARK SMILES IDX 33 57 34 58 43 60 59 61 36 62 25 63 26 64 30 65 27 66 29 67
REMARK SMILES IDX 28 68 47 69 48 70 52 71 49 72 51 73 50 74 37 75 38 76 42 77
REMARK SMILES IDX 39 78 41 79 40 80
REMARK H PARENT 8 6 13 29 57 48 35 59
REMARK Flexibility Score: inf
ROOT
ATOM      1  C   UNL A   1      31.870  29.784  26.365  1.00  0.00     0.023 C 
ENDROOT
BRANCH   1   2
ATOM      2  C   UNL A   1      32.477  29.219  25.088  1.00  0.00     0.116 C 
BRANCH   2   3
ATOM      3  N   UNL A   1      31.734  29.359  23.867  1.00  0.00    -0.351 N 
ATOM      4  C   UNL A   1      31.153  28.388  23.076  1.00  0.00     0.273 C 
ATOM      5  O   UNL A   1      30.570  28.814  22.074  1.00  0.00    -0.267 OA
ATOM      6  H   UNL A   1      31.623  30.284  23.548  1.00  0.00     0.163 HD
BRANCH   4   7
ATOM      7  C   UNL A   1      31.226  26.933  23.331  1.00  0.00     0.176 A 
ATOM      8  C   UNL A   1      32.179  25.922  23.138  1.00  0.00     0.103 A 
ATOM      9  N   UNL A   1      31.590  24.798  23.717  1.00  0.00    -0.214 N 
ATOM     10  N   UNL A   1      30.122  26.358  23.937  1.00  0.00    -0.124 NA
ATOM     11  N   UNL A   1      30.319  25.060  24.065  1.00  0.00    -0.061 NA
BRANCH   8  12
ATOM     12  C   UNL A   1      33.510  25.855  22.475  1.00  0.00     0.218 C 
BRANCH  12  13
ATOM     13  O   UNL A   1      33.401  26.304  21.120  1.00  0.00    -0.378 OA
ATOM     14  C   UNL A   1      32.562  25.541  20.266  1.00  0.00     0.195 C 
ENDBRANCH  12  13
ENDBRANCH   8  12
BRANCH   9  15
ATOM     15  C   UNL A   1      32.101  23.481  23.826  1.00  0.00     0.067 A 
ATOM     16  C   UNL A   1      32.315  22.950  25.106  1.00  0.00     0.030 A 
ATOM     17  C   UNL A   1      32.252  22.675  22.691  1.00  0.00     0.030 A 
ATOM     18  C   UNL A   1      32.524  21.578  25.251  1.00  0.00     0.022 A 
ATOM     19  C   UNL A   1      32.472  21.307  22.834  1.00  0.00     0.022 A 
ATOM     20  C   UNL A   1      32.577  20.764  24.115  1.00  0.00     0.067 A 
BRANCH  20  21
ATOM     21  S   UNL A   1      32.706  19.004  24.311  1.00  0.00     0.175 S 
ATOM     22  C   UNL A   1      34.447  18.739  24.503  1.00  0.00     0.163 C 
ATOM     23  O   UNL A   1      32.043  18.675  25.562  1.00  0.00    -0.224 OA
ATOM     24  O   UNL A   1      32.293  18.392  23.067  1.00  0.00    -0.224 OA
ENDBRANCH  20  21
ENDBRANCH   9  15
ENDBRANCH   4   7
ENDBRANCH   2   3
ENDBRANCH   1   2
BRANCH   1  25
ATOM     25  C   UNL A   1      31.626  31.287  26.441  1.00  0.00     0.023 C 
BRANCH  25  26
ATOM     26  C   UNL A   1      32.696  32.076  27.178  1.00  0.00     0.116 C 
BRANCH  26  27
ATOM     27  N   UNL A   1      32.365  33.485  27.405  1.00  0.00    -0.352 N 
ATOM     28  C   UNL A   1      32.937  34.320  28.352  1.00  0.00     0.251 C 
ATOM     29  H   UNL A   1      31.668  33.876  26.832  1.00  0.00     0.163 HD
ATOM     30  O   UNL A   1      32.400  35.360  28.714  1.00  0.00    -0.269 OA
BRANCH  28  31
ATOM     31  C   UNL A   1      34.250  33.931  28.892  1.00  0.00     0.039 A 
ATOM     32  C   UNL A   1      34.395  33.252  30.105  1.00  0.00     0.014 A 
ATOM     33  C   UNL A   1      35.347  34.196  28.077  1.00  0.00     0.014 A 
ATOM     34  C   UNL A   1      35.654  32.762  30.448  1.00  0.00     0.010 A 
ATOM     35  C   UNL A   1      36.538  33.575  28.333  1.00  0.00     0.010 A 
ATOM     36  C   UNL A   1      36.716  32.912  29.542  1.00  0.00    -0.014 A 
BRANCH  36  37
ATOM     37  C   UNL A   1      38.008  32.274  29.757  1.00  0.00     0.031 A 
ATOM     38  C   UNL A   1      38.070  30.840  29.355  1.00  0.00     0.074 A 
ATOM     39  C   UNL A   1      39.119  32.995  30.027  1.00  0.00     0.049 A 
ATOM     40  N   UNL A   1      38.277  29.821  30.120  1.00  0.00    -0.248 NA
ATOM     41  C   UNL A   1      37.745  30.480  27.963  1.00  0.00     0.031 C 
ATOM     42  C   UNL A   1      39.259  34.453  30.128  1.00  0.00     0.029 A 
ATOM     43  N   UNL A   1      40.406  32.574  30.125  1.00  0.00    -0.354 N 
ATOM     44  C   UNL A   1      38.310  28.707  29.285  1.00  0.00     0.074 A 
ATOM     45  C   UNL A   1      37.804  29.147  28.010  1.00  0.00     0.031 C 
ATOM     46  C   UNL A   1      40.562  34.795  30.009  1.00  0.00     0.029 A 
ATOM     47  C   UNL A   1      41.359  33.582  29.998  1.00  0.00     0.049 A 
ATOM     48  H   UNL A   1      40.649  31.631  30.276  1.00  0.00     0.167 HD
ATOM     49  C   UNL A   1      38.988  27.579  29.639  1.00  0.00     0.031 A 
ATOM     50  C   UNL A   1      42.699  33.421  29.862  1.00  0.00     0.031 A 
ATOM     51  C   UNL A   1      39.341  27.595  31.037  1.00  0.00     0.049 A 
ATOM     52  C   UNL A   1      43.021  32.052  30.327  1.00  0.00     0.074 A 
ATOM     53  C   UNL A   1      38.630  27.682  32.217  1.00  0.00     0.029 A 
ATOM     54  N   UNL A   1      40.633  27.949  31.350  1.00  0.00    -0.354 N 
ATOM     55  N   UNL A   1      42.910  31.681  31.569  1.00  0.00    -0.248 NA
ATOM     56  C   UNL A   1      42.992  30.977  29.346  1.00  0.00     0.031 C 
ATOM     57  C   UNL A   1      39.395  28.566  33.035  1.00  0.00     0.029 A 
ATOM     58  C   UNL A   1      40.569  28.885  32.349  1.00  0.00     0.049 A 
ATOM     59  H   UNL A   1      41.452  27.596  30.933  1.00  0.00     0.167 HD
ATOM     60  C   UNL A   1      42.336  30.420  31.505  1.00  0.00     0.074 A 
ATOM     61  C   UNL A   1      42.501  29.997  30.113  1.00  0.00     0.031 C 
ATOM     62  C   UNL A   1      41.514  29.967  32.498  1.00  0.00     0.031 A 
BRANCH  49  63
ATOM     63  C   UNL A   1      39.700  26.677  28.661  1.00  0.00    -0.014 A 
ATOM     64  C   UNL A   1      40.674  27.242  27.816  1.00  0.00     0.009 A 
ATOM     65  C   UNL A   1      39.253  25.385  28.332  1.00  0.00     0.009 A 
ATOM     66  C   UNL A   1      41.104  26.585  26.656  1.00  0.00     0.001 A 
ATOM     67  C   UNL A   1      39.711  24.708  27.197  1.00  0.00     0.001 A 
ATOM     68  C   UNL A   1      40.613  25.323  26.341  1.00  0.00     0.000 A 
ENDBRANCH  49  63
BRANCH  50  69
ATOM     69  C   UNL A   1      43.692  34.256  29.150  1.00  0.00    -0.014 A 
ATOM     70  C   UNL A   1      44.970  34.472  29.693  1.00  0.00     0.009 A 
ATOM     71  C   UNL A   1      43.491  34.606  27.801  1.00  0.00     0.009 A 
ATOM     72  C   UNL A   1      46.018  34.969  28.904  1.00  0.00     0.001 A 
ATOM     73  C   UNL A   1      44.537  35.105  27.015  1.00  0.00     0.001 A 
ATOM     74  C   UNL A   1      45.806  35.269  27.562  1.00  0.00     0.000 A 
ENDBRANCH  50  69
BRANCH  62  75
ATOM     75  C   UNL A   1      41.395  30.795  33.756  1.00  0.00    -0.014 A 
ATOM     76  C   UNL A   1      40.533  31.902  33.878  1.00  0.00     0.009 A 
ATOM     77  C   UNL A   1      42.054  30.344  34.909  1.00  0.00     0.009 A 
ATOM     78  C   UNL A   1      40.364  32.552  35.106  1.00  0.00     0.001 A 
ATOM     79  C   UNL A   1      41.869  30.978  36.139  1.00  0.00     0.001 A 
ATOM     80  C   UNL A   1      41.030  32.086  36.237  1.00  0.00     0.000 A 
ENDBRANCH  62  75
ENDBRANCH  36  37
ENDBRANCH  28  31
ENDBRANCH  26  27
ENDBRANCH  25  26
ENDBRANCH   1  25
TORSDOF 15
ENDMDL
MODEL 2
REMARK VINA RESULT:     -11.2      3.444      4.987
REMARK SMILES COCc1c(C(=O)NCCCCNC(=O)c2ccc(-c3c4nc(c(-c5ccccc5)c5ccc([nH]5)c(-c5ccccc5)c5nc(c(-c6ccccc6)c6ccc3[nH]6)C=C5)C=C4)cc2)nnn1-c1ccc(S(C)(=O)=O)cc1
REMARK SMILES IDX 10 1 9 2 8 3 6 4 7 5 5 7 4 8 66 9 64 10 65 11 3 12 2 13 1 14
REMARK SMILES IDX 67 15 68 16 76 17 69 18 75 19 70 20 71 21 72 22 73 23 74 24
REMARK SMILES IDX 11 25 12 26 13 27 14 28 15 30 16 31 17 32 63 33 18 34 62 35
REMARK SMILES IDX 19 36 20 37 21 38 56 39 22 40 61 41 55 42 57 43 23 44 60 45
REMARK SMILES IDX 54 46 53 47 24 49 46 50 31 51 45 52 32 53 35 54 44 55 58 56
REMARK SMILES IDX 33 57 34 58 43 60 59 61 36 62 25 63 26 64 30 65 27 66 29 67
REMARK SMILES IDX 28 68 47 69 48 70 52 71 49 72 51 73 50 74 37 75 38 76 42 77
REMARK SMILES IDX 39 78 41 79 40 80
REMARK H PARENT 8 6 13 29 57 48 35 59
REMARK Flexibility Score: inf
ROOT
ATOM      1  C   UNL A   1      33.587  28.178  25.839  1.00  0.00     0.023 C 
ENDROOT
BRANCH   1   2
ATOM      2  C   UNL A   1      33.565  28.815  24.457  1.00  0.00     0.116 C 
BRANCH   2   3
ATOM      3  N   UNL A   1      32.288  29.096  23.863  1.00  0.00    -0.351 N 
ATOM      4  C   UNL A   1      31.284  28.225  23.488  1.00  0.00     0.273 C 
ATOM      5  O   UNL A   1      30.286  28.764  22.999  1.00  0.00    -0.267 OA
ATOM      6  H   UNL A   1      32.102  30.049  23.700  1.00  0.00     0.163 HD
BRANCH   4   7
ATOM      7  C   UNL A   1      31.356  26.752  23.596  1.00  0.00     0.176 A 
ATOM      8  C   UNL A   1      32.322  25.768  23.340  1.00  0.00     0.103 A 
ATOM      9  N   UNL A   1      31.716  24.590  23.777  1.00  0.00    -0.214 N 
ATOM     10  N   UNL A   1      30.232  26.117  24.095  1.00  0.00    -0.124 NA
ATOM     11  N   UNL A   1      30.431  24.813  24.099  1.00  0.00    -0.061 NA
BRANCH   8  12
ATOM     12  C   UNL A   1      33.678  25.771  22.727  1.00  0.00     0.218 C 
BRANCH  12  13
ATOM     13  O   UNL A   1      33.595  26.204  21.365  1.00  0.00    -0.378 OA
ATOM     14  C   UNL A   1      32.601  25.583  20.563  1.00  0.00     0.195 C 
ENDBRANCH  12  13
ENDBRANCH   8  12
BRANCH   9  15
ATOM     15  C   UNL A   1      32.230  23.269  23.772  1.00  0.00     0.067 A 
ATOM     16  C   UNL A   1      32.935  22.822  24.898  1.00  0.00     0.030 A 
ATOM     17  C   UNL A   1      31.921  22.385  22.732  1.00  0.00     0.030 A 
ATOM     18  C   UNL A   1      33.186  21.457  25.050  1.00  0.00     0.022 A 
ATOM     19  C   UNL A   1      32.182  21.024  22.876  1.00  0.00     0.022 A 
ATOM     20  C   UNL A   1      32.786  20.566  24.048  1.00  0.00     0.067 A 
BRANCH  20  21
ATOM     21  S   UNL A   1      32.984  18.821  24.307  1.00  0.00     0.175 S 
ATOM     22  C   UNL A   1      32.440  18.115  22.776  1.00  0.00     0.163 C 
ATOM     23  O   UNL A   1      34.410  18.581  24.451  1.00  0.00    -0.224 OA
ATOM     24  O   UNL A   1      32.054  18.422  25.341  1.00  0.00    -0.224 OA
ENDBRANCH  20  21
ENDBRANCH   9  15
ENDBRANCH   4   7
ENDBRANCH   2   3
ENDBRANCH   1   2
BRANCH   1  25
ATOM     25  C   UNL A   1      33.761  29.091  27.048  1.00  0.00     0.023 C 
BRANCH  25  26
ATOM     26  C   UNL A   1      35.198  29.294  27.499  1.00  0.00     0.116 C 
BRANCH  26  27
ATOM     27  N   UNL A   1      35.344  30.045  28.749  1.00  0.00    -0.352 N 
ATOM     28  C   UNL A   1      36.359  29.900  29.681  1.00  0.00     0.251 C 
ATOM     29  H   UNL A   1      34.653  30.717  28.946  1.00  0.00     0.163 HD
ATOM     30  O   UNL A   1      36.250  30.302  30.833  1.00  0.00    -0.269 OA
BRANCH  28  31
ATOM     31  C   UNL A   1      37.609  29.270  29.227  1.00  0.00     0.039 A 
ATOM     32  C   UNL A   1      38.294  29.692  28.083  1.00  0.00     0.014 A 
ATOM     33  C   UNL A   1      38.130  28.282  30.057  1.00  0.00     0.014 A 
ATOM     34  C   UNL A   1      39.560  29.164  27.833  1.00  0.00     0.010 A 
ATOM     35  C   UNL A   1      39.431  27.892  29.901  1.00  0.00     0.010 A 
ATOM     36  C   UNL A   1      40.128  28.278  28.762  1.00  0.00    -0.014 A 
BRANCH  36  37
ATOM     37  C   UNL A   1      41.509  27.828  28.653  1.00  0.00     0.031 A 
ATOM     38  C   UNL A   1      41.696  26.570  27.876  1.00  0.00     0.074 A 
ATOM     39  C   UNL A   1      42.545  28.632  28.982  1.00  0.00     0.049 A 
ATOM     40  N   UNL A   1      42.146  25.442  28.311  1.00  0.00    -0.248 NA
ATOM     41  C   UNL A   1      41.216  26.520  26.483  1.00  0.00     0.031 C 
ATOM     42  C   UNL A   1      42.508  30.022  29.455  1.00  0.00     0.029 A 
ATOM     43  N   UNL A   1      43.876  28.419  28.820  1.00  0.00    -0.354 N 
ATOM     44  C   UNL A   1      42.198  24.592  27.209  1.00  0.00     0.074 A 
ATOM     45  C   UNL A   1      41.454  25.246  26.163  1.00  0.00     0.031 C 
ATOM     46  C   UNL A   1      43.722  30.593  29.289  1.00  0.00     0.029 A 
ATOM     47  C   UNL A   1      44.659  29.569  28.864  1.00  0.00     0.049 A 
ATOM     48  H   UNL A   1      44.259  27.521  28.683  1.00  0.00     0.167 HD
ATOM     49  C   UNL A   1      43.063  23.539  27.169  1.00  0.00     0.031 A 
ATOM     50  C   UNL A   1      45.974  29.671  28.541  1.00  0.00     0.031 A 
ATOM     51  C   UNL A   1      43.617  23.264  28.472  1.00  0.00     0.049 A 
ATOM     52  C   UNL A   1      46.537  28.301  28.582  1.00  0.00     0.074 A 
ATOM     53  C   UNL A   1      43.086  22.936  29.703  1.00  0.00     0.029 A 
ATOM     54  N   UNL A   1      44.884  23.737  28.722  1.00  0.00    -0.354 N 
ATOM     55  N   UNL A   1      46.663  27.619  29.684  1.00  0.00    -0.248 NA
ATOM     56  C   UNL A   1      46.501  27.515  27.358  1.00  0.00     0.031 C 
ATOM     57  C   UNL A   1      43.844  23.702  30.639  1.00  0.00     0.029 A 
ATOM     58  C   UNL A   1      44.849  24.371  29.937  1.00  0.00     0.049 A 
ATOM     59  H   UNL A   1      45.670  23.639  28.138  1.00  0.00     0.167 HD
ATOM     60  C   UNL A   1      46.255  26.338  29.347  1.00  0.00     0.074 A 
ATOM     61  C   UNL A   1      46.263  26.308  27.883  1.00  0.00     0.031 C 
ATOM     62  C   UNL A   1      45.657  25.523  30.267  1.00  0.00     0.031 A 
BRANCH  49  63
ATOM     63  C   UNL A   1      43.731  23.039  25.912  1.00  0.00    -0.014 A 
ATOM     64  C   UNL A   1      43.737  21.654  25.660  1.00  0.00     0.009 A 
ATOM     65  C   UNL A   1      44.599  23.825  25.132  1.00  0.00     0.009 A 
ATOM     66  C   UNL A   1      44.629  21.081  24.745  1.00  0.00     0.001 A 
ATOM     67  C   UNL A   1      45.463  23.261  24.187  1.00  0.00     0.001 A 
ATOM     68  C   UNL A   1      45.500  21.885  24.018  1.00  0.00     0.000 A 
ENDBRANCH  49  63
BRANCH  50  69
ATOM     69  C   UNL A   1      46.731  30.809  27.975  1.00  0.00    -0.014 A 
ATOM     70  C   UNL A   1      46.294  31.449  26.803  1.00  0.00     0.009 A 
ATOM     71  C   UNL A   1      47.721  31.455  28.738  1.00  0.00     0.009 A 
ATOM     72  C   UNL A   1      46.791  32.709  26.437  1.00  0.00     0.001 A 
ATOM     73  C   UNL A   1      48.219  32.712  28.372  1.00  0.00     0.001 A 
ATOM     74  C   UNL A   1      47.740  33.347  27.230  1.00  0.00     0.000 A 
ENDBRANCH  50  69
BRANCH  62  75
ATOM     75  C   UNL A   1      45.621  25.979  31.706  1.00  0.00    -0.014 A 
ATOM     76  C   UNL A   1      44.746  26.973  32.183  1.00  0.00     0.009 A 
ATOM     77  C   UNL A   1      46.384  25.268  32.644  1.00  0.00     0.009 A 
ATOM     78  C   UNL A   1      44.663  27.265  33.550  1.00  0.00     0.001 A 
ATOM     79  C   UNL A   1      46.285  25.543  34.009  1.00  0.00     0.001 A 
ATOM     80  C   UNL A   1      45.430  26.545  34.462  1.00  0.00     0.000 A 
ENDBRANCH  62  75
ENDBRANCH  36  37
ENDBRANCH  28  31
ENDBRANCH  26  27
ENDBRANCH  25  26
ENDBRANCH   1  25
TORSDOF 15
ENDMDL
MODEL 3
REMARK VINA RESULT:     -11.1      2.507      5.897
REMARK SMILES COCc1c(C(=O)NCCCCNC(=O)c2ccc(-c3c4nc(c(-c5ccccc5)c5ccc([nH]5)c(-c5ccccc5)c5nc(c(-c6ccccc6)c6ccc3[nH]6)C=C5)C=C4)cc2)nnn1-c1ccc(S(C)(=O)=O)cc1
REMARK SMILES IDX 10 1 9 2 8 3 6 4 7 5 5 7 4 8 66 9 64 10 65 11 3 12 2 13 1 14
REMARK SMILES IDX 67 15 68 16 76 17 69 18 75 19 70 20 71 21 72 22 73 23 74 24
REMARK SMILES IDX 11 25 12 26 13 27 14 28 15 30 16 31 17 32 63 33 18 34 62 35
REMARK SMILES IDX 19 36 20 37 21 38 56 39 22 40 61 41 55 42 57 43 23 44 60 45
REMARK SMILES IDX 54 46 53 47 24 49 46 50 31 51 45 52 32 53 35 54 44 55 58 56
REMARK SMILES IDX 33 57 34 58 43 60 59 61 36 62 25 63 26 64 30 65 27 66 29 67
REMARK SMILES IDX 28 68 47 69 48 70 52 71 49 72 51 73 50 74 37 75 38 76 42 77
REMARK SMILES IDX 39 78 41 79 40 80
REMARK H PARENT 8 6 13 29 57 48 35 59
REMARK Flexibility Score: inf
ROOT
ATOM      1  C   UNL A   1      31.781  29.372  26.360  1.00  0.00     0.023 C 
ENDROOT
BRANCH   1   2
ATOM      2  C   UNL A   1      31.555  28.629  25.050  1.00  0.00     0.116 C 
BRANCH   2   3
ATOM      3  N   UNL A   1      32.604  28.654  24.070  1.00  0.00    -0.351 N 
ATOM      4  C   UNL A   1      33.463  27.647  23.678  1.00  0.00     0.273 C 
ATOM      5  O   UNL A   1      34.271  27.966  22.800  1.00  0.00    -0.267 OA
ATOM      6  H   UNL A   1      32.727  29.515  23.610  1.00  0.00     0.163 HD
BRANCH   4   7
ATOM      7  C   UNL A   1      33.494  26.286  24.257  1.00  0.00     0.176 A 
ATOM      8  C   UNL A   1      33.139  24.999  23.827  1.00  0.00     0.103 A 
ATOM      9  N   UNL A   1      33.548  24.176  24.877  1.00  0.00    -0.214 N 
ATOM     10  N   UNL A   1      34.018  26.172  25.533  1.00  0.00    -0.124 NA
ATOM     11  N   UNL A   1      33.946  24.915  25.926  1.00  0.00    -0.061 NA
BRANCH   8  12
ATOM     12  C   UNL A   1      32.458  24.452  22.622  1.00  0.00     0.218 C 
BRANCH  12  13
ATOM     13  O   UNL A   1      33.202  24.790  21.447  1.00  0.00    -0.378 OA
ATOM     14  C   UNL A   1      32.528  25.578  20.476  1.00  0.00     0.195 C 
ENDBRANCH  12  13
ENDBRANCH   8  12
BRANCH   9  15
ATOM     15  C   UNL A   1      33.450  22.767  24.994  1.00  0.00     0.067 A 
ATOM     16  C   UNL A   1      32.181  22.198  25.177  1.00  0.00     0.030 A 
ATOM     17  C   UNL A   1      34.569  21.952  24.790  1.00  0.00     0.030 A 
ATOM     18  C   UNL A   1      32.016  20.825  24.994  1.00  0.00     0.022 A 
ATOM     19  C   UNL A   1      34.408  20.579  24.619  1.00  0.00     0.022 A 
ATOM     20  C   UNL A   1      33.126  20.030  24.693  1.00  0.00     0.067 A 
BRANCH  20  21
ATOM     21  S   UNL A   1      32.891  18.308  24.328  1.00  0.00     0.175 S 
ATOM     22  C   UNL A   1      34.538  17.656  24.344  1.00  0.00     0.163 C 
ATOM     23  O   UNL A   1      32.153  17.743  25.445  1.00  0.00    -0.224 OA
ATOM     24  O   UNL A   1      32.383  18.212  22.976  1.00  0.00    -0.224 OA
ENDBRANCH  20  21
ENDBRANCH   9  15
ENDBRANCH   4   7
ENDBRANCH   2   3
ENDBRANCH   1   2
BRANCH   1  25
ATOM     25  C   UNL A   1      32.965  28.958  27.226  1.00  0.00     0.023 C 
BRANCH  25  26
ATOM     26  C   UNL A   1      34.271  29.671  26.913  1.00  0.00     0.116 C 
BRANCH  26  27
ATOM     27  N   UNL A   1      34.262  31.108  27.198  1.00  0.00    -0.352 N 
ATOM     28  C   UNL A   1      34.970  31.751  28.201  1.00  0.00     0.251 C 
ATOM     29  H   UNL A   1      33.698  31.672  26.623  1.00  0.00     0.163 HD
ATOM     30  O   UNL A   1      34.671  32.872  28.596  1.00  0.00    -0.269 OA
BRANCH  28  31
ATOM     31  C   UNL A   1      36.135  31.049  28.763  1.00  0.00     0.039 A 
ATOM     32  C   UNL A   1      36.098  29.701  29.131  1.00  0.00     0.014 A 
ATOM     33  C   UNL A   1      37.318  31.781  28.822  1.00  0.00     0.014 A 
ATOM     34  C   UNL A   1      37.292  29.072  29.479  1.00  0.00     0.010 A 
ATOM     35  C   UNL A   1      38.504  31.125  29.000  1.00  0.00     0.010 A 
ATOM     36  C   UNL A   1      38.494  29.790  29.389  1.00  0.00    -0.014 A 
BRANCH  36  37
ATOM     37  C   UNL A   1      39.791  29.149  29.567  1.00  0.00     0.031 A 
ATOM     38  C   UNL A   1      40.175  28.900  30.985  1.00  0.00     0.074 A 
ATOM     39  C   UNL A   1      40.447  28.577  28.532  1.00  0.00     0.049 A 
ATOM     40  N   UNL A   1      41.174  29.407  31.625  1.00  0.00    -0.248 NA
ATOM     41  C   UNL A   1      39.281  28.088  31.829  1.00  0.00     0.031 C 
ATOM     42  C   UNL A   1      40.021  28.466  27.131  1.00  0.00     0.029 A 
ATOM     43  N   UNL A   1      41.584  27.836  28.547  1.00  0.00    -0.354 N 
ATOM     44  C   UNL A   1      41.158  28.831  32.893  1.00  0.00     0.074 A 
ATOM     45  C   UNL A   1      39.882  28.172  33.018  1.00  0.00     0.031 C 
ATOM     46  C   UNL A   1      40.738  27.501  26.512  1.00  0.00     0.029 A 
ATOM     47  C   UNL A   1      41.782  27.051  27.415  1.00  0.00     0.049 A 
ATOM     48  H   UNL A   1      42.221  27.853  29.299  1.00  0.00     0.167 HD
ATOM     49  C   UNL A   1      42.296  28.728  33.637  1.00  0.00     0.031 A 
ATOM     50  C   UNL A   1      42.717  26.081  27.251  1.00  0.00     0.031 A 
ATOM     51  C   UNL A   1      43.352  29.549  33.098  1.00  0.00     0.049 A 
ATOM     52  C   UNL A   1      43.764  26.311  28.275  1.00  0.00     0.074 A 
ATOM     53  C   UNL A   1      43.498  30.897  32.841  1.00  0.00     0.029 A 
ATOM     54  N   UNL A   1      44.307  28.915  32.338  1.00  0.00    -0.354 N 
ATOM     55  N   UNL A   1      44.555  27.344  28.259  1.00  0.00    -0.248 NA
ATOM     56  C   UNL A   1      43.603  25.662  29.567  1.00  0.00     0.031 C 
ATOM     57  C   UNL A   1      44.162  30.954  31.579  1.00  0.00     0.029 A 
ATOM     58  C   UNL A   1      44.467  29.648  31.191  1.00  0.00     0.049 A 
ATOM     59  H   UNL A   1      44.787  28.088  32.574  1.00  0.00     0.167 HD
ATOM     60  C   UNL A   1      44.615  27.755  29.582  1.00  0.00     0.074 A 
ATOM     61  C   UNL A   1      44.093  26.625  30.355  1.00  0.00     0.031 C 
ATOM     62  C   UNL A   1      44.791  29.070  29.906  1.00  0.00     0.031 A 
BRANCH  49  63
ATOM     63  C   UNL A   1      42.593  27.585  34.575  1.00  0.00    -0.014 A 
ATOM     64  C   UNL A   1      43.085  26.382  34.032  1.00  0.00     0.009 A 
ATOM     65  C   UNL A   1      42.137  27.535  35.905  1.00  0.00     0.009 A 
ATOM     66  C   UNL A   1      43.035  25.182  34.751  1.00  0.00     0.001 A 
ATOM     67  C   UNL A   1      42.123  26.346  36.640  1.00  0.00     0.001 A 
ATOM     68  C   UNL A   1      42.543  25.162  36.051  1.00  0.00     0.000 A 
ENDBRANCH  49  63
BRANCH  50  69
ATOM     69  C   UNL A   1      42.673  24.840  26.446  1.00  0.00    -0.014 A 
ATOM     70  C   UNL A   1      43.589  24.629  25.401  1.00  0.00     0.009 A 
ATOM     71  C   UNL A   1      41.922  23.734  26.885  1.00  0.00     0.009 A 
ATOM     72  C   UNL A   1      43.781  23.353  24.853  1.00  0.00     0.001 A 
ATOM     73  C   UNL A   1      42.112  22.460  26.336  1.00  0.00     0.001 A 
ATOM     74  C   UNL A   1      43.055  22.266  25.332  1.00  0.00     0.000 A 
ENDBRANCH  50  69
BRANCH  62  75
ATOM     75  C   UNL A   1      45.106  30.041  28.793  1.00  0.00    -0.014 A 
ATOM     76  C   UNL A   1      46.416  30.371  28.398  1.00  0.00     0.009 A 
ATOM     77  C   UNL A   1      44.044  30.515  28.009  1.00  0.00     0.009 A 
ATOM     78  C   UNL A   1      46.651  31.174  27.276  1.00  0.00     0.001 A 
ATOM     79  C   UNL A   1      44.278  31.297  26.876  1.00  0.00     0.001 A 
ATOM     80  C   UNL A   1      45.580  31.632  26.513  1.00  0.00     0.000 A 
ENDBRANCH  62  75
ENDBRANCH  36  37
ENDBRANCH  28  31
ENDBRANCH  26  27
ENDBRANCH  25  26
ENDBRANCH   1  25
TORSDOF 15
ENDMDL
