MODEL 1
REMARK VINA RESULT:     -11.2      0.000      0.000
REMARK SMILES O=C(NCCCCNC(=O)c1ccccc1NC(=O)c1ccncc1)c1ccc(-c2c3nc(c(-c4ccccc4)c4ccc([nH]4)c(-c4ccccc4)c4nc(c(-c5ccccc5)c5ccc2[nH]5)C=C4)C=C3)cc1
REMARK SMILES IDX 5 1 4 2 3 3 1 4 2 5 26 7 27 8 73 9 28 10 72 11 29 12 30 13
REMARK SMILES IDX 31 14 66 15 32 16 71 17 65 18 67 19 33 20 70 21 64 22 63 23
REMARK SMILES IDX 34 25 56 26 41 27 55 28 42 29 45 30 54 31 68 32 43 33 44 34
REMARK SMILES IDX 53 36 69 37 46 38 35 39 36 40 40 41 37 42 39 43 38 44 57 45
REMARK SMILES IDX 58 46 62 47 59 48 61 49 60 50 47 51 48 52 52 53 49 54 51 55
REMARK SMILES IDX 50 56 6 57 7 58 8 59 9 60 10 62 11 63 12 64 16 65 13 66
REMARK SMILES IDX 15 67 14 68 17 69 18 70 19 72 20 73 21 74 25 75 22 76 24 77
REMARK SMILES IDX 23 78
REMARK H PARENT 3 6 67 24 45 35 8 61 17 71
REMARK Flexibility Score: inf
ROOT
ATOM      1  C   UNL A   1      35.791  23.709  25.830  1.00  0.00     0.023 C 
ENDROOT
BRANCH   1   2
ATOM      2  C   UNL A   1      37.031  23.692  24.947  1.00  0.00     0.116 C 
BRANCH   2   3
ATOM      3  N   UNL A   1      38.023  22.716  25.369  1.00  0.00    -0.352 N 
ATOM      4  O   UNL A   1      39.948  21.971  26.282  1.00  0.00    -0.269 OA
ATOM      5  C   UNL A   1      39.150  22.892  26.138  1.00  0.00     0.251 C 
ATOM      6  H   UNL A   1      37.865  21.794  25.058  1.00  0.00     0.163 HD
BRANCH   5   7
ATOM      7  C   UNL A   1      39.419  24.205  26.764  1.00  0.00     0.039 A 
ATOM      8  C   UNL A   1      40.104  25.200  26.066  1.00  0.00     0.014 A 
ATOM      9  C   UNL A   1      38.990  24.440  28.074  1.00  0.00     0.014 A 
ATOM     10  C   UNL A   1      40.510  26.351  26.729  1.00  0.00     0.010 A 
ATOM     11  C   UNL A   1      39.316  25.644  28.710  1.00  0.00     0.010 A 
ATOM     12  C   UNL A   1      40.114  26.593  28.055  1.00  0.00    -0.014 A 
BRANCH  12  13
ATOM     13  C   UNL A   1      40.514  27.871  28.699  1.00  0.00     0.031 A 
ATOM     14  C   UNL A   1      39.541  29.005  28.872  1.00  0.00     0.074 A 
ATOM     15  C   UNL A   1      41.762  27.973  29.199  1.00  0.00     0.049 A 
ATOM     16  N   UNL A   1      39.714  30.147  29.492  1.00  0.00    -0.248 NA
ATOM     17  C   UNL A   1      38.208  28.847  28.270  1.00  0.00     0.031 C 
ATOM     18  C   UNL A   1      42.802  26.947  29.083  1.00  0.00     0.029 A 
ATOM     19  N   UNL A   1      42.355  28.966  29.935  1.00  0.00    -0.354 N 
ATOM     20  C   UNL A   1      38.522  30.846  29.346  1.00  0.00     0.074 A 
ATOM     21  C   UNL A   1      37.642  30.013  28.555  1.00  0.00     0.031 C 
ATOM     22  C   UNL A   1      43.879  27.333  29.781  1.00  0.00     0.029 A 
ATOM     23  C   UNL A   1      43.630  28.655  30.342  1.00  0.00     0.049 A 
ATOM     24  H   UNL A   1      41.912  29.818  30.151  1.00  0.00     0.167 HD
ATOM     25  C   UNL A   1      38.189  32.066  29.833  1.00  0.00     0.031 A 
ATOM     26  C   UNL A   1      44.508  29.355  31.082  1.00  0.00     0.031 A 
ATOM     27  C   UNL A   1      39.064  32.898  30.619  1.00  0.00     0.049 A 
ATOM     28  C   UNL A   1      44.112  30.703  31.604  1.00  0.00     0.074 A 
ATOM     29  C   UNL A   1      38.813  34.148  31.159  1.00  0.00     0.029 A 
ATOM     30  N   UNL A   1      40.359  32.561  30.980  1.00  0.00    -0.354 N 
ATOM     31  N   UNL A   1      42.974  31.338  31.469  1.00  0.00    -0.248 NA
ATOM     32  C   UNL A   1      45.124  31.431  32.383  1.00  0.00     0.031 C 
ATOM     33  C   UNL A   1      39.970  34.584  31.814  1.00  0.00     0.029 A 
ATOM     34  C   UNL A   1      40.924  33.585  31.724  1.00  0.00     0.049 A 
ATOM     35  H   UNL A   1      40.811  31.719  30.742  1.00  0.00     0.167 HD
ATOM     36  C   UNL A   1      43.130  32.538  32.148  1.00  0.00     0.074 A 
ATOM     37  C   UNL A   1      44.460  32.526  32.722  1.00  0.00     0.031 C 
ATOM     38  C   UNL A   1      42.253  33.563  32.275  1.00  0.00     0.031 A 
BRANCH  25  39
ATOM     39  C   UNL A   1      36.814  32.589  29.519  1.00  0.00    -0.014 A 
ATOM     40  C   UNL A   1      36.540  33.217  28.294  1.00  0.00     0.009 A 
ATOM     41  C   UNL A   1      35.767  32.398  30.434  1.00  0.00     0.009 A 
ATOM     42  C   UNL A   1      35.249  33.665  28.002  1.00  0.00     0.001 A 
ATOM     43  C   UNL A   1      34.473  32.826  30.131  1.00  0.00     0.001 A 
ATOM     44  C   UNL A   1      34.216  33.465  28.919  1.00  0.00     0.000 A 
ENDBRANCH  25  39
BRANCH  26  45
ATOM     45  C   UNL A   1      45.853  28.791  31.359  1.00  0.00    -0.014 A 
ATOM     46  C   UNL A   1      46.926  29.028  30.487  1.00  0.00     0.009 A 
ATOM     47  C   UNL A   1      46.070  28.017  32.511  1.00  0.00     0.009 A 
ATOM     48  C   UNL A   1      48.185  28.484  30.753  1.00  0.00     0.001 A 
ATOM     49  C   UNL A   1      47.335  27.500  32.789  1.00  0.00     0.001 A 
ATOM     50  C   UNL A   1      48.389  27.726  31.906  1.00  0.00     0.000 A 
ENDBRANCH  26  45
BRANCH  38  51
ATOM     51  C   UNL A   1      42.712  34.745  33.077  1.00  0.00    -0.014 A 
ATOM     52  C   UNL A   1      43.291  35.862  32.452  1.00  0.00     0.009 A 
ATOM     53  C   UNL A   1      42.559  34.746  34.471  1.00  0.00     0.009 A 
ATOM     54  C   UNL A   1      43.746  36.938  33.214  1.00  0.00     0.001 A 
ATOM     55  C   UNL A   1      42.991  35.836  35.227  1.00  0.00     0.001 A 
ATOM     56  C   UNL A   1      43.594  36.926  34.600  1.00  0.00     0.000 A 
ENDBRANCH  38  51
ENDBRANCH  12  13
ENDBRANCH   5   7
ENDBRANCH   2   3
ENDBRANCH   1   2
BRANCH   1  57
ATOM     57  C   UNL A   1      34.496  24.136  25.142  1.00  0.00     0.023 C 
BRANCH  57  58
ATOM     58  C   UNL A   1      33.773  25.321  25.779  1.00  0.00     0.116 C 
BRANCH  58  59
ATOM     59  N   UNL A   1      32.333  25.133  25.836  1.00  0.00    -0.352 N 
ATOM     60  C   UNL A   1      31.338  26.056  26.019  1.00  0.00     0.253 C 
ATOM     61  H   UNL A   1      32.027  24.204  25.726  1.00  0.00     0.163 HD
ATOM     62  O   UNL A   1      30.177  25.683  26.156  1.00  0.00    -0.269 OA
BRANCH  60  63
ATOM     63  C   UNL A   1      31.645  27.501  26.056  1.00  0.00     0.063 A 
ATOM     64  C   UNL A   1      31.744  28.073  27.333  1.00  0.00     0.016 A 
ATOM     65  C   UNL A   1      31.788  28.287  24.893  1.00  0.00     0.054 A 
ATOM     66  C   UNL A   1      31.996  29.434  27.469  1.00  0.00     0.001 A 
ATOM     67  C   UNL A   1      31.975  29.663  25.058  1.00  0.00     0.027 A 
ATOM     68  C   UNL A   1      32.100  30.229  26.332  1.00  0.00     0.002 A 
BRANCH  65  69
ATOM     69  N   UNL A   1      31.702  27.671  23.623  1.00  0.00    -0.321 N 
ATOM     70  C   UNL A   1      30.713  27.613  22.670  1.00  0.00     0.255 C 
ATOM     71  H   UNL A   1      32.520  27.186  23.369  1.00  0.00     0.170 HD
ATOM     72  O   UNL A   1      30.865  26.894  21.682  1.00  0.00    -0.269 OA
BRANCH  70  73
ATOM     73  C   UNL A   1      29.495  28.437  22.744  1.00  0.00     0.043 A 
ATOM     74  C   UNL A   1      29.483  29.766  22.319  1.00  0.00     0.034 A 
ATOM     75  C   UNL A   1      28.332  27.842  23.224  1.00  0.00     0.034 A 
ATOM     76  C   UNL A   1      28.308  30.473  22.476  1.00  0.00     0.112 A 
ATOM     77  C   UNL A   1      27.206  28.634  23.332  1.00  0.00     0.112 A 
ATOM     78  N   UNL A   1      27.175  29.940  22.985  1.00  0.00    -0.265 NA
ENDBRANCH  70  73
ENDBRANCH  65  69
ENDBRANCH  60  63
ENDBRANCH  58  59
ENDBRANCH  57  58
ENDBRANCH   1  57
TORSDOF 13
ENDMDL
MODEL 2
REMARK VINA RESULT:     -11.2      3.065      8.343
REMARK SMILES O=C(NCCCCNC(=O)c1ccccc1NC(=O)c1ccncc1)c1ccc(-c2c3nc(c(-c4ccccc4)c4ccc([nH]4)c(-c4ccccc4)c4nc(c(-c5ccccc5)c5ccc2[nH]5)C=C4)C=C3)cc1
REMARK SMILES IDX 5 1 4 2 3 3 1 4 2 5 26 7 27 8 73 9 28 10 72 11 29 12 30 13
REMARK SMILES IDX 31 14 66 15 32 16 71 17 65 18 67 19 33 20 70 21 64 22 63 23
REMARK SMILES IDX 34 25 56 26 41 27 55 28 42 29 45 30 54 31 68 32 43 33 44 34
REMARK SMILES IDX 53 36 69 37 46 38 35 39 36 40 40 41 37 42 39 43 38 44 57 45
REMARK SMILES IDX 58 46 62 47 59 48 61 49 60 50 47 51 48 52 52 53 49 54 51 55
REMARK SMILES IDX 50 56 6 57 7 58 8 59 9 60 10 62 11 63 12 64 16 65 13 66
REMARK SMILES IDX 15 67 14 68 17 69 18 70 19 72 20 73 21 74 25 75 22 76 24 77
REMARK SMILES IDX 23 78
REMARK H PARENT 3 6 67 24 45 35 8 61 17 71
REMARK Flexibility Score: inf
ROOT
ATOM      1  C   UNL A   1      33.016  27.683  25.868  1.00  0.00     0.023 C 
ENDROOT
BRANCH   1   2
ATOM      2  C   UNL A   1      34.024  28.210  26.882  1.00  0.00     0.116 C 
BRANCH   2   3
ATOM      3  N   UNL A   1      33.747  29.572  27.311  1.00  0.00    -0.352 N 
ATOM      4  O   UNL A   1      34.089  31.515  28.408  1.00  0.00    -0.269 OA
ATOM      5  C   UNL A   1      34.544  30.444  28.016  1.00  0.00     0.251 C 
ATOM      6  H   UNL A   1      32.860  29.920  27.062  1.00  0.00     0.163 HD
BRANCH   5   7
ATOM      7  C   UNL A   1      35.941  30.076  28.333  1.00  0.00     0.039 A 
ATOM      8  C   UNL A   1      36.944  30.189  27.370  1.00  0.00     0.014 A 
ATOM      9  C   UNL A   1      36.252  29.600  29.611  1.00  0.00     0.014 A 
ATOM     10  C   UNL A   1      38.205  29.667  27.624  1.00  0.00     0.010 A 
ATOM     11  C   UNL A   1      37.550  29.165  29.898  1.00  0.00     0.010 A 
ATOM     12  C   UNL A   1      38.529  29.156  28.893  1.00  0.00    -0.014 A 
BRANCH  12  13
ATOM     13  C   UNL A   1      39.912  28.674  29.138  1.00  0.00     0.031 A 
ATOM     14  C   UNL A   1      40.353  27.298  28.718  1.00  0.00     0.074 A 
ATOM     15  C   UNL A   1      40.800  29.526  29.687  1.00  0.00     0.049 A 
ATOM     16  N   UNL A   1      41.548  26.765  28.782  1.00  0.00    -0.248 NA
ATOM     17  C   UNL A   1      39.328  26.402  28.161  1.00  0.00     0.031 C 
ATOM     18  C   UNL A   1      40.491  30.882  30.151  1.00  0.00     0.029 A 
ATOM     19  N   UNL A   1      42.146  29.397  29.914  1.00  0.00    -0.354 N 
ATOM     20  C   UNL A   1      41.418  25.472  28.288  1.00  0.00     0.074 A 
ATOM     21  C   UNL A   1      40.022  25.291  27.952  1.00  0.00     0.031 C 
ATOM     22  C   UNL A   1      41.623  31.482  30.541  1.00  0.00     0.029 A 
ATOM     23  C   UNL A   1      42.727  30.537  30.414  1.00  0.00     0.049 A 
ATOM     24  H   UNL A   1      42.647  28.568  29.737  1.00  0.00     0.167 HD
ATOM     25  C   UNL A   1      42.376  24.528  28.120  1.00  0.00     0.031 A 
ATOM     26  C   UNL A   1      44.005  30.799  30.740  1.00  0.00     0.031 A 
ATOM     27  C   UNL A   1      43.765  24.706  28.455  1.00  0.00     0.049 A 
ATOM     28  C   UNL A   1      45.040  29.733  30.547  1.00  0.00     0.074 A 
ATOM     29  C   UNL A   1      44.809  23.805  28.318  1.00  0.00     0.029 A 
ATOM     30  N   UNL A   1      44.306  25.863  28.991  1.00  0.00    -0.354 N 
ATOM     31  N   UNL A   1      44.899  28.524  30.062  1.00  0.00    -0.248 NA
ATOM     32  C   UNL A   1      46.414  30.069  30.947  1.00  0.00     0.031 C 
ATOM     33  C   UNL A   1      45.974  24.406  28.807  1.00  0.00     0.029 A 
ATOM     34  C   UNL A   1      45.665  25.697  29.203  1.00  0.00     0.049 A 
ATOM     35  H   UNL A   1      43.799  26.683  29.193  1.00  0.00     0.167 HD
ATOM     36  C   UNL A   1      46.164  27.955  30.094  1.00  0.00     0.074 A 
ATOM     37  C   UNL A   1      47.065  28.964  30.613  1.00  0.00     0.031 C 
ATOM     38  C   UNL A   1      46.544  26.705  29.734  1.00  0.00     0.031 A 
BRANCH  25  39
ATOM     39  C   UNL A   1      41.950  23.199  27.557  1.00  0.00    -0.014 A 
ATOM     40  C   UNL A   1      41.430  22.194  28.386  1.00  0.00     0.009 A 
ATOM     41  C   UNL A   1      42.017  22.972  26.174  1.00  0.00     0.009 A 
ATOM     42  C   UNL A   1      41.006  20.978  27.844  1.00  0.00     0.001 A 
ATOM     43  C   UNL A   1      41.571  21.765  25.631  1.00  0.00     0.001 A 
ATOM     44  C   UNL A   1      41.072  20.766  26.467  1.00  0.00     0.000 A 
ENDBRANCH  25  39
BRANCH  26  45
ATOM     45  C   UNL A   1      44.367  32.128  31.294  1.00  0.00    -0.014 A 
ATOM     46  C   UNL A   1      44.338  32.362  32.677  1.00  0.00     0.009 A 
ATOM     47  C   UNL A   1      44.756  33.168  30.435  1.00  0.00     0.009 A 
ATOM     48  C   UNL A   1      44.672  33.620  33.186  1.00  0.00     0.001 A 
ATOM     49  C   UNL A   1      45.117  34.414  30.949  1.00  0.00     0.001 A 
ATOM     50  C   UNL A   1      45.066  34.641  32.322  1.00  0.00     0.000 A 
ENDBRANCH  26  45
BRANCH  38  51
ATOM     51  C   UNL A   1      48.000  26.375  29.885  1.00  0.00    -0.014 A 
ATOM     52  C   UNL A   1      48.504  25.868  31.094  1.00  0.00     0.009 A 
ATOM     53  C   UNL A   1      48.875  26.566  28.807  1.00  0.00     0.009 A 
ATOM     54  C   UNL A   1      49.866  25.600  31.231  1.00  0.00     0.001 A 
ATOM     55  C   UNL A   1      50.233  26.272  28.939  1.00  0.00     0.001 A 
ATOM     56  C   UNL A   1      50.729  25.800  30.154  1.00  0.00     0.000 A 
ENDBRANCH  38  51
ENDBRANCH  12  13
ENDBRANCH   5   7
ENDBRANCH   2   3
ENDBRANCH   1   2
BRANCH   1  57
ATOM     57  C   UNL A   1      32.947  26.163  25.735  1.00  0.00     0.023 C 
BRANCH  57  58
ATOM     58  C   UNL A   1      34.113  25.515  24.992  1.00  0.00     0.116 C 
BRANCH  58  59
ATOM     59  N   UNL A   1      33.698  24.853  23.767  1.00  0.00    -0.352 N 
ATOM     60  C   UNL A   1      34.137  23.679  23.216  1.00  0.00     0.253 C 
ATOM     61  H   UNL A   1      32.994  25.318  23.258  1.00  0.00     0.163 HD
ATOM     62  O   UNL A   1      33.743  23.342  22.103  1.00  0.00    -0.269 OA
BRANCH  60  63
ATOM     63  C   UNL A   1      35.085  22.811  23.943  1.00  0.00     0.063 A 
ATOM     64  C   UNL A   1      36.429  22.910  23.553  1.00  0.00     0.016 A 
ATOM     65  C   UNL A   1      34.682  21.896  24.939  1.00  0.00     0.054 A 
ATOM     66  C   UNL A   1      37.391  22.107  24.157  1.00  0.00     0.001 A 
ATOM     67  C   UNL A   1      35.658  21.055  25.482  1.00  0.00     0.027 A 
ATOM     68  C   UNL A   1      37.002  21.174  25.112  1.00  0.00     0.002 A 
BRANCH  65  69
ATOM     69  N   UNL A   1      33.321  21.839  25.320  1.00  0.00    -0.321 N 
ATOM     70  C   UNL A   1      32.298  20.968  25.029  1.00  0.00     0.255 C 
ATOM     71  H   UNL A   1      33.052  22.572  25.918  1.00  0.00     0.170 HD
ATOM     72  O   UNL A   1      31.156  21.225  25.410  1.00  0.00    -0.269 OA
BRANCH  70  73
ATOM     73  C   UNL A   1      32.522  19.691  24.331  1.00  0.00     0.043 A 
ATOM     74  C   UNL A   1      33.019  18.571  24.998  1.00  0.00     0.034 A 
ATOM     75  C   UNL A   1      32.192  19.616  22.981  1.00  0.00     0.034 A 
ATOM     76  C   UNL A   1      33.245  17.433  24.249  1.00  0.00     0.112 A 
ATOM     77  C   UNL A   1      32.446  18.428  22.325  1.00  0.00     0.112 A 
ATOM     78  N   UNL A   1      32.982  17.343  22.926  1.00  0.00    -0.265 NA
ENDBRANCH  70  73
ENDBRANCH  65  69
ENDBRANCH  60  63
ENDBRANCH  58  59
ENDBRANCH  57  58
ENDBRANCH   1  57
TORSDOF 13
ENDMDL
MODEL 3
REMARK VINA RESULT:     -11.2      2.931      7.538
REMARK SMILES O=C(NCCCCNC(=O)c1ccccc1NC(=O)c1ccncc1)c1ccc(-c2c3nc(c(-c4ccccc4)c4ccc([nH]4)c(-c4ccccc4)c4nc(c(-c5ccccc5)c5ccc2[nH]5)C=C4)C=C3)cc1
REMARK SMILES IDX 5 1 4 2 3 3 1 4 2 5 26 7 27 8 73 9 28 10 72 11 29 12 30 13
REMARK SMILES IDX 31 14 66 15 32 16 71 17 65 18 67 19 33 20 70 21 64 22 63 23
REMARK SMILES IDX 34 25 56 26 41 27 55 28 42 29 45 30 54 31 68 32 43 33 44 34
REMARK SMILES IDX 53 36 69 37 46 38 35 39 36 40 40 41 37 42 39 43 38 44 57 45
REMARK SMILES IDX 58 46 62 47 59 48 61 49 60 50 47 51 48 52 52 53 49 54 51 55
REMARK SMILES IDX 50 56 6 57 7 58 8 59 9 60 10 62 11 63 12 64 16 65 13 66
REMARK SMILES IDX 15 67 14 68 17 69 18 70 19 72 20 73 21 74 25 75 22 76 24 77
REMARK SMILES IDX 23 78
REMARK H PARENT 3 6 67 24 45 35 8 61 17 71
REMARK Flexibility Score: inf
ROOT
ATOM      1  C   UNL A   1      31.389  32.147  26.597  1.00  0.00     0.023 C 
ENDROOT
BRANCH   1   2
ATOM      2  C   UNL A   1      32.588  32.820  27.251  1.00  0.00     0.116 C 
BRANCH   2   3
ATOM      3  N   UNL A   1      32.333  34.198  27.637  1.00  0.00    -0.352 N 
ATOM      4  O   UNL A   1      32.528  36.083  28.863  1.00  0.00    -0.269 OA
ATOM      5  C   UNL A   1      32.970  34.975  28.576  1.00  0.00     0.251 C 
ATOM      6  H   UNL A   1      31.595  34.640  27.155  1.00  0.00     0.163 HD
BRANCH   5   7
ATOM      7  C   UNL A   1      34.172  34.459  29.269  1.00  0.00     0.039 A 
ATOM      8  C   UNL A   1      35.436  34.587  28.694  1.00  0.00     0.014 A 
ATOM      9  C   UNL A   1      34.029  33.826  30.508  1.00  0.00     0.014 A 
ATOM     10  C   UNL A   1      36.522  33.936  29.265  1.00  0.00     0.010 A 
ATOM     11  C   UNL A   1      35.144  33.255  31.132  1.00  0.00     0.010 A 
ATOM     12  C   UNL A   1      36.394  33.269  30.495  1.00  0.00    -0.014 A 
BRANCH  12  13
ATOM     13  C   UNL A   1      37.599  32.648  31.101  1.00  0.00     0.031 A 
ATOM     14  C   UNL A   1      38.132  33.098  32.434  1.00  0.00     0.074 A 
ATOM     15  C   UNL A   1      38.174  31.610  30.463  1.00  0.00     0.049 A 
ATOM     16  N   UNL A   1      39.120  32.596  33.134  1.00  0.00    -0.248 NA
ATOM     17  C   UNL A   1      37.485  34.261  33.062  1.00  0.00     0.031 C 
ATOM     18  C   UNL A   1      37.758  31.089  29.157  1.00  0.00     0.029 A 
ATOM     19  N   UNL A   1      39.203  30.784  30.838  1.00  0.00    -0.354 N 
ATOM     20  C   UNL A   1      39.220  33.385  34.274  1.00  0.00     0.074 A 
ATOM     21  C   UNL A   1      38.212  34.416  34.161  1.00  0.00     0.031 C 
ATOM     22  C   UNL A   1      38.476  29.994  28.873  1.00  0.00     0.029 A 
ATOM     23  C   UNL A   1      39.441  29.770  29.942  1.00  0.00     0.049 A 
ATOM     24  H   UNL A   1      39.719  30.906  31.666  1.00  0.00     0.167 HD
ATOM     25  C   UNL A   1      40.069  33.255  35.323  1.00  0.00     0.031 A 
ATOM     26  C   UNL A   1      40.339  28.769  29.971  1.00  0.00     0.031 A 
ATOM     27  C   UNL A   1      41.075  32.230  35.437  1.00  0.00     0.049 A 
ATOM     28  C   UNL A   1      41.267  28.654  31.142  1.00  0.00     0.074 A 
ATOM     29  C   UNL A   1      41.979  32.018  36.465  1.00  0.00     0.029 A 
ATOM     30  N   UNL A   1      41.306  31.243  34.493  1.00  0.00    -0.354 N 
ATOM     31  N   UNL A   1      41.333  29.400  32.217  1.00  0.00    -0.248 NA
ATOM     32  C   UNL A   1      42.243  27.557  31.103  1.00  0.00     0.031 C 
ATOM     33  C   UNL A   1      42.783  30.925  36.123  1.00  0.00     0.029 A 
ATOM     34  C   UNL A   1      42.348  30.427  34.907  1.00  0.00     0.049 A 
ATOM     35  H   UNL A   1      40.806  31.137  33.651  1.00  0.00     0.167 HD
ATOM     36  C   UNL A   1      42.355  28.861  32.985  1.00  0.00     0.074 A 
ATOM     37  C   UNL A   1      42.856  27.706  32.269  1.00  0.00     0.031 C 
ATOM     38  C   UNL A   1      42.842  29.291  34.175  1.00  0.00     0.031 A 
BRANCH  25  39
ATOM     39  C   UNL A   1      39.958  34.261  36.436  1.00  0.00    -0.014 A 
ATOM     40  C   UNL A   1      40.639  35.486  36.377  1.00  0.00     0.009 A 
ATOM     41  C   UNL A   1      39.115  34.005  37.529  1.00  0.00     0.009 A 
ATOM     42  C   UNL A   1      40.498  36.425  37.402  1.00  0.00     0.001 A 
ATOM     43  C   UNL A   1      38.956  34.954  38.540  1.00  0.00     0.001 A 
ATOM     44  C   UNL A   1      39.653  36.160  38.480  1.00  0.00     0.000 A 
ENDBRANCH  25  39
BRANCH  26  45
ATOM     45  C   UNL A   1      40.406  27.807  28.842  1.00  0.00    -0.014 A 
ATOM     46  C   UNL A   1      41.225  28.056  27.732  1.00  0.00     0.009 A 
ATOM     47  C   UNL A   1      39.653  26.621  28.881  1.00  0.00     0.009 A 
ATOM     48  C   UNL A   1      41.273  27.147  26.672  1.00  0.00     0.001 A 
ATOM     49  C   UNL A   1      39.725  25.702  27.835  1.00  0.00     0.001 A 
ATOM     50  C   UNL A   1      40.528  25.969  26.727  1.00  0.00     0.000 A 
ENDBRANCH  26  45
BRANCH  38  51
ATOM     51  C   UNL A   1      43.967  28.495  34.769  1.00  0.00    -0.014 A 
ATOM     52  C   UNL A   1      45.306  28.820  34.496  1.00  0.00     0.009 A 
ATOM     53  C   UNL A   1      43.685  27.412  35.615  1.00  0.00     0.009 A 
ATOM     54  C   UNL A   1      46.340  28.048  35.027  1.00  0.00     0.001 A 
ATOM     55  C   UNL A   1      44.723  26.658  36.165  1.00  0.00     0.001 A 
ATOM     56  C   UNL A   1      46.048  26.969  35.862  1.00  0.00     0.000 A 
ENDBRANCH  38  51
ENDBRANCH  12  13
ENDBRANCH   5   7
ENDBRANCH   2   3
ENDBRANCH   1   2
BRANCH   1  57
ATOM     57  C   UNL A   1      31.667  30.798  25.937  1.00  0.00     0.023 C 
BRANCH  57  58
ATOM     58  C   UNL A   1      31.804  29.615  26.893  1.00  0.00     0.116 C 
BRANCH  58  59
ATOM     59  N   UNL A   1      32.804  28.655  26.457  1.00  0.00    -0.352 N 
ATOM     60  C   UNL A   1      32.675  27.577  25.622  1.00  0.00     0.253 C 
ATOM     61  H   UNL A   1      33.710  28.803  26.813  1.00  0.00     0.163 HD
ATOM     62  O   UNL A   1      33.621  26.810  25.466  1.00  0.00    -0.269 OA
BRANCH  60  63
ATOM     63  C   UNL A   1      31.409  27.322  24.906  1.00  0.00     0.063 A 
ATOM     64  C   UNL A   1      31.150  28.156  23.808  1.00  0.00     0.016 A 
ATOM     65  C   UNL A   1      30.480  26.341  25.310  1.00  0.00     0.054 A 
ATOM     66  C   UNL A   1      29.966  28.015  23.090  1.00  0.00     0.001 A 
ATOM     67  C   UNL A   1      29.270  26.265  24.613  1.00  0.00     0.027 A 
ATOM     68  C   UNL A   1      29.024  27.078  23.501  1.00  0.00     0.002 A 
BRANCH  65  69
ATOM     69  N   UNL A   1      30.785  25.505  26.409  1.00  0.00    -0.321 N 
ATOM     70  C   UNL A   1      31.361  24.261  26.515  1.00  0.00     0.255 C 
ATOM     71  H   UNL A   1      30.534  25.895  27.277  1.00  0.00     0.170 HD
ATOM     72  O   UNL A   1      31.403  23.703  27.611  1.00  0.00    -0.269 OA
BRANCH  70  73
ATOM     73  C   UNL A   1      32.003  23.588  25.373  1.00  0.00     0.043 A 
ATOM     74  C   UNL A   1      31.270  23.183  24.257  1.00  0.00     0.034 A 
ATOM     75  C   UNL A   1      33.380  23.393  25.418  1.00  0.00     0.034 A 
ATOM     76  C   UNL A   1      31.951  22.514  23.258  1.00  0.00     0.112 A 
ATOM     77  C   UNL A   1      33.967  22.722  24.363  1.00  0.00     0.112 A 
ATOM     78  N   UNL A   1      33.278  22.264  23.295  1.00  0.00    -0.265 NA
ENDBRANCH  70  73
ENDBRANCH  65  69
ENDBRANCH  60  63
ENDBRANCH  58  59
ENDBRANCH  57  58
ENDBRANCH   1  57
TORSDOF 13
ENDMDL
