MODEL 1
REMARK VINA RESULT:     -11.5      0.000      0.000
REMARK SMILES CCn1c(C)cc(/C=C(/C(=O)NCCCCNC(=O)c2ccc(-c3c4nc(c(-c5ccccc5)c5ccc([nH]5)c(-c5ccccc5)c5nc(c(-c6ccccc6)c6ccc3[nH]6)C=C5)C=C4)cc2)c2ccccc2)c1C
REMARK SMILES IDX 14 1 13 2 12 3 10 4 11 5 9 7 8 8 7 9 3 10 4 11 74 12 5 13
REMARK SMILES IDX 6 14 75 15 2 16 1 17 68 18 69 19 73 20 70 21 72 22 71 23
REMARK SMILES IDX 15 24 16 25 17 26 18 27 19 29 20 30 21 31 67 32 22 33 66 34
REMARK SMILES IDX 23 35 24 36 25 37 60 38 26 39 65 40 59 41 61 42 27 43 64 44
REMARK SMILES IDX 58 45 57 46 28 48 50 49 35 50 49 51 36 52 39 53 48 54 62 55
REMARK SMILES IDX 37 56 38 57 47 59 63 60 40 61 29 62 30 63 34 64 31 65 33 66
REMARK SMILES IDX 32 67 51 68 52 69 56 70 53 71 55 72 54 73 41 74 42 75 46 76
REMARK SMILES IDX 43 77 45 78 44 79
REMARK H PARENT 12 6 17 28 61 47 39 58
REMARK Flexibility Score: inf
ROOT
ATOM      1  C   UNL A   1      34.685  30.617  27.688  1.00  0.00     0.023 C 
ENDROOT
BRANCH   1   2
ATOM      2  C   UNL A   1      33.611  30.143  26.696  1.00  0.00     0.116 C 
BRANCH   2   3
ATOM      3  N   UNL A   1      32.542  29.448  27.390  1.00  0.00    -0.352 N 
ATOM      4  C   UNL A   1      31.867  28.282  27.304  1.00  0.00     0.251 C 
ATOM      5  O   UNL A   1      31.061  28.112  28.229  1.00  0.00    -0.269 OA
ATOM      6  H   UNL A   1      32.212  29.984  28.146  1.00  0.00     0.163 HD
BRANCH   4   7
ATOM      7  C   UNL A   1      32.044  27.196  26.262  1.00  0.00     0.047 C 
ATOM      8  C   UNL A   1      32.893  26.160  26.440  1.00  0.00     0.024 C 
BRANCH   8   9
ATOM      9  C   UNL A   1      33.329  25.012  25.669  1.00  0.00    -0.004 A 
ATOM     10  N   UNL A   1      33.647  23.122  24.484  1.00  0.00    -0.349 N 
ATOM     11  C   UNL A   1      34.828  23.822  24.406  1.00  0.00     0.015 A 
ATOM     12  C   UNL A   1      32.770  23.775  25.346  1.00  0.00     0.022 A 
ATOM     13  C   UNL A   1      36.046  23.323  23.714  1.00  0.00     0.064 C 
ATOM     14  C   UNL A   1      34.631  25.010  25.075  1.00  0.00     0.031 A 
ATOM     15  C   UNL A   1      31.501  23.107  25.743  1.00  0.00     0.065 C 
BRANCH  10  16
ATOM     16  C   UNL A   1      33.381  21.857  23.804  1.00  0.00     0.118 C 
ATOM     17  C   UNL A   1      33.817  20.638  24.608  1.00  0.00     0.027 C 
ENDBRANCH  10  16
ENDBRANCH   8   9
BRANCH   7  18
ATOM     18  C   UNL A   1      31.372  27.499  24.981  1.00  0.00    -0.013 A 
ATOM     19  C   UNL A   1      31.954  28.443  24.115  1.00  0.00     0.009 A 
ATOM     20  C   UNL A   1      30.139  26.932  24.644  1.00  0.00     0.009 A 
ATOM     21  C   UNL A   1      31.347  28.760  22.900  1.00  0.00     0.001 A 
ATOM     22  C   UNL A   1      29.542  27.240  23.416  1.00  0.00     0.001 A 
ATOM     23  C   UNL A   1      30.151  28.142  22.542  1.00  0.00     0.000 A 
ENDBRANCH   7  18
ENDBRANCH   4   7
ENDBRANCH   2   3
ENDBRANCH   1   2
BRANCH   1  24
ATOM     24  C   UNL A   1      34.526  32.044  28.257  1.00  0.00     0.023 C 
BRANCH  24  25
ATOM     25  C   UNL A   1      34.683  32.244  29.771  1.00  0.00     0.116 C 
BRANCH  25  26
ATOM     26  N   UNL A   1      35.878  32.957  30.155  1.00  0.00    -0.352 N 
ATOM     27  C   UNL A   1      37.187  32.545  30.007  1.00  0.00     0.251 C 
ATOM     28  H   UNL A   1      35.743  33.839  30.572  1.00  0.00     0.163 HD
ATOM     29  O   UNL A   1      38.093  33.323  30.281  1.00  0.00    -0.269 OA
BRANCH  27  30
ATOM     30  C   UNL A   1      37.516  31.158  29.555  1.00  0.00     0.039 A 
ATOM     31  C   UNL A   1      37.431  30.109  30.462  1.00  0.00     0.014 A 
ATOM     32  C   UNL A   1      38.147  30.926  28.322  1.00  0.00     0.014 A 
ATOM     33  C   UNL A   1      37.986  28.854  30.137  1.00  0.00     0.010 A 
ATOM     34  C   UNL A   1      38.749  29.669  28.015  1.00  0.00     0.010 A 
ATOM     35  C   UNL A   1      38.726  28.615  28.939  1.00  0.00    -0.014 A 
BRANCH  35  36
ATOM     36  C   UNL A   1      39.814  27.544  29.027  1.00  0.00     0.031 A 
ATOM     37  C   UNL A   1      40.842  28.051  29.978  1.00  0.00     0.074 A 
ATOM     38  C   UNL A   1      40.138  26.350  28.441  1.00  0.00     0.049 A 
ATOM     39  N   UNL A   1      41.462  29.181  29.806  1.00  0.00    -0.248 NA
ATOM     40  C   UNL A   1      41.018  27.431  31.292  1.00  0.00     0.031 C 
ATOM     41  C   UNL A   1      39.411  25.610  27.408  1.00  0.00     0.029 A 
ATOM     42  N   UNL A   1      41.233  25.502  28.679  1.00  0.00    -0.354 N 
ATOM     43  C   UNL A   1      42.322  29.283  30.871  1.00  0.00     0.074 A 
ATOM     44  C   UNL A   1      41.869  28.300  31.839  1.00  0.00     0.031 C 
ATOM     45  C   UNL A   1      40.004  24.404  27.183  1.00  0.00     0.029 A 
ATOM     46  C   UNL A   1      41.197  24.263  28.009  1.00  0.00     0.049 A 
ATOM     47  H   UNL A   1      41.975  25.755  29.274  1.00  0.00     0.167 HD
ATOM     48  C   UNL A   1      43.583  29.755  30.680  1.00  0.00     0.031 A 
ATOM     49  C   UNL A   1      42.074  23.213  28.079  1.00  0.00     0.031 A 
ATOM     50  C   UNL A   1      44.595  28.786  30.999  1.00  0.00     0.049 A 
ATOM     51  C   UNL A   1      43.329  23.638  28.726  1.00  0.00     0.074 A 
ATOM     52  C   UNL A   1      44.871  27.950  32.061  1.00  0.00     0.029 A 
ATOM     53  N   UNL A   1      45.276  28.265  29.918  1.00  0.00    -0.354 N 
ATOM     54  N   UNL A   1      44.258  24.260  28.070  1.00  0.00    -0.248 NA
ATOM     55  C   UNL A   1      43.663  23.299  30.105  1.00  0.00     0.031 C 
ATOM     56  C   UNL A   1      45.323  26.728  31.485  1.00  0.00     0.029 A 
ATOM     57  C   UNL A   1      45.437  26.907  30.111  1.00  0.00     0.049 A 
ATOM     58  H   UNL A   1      45.594  28.776  29.138  1.00  0.00     0.167 HD
ATOM     59  C   UNL A   1      45.047  24.793  29.047  1.00  0.00     0.074 A 
ATOM     60  C   UNL A   1      44.807  23.978  30.219  1.00  0.00     0.031 C 
ATOM     61  C   UNL A   1      45.453  26.081  28.925  1.00  0.00     0.031 A 
BRANCH  48  62
ATOM     62  C   UNL A   1      43.766  30.795  29.613  1.00  0.00    -0.014 A 
ATOM     63  C   UNL A   1      43.629  32.147  29.947  1.00  0.00     0.009 A 
ATOM     64  C   UNL A   1      44.027  30.459  28.270  1.00  0.00     0.009 A 
ATOM     65  C   UNL A   1      43.695  33.131  28.955  1.00  0.00     0.001 A 
ATOM     66  C   UNL A   1      44.073  31.438  27.279  1.00  0.00     0.001 A 
ATOM     67  C   UNL A   1      43.898  32.775  27.620  1.00  0.00     0.000 A 
ENDBRANCH  48  62
BRANCH  49  68
ATOM     68  C   UNL A   1      42.187  21.802  27.579  1.00  0.00    -0.014 A 
ATOM     69  C   UNL A   1      41.052  20.951  27.701  1.00  0.00     0.009 A 
ATOM     70  C   UNL A   1      43.165  21.418  26.658  1.00  0.00     0.009 A 
ATOM     71  C   UNL A   1      40.843  19.851  26.863  1.00  0.00     0.001 A 
ATOM     72  C   UNL A   1      42.969  20.287  25.837  1.00  0.00     0.001 A 
ATOM     73  C   UNL A   1      41.799  19.529  25.914  1.00  0.00     0.000 A 
ENDBRANCH  49  68
BRANCH  61  74
ATOM     74  C   UNL A   1      45.559  26.649  27.512  1.00  0.00    -0.014 A 
ATOM     75  C   UNL A   1      44.465  27.144  26.764  1.00  0.00     0.009 A 
ATOM     76  C   UNL A   1      46.815  26.683  26.893  1.00  0.00     0.009 A 
ATOM     77  C   UNL A   1      44.599  27.543  25.431  1.00  0.00     0.001 A 
ATOM     78  C   UNL A   1      46.962  27.139  25.576  1.00  0.00     0.001 A 
ATOM     79  C   UNL A   1      45.851  27.541  24.836  1.00  0.00     0.000 A 
ENDBRANCH  61  74
ENDBRANCH  35  36
ENDBRANCH  27  30
ENDBRANCH  25  26
ENDBRANCH  24  25
ENDBRANCH   1  24
TORSDOF 14
ENDMDL
MODEL 2
REMARK VINA RESULT:     -11.4      3.247      8.540
REMARK SMILES CCn1c(C)cc(/C=C(/C(=O)NCCCCNC(=O)c2ccc(-c3c4nc(c(-c5ccccc5)c5ccc([nH]5)c(-c5ccccc5)c5nc(c(-c6ccccc6)c6ccc3[nH]6)C=C5)C=C4)cc2)c2ccccc2)c1C
REMARK SMILES IDX 14 1 13 2 12 3 10 4 11 5 9 7 8 8 7 9 3 10 4 11 74 12 5 13
REMARK SMILES IDX 6 14 75 15 2 16 1 17 68 18 69 19 73 20 70 21 72 22 71 23
REMARK SMILES IDX 15 24 16 25 17 26 18 27 19 29 20 30 21 31 67 32 22 33 66 34
REMARK SMILES IDX 23 35 24 36 25 37 60 38 26 39 65 40 59 41 61 42 27 43 64 44
REMARK SMILES IDX 58 45 57 46 28 48 50 49 35 50 49 51 36 52 39 53 48 54 62 55
REMARK SMILES IDX 37 56 38 57 47 59 63 60 40 61 29 62 30 63 34 64 31 65 33 66
REMARK SMILES IDX 32 67 51 68 52 69 56 70 53 71 55 72 54 73 41 74 42 75 46 76
REMARK SMILES IDX 43 77 45 78 44 79
REMARK H PARENT 12 6 17 28 61 47 39 58
REMARK Flexibility Score: inf
ROOT
ATOM      1  C   UNL A   1      34.726  23.089  25.183  1.00  0.00     0.023 C 
ENDROOT
BRANCH   1   2
ATOM      2  C   UNL A   1      33.546  23.985  24.775  1.00  0.00     0.116 C 
BRANCH   2   3
ATOM      3  N   UNL A   1      33.814  24.642  23.508  1.00  0.00    -0.352 N 
ATOM      4  C   UNL A   1      33.405  25.731  22.824  1.00  0.00     0.251 C 
ATOM      5  O   UNL A   1      34.028  25.911  21.768  1.00  0.00    -0.269 OA
ATOM      6  H   UNL A   1      34.496  24.148  22.998  1.00  0.00     0.163 HD
BRANCH   4   7
ATOM      7  C   UNL A   1      32.346  26.731  23.242  1.00  0.00     0.047 C 
ATOM      8  C   UNL A   1      31.409  27.186  22.382  1.00  0.00     0.024 C 
BRANCH   8   9
ATOM      9  C   UNL A   1      30.316  28.139  22.424  1.00  0.00    -0.004 A 
ATOM     10  N   UNL A   1      28.481  29.402  22.764  1.00  0.00    -0.349 N 
ATOM     11  C   UNL A   1      29.281  30.118  21.906  1.00  0.00     0.015 A 
ATOM     12  C   UNL A   1      29.041  28.147  22.992  1.00  0.00     0.022 A 
ATOM     13  C   UNL A   1      28.900  31.428  21.314  1.00  0.00     0.064 C 
ATOM     14  C   UNL A   1      30.436  29.388  21.735  1.00  0.00     0.031 A 
ATOM     15  C   UNL A   1      28.259  27.121  23.732  1.00  0.00     0.065 C 
BRANCH  10  16
ATOM     16  C   UNL A   1      27.209  29.872  23.308  1.00  0.00     0.118 C 
ATOM     17  C   UNL A   1      27.283  31.284  23.879  1.00  0.00     0.027 C 
ENDBRANCH  10  16
ENDBRANCH   8   9
BRANCH   7  18
ATOM     18  C   UNL A   1      32.576  27.300  24.586  1.00  0.00    -0.013 A 
ATOM     19  C   UNL A   1      31.589  27.129  25.574  1.00  0.00     0.009 A 
ATOM     20  C   UNL A   1      33.708  28.067  24.877  1.00  0.00     0.009 A 
ATOM     21  C   UNL A   1      31.767  27.656  26.853  1.00  0.00     0.001 A 
ATOM     22  C   UNL A   1      33.892  28.579  26.166  1.00  0.00     0.001 A 
ATOM     23  C   UNL A   1      32.929  28.363  27.154  1.00  0.00     0.000 A 
ENDBRANCH   7  18
ENDBRANCH   4   7
ENDBRANCH   2   3
ENDBRANCH   1   2
BRANCH   1  24
ATOM     24  C   UNL A   1      35.714  23.669  26.221  1.00  0.00     0.023 C 
BRANCH  24  25
ATOM     25  C   UNL A   1      37.113  24.080  25.741  1.00  0.00     0.116 C 
BRANCH  25  26
ATOM     26  N   UNL A   1      38.098  23.027  25.812  1.00  0.00    -0.352 N 
ATOM     27  C   UNL A   1      39.295  23.041  26.499  1.00  0.00     0.251 C 
ATOM     28  H   UNL A   1      37.892  22.205  25.311  1.00  0.00     0.163 HD
ATOM     29  O   UNL A   1      39.967  22.018  26.551  1.00  0.00    -0.269 OA
BRANCH  27  30
ATOM     30  C   UNL A   1      39.802  24.290  27.147  1.00  0.00     0.039 A 
ATOM     31  C   UNL A   1      39.278  24.682  28.372  1.00  0.00     0.014 A 
ATOM     32  C   UNL A   1      40.600  25.203  26.439  1.00  0.00     0.014 A 
ATOM     33  C   UNL A   1      39.541  25.976  28.867  1.00  0.00     0.010 A 
ATOM     34  C   UNL A   1      40.826  26.528  26.919  1.00  0.00     0.010 A 
ATOM     35  C   UNL A   1      40.259  26.963  28.125  1.00  0.00    -0.014 A 
BRANCH  35  36
ATOM     36  C   UNL A   1      39.876  28.417  28.403  1.00  0.00     0.031 A 
ATOM     37  C   UNL A   1      41.102  29.098  28.903  1.00  0.00     0.074 A 
ATOM     38  C   UNL A   1      38.760  29.210  28.407  1.00  0.00     0.049 A 
ATOM     39  N   UNL A   1      41.755  28.690  29.952  1.00  0.00    -0.248 NA
ATOM     40  C   UNL A   1      41.788  30.102  28.088  1.00  0.00     0.031 C 
ATOM     41  C   UNL A   1      37.381  28.851  28.066  1.00  0.00     0.029 A 
ATOM     42  N   UNL A   1      38.629  30.575  28.713  1.00  0.00    -0.354 N 
ATOM     43  C   UNL A   1      42.798  29.572  30.089  1.00  0.00     0.074 A 
ATOM     44  C   UNL A   1      42.885  30.280  28.825  1.00  0.00     0.031 C 
ATOM     45  C   UNL A   1      36.586  29.957  28.079  1.00  0.00     0.029 A 
ATOM     46  C   UNL A   1      37.357  31.131  28.474  1.00  0.00     0.049 A 
ATOM     47  H   UNL A   1      39.376  31.108  29.070  1.00  0.00     0.167 HD
ATOM     48  C   UNL A   1      43.153  30.013  31.325  1.00  0.00     0.031 A 
ATOM     49  C   UNL A   1      36.935  32.426  28.615  1.00  0.00     0.031 A 
ATOM     50  C   UNL A   1      42.999  31.434  31.476  1.00  0.00     0.049 A 
ATOM     51  C   UNL A   1      37.915  33.200  29.400  1.00  0.00     0.074 A 
ATOM     52  C   UNL A   1      43.376  32.554  30.765  1.00  0.00     0.029 A 
ATOM     53  N   UNL A   1      41.962  31.832  32.294  1.00  0.00    -0.354 N 
ATOM     54  N   UNL A   1      37.939  33.155  30.695  1.00  0.00    -0.248 NA
ATOM     55  C   UNL A   1      38.847  34.144  28.793  1.00  0.00     0.031 C 
ATOM     56  C   UNL A   1      42.272  33.452  30.846  1.00  0.00     0.029 A 
ATOM     57  C   UNL A   1      41.327  32.909  31.708  1.00  0.00     0.049 A 
ATOM     58  H   UNL A   1      41.715  31.418  33.152  1.00  0.00     0.167 HD
ATOM     59  C   UNL A   1      39.160  33.672  31.018  1.00  0.00     0.074 A 
ATOM     60  C   UNL A   1      39.544  34.482  29.881  1.00  0.00     0.031 C 
ATOM     61  C   UNL A   1      39.908  33.038  31.954  1.00  0.00     0.031 A 
BRANCH  48  62
ATOM     62  C   UNL A   1      42.976  29.054  32.467  1.00  0.00    -0.014 A 
ATOM     63  C   UNL A   1      44.095  28.387  32.978  1.00  0.00     0.009 A 
ATOM     64  C   UNL A   1      41.713  28.764  33.018  1.00  0.00     0.009 A 
ATOM     65  C   UNL A   1      43.945  27.415  33.973  1.00  0.00     0.001 A 
ATOM     66  C   UNL A   1      41.562  27.781  33.996  1.00  0.00     0.001 A 
ATOM     67  C   UNL A   1      42.678  27.100  34.467  1.00  0.00     0.000 A 
ENDBRANCH  48  62
BRANCH  49  68
ATOM     68  C   UNL A   1      35.718  33.256  28.322  1.00  0.00    -0.014 A 
ATOM     69  C   UNL A   1      34.564  32.600  27.807  1.00  0.00     0.009 A 
ATOM     70  C   UNL A   1      35.524  34.515  28.896  1.00  0.00     0.009 A 
ATOM     71  C   UNL A   1      33.273  33.112  27.972  1.00  0.00     0.001 A 
ATOM     72  C   UNL A   1      34.223  35.046  29.029  1.00  0.00     0.001 A 
ATOM     73  C   UNL A   1      33.101  34.333  28.602  1.00  0.00     0.000 A 
ENDBRANCH  49  68
BRANCH  61  74
ATOM     74  C   UNL A   1      39.164  32.216  33.004  1.00  0.00    -0.014 A 
ATOM     75  C   UNL A   1      38.783  32.700  34.276  1.00  0.00     0.009 A 
ATOM     76  C   UNL A   1      38.838  30.886  32.709  1.00  0.00     0.009 A 
ATOM     77  C   UNL A   1      38.209  31.870  35.244  1.00  0.00     0.001 A 
ATOM     78  C   UNL A   1      38.208  30.067  33.657  1.00  0.00     0.001 A 
ATOM     79  C   UNL A   1      37.921  30.550  34.932  1.00  0.00     0.000 A 
ENDBRANCH  61  74
ENDBRANCH  35  36
ENDBRANCH  27  30
ENDBRANCH  25  26
ENDBRANCH  24  25
ENDBRANCH   1  24
TORSDOF 14
ENDMDL
MODEL 3
REMARK VINA RESULT:     -11.3      2.860      8.643
REMARK SMILES CCn1c(C)cc(/C=C(/C(=O)NCCCCNC(=O)c2ccc(-c3c4nc(c(-c5ccccc5)c5ccc([nH]5)c(-c5ccccc5)c5nc(c(-c6ccccc6)c6ccc3[nH]6)C=C5)C=C4)cc2)c2ccccc2)c1C
REMARK SMILES IDX 14 1 13 2 12 3 10 4 11 5 9 7 8 8 7 9 3 10 4 11 74 12 5 13
REMARK SMILES IDX 6 14 75 15 2 16 1 17 68 18 69 19 73 20 70 21 72 22 71 23
REMARK SMILES IDX 15 24 16 25 17 26 18 27 19 29 20 30 21 31 67 32 22 33 66 34
REMARK SMILES IDX 23 35 24 36 25 37 60 38 26 39 65 40 59 41 61 42 27 43 64 44
REMARK SMILES IDX 58 45 57 46 28 48 50 49 35 50 49 51 36 52 39 53 48 54 62 55
REMARK SMILES IDX 37 56 38 57 47 59 63 60 40 61 29 62 30 63 34 64 31 65 33 66
REMARK SMILES IDX 32 67 51 68 52 69 56 70 53 71 55 72 54 73 41 74 42 75 46 76
REMARK SMILES IDX 43 77 45 78 44 79
REMARK H PARENT 12 6 17 28 61 47 39 58
REMARK Flexibility Score: inf
ROOT
ATOM      1  C   UNL A   1      38.846  22.818  26.354  1.00  0.00     0.023 C 
ENDROOT
BRANCH   1   2
ATOM      2  C   UNL A   1      37.497  22.269  25.862  1.00  0.00     0.116 C 
BRANCH   2   3
ATOM      3  N   UNL A   1      37.345  22.482  24.434  1.00  0.00    -0.352 N 
ATOM      4  C   UNL A   1      36.425  22.967  23.573  1.00  0.00     0.251 C 
ATOM      5  O   UNL A   1      36.825  23.012  22.402  1.00  0.00    -0.269 OA
ATOM      6  H   UNL A   1      38.150  22.186  23.951  1.00  0.00     0.163 HD
BRANCH   4   7
ATOM      7  C   UNL A   1      35.042  23.488  23.908  1.00  0.00     0.047 C 
ATOM      8  C   UNL A   1      34.779  24.808  24.020  1.00  0.00     0.024 C 
BRANCH   8   9
ATOM      9  C   UNL A   1      33.631  25.628  24.357  1.00  0.00    -0.004 A 
ATOM     10  N   UNL A   1      31.728  26.821  24.533  1.00  0.00    -0.349 N 
ATOM     11  C   UNL A   1      32.274  26.791  25.794  1.00  0.00     0.015 A 
ATOM     12  C   UNL A   1      32.600  26.223  23.628  1.00  0.00     0.022 A 
ATOM     13  C   UNL A   1      31.692  27.493  26.969  1.00  0.00     0.064 C 
ATOM     14  C   UNL A   1      33.408  26.012  25.717  1.00  0.00     0.031 A 
ATOM     15  C   UNL A   1      32.316  26.310  22.170  1.00  0.00     0.065 C 
BRANCH  10  16
ATOM     16  C   UNL A   1      30.448  27.439  24.193  1.00  0.00     0.118 C 
ATOM     17  C   UNL A   1      29.277  26.464  24.242  1.00  0.00     0.027 C 
ENDBRANCH  10  16
ENDBRANCH   8   9
BRANCH   7  18
ATOM     18  C   UNL A   1      34.095  22.423  24.300  1.00  0.00    -0.013 A 
ATOM     19  C   UNL A   1      33.342  21.781  23.300  1.00  0.00     0.009 A 
ATOM     20  C   UNL A   1      33.871  22.095  25.641  1.00  0.00     0.009 A 
ATOM     21  C   UNL A   1      32.434  20.775  23.631  1.00  0.00     0.001 A 
ATOM     22  C   UNL A   1      32.971  21.073  25.967  1.00  0.00     0.001 A 
ATOM     23  C   UNL A   1      32.265  20.408  24.964  1.00  0.00     0.000 A 
ENDBRANCH   7  18
ENDBRANCH   4   7
ENDBRANCH   2   3
ENDBRANCH   1   2
BRANCH   1  24
ATOM     24  C   UNL A   1      40.082  21.915  26.146  1.00  0.00     0.023 C 
BRANCH  24  25
ATOM     25  C   UNL A   1      41.153  21.885  27.245  1.00  0.00     0.116 C 
BRANCH  25  26
ATOM     26  N   UNL A   1      42.384  22.550  26.893  1.00  0.00    -0.352 N 
ATOM     27  C   UNL A   1      42.646  23.906  26.923  1.00  0.00     0.251 C 
ATOM     28  H   UNL A   1      43.123  21.971  26.596  1.00  0.00     0.163 HD
ATOM     29  O   UNL A   1      43.785  24.299  26.703  1.00  0.00    -0.269 OA
BRANCH  27  30
ATOM     30  C   UNL A   1      41.559  24.899  27.183  1.00  0.00     0.039 A 
ATOM     31  C   UNL A   1      41.322  25.906  26.256  1.00  0.00     0.014 A 
ATOM     32  C   UNL A   1      40.947  24.993  28.443  1.00  0.00     0.014 A 
ATOM     33  C   UNL A   1      40.496  26.996  26.600  1.00  0.00     0.010 A 
ATOM     34  C   UNL A   1      40.149  26.120  28.805  1.00  0.00     0.010 A 
ATOM     35  C   UNL A   1      39.945  27.176  27.905  1.00  0.00    -0.014 A 
BRANCH  35  36
ATOM     36  C   UNL A   1      39.713  28.623  28.340  1.00  0.00     0.031 A 
ATOM     37  C   UNL A   1      41.040  29.178  28.723  1.00  0.00     0.074 A 
ATOM     38  C   UNL A   1      38.669  29.484  28.550  1.00  0.00     0.049 A 
ATOM     39  N   UNL A   1      41.787  28.641  29.644  1.00  0.00    -0.248 NA
ATOM     40  C   UNL A   1      41.692  30.199  27.903  1.00  0.00     0.031 C 
ATOM     41  C   UNL A   1      37.236  29.247  28.368  1.00  0.00     0.029 A 
ATOM     42  N   UNL A   1      38.682  30.824  28.972  1.00  0.00    -0.354 N 
ATOM     43  C   UNL A   1      42.903  29.437  29.708  1.00  0.00     0.074 A 
ATOM     44  C   UNL A   1      42.884  30.242  28.500  1.00  0.00     0.031 C 
ATOM     45  C   UNL A   1      36.535  30.398  28.568  1.00  0.00     0.029 A 
ATOM     46  C   UNL A   1      37.436  31.481  28.945  1.00  0.00     0.049 A 
ATOM     47  H   UNL A   1      39.506  31.275  29.267  1.00  0.00     0.167 HD
ATOM     48  C   UNL A   1      43.444  29.748  30.916  1.00  0.00     0.031 A 
ATOM     49  C   UNL A   1      37.135  32.785  29.238  1.00  0.00     0.031 A 
ATOM     50  C   UNL A   1      43.418  31.158  31.192  1.00  0.00     0.049 A 
ATOM     51  C   UNL A   1      38.263  33.423  29.942  1.00  0.00     0.074 A 
ATOM     52  C   UNL A   1      43.787  32.307  30.525  1.00  0.00     0.029 A 
ATOM     53  N   UNL A   1      42.526  31.554  32.167  1.00  0.00    -0.354 N 
ATOM     54  N   UNL A   1      38.445  33.268  31.216  1.00  0.00    -0.248 NA
ATOM     55  C   UNL A   1      39.180  34.352  29.291  1.00  0.00     0.031 C 
ATOM     56  C   UNL A   1      42.773  33.266  30.817  1.00  0.00     0.029 A 
ATOM     57  C   UNL A   1      41.905  32.715  31.753  1.00  0.00     0.049 A 
ATOM     58  H   UNL A   1      42.358  31.085  33.017  1.00  0.00     0.167 HD
ATOM     59  C   UNL A   1      39.733  33.674  31.413  1.00  0.00     0.074 A 
ATOM     60  C   UNL A   1      40.032  34.551  30.300  1.00  0.00     0.031 C 
ATOM     61  C   UNL A   1      40.543  32.916  32.192  1.00  0.00     0.031 A 
BRANCH  48  62
ATOM     62  C   UNL A   1      43.339  28.710  31.996  1.00  0.00    -0.014 A 
ATOM     63  C   UNL A   1      44.319  27.715  32.083  1.00  0.00     0.009 A 
ATOM     64  C   UNL A   1      42.263  28.673  32.903  1.00  0.00     0.009 A 
ATOM     65  C   UNL A   1      44.193  26.678  33.015  1.00  0.00     0.001 A 
ATOM     66  C   UNL A   1      42.127  27.629  33.818  1.00  0.00     0.001 A 
ATOM     67  C   UNL A   1      43.089  26.626  33.868  1.00  0.00     0.000 A 
ENDBRANCH  48  62
BRANCH  49  68
ATOM     68  C   UNL A   1      35.958  33.714  29.171  1.00  0.00    -0.014 A 
ATOM     69  C   UNL A   1      35.213  33.771  27.959  1.00  0.00     0.009 A 
ATOM     70  C   UNL A   1      35.328  34.196  30.321  1.00  0.00     0.009 A 
ATOM     71  C   UNL A   1      33.871  34.164  27.920  1.00  0.00     0.001 A 
ATOM     72  C   UNL A   1      33.985  34.626  30.273  1.00  0.00     0.001 A 
ATOM     73  C   UNL A   1      33.249  34.577  29.087  1.00  0.00     0.000 A 
ENDBRANCH  49  68
BRANCH  61  74
ATOM     74  C   UNL A   1      39.877  32.059  33.266  1.00  0.00    -0.014 A 
ATOM     75  C   UNL A   1      39.242  30.820  33.022  1.00  0.00     0.009 A 
ATOM     76  C   UNL A   1      39.875  32.521  34.589  1.00  0.00     0.009 A 
ATOM     77  C   UNL A   1      38.545  30.134  34.021  1.00  0.00     0.001 A 
ATOM     78  C   UNL A   1      39.228  31.805  35.605  1.00  0.00     0.001 A 
ATOM     79  C   UNL A   1      38.539  30.628  35.317  1.00  0.00     0.000 A 
ENDBRANCH  61  74
ENDBRANCH  35  36
ENDBRANCH  27  30
ENDBRANCH  25  26
ENDBRANCH  24  25
ENDBRANCH   1  24
TORSDOF 14
ENDMDL
