MODEL 1
REMARK VINA RESULT:     -10.3      0.000      0.000
REMARK SMILES O=C(C[NH2+][C@H]1CC[C@@H]([N@H+](Cc2ccccc2)C2CC2)CC1)NCCCCNC(=O)c1ccc(-c2c3nc(c(-c4ccccc4)c4ccc([nH]4)c(-c4ccccc4)c4nc(c(-c5ccccc5)c5ccc2[nH]5)C=C4)C=C3)cc1
REMARK SMILES IDX 23 1 22 2 1 3 2 4 3 6 4 7 5 10 6 11 21 12 7 13 20 14 8 15
REMARK SMILES IDX 9 16 10 18 11 19 12 20 16 21 13 22 15 23 14 24 17 25 18 26
REMARK SMILES IDX 19 27 24 28 25 29 26 30 27 31 28 32 29 34 30 35 31 36 77 37
REMARK SMILES IDX 32 38 76 39 33 40 34 41 35 42 70 43 36 44 75 45 69 46 71 47
REMARK SMILES IDX 37 48 74 49 68 50 67 51 38 53 60 54 45 55 59 56 46 57 49 58
REMARK SMILES IDX 58 59 72 60 47 61 48 62 57 64 73 65 50 66 39 67 40 68 44 69
REMARK SMILES IDX 41 70 43 71 42 72 61 73 62 74 66 75 63 76 65 77 64 78 51 79
REMARK SMILES IDX 52 80 56 81 53 82 55 83 54 84
REMARK H PARENT 22 5 4 8 4 9 9 17 27 33 71 52 49 63
REMARK Flexibility Score: inf
ROOT
ATOM      1  C   UNL A   1      34.724  20.572  25.120  1.00  0.00     0.116 C 
ENDROOT
BRANCH   1   2
ATOM      2  N   UNL A   1      33.463  21.035  25.663  1.00  0.00    -0.351 N 
ATOM      3  O   UNL A   1      32.264  20.722  23.738  1.00  0.00    -0.269 OA
ATOM      4  C   UNL A   1      32.339  21.153  24.886  1.00  0.00     0.275 C 
ATOM      5  H   UNL A   1      33.412  21.274  26.617  1.00  0.00     0.163 HD
BRANCH   4   6
ATOM      6  C   UNL A   1      31.199  21.949  25.526  1.00  0.00     0.362 C 
BRANCH   6   7
ATOM      7  N   UNL A   1      31.482  23.397  25.596  1.00  0.00    -0.336 N 
ATOM      8  H   UNL A   1      32.191  23.544  26.315  1.00  0.00     0.346 HD
ATOM      9  H   UNL A   1      30.592  23.850  25.803  1.00  0.00     0.346 HD
BRANCH   7  10
ATOM     10  C   UNL A   1      31.977  24.013  24.321  1.00  0.00     0.183 C 
ATOM     11  C   UNL A   1      30.935  24.639  23.367  1.00  0.00     0.071 C 
ATOM     12  C   UNL A   1      33.249  24.858  24.592  1.00  0.00     0.071 C 
ATOM     13  C   UNL A   1      31.433  25.762  22.460  1.00  0.00     0.071 C 
ATOM     14  C   UNL A   1      33.498  26.079  23.703  1.00  0.00     0.071 C 
ATOM     15  C   UNL A   1      32.260  26.839  23.209  1.00  0.00     0.184 C 
BRANCH  15  16
ATOM     16  N   UNL A   1      31.429  27.670  24.106  1.00  0.00    -0.326 N 
ATOM     17  H   UNL A   1      31.817  28.446  23.571  1.00  0.00     0.348 HD
BRANCH  16  18
ATOM     18  C   UNL A   1      31.721  27.479  25.553  1.00  0.00     0.299 C 
BRANCH  18  19
ATOM     19  C   UNL A   1      32.622  28.546  26.138  1.00  0.00     0.006 A 
ATOM     20  C   UNL A   1      33.969  28.293  26.425  1.00  0.00     0.009 A 
ATOM     21  C   UNL A   1      32.107  29.814  26.437  1.00  0.00     0.009 A 
ATOM     22  C   UNL A   1      34.730  29.196  27.161  1.00  0.00     0.001 A 
ATOM     23  C   UNL A   1      32.884  30.745  27.130  1.00  0.00     0.001 A 
ATOM     24  C   UNL A   1      34.180  30.418  27.530  1.00  0.00     0.000 A 
ENDBRANCH  18  19
ENDBRANCH  16  18
BRANCH  16  25
ATOM     25  C   UNL A   1      30.088  28.235  23.880  1.00  0.00     0.184 C 
ATOM     26  C   UNL A   1      30.008  29.672  23.439  1.00  0.00     0.071 C 
ATOM     27  C   UNL A   1      29.379  28.595  22.615  1.00  0.00     0.071 C 
ENDBRANCH  16  25
ENDBRANCH  15  16
ENDBRANCH   7  10
ENDBRANCH   6   7
ENDBRANCH   4   6
ENDBRANCH   1   2
BRANCH   1  28
ATOM     28  C   UNL A   1      35.890  21.421  25.630  1.00  0.00     0.023 C 
BRANCH  28  29
ATOM     29  C   UNL A   1      36.120  22.714  24.845  1.00  0.00     0.023 C 
BRANCH  29  30
ATOM     30  C   UNL A   1      37.369  23.491  25.241  1.00  0.00     0.116 C 
BRANCH  30  31
ATOM     31  N   UNL A   1      38.503  22.627  25.523  1.00  0.00    -0.352 N 
ATOM     32  C   UNL A   1      39.680  22.926  26.166  1.00  0.00     0.251 C 
ATOM     33  H   UNL A   1      38.415  21.697  25.209  1.00  0.00     0.163 HD
ATOM     34  O   UNL A   1      40.596  22.118  26.188  1.00  0.00    -0.269 OA
BRANCH  32  35
ATOM     35  C   UNL A   1      39.846  24.249  26.808  1.00  0.00     0.039 A 
ATOM     36  C   UNL A   1      39.350  24.434  28.101  1.00  0.00     0.014 A 
ATOM     37  C   UNL A   1      40.497  25.296  26.150  1.00  0.00     0.014 A 
ATOM     38  C   UNL A   1      39.565  25.647  28.758  1.00  0.00     0.010 A 
ATOM     39  C   UNL A   1      40.779  26.475  26.834  1.00  0.00     0.010 A 
ATOM     40  C   UNL A   1      40.315  26.664  28.145  1.00  0.00    -0.014 A 
BRANCH  40  41
ATOM     41  C   UNL A   1      40.631  27.926  28.862  1.00  0.00     0.031 A 
ATOM     42  C   UNL A   1      41.968  28.109  29.530  1.00  0.00     0.074 A 
ATOM     43  C   UNL A   1      39.693  28.889  28.963  1.00  0.00     0.049 A 
ATOM     44  N   UNL A   1      42.406  29.120  30.236  1.00  0.00    -0.248 NA
ATOM     45  C   UNL A   1      42.928  27.001  29.406  1.00  0.00     0.031 C 
ATOM     46  C   UNL A   1      38.346  28.825  28.392  1.00  0.00     0.029 A 
ATOM     47  N   UNL A   1      39.730  30.112  29.587  1.00  0.00    -0.354 N 
ATOM     48  C   UNL A   1      43.682  28.764  30.654  1.00  0.00     0.074 A 
ATOM     49  C   UNL A   1      43.927  27.424  30.165  1.00  0.00     0.031 C 
ATOM     50  C   UNL A   1      37.699  29.970  28.662  1.00  0.00     0.029 A 
ATOM     51  C   UNL A   1      38.564  30.829  29.464  1.00  0.00     0.049 A 
ATOM     52  H   UNL A   1      40.517  30.444  30.076  1.00  0.00     0.167 HD
ATOM     53  C   UNL A   1      44.577  29.490  31.365  1.00  0.00     0.031 A 
ATOM     54  C   UNL A   1      38.225  32.038  29.948  1.00  0.00     0.031 A 
ATOM     55  C   UNL A   1      44.335  30.824  31.847  1.00  0.00     0.049 A 
ATOM     56  C   UNL A   1      39.226  32.812  30.762  1.00  0.00     0.074 A 
ATOM     57  C   UNL A   1      45.201  31.664  32.526  1.00  0.00     0.029 A 
ATOM     58  N   UNL A   1      43.139  31.510  31.710  1.00  0.00    -0.354 N 
ATOM     59  N   UNL A   1      40.455  32.490  31.085  1.00  0.00    -0.248 NA
ATOM     60  C   UNL A   1      38.793  34.121  31.271  1.00  0.00     0.031 C 
ATOM     61  C   UNL A   1      44.507  32.831  32.856  1.00  0.00     0.029 A 
ATOM     62  C   UNL A   1      43.231  32.749  32.322  1.00  0.00     0.049 A 
ATOM     63  H   UNL A   1      42.340  31.167  31.246  1.00  0.00     0.167 HD
ATOM     64  C   UNL A   1      40.953  33.570  31.804  1.00  0.00     0.074 A 
ATOM     65  C   UNL A   1      39.898  34.561  31.856  1.00  0.00     0.031 C 
ATOM     66  C   UNL A   1      42.175  33.726  32.368  1.00  0.00     0.031 A 
BRANCH  53  67
ATOM     67  C   UNL A   1      45.901  28.848  31.678  1.00  0.00    -0.014 A 
ATOM     68  C   UNL A   1      46.082  28.068  32.832  1.00  0.00     0.009 A 
ATOM     69  C   UNL A   1      46.975  28.994  30.785  1.00  0.00     0.009 A 
ATOM     70  C   UNL A   1      47.320  27.481  33.104  1.00  0.00     0.001 A 
ATOM     71  C   UNL A   1      48.202  28.379  31.043  1.00  0.00     0.001 A 
ATOM     72  C   UNL A   1      48.377  27.632  32.206  1.00  0.00     0.000 A 
ENDBRANCH  53  67
BRANCH  54  73
ATOM     73  C   UNL A   1      36.879  32.606  29.669  1.00  0.00    -0.014 A 
ATOM     74  C   UNL A   1      36.639  33.320  28.485  1.00  0.00     0.009 A 
ATOM     75  C   UNL A   1      35.831  32.450  30.590  1.00  0.00     0.009 A 
ATOM     76  C   UNL A   1      35.387  33.893  28.244  1.00  0.00     0.001 A 
ATOM     77  C   UNL A   1      34.572  32.996  30.332  1.00  0.00     0.001 A 
ATOM     78  C   UNL A   1      34.354  33.727  29.165  1.00  0.00     0.000 A 
ENDBRANCH  54  73
BRANCH  66  79
ATOM     79  C   UNL A   1      42.455  35.034  33.056  1.00  0.00    -0.014 A 
ATOM     80  C   UNL A   1      43.183  36.055  32.426  1.00  0.00     0.009 A 
ATOM     81  C   UNL A   1      41.943  35.261  34.343  1.00  0.00     0.009 A 
ATOM     82  C   UNL A   1      43.425  37.262  33.086  1.00  0.00     0.001 A 
ATOM     83  C   UNL A   1      42.157  36.481  34.988  1.00  0.00     0.001 A 
ATOM     84  C   UNL A   1      42.906  37.476  34.364  1.00  0.00     0.000 A 
ENDBRANCH  66  79
ENDBRANCH  40  41
ENDBRANCH  32  35
ENDBRANCH  30  31
ENDBRANCH  29  30
ENDBRANCH  28  29
ENDBRANCH   1  28
TORSDOF 17
ENDMDL
MODEL 2
REMARK VINA RESULT:     -10.2      3.199      7.814
REMARK SMILES O=C(C[NH2+][C@H]1CC[C@@H]([N@H+](Cc2ccccc2)C2CC2)CC1)NCCCCNC(=O)c1ccc(-c2c3nc(c(-c4ccccc4)c4ccc([nH]4)c(-c4ccccc4)c4nc(c(-c5ccccc5)c5ccc2[nH]5)C=C4)C=C3)cc1
REMARK SMILES IDX 23 1 22 2 1 3 2 4 3 6 4 7 5 10 6 11 21 12 7 13 20 14 8 15
REMARK SMILES IDX 9 16 10 18 11 19 12 20 16 21 13 22 15 23 14 24 17 25 18 26
REMARK SMILES IDX 19 27 24 28 25 29 26 30 27 31 28 32 29 34 30 35 31 36 77 37
REMARK SMILES IDX 32 38 76 39 33 40 34 41 35 42 70 43 36 44 75 45 69 46 71 47
REMARK SMILES IDX 37 48 74 49 68 50 67 51 38 53 60 54 45 55 59 56 46 57 49 58
REMARK SMILES IDX 58 59 72 60 47 61 48 62 57 64 73 65 50 66 39 67 40 68 44 69
REMARK SMILES IDX 41 70 43 71 42 72 61 73 62 74 66 75 63 76 65 77 64 78 51 79
REMARK SMILES IDX 52 80 56 81 53 82 55 83 54 84
REMARK H PARENT 22 5 4 8 4 9 9 17 27 33 71 52 49 63
REMARK Flexibility Score: inf
ROOT
ATOM      1  C   UNL A   1      32.909  30.070  25.729  1.00  0.00     0.116 C 
ENDROOT
BRANCH   1   2
ATOM      2  N   UNL A   1      32.604  29.320  24.527  1.00  0.00    -0.351 N 
ATOM      3  O   UNL A   1      33.562  27.365  25.234  1.00  0.00    -0.269 OA
ATOM      4  C   UNL A   1      33.040  28.033  24.344  1.00  0.00     0.275 C 
ATOM      5  H   UNL A   1      32.069  29.748  23.819  1.00  0.00     0.163 HD
BRANCH   4   6
ATOM      6  C   UNL A   1      32.910  27.509  22.912  1.00  0.00     0.362 C 
BRANCH   6   7
ATOM      7  N   UNL A   1      33.645  26.247  22.696  1.00  0.00    -0.336 N 
ATOM      8  H   UNL A   1      34.130  26.012  23.562  1.00  0.00     0.346 HD
ATOM      9  H   UNL A   1      34.272  26.415  21.910  1.00  0.00     0.346 HD
BRANCH   7  10
ATOM     10  C   UNL A   1      32.796  25.072  22.306  1.00  0.00     0.183 C 
ATOM     11  C   UNL A   1      33.489  23.701  22.139  1.00  0.00     0.071 C 
ATOM     12  C   UNL A   1      31.473  25.075  23.115  1.00  0.00     0.071 C 
ATOM     13  C   UNL A   1      32.618  22.468  22.372  1.00  0.00     0.071 C 
ATOM     14  C   UNL A   1      30.828  23.724  23.433  1.00  0.00     0.071 C 
ATOM     15  C   UNL A   1      31.778  22.543  23.673  1.00  0.00     0.184 C 
BRANCH  15  16
ATOM     16  N   UNL A   1      32.606  22.427  24.891  1.00  0.00    -0.326 N 
ATOM     17  H   UNL A   1      32.813  23.409  24.717  1.00  0.00     0.348 HD
BRANCH  16  18
ATOM     18  C   UNL A   1      33.652  21.371  24.816  1.00  0.00     0.299 C 
BRANCH  18  19
ATOM     19  C   UNL A   1      35.062  21.898  24.975  1.00  0.00     0.006 A 
ATOM     20  C   UNL A   1      36.168  21.039  25.009  1.00  0.00     0.009 A 
ATOM     21  C   UNL A   1      35.286  23.273  25.127  1.00  0.00     0.009 A 
ATOM     22  C   UNL A   1      37.428  21.503  25.375  1.00  0.00     0.001 A 
ATOM     23  C   UNL A   1      36.560  23.749  25.442  1.00  0.00     0.001 A 
ATOM     24  C   UNL A   1      37.621  22.858  25.610  1.00  0.00     0.000 A 
ENDBRANCH  18  19
ENDBRANCH  16  18
BRANCH  16  25
ATOM     25  C   UNL A   1      32.276  22.784  26.282  1.00  0.00     0.184 C 
ATOM     26  C   UNL A   1      32.165  24.248  26.612  1.00  0.00     0.071 C 
ATOM     27  C   UNL A   1      31.020  23.325  26.881  1.00  0.00     0.071 C 
ENDBRANCH  16  25
ENDBRANCH  15  16
ENDBRANCH   7  10
ENDBRANCH   6   7
ENDBRANCH   4   6
ENDBRANCH   1   2
BRANCH   1  28
ATOM     28  C   UNL A   1      31.631  30.537  26.427  1.00  0.00     0.023 C 
BRANCH  28  29
ATOM     29  C   UNL A   1      31.503  32.058  26.554  1.00  0.00     0.023 C 
BRANCH  29  30
ATOM     30  C   UNL A   1      32.664  32.742  27.263  1.00  0.00     0.116 C 
BRANCH  30  31
ATOM     31  N   UNL A   1      32.390  34.134  27.576  1.00  0.00    -0.352 N 
ATOM     32  C   UNL A   1      32.983  34.943  28.516  1.00  0.00     0.251 C 
ATOM     33  H   UNL A   1      31.679  34.556  27.041  1.00  0.00     0.163 HD
ATOM     34  O   UNL A   1      32.528  36.052  28.754  1.00  0.00    -0.269 OA
BRANCH  32  35
ATOM     35  C   UNL A   1      34.161  34.450  29.265  1.00  0.00     0.039 A 
ATOM     36  C   UNL A   1      33.961  33.851  30.510  1.00  0.00     0.014 A 
ATOM     37  C   UNL A   1      35.451  34.562  28.738  1.00  0.00     0.014 A 
ATOM     38  C   UNL A   1      35.047  33.307  31.198  1.00  0.00     0.010 A 
ATOM     39  C   UNL A   1      36.519  33.950  29.387  1.00  0.00     0.010 A 
ATOM     40  C   UNL A   1      36.330  33.317  30.625  1.00  0.00    -0.014 A 
BRANCH  40  41
ATOM     41  C   UNL A   1      37.480  32.662  31.301  1.00  0.00     0.031 A 
ATOM     42  C   UNL A   1      38.152  31.470  30.676  1.00  0.00     0.074 A 
ATOM     43  C   UNL A   1      37.885  33.105  32.508  1.00  0.00     0.049 A 
ATOM     44  N   UNL A   1      39.139  30.743  31.136  1.00  0.00    -0.248 NA
ATOM     45  C   UNL A   1      37.634  31.022  29.374  1.00  0.00     0.031 C 
ATOM     46  C   UNL A   1      37.297  34.230  33.240  1.00  0.00     0.029 A 
ATOM     47  N   UNL A   1      38.887  32.660  33.334  1.00  0.00    -0.354 N 
ATOM     48  C   UNL A   1      39.346  29.746  30.192  1.00  0.00     0.074 A 
ATOM     49  C   UNL A   1      38.351  29.929  29.159  1.00  0.00     0.031 C 
ATOM     50  C   UNL A   1      37.971  34.407  34.387  1.00  0.00     0.029 A 
ATOM     51  C   UNL A   1      39.004  33.383  34.497  1.00  0.00     0.049 A 
ATOM     52  H   UNL A   1      39.466  31.896  33.114  1.00  0.00     0.167 HD
ATOM     53  C   UNL A   1      40.290  28.775  30.176  1.00  0.00     0.031 A 
ATOM     54  C   UNL A   1      39.843  33.234  35.540  1.00  0.00     0.031 A 
ATOM     55  C   UNL A   1      41.283  28.594  31.202  1.00  0.00     0.049 A 
ATOM     56  C   UNL A   1      40.862  32.127  35.511  1.00  0.00     0.074 A 
ATOM     57  C   UNL A   1      42.318  27.676  31.245  1.00  0.00     0.029 A 
ATOM     58  N   UNL A   1      41.362  29.341  32.366  1.00  0.00    -0.354 N 
ATOM     59  N   UNL A   1      41.092  31.238  34.576  1.00  0.00    -0.248 NA
ATOM     60  C   UNL A   1      41.743  32.011  36.682  1.00  0.00     0.031 C 
ATOM     61  C   UNL A   1      42.981  27.824  32.467  1.00  0.00     0.029 A 
ATOM     62  C   UNL A   1      42.405  28.881  33.153  1.00  0.00     0.049 A 
ATOM     63  H   UNL A   1      40.763  30.087  32.602  1.00  0.00     0.167 HD
ATOM     64  C   UNL A   1      42.164  30.479  35.029  1.00  0.00     0.074 A 
ATOM     65  C   UNL A   1      42.548  31.024  36.315  1.00  0.00     0.031 C 
ATOM     66  C   UNL A   1      42.777  29.429  34.431  1.00  0.00     0.031 A 
BRANCH  53  67
ATOM     67  C   UNL A   1      40.283  27.818  29.014  1.00  0.00    -0.014 A 
ATOM     68  C   UNL A   1      40.979  28.101  27.828  1.00  0.00     0.009 A 
ATOM     69  C   UNL A   1      39.602  26.596  29.123  1.00  0.00     0.009 A 
ATOM     70  C   UNL A   1      40.960  27.200  26.762  1.00  0.00     0.001 A 
ATOM     71  C   UNL A   1      39.611  25.681  28.068  1.00  0.00     0.001 A 
ATOM     72  C   UNL A   1      40.280  25.988  26.885  1.00  0.00     0.000 A 
ENDBRANCH  53  67
BRANCH  54  73
ATOM     73  C   UNL A   1      39.769  34.163  36.698  1.00  0.00    -0.014 A 
ATOM     74  C   UNL A   1      39.012  33.828  37.832  1.00  0.00     0.009 A 
ATOM     75  C   UNL A   1      40.442  35.394  36.673  1.00  0.00     0.009 A 
ATOM     76  C   UNL A   1      38.904  34.721  38.902  1.00  0.00     0.001 A 
ATOM     77  C   UNL A   1      40.360  36.270  37.757  1.00  0.00     0.001 A 
ATOM     78  C   UNL A   1      39.581  35.939  38.865  1.00  0.00     0.000 A 
ENDBRANCH  54  73
BRANCH  66  79
ATOM     79  C   UNL A   1      43.955  28.822  35.143  1.00  0.00    -0.014 A 
ATOM     80  C   UNL A   1      43.809  27.720  35.999  1.00  0.00     0.009 A 
ATOM     81  C   UNL A   1      45.241  29.341  34.918  1.00  0.00     0.009 A 
ATOM     82  C   UNL A   1      44.920  27.174  36.644  1.00  0.00     0.001 A 
ATOM     83  C   UNL A   1      46.354  28.772  35.537  1.00  0.00     0.001 A 
ATOM     84  C   UNL A   1      46.193  27.696  36.408  1.00  0.00     0.000 A 
ENDBRANCH  66  79
ENDBRANCH  40  41
ENDBRANCH  32  35
ENDBRANCH  30  31
ENDBRANCH  29  30
ENDBRANCH  28  29
ENDBRANCH   1  28
TORSDOF 17
ENDMDL
MODEL 3
REMARK VINA RESULT:     -10.0      2.356      3.885
REMARK SMILES O=C(C[NH2+][C@H]1CC[C@@H]([N@H+](Cc2ccccc2)C2CC2)CC1)NCCCCNC(=O)c1ccc(-c2c3nc(c(-c4ccccc4)c4ccc([nH]4)c(-c4ccccc4)c4nc(c(-c5ccccc5)c5ccc2[nH]5)C=C4)C=C3)cc1
REMARK SMILES IDX 23 1 22 2 1 3 2 4 3 6 4 7 5 10 6 11 21 12 7 13 20 14 8 15
REMARK SMILES IDX 9 16 10 18 11 19 12 20 16 21 13 22 15 23 14 24 17 25 18 26
REMARK SMILES IDX 19 27 24 28 25 29 26 30 27 31 28 32 29 34 30 35 31 36 77 37
REMARK SMILES IDX 32 38 76 39 33 40 34 41 35 42 70 43 36 44 75 45 69 46 71 47
REMARK SMILES IDX 37 48 74 49 68 50 67 51 38 53 60 54 45 55 59 56 46 57 49 58
REMARK SMILES IDX 58 59 72 60 47 61 48 62 57 64 73 65 50 66 39 67 40 68 44 69
REMARK SMILES IDX 41 70 43 71 42 72 61 73 62 74 66 75 63 76 65 77 64 78 51 79
REMARK SMILES IDX 52 80 56 81 53 82 55 83 54 84
REMARK H PARENT 22 5 4 8 4 9 9 17 27 33 71 52 49 63
REMARK Flexibility Score: inf
ROOT
ATOM      1  C   UNL A   1      35.174  20.208  24.908  1.00  0.00     0.116 C 
ENDROOT
BRANCH   1   2
ATOM      2  N   UNL A   1      35.418  21.630  24.773  1.00  0.00    -0.351 N 
ATOM      3  O   UNL A   1      34.641  22.189  26.852  1.00  0.00    -0.269 OA
ATOM      4  C   UNL A   1      35.045  22.526  25.742  1.00  0.00     0.275 C 
ATOM      5  H   UNL A   1      35.865  21.964  23.961  1.00  0.00     0.163 HD
BRANCH   4   6
ATOM      6  C   UNL A   1      35.082  23.993  25.307  1.00  0.00     0.362 C 
BRANCH   6   7
ATOM      7  N   UNL A   1      33.807  24.695  25.555  1.00  0.00    -0.336 N 
ATOM      8  H   UNL A   1      34.010  25.689  25.661  1.00  0.00     0.346 HD
ATOM      9  H   UNL A   1      33.407  24.269  26.390  1.00  0.00     0.346 HD
BRANCH   7  10
ATOM     10  C   UNL A   1      32.775  24.543  24.476  1.00  0.00     0.183 C 
ATOM     11  C   UNL A   1      31.321  24.954  24.802  1.00  0.00     0.071 C 
ATOM     12  C   UNL A   1      33.338  25.044  23.121  1.00  0.00     0.071 C 
ATOM     13  C   UNL A   1      30.459  25.395  23.621  1.00  0.00     0.071 C 
ATOM     14  C   UNL A   1      32.352  25.645  22.117  1.00  0.00     0.071 C 
ATOM     15  C   UNL A   1      31.162  26.422  22.696  1.00  0.00     0.184 C 
BRANCH  15  16
ATOM     16  N   UNL A   1      31.314  27.748  23.330  1.00  0.00    -0.326 N 
ATOM     17  H   UNL A   1      32.048  27.290  23.867  1.00  0.00     0.348 HD
BRANCH  16  18
ATOM     18  C   UNL A   1      30.070  28.263  23.966  1.00  0.00     0.299 C 
BRANCH  18  19
ATOM     19  C   UNL A   1      29.493  29.481  23.275  1.00  0.00     0.006 A 
ATOM     20  C   UNL A   1      29.530  30.748  23.869  1.00  0.00     0.009 A 
ATOM     21  C   UNL A   1      28.874  29.352  22.025  1.00  0.00     0.009 A 
ATOM     22  C   UNL A   1      28.809  31.813  23.338  1.00  0.00     0.001 A 
ATOM     23  C   UNL A   1      28.193  30.433  21.462  1.00  0.00     0.001 A 
ATOM     24  C   UNL A   1      28.124  31.650  22.141  1.00  0.00     0.000 A 
ENDBRANCH  18  19
ENDBRANCH  16  18
BRANCH  16  25
ATOM     25  C   UNL A   1      32.267  28.828  23.021  1.00  0.00     0.184 C 
ATOM     26  C   UNL A   1      33.416  29.029  23.973  1.00  0.00     0.071 C 
ATOM     27  C   UNL A   1      33.674  28.777  22.522  1.00  0.00     0.071 C 
ENDBRANCH  16  25
ENDBRANCH  15  16
ENDBRANCH   7  10
ENDBRANCH   6   7
ENDBRANCH   4   6
ENDBRANCH   1   2
BRANCH   1  28
ATOM     28  C   UNL A   1      36.483  19.419  24.898  1.00  0.00     0.023 C 
BRANCH  28  29
ATOM     29  C   UNL A   1      37.729  20.267  24.627  1.00  0.00     0.023 C 
BRANCH  29  30
ATOM     30  C   UNL A   1      38.685  20.395  25.806  1.00  0.00     0.116 C 
BRANCH  30  31
ATOM     31  N   UNL A   1      39.764  19.422  25.763  1.00  0.00    -0.352 N 
ATOM     32  C   UNL A   1      41.099  19.598  26.036  1.00  0.00     0.251 C 
ATOM     33  H   UNL A   1      39.500  18.510  25.501  1.00  0.00     0.163 HD
ATOM     34  O   UNL A   1      41.901  18.705  25.805  1.00  0.00    -0.269 OA
BRANCH  32  35
ATOM     35  C   UNL A   1      41.569  20.890  26.585  1.00  0.00     0.039 A 
ATOM     36  C   UNL A   1      42.118  21.829  25.709  1.00  0.00     0.014 A 
ATOM     37  C   UNL A   1      41.454  21.182  27.946  1.00  0.00     0.014 A 
ATOM     38  C   UNL A   1      42.494  23.086  26.190  1.00  0.00     0.010 A 
ATOM     39  C   UNL A   1      41.754  22.461  28.408  1.00  0.00     0.010 A 
ATOM     40  C   UNL A   1      42.279  23.426  27.535  1.00  0.00    -0.014 A 
BRANCH  40  41
ATOM     41  C   UNL A   1      42.588  24.788  28.043  1.00  0.00     0.031 A 
ATOM     42  C   UNL A   1      43.993  25.151  28.442  1.00  0.00     0.074 A 
ATOM     43  C   UNL A   1      41.593  25.683  28.200  1.00  0.00     0.049 A 
ATOM     44  N   UNL A   1      44.445  26.272  28.944  1.00  0.00    -0.248 NA
ATOM     45  C   UNL A   1      45.021  24.111  28.274  1.00  0.00     0.031 C 
ATOM     46  C   UNL A   1      40.182  25.448  27.885  1.00  0.00     0.029 A 
ATOM     47  N   UNL A   1      41.616  26.974  28.669  1.00  0.00    -0.354 N 
ATOM     48  C   UNL A   1      45.800  26.067  29.169  1.00  0.00     0.074 A 
ATOM     49  C   UNL A   1      46.087  24.699  28.795  1.00  0.00     0.031 C 
ATOM     50  C   UNL A   1      39.483  26.566  28.135  1.00  0.00     0.029 A 
ATOM     51  C   UNL A   1      40.383  27.581  28.674  1.00  0.00     0.049 A 
ATOM     52  H   UNL A   1      42.438  27.421  28.973  1.00  0.00     0.167 HD
ATOM     53  C   UNL A   1      46.727  26.941  29.628  1.00  0.00     0.031 A 
ATOM     54  C   UNL A   1      40.016  28.813  29.074  1.00  0.00     0.031 A 
ATOM     55  C   UNL A   1      46.443  28.302  29.995  1.00  0.00     0.049 A 
ATOM     56  C   UNL A   1      41.059  29.754  29.609  1.00  0.00     0.074 A 
ATOM     57  C   UNL A   1      47.326  29.283  30.415  1.00  0.00     0.029 A 
ATOM     58  N   UNL A   1      45.181  28.875  29.994  1.00  0.00    -0.354 N 
ATOM     59  N   UNL A   1      42.350  29.567  29.745  1.00  0.00    -0.248 NA
ATOM     60  C   UNL A   1      40.595  31.081  30.039  1.00  0.00     0.031 C 
ATOM     61  C   UNL A   1      46.589  30.428  30.731  1.00  0.00     0.029 A 
ATOM     62  C   UNL A   1      45.256  30.184  30.440  1.00  0.00     0.049 A 
ATOM     63  H   UNL A   1      44.353  28.418  29.719  1.00  0.00     0.167 HD
ATOM     64  C   UNL A   1      42.856  30.762  30.243  1.00  0.00     0.074 A 
ATOM     65  C   UNL A   1      41.734  31.671  30.369  1.00  0.00     0.031 C 
ATOM     66  C   UNL A   1      44.134  31.078  30.563  1.00  0.00     0.031 A 
BRANCH  53  67
ATOM     67  C   UNL A   1      48.140  26.443  29.773  1.00  0.00    -0.014 A 
ATOM     68  C   UNL A   1      48.596  25.873  30.972  1.00  0.00     0.009 A 
ATOM     69  C   UNL A   1      49.017  26.510  28.680  1.00  0.00     0.009 A 
ATOM     70  C   UNL A   1      49.911  25.418  31.086  1.00  0.00     0.001 A 
ATOM     71  C   UNL A   1      50.322  26.024  28.785  1.00  0.00     0.001 A 
ATOM     72  C   UNL A   1      50.771  25.488  29.991  1.00  0.00     0.000 A 
ENDBRANCH  53  67
BRANCH  54  73
ATOM     73  C   UNL A   1      38.595  29.239  28.974  1.00  0.00    -0.014 A 
ATOM     74  C   UNL A   1      38.094  29.774  27.777  1.00  0.00     0.009 A 
ATOM     75  C   UNL A   1      37.734  29.128  30.078  1.00  0.00     0.009 A 
ATOM     76  C   UNL A   1      36.771  30.218  27.697  1.00  0.00     0.001 A 
ATOM     77  C   UNL A   1      36.404  29.542  29.986  1.00  0.00     0.001 A 
ATOM     78  C   UNL A   1      35.927  30.098  28.800  1.00  0.00     0.000 A 
ENDBRANCH  54  73
BRANCH  66  79
ATOM     79  C   UNL A   1      44.398  32.479  31.043  1.00  0.00    -0.014 A 
ATOM     80  C   UNL A   1      44.660  33.526  30.146  1.00  0.00     0.009 A 
ATOM     81  C   UNL A   1      44.342  32.761  32.417  1.00  0.00     0.009 A 
ATOM     82  C   UNL A   1      44.898  34.819  30.618  1.00  0.00     0.001 A 
ATOM     83  C   UNL A   1      44.547  34.060  32.885  1.00  0.00     0.001 A 
ATOM     84  C   UNL A   1      44.835  35.086  31.986  1.00  0.00     0.000 A 
ENDBRANCH  66  79
ENDBRANCH  40  41
ENDBRANCH  32  35
ENDBRANCH  30  31
ENDBRANCH  29  30
ENDBRANCH  28  29
ENDBRANCH   1  28
TORSDOF 17
ENDMDL
