MODEL 1
REMARK VINA RESULT:     -10.8      0.000      0.000
REMARK SMILES Cc1n[nH]c(CCC(=O)NCCCCNC(=O)c2ccc(-c3c4nc(c(-c5ccccc5)c5ccc([nH]5)c(-c5ccccc5)c5nc(c(-c6ccccc6)c6ccc3[nH]6)C=C5)C=C4)cc2)c1C
REMARK SMILES IDX 12 1 11 2 10 3 8 4 9 5 7 7 6 8 5 9 1 10 2 11 3 12 66 13 4 14
REMARK SMILES IDX 67 15 13 17 14 18 15 19 16 20 17 22 18 23 19 24 65 25 20 26
REMARK SMILES IDX 64 27 21 28 22 29 23 30 58 31 24 32 63 33 57 34 59 35 25 36
REMARK SMILES IDX 62 37 56 38 55 39 26 41 48 42 33 43 47 44 34 45 37 46 46 47
REMARK SMILES IDX 60 48 35 49 36 50 45 52 61 53 38 54 27 55 28 56 32 57 29 58
REMARK SMILES IDX 31 59 30 60 49 61 50 62 54 63 51 64 53 65 52 66 39 67 40 68
REMARK SMILES IDX 44 69 41 70 43 71 42 72
REMARK H PARENT 10 6 4 16 15 21 59 40 37 51
REMARK Flexibility Score: inf
ROOT
ATOM      1  C   UNL A   1      38.267  22.999  26.052  1.00  0.00     0.023 C 
ENDROOT
BRANCH   1   2
ATOM      2  C   UNL A   1      36.857  23.337  25.581  1.00  0.00     0.116 C 
BRANCH   2   3
ATOM      3  N   UNL A   1      35.864  22.759  26.476  1.00  0.00    -0.356 N 
ATOM      4  C   UNL A   1      35.067  21.661  26.304  1.00  0.00     0.220 C 
ATOM      5  O   UNL A   1      34.117  21.512  27.079  1.00  0.00    -0.275 OA
ATOM      6  H   UNL A   1      35.749  23.229  27.333  1.00  0.00     0.163 HD
BRANCH   4   7
ATOM      7  C   UNL A   1      35.372  20.617  25.241  1.00  0.00     0.106 C 
BRANCH   7   8
ATOM      8  C   UNL A   1      34.169  20.221  24.376  1.00  0.00     0.066 C 
BRANCH   8   9
ATOM      9  C   UNL A   1      33.502  18.962  24.825  1.00  0.00     0.039 A 
ATOM     10  C   UNL A   1      32.780  15.409  25.371  1.00  0.00     0.069 C 
ATOM     11  C   UNL A   1      32.853  16.891  25.293  1.00  0.00     0.062 A 
ATOM     12  N   UNL A   1      32.464  17.631  26.337  1.00  0.00    -0.181 NA
ATOM     13  C   UNL A   1      33.457  17.690  24.276  1.00  0.00    -0.007 A 
ATOM     14  N   UNL A   1      32.807  18.881  26.002  1.00  0.00    -0.282 N 
ATOM     15  C   UNL A   1      34.105  17.222  23.021  1.00  0.00     0.048 C 
ATOM     16  H   UNL A   1      32.583  19.667  26.550  1.00  0.00     0.190 HD
ENDBRANCH   8   9
ENDBRANCH   7   8
ENDBRANCH   4   7
ENDBRANCH   2   3
ENDBRANCH   1   2
BRANCH   1  17
ATOM     17  C   UNL A   1      38.920  21.697  25.580  1.00  0.00     0.023 C 
BRANCH  17  18
ATOM     18  C   UNL A   1      39.683  20.986  26.682  1.00  0.00     0.116 C 
BRANCH  18  19
ATOM     19  N   UNL A   1      40.571  19.898  26.221  1.00  0.00    -0.352 N 
ATOM     20  C   UNL A   1      41.921  19.974  25.889  1.00  0.00     0.251 C 
ATOM     21  H   UNL A   1      40.157  19.009  26.138  1.00  0.00     0.163 HD
ATOM     22  O   UNL A   1      42.495  19.110  25.236  1.00  0.00    -0.269 OA
BRANCH  20  23
ATOM     23  C   UNL A   1      42.661  21.119  26.429  1.00  0.00     0.039 A 
ATOM     24  C   UNL A   1      43.179  22.161  25.649  1.00  0.00     0.014 A 
ATOM     25  C   UNL A   1      42.540  21.222  27.800  1.00  0.00     0.014 A 
ATOM     26  C   UNL A   1      43.435  23.384  26.271  1.00  0.00     0.010 A 
ATOM     27  C   UNL A   1      42.451  22.481  28.292  1.00  0.00     0.010 A 
ATOM     28  C   UNL A   1      43.015  23.543  27.596  1.00  0.00    -0.014 A 
BRANCH  28  29
ATOM     29  C   UNL A   1      42.993  24.799  28.327  1.00  0.00     0.031 A 
ATOM     30  C   UNL A   1      41.788  25.641  28.099  1.00  0.00     0.074 A 
ATOM     31  C   UNL A   1      43.782  24.945  29.419  1.00  0.00     0.049 A 
ATOM     32  N   UNL A   1      41.732  26.771  27.481  1.00  0.00    -0.248 NA
ATOM     33  C   UNL A   1      40.465  25.110  28.475  1.00  0.00     0.031 C 
ATOM     34  C   UNL A   1      44.734  23.982  30.003  1.00  0.00     0.029 A 
ATOM     35  N   UNL A   1      43.746  25.911  30.365  1.00  0.00    -0.354 N 
ATOM     36  C   UNL A   1      40.416  27.210  27.603  1.00  0.00     0.074 A 
ATOM     37  C   UNL A   1      39.652  26.053  27.990  1.00  0.00     0.031 C 
ATOM     38  C   UNL A   1      44.940  24.278  31.304  1.00  0.00     0.029 A 
ATOM     39  C   UNL A   1      44.309  25.552  31.583  1.00  0.00     0.049 A 
ATOM     40  H   UNL A   1      43.352  26.798  30.203  1.00  0.00     0.167 HD
ATOM     41  C   UNL A   1      40.117  28.540  27.672  1.00  0.00     0.031 A 
ATOM     42  C   UNL A   1      44.216  26.241  32.747  1.00  0.00     0.031 A 
ATOM     43  C   UNL A   1      41.287  29.347  27.405  1.00  0.00     0.049 A 
ATOM     44  C   UNL A   1      43.829  27.632  32.384  1.00  0.00     0.074 A 
ATOM     45  C   UNL A   1      42.190  29.432  26.362  1.00  0.00     0.029 A 
ATOM     46  N   UNL A   1      41.926  29.891  28.500  1.00  0.00    -0.354 N 
ATOM     47  N   UNL A   1      44.590  28.417  31.671  1.00  0.00    -0.248 NA
ATOM     48  C   UNL A   1      42.409  27.952  32.352  1.00  0.00     0.031 C 
ATOM     49  C   UNL A   1      43.464  29.516  27.000  1.00  0.00     0.029 A 
ATOM     50  C   UNL A   1      43.261  29.599  28.381  1.00  0.00     0.049 A 
ATOM     51  H   UNL A   1      41.503  30.394  29.232  1.00  0.00     0.167 HD
ATOM     52  C   UNL A   1      43.729  29.018  30.761  1.00  0.00     0.074 A 
ATOM     53  C   UNL A   1      42.387  28.770  31.294  1.00  0.00     0.031 C 
ATOM     54  C   UNL A   1      44.146  29.372  29.506  1.00  0.00     0.031 A 
BRANCH  41  55
ATOM     55  C   UNL A   1      38.927  29.126  28.395  1.00  0.00    -0.014 A 
ATOM     56  C   UNL A   1      38.844  28.951  29.790  1.00  0.00     0.009 A 
ATOM     57  C   UNL A   1      37.767  29.596  27.753  1.00  0.00     0.009 A 
ATOM     58  C   UNL A   1      37.644  29.142  30.484  1.00  0.00     0.001 A 
ATOM     59  C   UNL A   1      36.577  29.830  28.450  1.00  0.00     0.001 A 
ATOM     60  C   UNL A   1      36.507  29.570  29.810  1.00  0.00     0.000 A 
ENDBRANCH  41  55
BRANCH  42  61
ATOM     61  C   UNL A   1      44.130  25.693  34.123  1.00  0.00    -0.014 A 
ATOM     62  C   UNL A   1      45.087  26.020  35.095  1.00  0.00     0.009 A 
ATOM     63  C   UNL A   1      42.963  25.034  34.562  1.00  0.00     0.009 A 
ATOM     64  C   UNL A   1      44.866  25.736  36.453  1.00  0.00     0.001 A 
ATOM     65  C   UNL A   1      42.744  24.745  35.913  1.00  0.00     0.001 A 
ATOM     66  C   UNL A   1      43.690  25.112  36.863  1.00  0.00     0.000 A 
ENDBRANCH  42  61
BRANCH  54  67
ATOM     67  C   UNL A   1      45.619  29.273  29.172  1.00  0.00    -0.014 A 
ATOM     68  C   UNL A   1      46.227  28.101  28.683  1.00  0.00     0.009 A 
ATOM     69  C   UNL A   1      46.373  30.455  29.158  1.00  0.00     0.009 A 
ATOM     70  C   UNL A   1      47.547  28.110  28.215  1.00  0.00     0.001 A 
ATOM     71  C   UNL A   1      47.684  30.471  28.673  1.00  0.00     0.001 A 
ATOM     72  C   UNL A   1      48.272  29.298  28.205  1.00  0.00     0.000 A 
ENDBRANCH  54  67
ENDBRANCH  28  29
ENDBRANCH  20  23
ENDBRANCH  18  19
ENDBRANCH  17  18
ENDBRANCH   1  17
TORSDOF 13
ENDMDL
MODEL 2
REMARK VINA RESULT:     -10.8      5.559     10.178
REMARK SMILES Cc1n[nH]c(CCC(=O)NCCCCNC(=O)c2ccc(-c3c4nc(c(-c5ccccc5)c5ccc([nH]5)c(-c5ccccc5)c5nc(c(-c6ccccc6)c6ccc3[nH]6)C=C5)C=C4)cc2)c1C
REMARK SMILES IDX 12 1 11 2 10 3 8 4 9 5 7 7 6 8 5 9 1 10 2 11 3 12 66 13 4 14
REMARK SMILES IDX 67 15 13 17 14 18 15 19 16 20 17 22 18 23 19 24 65 25 20 26
REMARK SMILES IDX 64 27 21 28 22 29 23 30 58 31 24 32 63 33 57 34 59 35 25 36
REMARK SMILES IDX 62 37 56 38 55 39 26 41 48 42 33 43 47 44 34 45 37 46 46 47
REMARK SMILES IDX 60 48 35 49 36 50 45 52 61 53 38 54 27 55 28 56 32 57 29 58
REMARK SMILES IDX 31 59 30 60 49 61 50 62 54 63 51 64 53 65 52 66 39 67 40 68
REMARK SMILES IDX 44 69 41 70 43 71 42 72
REMARK H PARENT 10 6 4 16 15 21 59 40 37 51
REMARK Flexibility Score: inf
ROOT
ATOM      1  C   UNL A   1      32.479  29.791  27.248  1.00  0.00     0.023 C 
ENDROOT
BRANCH   1   2
ATOM      2  C   UNL A   1      33.370  28.828  26.472  1.00  0.00     0.116 C 
BRANCH   2   3
ATOM      3  N   UNL A   1      33.587  29.308  25.115  1.00  0.00    -0.356 N 
ATOM      4  C   UNL A   1      32.898  29.026  23.968  1.00  0.00     0.220 C 
ATOM      5  O   UNL A   1      33.418  29.336  22.892  1.00  0.00    -0.275 OA
ATOM      6  H   UNL A   1      34.343  29.928  25.006  1.00  0.00     0.163 HD
BRANCH   4   7
ATOM      7  C   UNL A   1      31.507  28.413  24.008  1.00  0.00     0.106 C 
BRANCH   7   8
ATOM      8  C   UNL A   1      30.376  29.417  24.265  1.00  0.00     0.066 C 
BRANCH   8   9
ATOM      9  C   UNL A   1      29.779  29.973  23.013  1.00  0.00     0.039 A 
ATOM     10  C   UNL A   1      27.939  32.142  20.699  1.00  0.00     0.069 C 
ATOM     11  C   UNL A   1      28.743  31.121  21.420  1.00  0.00     0.062 A 
ATOM     12  N   UNL A   1      29.817  30.585  20.831  1.00  0.00    -0.181 NA
ATOM     13  C   UNL A   1      28.631  30.716  22.784  1.00  0.00    -0.007 A 
ATOM     14  N   UNL A   1      30.387  29.848  21.793  1.00  0.00    -0.282 N 
ATOM     15  C   UNL A   1      27.639  31.182  23.790  1.00  0.00     0.048 C 
ATOM     16  H   UNL A   1      31.169  29.270  21.638  1.00  0.00     0.190 HD
ENDBRANCH   8   9
ENDBRANCH   7   8
ENDBRANCH   4   7
ENDBRANCH   2   3
ENDBRANCH   1   2
BRANCH   1  17
ATOM     17  C   UNL A   1      32.373  31.247  26.787  1.00  0.00     0.023 C 
BRANCH  17  18
ATOM     18  C   UNL A   1      33.303  32.176  27.545  1.00  0.00     0.116 C 
BRANCH  18  19
ATOM     19  N   UNL A   1      32.826  33.569  27.669  1.00  0.00    -0.352 N 
ATOM     20  C   UNL A   1      33.152  34.504  28.647  1.00  0.00     0.251 C 
ATOM     21  H   UNL A   1      32.199  33.873  26.975  1.00  0.00     0.163 HD
ATOM     22  O   UNL A   1      32.489  35.516  28.848  1.00  0.00    -0.269 OA
BRANCH  20  23
ATOM     23  C   UNL A   1      34.390  34.261  29.394  1.00  0.00     0.039 A 
ATOM     24  C   UNL A   1      34.457  33.550  30.600  1.00  0.00     0.014 A 
ATOM     25  C   UNL A   1      35.517  34.540  28.647  1.00  0.00     0.014 A 
ATOM     26  C   UNL A   1      35.681  32.988  30.966  1.00  0.00     0.010 A 
ATOM     27  C   UNL A   1      36.569  33.706  28.829  1.00  0.00     0.010 A 
ATOM     28  C   UNL A   1      36.725  33.035  30.036  1.00  0.00    -0.014 A 
BRANCH  28  29
ATOM     29  C   UNL A   1      37.983  32.317  30.147  1.00  0.00     0.031 A 
ATOM     30  C   UNL A   1      37.983  30.947  29.567  1.00  0.00     0.074 A 
ATOM     31  C   UNL A   1      39.127  33.012  30.358  1.00  0.00     0.049 A 
ATOM     32  N   UNL A   1      38.059  29.830  30.206  1.00  0.00    -0.248 NA
ATOM     33  C   UNL A   1      37.728  30.783  28.124  1.00  0.00     0.031 C 
ATOM     34  C   UNL A   1      39.303  34.467  30.528  1.00  0.00     0.029 A 
ATOM     35  N   UNL A   1      40.407  32.587  30.256  1.00  0.00    -0.354 N 
ATOM     36  C   UNL A   1      38.109  28.835  29.233  1.00  0.00     0.074 A 
ATOM     37  C   UNL A   1      37.653  29.453  28.016  1.00  0.00     0.031 C 
ATOM     38  C   UNL A   1      40.573  34.811  30.224  1.00  0.00     0.029 A 
ATOM     39  C   UNL A   1      41.339  33.594  30.045  1.00  0.00     0.049 A 
ATOM     40  H   UNL A   1      40.657  31.638  30.328  1.00  0.00     0.167 HD
ATOM     41  C   UNL A   1      38.804  27.678  29.440  1.00  0.00     0.031 A 
ATOM     42  C   UNL A   1      42.640  33.428  29.699  1.00  0.00     0.031 A 
ATOM     43  C   UNL A   1      39.261  27.587  30.809  1.00  0.00     0.049 A 
ATOM     44  C   UNL A   1      42.992  32.024  30.048  1.00  0.00     0.074 A 
ATOM     45  C   UNL A   1      38.642  27.634  32.043  1.00  0.00     0.029 A 
ATOM     46  N   UNL A   1      40.585  27.898  31.040  1.00  0.00    -0.354 N 
ATOM     47  N   UNL A   1      42.984  31.574  31.274  1.00  0.00    -0.248 NA
ATOM     48  C   UNL A   1      42.831  31.010  29.016  1.00  0.00     0.031 C 
ATOM     49  C   UNL A   1      39.483  28.474  32.833  1.00  0.00     0.029 A 
ATOM     50  C   UNL A   1      40.619  28.792  32.081  1.00  0.00     0.049 A 
ATOM     51  H   UNL A   1      41.361  27.545  30.550  1.00  0.00     0.167 HD
ATOM     52  C   UNL A   1      42.369  30.331  31.192  1.00  0.00     0.074 A 
ATOM     53  C   UNL A   1      42.388  29.995  29.766  1.00  0.00     0.031 C 
ATOM     54  C   UNL A   1      41.613  29.837  32.221  1.00  0.00     0.031 A 
BRANCH  41  55
ATOM     55  C   UNL A   1      39.452  26.850  28.355  1.00  0.00    -0.014 A 
ATOM     56  C   UNL A   1      39.395  25.447  28.466  1.00  0.00     0.009 A 
ATOM     57  C   UNL A   1      40.336  27.366  27.390  1.00  0.00     0.009 A 
ATOM     58  C   UNL A   1      40.244  24.617  27.724  1.00  0.00     0.001 A 
ATOM     59  C   UNL A   1      41.154  26.537  26.615  1.00  0.00     0.001 A 
ATOM     60  C   UNL A   1      41.131  25.165  26.807  1.00  0.00     0.000 A 
ENDBRANCH  41  55
BRANCH  42  61
ATOM     61  C   UNL A   1      43.463  34.290  28.817  1.00  0.00    -0.014 A 
ATOM     62  C   UNL A   1      44.861  34.175  28.788  1.00  0.00     0.009 A 
ATOM     63  C   UNL A   1      42.859  35.071  27.810  1.00  0.00     0.009 A 
ATOM     64  C   UNL A   1      45.617  34.782  27.772  1.00  0.00     0.001 A 
ATOM     65  C   UNL A   1      43.611  35.681  26.800  1.00  0.00     0.001 A 
ATOM     66  C   UNL A   1      44.991  35.522  26.771  1.00  0.00     0.000 A 
ENDBRANCH  42  61
BRANCH  54  67
ATOM     67  C   UNL A   1      41.602  30.580  33.540  1.00  0.00    -0.014 A 
ATOM     68  C   UNL A   1      40.755  31.672  33.809  1.00  0.00     0.009 A 
ATOM     69  C   UNL A   1      42.322  30.032  34.611  1.00  0.00     0.009 A 
ATOM     70  C   UNL A   1      40.649  32.206  35.098  1.00  0.00     0.001 A 
ATOM     71  C   UNL A   1      42.202  30.552  35.903  1.00  0.00     0.001 A 
ATOM     72  C   UNL A   1      41.369  31.641  36.146  1.00  0.00     0.000 A 
ENDBRANCH  54  67
ENDBRANCH  28  29
ENDBRANCH  20  23
ENDBRANCH  18  19
ENDBRANCH  17  18
ENDBRANCH   1  17
TORSDOF 13
ENDMDL
MODEL 3
REMARK VINA RESULT:     -10.3      2.856      6.421
REMARK SMILES Cc1n[nH]c(CCC(=O)NCCCCNC(=O)c2ccc(-c3c4nc(c(-c5ccccc5)c5ccc([nH]5)c(-c5ccccc5)c5nc(c(-c6ccccc6)c6ccc3[nH]6)C=C5)C=C4)cc2)c1C
REMARK SMILES IDX 12 1 11 2 10 3 8 4 9 5 7 7 6 8 5 9 1 10 2 11 3 12 66 13 4 14
REMARK SMILES IDX 67 15 13 17 14 18 15 19 16 20 17 22 18 23 19 24 65 25 20 26
REMARK SMILES IDX 64 27 21 28 22 29 23 30 58 31 24 32 63 33 57 34 59 35 25 36
REMARK SMILES IDX 62 37 56 38 55 39 26 41 48 42 33 43 47 44 34 45 37 46 46 47
REMARK SMILES IDX 60 48 35 49 36 50 45 52 61 53 38 54 27 55 28 56 32 57 29 58
REMARK SMILES IDX 31 59 30 60 49 61 50 62 54 63 51 64 53 65 52 66 39 67 40 68
REMARK SMILES IDX 44 69 41 70 43 71 42 72
REMARK H PARENT 10 6 4 16 15 21 59 40 37 51
REMARK Flexibility Score: inf
ROOT
ATOM      1  C   UNL A   1      40.810  21.149  26.104  1.00  0.00     0.023 C 
ENDROOT
BRANCH   1   2
ATOM      2  C   UNL A   1      39.308  21.405  26.039  1.00  0.00     0.116 C 
BRANCH   2   3
ATOM      3  N   UNL A   1      38.975  22.671  26.676  1.00  0.00    -0.356 N 
ATOM      4  C   UNL A   1      38.048  23.611  26.320  1.00  0.00     0.220 C 
ATOM      5  O   UNL A   1      38.122  24.723  26.851  1.00  0.00    -0.275 OA
ATOM      6  H   UNL A   1      39.495  22.882  27.485  1.00  0.00     0.163 HD
BRANCH   4   7
ATOM      7  C   UNL A   1      36.920  23.287  25.353  1.00  0.00     0.106 C 
BRANCH   7   8
ATOM      8  C   UNL A   1      35.520  23.647  25.867  1.00  0.00     0.066 C 
BRANCH   8   9
ATOM      9  C   UNL A   1      34.750  24.521  24.932  1.00  0.00     0.039 A 
ATOM     10  C   UNL A   1      32.446  25.629  22.303  1.00  0.00     0.069 C 
ATOM     11  C   UNL A   1      33.428  25.439  23.402  1.00  0.00     0.062 A 
ATOM     12  N   UNL A   1      33.488  26.327  24.400  1.00  0.00    -0.181 NA
ATOM     13  C   UNL A   1      34.258  24.305  23.653  1.00  0.00    -0.007 A 
ATOM     14  N   UNL A   1      34.340  25.781  25.277  1.00  0.00    -0.282 N 
ATOM     15  C   UNL A   1      34.376  23.068  22.836  1.00  0.00     0.048 C 
ATOM     16  H   UNL A   1      34.642  26.241  26.093  1.00  0.00     0.190 HD
ENDBRANCH   8   9
ENDBRANCH   7   8
ENDBRANCH   4   7
ENDBRANCH   2   3
ENDBRANCH   1   2
BRANCH   1  17
ATOM     17  C   UNL A   1      41.323  19.707  26.107  1.00  0.00     0.023 C 
BRANCH  17  18
ATOM     18  C   UNL A   1      42.798  19.605  26.449  1.00  0.00     0.116 C 
BRANCH  18  19
ATOM     19  N   UNL A   1      43.647  19.046  25.378  1.00  0.00    -0.352 N 
ATOM     20  C   UNL A   1      44.323  19.731  24.372  1.00  0.00     0.251 C 
ATOM     21  H   UNL A   1      43.749  18.067  25.374  1.00  0.00     0.163 HD
ATOM     22  O   UNL A   1      44.747  19.182  23.361  1.00  0.00    -0.269 OA
BRANCH  20  23
ATOM     23  C   UNL A   1      44.577  21.156  24.612  1.00  0.00     0.039 A 
ATOM     24  C   UNL A   1      43.730  22.189  24.189  1.00  0.00     0.014 A 
ATOM     25  C   UNL A   1      45.571  21.361  25.546  1.00  0.00     0.014 A 
ATOM     26  C   UNL A   1      43.809  23.416  24.850  1.00  0.00     0.010 A 
ATOM     27  C   UNL A   1      45.383  22.406  26.388  1.00  0.00     0.010 A 
ATOM     28  C   UNL A   1      44.615  23.493  25.990  1.00  0.00    -0.014 A 
BRANCH  28  29
ATOM     29  C   UNL A   1      44.646  24.605  26.925  1.00  0.00     0.031 A 
ATOM     30  C   UNL A   1      45.695  25.626  26.658  1.00  0.00     0.074 A 
ATOM     31  C   UNL A   1      43.549  24.875  27.672  1.00  0.00     0.049 A 
ATOM     32  N   UNL A   1      46.743  25.871  27.367  1.00  0.00    -0.248 NA
ATOM     33  C   UNL A   1      45.659  26.369  25.385  1.00  0.00     0.031 C 
ATOM     34  C   UNL A   1      42.259  24.159  27.707  1.00  0.00     0.029 A 
ATOM     35  N   UNL A   1      43.277  25.975  28.410  1.00  0.00    -0.354 N 
ATOM     36  C   UNL A   1      47.367  26.961  26.765  1.00  0.00     0.074 A 
ATOM     37  C   UNL A   1      46.807  27.051  25.442  1.00  0.00     0.031 C 
ATOM     38  C   UNL A   1      41.294  24.983  28.169  1.00  0.00     0.029 A 
ATOM     39  C   UNL A   1      41.926  26.194  28.652  1.00  0.00     0.049 A 
ATOM     40  H   UNL A   1      43.981  26.574  28.749  1.00  0.00     0.167 HD
ATOM     41  C   UNL A   1      48.063  27.874  27.503  1.00  0.00     0.031 A 
ATOM     42  C   UNL A   1      41.374  27.317  29.171  1.00  0.00     0.031 A 
ATOM     43  C   UNL A   1      48.204  27.432  28.873  1.00  0.00     0.049 A 
ATOM     44  C   UNL A   1      42.473  28.051  29.855  1.00  0.00     0.074 A 
ATOM     45  C   UNL A   1      48.717  26.301  29.479  1.00  0.00     0.029 A 
ATOM     46  N   UNL A   1      47.352  27.999  29.797  1.00  0.00    -0.354 N 
ATOM     47  N   UNL A   1      43.115  27.571  30.886  1.00  0.00    -0.248 NA
ATOM     48  C   UNL A   1      43.202  29.049  29.083  1.00  0.00     0.031 C 
ATOM     49  C   UNL A   1      47.760  25.971  30.485  1.00  0.00     0.029 A 
ATOM     50  C   UNL A   1      46.789  26.976  30.517  1.00  0.00     0.049 A 
ATOM     51  H   UNL A   1      47.180  28.961  29.918  1.00  0.00     0.167 HD
ATOM     52  C   UNL A   1      44.453  27.844  30.631  1.00  0.00     0.074 A 
ATOM     53  C   UNL A   1      44.435  28.843  29.559  1.00  0.00     0.031 C 
ATOM     54  C   UNL A   1      45.450  27.014  31.070  1.00  0.00     0.031 A 
BRANCH  41  55
ATOM     55  C   UNL A   1      48.234  29.331  27.144  1.00  0.00    -0.014 A 
ATOM     56  C   UNL A   1      49.530  29.880  27.193  1.00  0.00     0.009 A 
ATOM     57  C   UNL A   1      47.171  30.245  27.026  1.00  0.00     0.009 A 
ATOM     58  C   UNL A   1      49.740  31.264  27.221  1.00  0.00     0.001 A 
ATOM     59  C   UNL A   1      47.380  31.628  27.009  1.00  0.00     0.001 A 
ATOM     60  C   UNL A   1      48.663  32.137  27.141  1.00  0.00     0.000 A 
ENDBRANCH  41  55
BRANCH  42  61
ATOM     61  C   UNL A   1      40.061  27.921  28.838  1.00  0.00    -0.014 A 
ATOM     62  C   UNL A   1      39.047  28.031  29.801  1.00  0.00     0.009 A 
ATOM     63  C   UNL A   1      39.879  28.621  27.627  1.00  0.00     0.009 A 
ATOM     64  C   UNL A   1      37.919  28.839  29.577  1.00  0.00     0.001 A 
ATOM     65  C   UNL A   1      38.754  29.422  27.400  1.00  0.00     0.001 A 
ATOM     66  C   UNL A   1      37.780  29.545  28.384  1.00  0.00     0.000 A 
ENDBRANCH  42  61
BRANCH  54  67
ATOM     67  C   UNL A   1      45.094  25.878  32.005  1.00  0.00    -0.014 A 
ATOM     68  C   UNL A   1      44.588  24.640  31.565  1.00  0.00     0.009 A 
ATOM     69  C   UNL A   1      45.473  25.988  33.350  1.00  0.00     0.009 A 
ATOM     70  C   UNL A   1      44.450  23.560  32.445  1.00  0.00     0.001 A 
ATOM     71  C   UNL A   1      45.354  24.905  34.226  1.00  0.00     0.001 A 
ATOM     72  C   UNL A   1      44.839  23.693  33.775  1.00  0.00     0.000 A 
ENDBRANCH  54  67
ENDBRANCH  28  29
ENDBRANCH  20  23
ENDBRANCH  18  19
ENDBRANCH  17  18
ENDBRANCH   1  17
TORSDOF 13
ENDMDL
