MODEL 1
REMARK VINA RESULT:     -12.1      0.000      0.000
REMARK SMILES CC1CCN(S(=O)(=O)N2CCC[C@H](c3cccc(C(=O)NCCCCNC(=O)c4ccc(-c5c6nc(c(-c7ccccc7)c7ccc([nH]7)c(-c7ccccc7)c7nc(c(-c8ccccc8)c8ccc5[nH]8)C=C7)C=C6)cc4)c3)C2)CC1
REMARK SMILES IDX 23 1 22 2 21 3 19 4 20 5 18 7 14 8 15 9 77 10 16 11 17 12
REMARK SMILES IDX 13 13 9 14 10 15 78 16 11 17 12 18 6 19 7 20 8 21 5 22 1 23
REMARK SMILES IDX 2 24 3 25 80 26 4 27 79 28 24 29 25 30 26 31 27 32 28 34
REMARK SMILES IDX 29 35 30 36 76 37 31 38 75 39 32 40 33 41 34 42 69 43 35 44
REMARK SMILES IDX 74 45 68 46 70 47 36 48 73 49 67 50 66 51 37 53 59 54 44 55
REMARK SMILES IDX 58 56 45 57 48 58 57 59 71 60 46 61 47 62 56 64 72 65 49 66
REMARK SMILES IDX 38 67 39 68 43 69 40 70 42 71 41 72 60 73 61 74 65 75 62 76
REMARK SMILES IDX 64 77 63 78 50 79 51 80 55 81 52 82 54 83 53 84
REMARK H PARENT 21 6 26 33 70 52 48 63
REMARK Flexibility Score: inf
ROOT
ATOM      1  C   UNL A   1      36.234  20.274  24.994  1.00  0.00     0.023 C 
ENDROOT
BRANCH   1   2
ATOM      2  C   UNL A   1      34.970  21.114  25.090  1.00  0.00     0.116 C 
BRANCH   2   3
ATOM      3  N   UNL A   1      34.558  21.480  26.440  1.00  0.00    -0.352 N 
ATOM      4  C   UNL A   1      33.591  22.363  26.893  1.00  0.00     0.251 C 
ATOM      5  O   UNL A   1      33.443  22.505  28.105  1.00  0.00    -0.269 OA
ATOM      6  H   UNL A   1      35.055  21.021  27.155  1.00  0.00     0.163 HD
BRANCH   4   7
ATOM      7  C   UNL A   1      32.785  23.192  25.955  1.00  0.00     0.040 A 
ATOM      8  C   UNL A   1      31.916  25.397  25.418  1.00  0.00    -0.043 A 
ATOM      9  C   UNL A   1      30.921  24.792  24.640  1.00  0.00     0.004 A 
ATOM     10  C   UNL A   1      32.932  24.574  25.917  1.00  0.00     0.017 A 
ATOM     11  C   UNL A   1      30.893  23.403  24.474  1.00  0.00     0.001 A 
ATOM     12  C   UNL A   1      31.793  22.598  25.175  1.00  0.00     0.014 A 
BRANCH   8  13
ATOM     13  C   UNL A   1      31.815  26.811  25.983  1.00  0.00     0.034 C 
ATOM     14  N   UNL A   1      31.634  28.267  23.986  1.00  0.00    -0.188 NA
ATOM     15  C   UNL A   1      32.968  28.863  24.187  1.00  0.00     0.103 C 
ATOM     16  C   UNL A   1      30.944  27.799  25.205  1.00  0.00     0.111 C 
ATOM     17  C   UNL A   1      33.850  27.930  25.017  1.00  0.00     0.017 C 
ATOM     18  C   UNL A   1      33.148  27.514  26.303  1.00  0.00     0.011 C 
BRANCH  14  19
ATOM     19  S   UNL A   1      30.704  28.831  22.715  1.00  0.00     0.281 S 
ATOM     20  O   UNL A   1      30.353  27.699  21.891  1.00  0.00    -0.195 OA
ATOM     21  O   UNL A   1      31.387  29.969  22.135  1.00  0.00    -0.195 OA
BRANCH  19  22
ATOM     22  N   UNL A   1      29.300  29.437  23.458  1.00  0.00    -0.189 NA
ATOM     23  C   UNL A   1      28.062  32.158  20.417  1.00  0.00     0.008 C 
ATOM     24  C   UNL A   1      27.988  31.458  21.774  1.00  0.00    -0.012 C 
ATOM     25  C   UNL A   1      29.236  31.785  22.619  1.00  0.00     0.020 C 
ATOM     26  C   UNL A   1      27.776  29.949  21.576  1.00  0.00     0.020 C 
ATOM     27  C   UNL A   1      29.410  30.878  23.840  1.00  0.00     0.104 C 
ATOM     28  C   UNL A   1      27.957  29.205  22.888  1.00  0.00     0.104 C 
ENDBRANCH  19  22
ENDBRANCH  14  19
ENDBRANCH   8  13
ENDBRANCH   4   7
ENDBRANCH   2   3
ENDBRANCH   1   2
BRANCH   1  29
ATOM     29  C   UNL A   1      37.511  21.021  24.646  1.00  0.00     0.023 C 
BRANCH  29  30
ATOM     30  C   UNL A   1      38.580  21.040  25.731  1.00  0.00     0.116 C 
BRANCH  30  31
ATOM     31  N   UNL A   1      39.493  19.905  25.679  1.00  0.00    -0.352 N 
ATOM     32  C   UNL A   1      40.827  19.835  26.012  1.00  0.00     0.251 C 
ATOM     33  H   UNL A   1      39.096  19.062  25.358  1.00  0.00     0.163 HD
ATOM     34  O   UNL A   1      41.465  18.807  25.810  1.00  0.00    -0.269 OA
BRANCH  32  35
ATOM     35  C   UNL A   1      41.500  21.028  26.569  1.00  0.00     0.039 A 
ATOM     36  C   UNL A   1      42.100  21.935  25.693  1.00  0.00     0.014 A 
ATOM     37  C   UNL A   1      41.468  21.285  27.940  1.00  0.00     0.014 A 
ATOM     38  C   UNL A   1      42.560  23.159  26.181  1.00  0.00     0.010 A 
ATOM     39  C   UNL A   1      41.847  22.538  28.411  1.00  0.00     0.010 A 
ATOM     40  C   UNL A   1      42.374  23.496  27.532  1.00  0.00    -0.014 A 
BRANCH  40  41
ATOM     41  C   UNL A   1      42.665  24.863  28.035  1.00  0.00     0.031 A 
ATOM     42  C   UNL A   1      44.047  25.225  28.501  1.00  0.00     0.074 A 
ATOM     43  C   UNL A   1      41.658  25.752  28.157  1.00  0.00     0.049 A 
ATOM     44  N   UNL A   1      44.467  26.335  29.051  1.00  0.00    -0.248 NA
ATOM     45  C   UNL A   1      45.087  24.196  28.348  1.00  0.00     0.031 C 
ATOM     46  C   UNL A   1      40.263  25.513  27.777  1.00  0.00     0.029 A 
ATOM     47  N   UNL A   1      41.650  27.035  28.648  1.00  0.00    -0.354 N 
ATOM     48  C   UNL A   1      45.814  26.136  29.321  1.00  0.00     0.074 A 
ATOM     49  C   UNL A   1      46.129  24.782  28.920  1.00  0.00     0.031 C 
ATOM     50  C   UNL A   1      39.543  26.619  28.024  1.00  0.00     0.029 A 
ATOM     51  C   UNL A   1      40.409  27.625  28.629  1.00  0.00     0.049 A 
ATOM     52  H   UNL A   1      42.457  27.489  28.981  1.00  0.00     0.167 HD
ATOM     53  C   UNL A   1      46.711  27.006  29.841  1.00  0.00     0.031 A 
ATOM     54  C   UNL A   1      40.006  28.832  29.068  1.00  0.00     0.031 A 
ATOM     55  C   UNL A   1      46.395  28.350  30.246  1.00  0.00     0.049 A 
ATOM     56  C   UNL A   1      41.012  29.760  29.691  1.00  0.00     0.074 A 
ATOM     57  C   UNL A   1      47.247  29.325  30.733  1.00  0.00     0.029 A 
ATOM     58  N   UNL A   1      45.124  28.903  30.224  1.00  0.00    -0.354 N 
ATOM     59  N   UNL A   1      42.300  29.584  29.865  1.00  0.00    -0.248 NA
ATOM     60  C   UNL A   1      40.508  31.052  30.177  1.00  0.00     0.031 C 
ATOM     61  C   UNL A   1      46.481  30.445  31.071  1.00  0.00     0.029 A 
ATOM     62  C   UNL A   1      45.162  30.193  30.730  1.00  0.00     0.049 A 
ATOM     63  H   UNL A   1      44.314  28.448  29.898  1.00  0.00     0.167 HD
ATOM     64  C   UNL A   1      42.763  30.750  30.462  1.00  0.00     0.074 A 
ATOM     65  C   UNL A   1      41.624  31.634  30.595  1.00  0.00     0.031 C 
ATOM     66  C   UNL A   1      44.018  31.058  30.866  1.00  0.00     0.031 A 
BRANCH  53  67
ATOM     67  C   UNL A   1      48.124  26.522  30.017  1.00  0.00    -0.014 A 
ATOM     68  C   UNL A   1      48.544  25.911  31.211  1.00  0.00     0.009 A 
ATOM     69  C   UNL A   1      49.040  26.641  28.960  1.00  0.00     0.009 A 
ATOM     70  C   UNL A   1      49.859  25.464  31.354  1.00  0.00     0.001 A 
ATOM     71  C   UNL A   1      50.346  26.165  29.094  1.00  0.00     0.001 A 
ATOM     72  C   UNL A   1      50.757  25.586  30.294  1.00  0.00     0.000 A 
ENDBRANCH  53  67
BRANCH  54  73
ATOM     73  C   UNL A   1      38.578  29.235  28.946  1.00  0.00    -0.014 A 
ATOM     74  C   UNL A   1      38.084  29.758  27.740  1.00  0.00     0.009 A 
ATOM     75  C   UNL A   1      37.704  29.112  30.038  1.00  0.00     0.009 A 
ATOM     76  C   UNL A   1      36.754  30.175  27.642  1.00  0.00     0.001 A 
ATOM     77  C   UNL A   1      36.367  29.498  29.925  1.00  0.00     0.001 A 
ATOM     78  C   UNL A   1      35.896  30.039  28.731  1.00  0.00     0.000 A 
ENDBRANCH  54  73
BRANCH  66  79
ATOM     79  C   UNL A   1      44.232  32.415  31.478  1.00  0.00    -0.014 A 
ATOM     80  C   UNL A   1      44.097  32.620  32.860  1.00  0.00     0.009 A 
ATOM     81  C   UNL A   1      44.621  33.493  30.667  1.00  0.00     0.009 A 
ATOM     82  C   UNL A   1      44.317  33.883  33.412  1.00  0.00     0.001 A 
ATOM     83  C   UNL A   1      44.872  34.747  31.226  1.00  0.00     0.001 A 
ATOM     84  C   UNL A   1      44.711  34.943  32.596  1.00  0.00     0.000 A 
ENDBRANCH  66  79
ENDBRANCH  40  41
ENDBRANCH  32  35
ENDBRANCH  30  31
ENDBRANCH  29  30
ENDBRANCH   1  29
TORSDOF 14
ENDMDL
MODEL 2
REMARK VINA RESULT:     -11.8      4.998     11.551
REMARK SMILES CC1CCN(S(=O)(=O)N2CCC[C@H](c3cccc(C(=O)NCCCCNC(=O)c4ccc(-c5c6nc(c(-c7ccccc7)c7ccc([nH]7)c(-c7ccccc7)c7nc(c(-c8ccccc8)c8ccc5[nH]8)C=C7)C=C6)cc4)c3)C2)CC1
REMARK SMILES IDX 23 1 22 2 21 3 19 4 20 5 18 7 14 8 15 9 77 10 16 11 17 12
REMARK SMILES IDX 13 13 9 14 10 15 78 16 11 17 12 18 6 19 7 20 8 21 5 22 1 23
REMARK SMILES IDX 2 24 3 25 80 26 4 27 79 28 24 29 25 30 26 31 27 32 28 34
REMARK SMILES IDX 29 35 30 36 76 37 31 38 75 39 32 40 33 41 34 42 69 43 35 44
REMARK SMILES IDX 74 45 68 46 70 47 36 48 73 49 67 50 66 51 37 53 59 54 44 55
REMARK SMILES IDX 58 56 45 57 48 58 57 59 71 60 46 61 47 62 56 64 72 65 49 66
REMARK SMILES IDX 38 67 39 68 43 69 40 70 42 71 41 72 60 73 61 74 65 75 62 76
REMARK SMILES IDX 64 77 63 78 50 79 51 80 55 81 52 82 54 83 53 84
REMARK H PARENT 21 6 26 33 70 52 48 63
REMARK Flexibility Score: inf
ROOT
ATOM      1  C   UNL A   1      38.141  33.630  29.590  1.00  0.00     0.023 C 
ENDROOT
BRANCH   1   2
ATOM      2  C   UNL A   1      38.713  34.490  30.706  1.00  0.00     0.116 C 
BRANCH   2   3
ATOM      3  N   UNL A   1      37.754  34.937  31.710  1.00  0.00    -0.352 N 
ATOM      4  C   UNL A   1      37.280  34.325  32.858  1.00  0.00     0.251 C 
ATOM      5  O   UNL A   1      36.451  34.918  33.544  1.00  0.00    -0.269 OA
ATOM      6  H   UNL A   1      37.377  35.832  31.541  1.00  0.00     0.163 HD
BRANCH   4   7
ATOM      7  C   UNL A   1      37.692  32.944  33.238  1.00  0.00     0.040 A 
ATOM      8  C   UNL A   1      39.521  31.450  33.808  1.00  0.00    -0.043 A 
ATOM      9  C   UNL A   1      38.718  30.362  33.441  1.00  0.00     0.004 A 
ATOM     10  C   UNL A   1      38.914  32.709  33.857  1.00  0.00     0.017 A 
ATOM     11  C   UNL A   1      37.394  30.560  33.032  1.00  0.00     0.001 A 
ATOM     12  C   UNL A   1      36.898  31.856  32.879  1.00  0.00     0.014 A 
BRANCH   8  13
ATOM     13  C   UNL A   1      41.045  31.399  33.879  1.00  0.00     0.034 C 
ATOM     14  N   UNL A   1      41.534  29.487  35.377  1.00  0.00    -0.188 NA
ATOM     15  C   UNL A   1      42.052  30.347  36.457  1.00  0.00     0.103 C 
ATOM     16  C   UNL A   1      41.678  30.012  34.005  1.00  0.00     0.111 C 
ATOM     17  C   UNL A   1      41.488  31.763  36.328  1.00  0.00     0.017 C 
ATOM     18  C   UNL A   1      41.709  32.314  34.925  1.00  0.00     0.011 C 
BRANCH  14  19
ATOM     19  S   UNL A   1      41.583  27.829  35.601  1.00  0.00     0.281 S 
ATOM     20  O   UNL A   1      41.085  27.208  34.397  1.00  0.00    -0.195 OA
ATOM     21  O   UNL A   1      40.969  27.535  36.879  1.00  0.00    -0.195 OA
BRANCH  19  22
ATOM     22  N   UNL A   1      43.238  27.478  35.767  1.00  0.00    -0.189 NA
ATOM     23  C   UNL A   1      43.174  23.399  34.524  1.00  0.00     0.008 C 
ATOM     24  C   UNL A   1      43.811  24.684  35.053  1.00  0.00    -0.012 C 
ATOM     25  C   UNL A   1      43.197  25.069  36.414  1.00  0.00     0.020 C 
ATOM     26  C   UNL A   1      43.692  25.800  34.004  1.00  0.00     0.020 C 
ATOM     27  C   UNL A   1      43.526  26.498  36.858  1.00  0.00     0.104 C 
ATOM     28  C   UNL A   1      44.081  27.141  34.601  1.00  0.00     0.104 C 
ENDBRANCH  19  22
ENDBRANCH  14  19
ENDBRANCH   8  13
ENDBRANCH   4   7
ENDBRANCH   2   3
ENDBRANCH   1   2
BRANCH   1  29
ATOM     29  C   UNL A   1      36.625  33.579  29.491  1.00  0.00     0.023 C 
BRANCH  29  30
ATOM     30  C   UNL A   1      36.062  33.328  28.098  1.00  0.00     0.116 C 
BRANCH  30  31
ATOM     31  N   UNL A   1      34.866  32.495  28.088  1.00  0.00    -0.352 N 
ATOM     32  C   UNL A   1      34.750  31.125  28.160  1.00  0.00     0.251 C 
ATOM     33  H   UNL A   1      34.014  32.984  28.021  1.00  0.00     0.163 HD
ATOM     34  O   UNL A   1      33.655  30.586  28.039  1.00  0.00    -0.269 OA
BRANCH  32  35
ATOM     35  C   UNL A   1      35.965  30.301  28.332  1.00  0.00     0.039 A 
ATOM     36  C   UNL A   1      36.842  30.158  27.254  1.00  0.00     0.014 A 
ATOM     37  C   UNL A   1      36.272  29.739  29.572  1.00  0.00     0.014 A 
ATOM     38  C   UNL A   1      38.085  29.556  27.455  1.00  0.00     0.010 A 
ATOM     39  C   UNL A   1      37.544  29.219  29.792  1.00  0.00     0.010 A 
ATOM     40  C   UNL A   1      38.471  29.144  28.742  1.00  0.00    -0.014 A 
BRANCH  40  41
ATOM     41  C   UNL A   1      39.857  28.692  29.026  1.00  0.00     0.031 A 
ATOM     42  C   UNL A   1      40.866  29.645  29.602  1.00  0.00     0.074 A 
ATOM     43  C   UNL A   1      40.231  27.444  28.679  1.00  0.00     0.049 A 
ATOM     44  N   UNL A   1      42.140  29.456  29.834  1.00  0.00    -0.248 NA
ATOM     45  C   UNL A   1      40.385  30.993  29.941  1.00  0.00     0.031 C 
ATOM     46  C   UNL A   1      39.358  26.432  28.077  1.00  0.00     0.029 A 
ATOM     47  N   UNL A   1      41.448  26.814  28.773  1.00  0.00    -0.354 N 
ATOM     48  C   UNL A   1      42.615  30.661  30.334  1.00  0.00     0.074 A 
ATOM     49  C   UNL A   1      41.505  31.589  30.324  1.00  0.00     0.031 C 
ATOM     50  C   UNL A   1      40.060  25.305  27.879  1.00  0.00     0.029 A 
ATOM     51  C   UNL A   1      41.442  25.528  28.288  1.00  0.00     0.049 A 
ATOM     52  H   UNL A   1      42.249  27.243  29.150  1.00  0.00     0.167 HD
ATOM     53  C   UNL A   1      43.858  30.964  30.775  1.00  0.00     0.031 A 
ATOM     54  C   UNL A   1      42.440  24.632  28.167  1.00  0.00     0.031 A 
ATOM     55  C   UNL A   1      44.963  30.042  30.777  1.00  0.00     0.049 A 
ATOM     56  C   UNL A   1      43.825  25.012  28.615  1.00  0.00     0.074 A 
ATOM     57  C   UNL A   1      46.247  30.239  31.254  1.00  0.00     0.029 A 
ATOM     58  N   UNL A   1      44.919  28.755  30.265  1.00  0.00    -0.354 N 
ATOM     59  N   UNL A   1      44.239  26.131  29.159  1.00  0.00    -0.248 NA
ATOM     60  C   UNL A   1      44.879  24.004  28.432  1.00  0.00     0.031 C 
ATOM     61  C   UNL A   1      46.999  29.095  30.968  1.00  0.00     0.029 A 
ATOM     62  C   UNL A   1      46.166  28.160  30.375  1.00  0.00     0.049 A 
ATOM     63  H   UNL A   1      44.121  28.326  29.880  1.00  0.00     0.167 HD
ATOM     64  C   UNL A   1      45.595  25.954  29.402  1.00  0.00     0.074 A 
ATOM     65  C   UNL A   1      45.927  24.613  28.969  1.00  0.00     0.031 C 
ATOM     66  C   UNL A   1      46.485  26.827  29.931  1.00  0.00     0.031 A 
BRANCH  53  67
ATOM     67  C   UNL A   1      44.094  32.361  31.279  1.00  0.00    -0.014 A 
ATOM     68  C   UNL A   1      44.110  33.461  30.404  1.00  0.00     0.009 A 
ATOM     69  C   UNL A   1      44.262  32.588  32.653  1.00  0.00     0.009 A 
ATOM     70  C   UNL A   1      44.327  34.751  30.891  1.00  0.00     0.001 A 
ATOM     71  C   UNL A   1      44.446  33.882  33.143  1.00  0.00     0.001 A 
ATOM     72  C   UNL A   1      44.489  34.961  32.261  1.00  0.00     0.000 A 
ENDBRANCH  53  67
BRANCH  54  73
ATOM     73  C   UNL A   1      42.174  23.288  27.585  1.00  0.00    -0.014 A 
ATOM     74  C   UNL A   1      42.502  23.011  26.249  1.00  0.00     0.009 A 
ATOM     75  C   UNL A   1      41.578  22.279  28.359  1.00  0.00     0.009 A 
ATOM     76  C   UNL A   1      42.212  21.762  25.693  1.00  0.00     0.001 A 
ATOM     77  C   UNL A   1      41.320  21.021  27.810  1.00  0.00     0.001 A 
ATOM     78  C   UNL A   1      41.627  20.767  26.475  1.00  0.00     0.000 A 
ENDBRANCH  54  73
BRANCH  66  79
ATOM     79  C   UNL A   1      47.904  26.355  30.088  1.00  0.00    -0.014 A 
ATOM     80  C   UNL A   1      48.835  26.486  29.046  1.00  0.00     0.009 A 
ATOM     81  C   UNL A   1      48.328  25.814  31.313  1.00  0.00     0.009 A 
ATOM     82  C   UNL A   1      50.152  26.057  29.217  1.00  0.00     0.001 A 
ATOM     83  C   UNL A   1      49.654  25.417  31.491  1.00  0.00     0.001 A 
ATOM     84  C   UNL A   1      50.562  25.531  30.441  1.00  0.00     0.000 A 
ENDBRANCH  66  79
ENDBRANCH  40  41
ENDBRANCH  32  35
ENDBRANCH  30  31
ENDBRANCH  29  30
ENDBRANCH   1  29
TORSDOF 14
ENDMDL
MODEL 3
REMARK VINA RESULT:     -11.8      2.854      4.381
REMARK SMILES CC1CCN(S(=O)(=O)N2CCC[C@H](c3cccc(C(=O)NCCCCNC(=O)c4ccc(-c5c6nc(c(-c7ccccc7)c7ccc([nH]7)c(-c7ccccc7)c7nc(c(-c8ccccc8)c8ccc5[nH]8)C=C7)C=C6)cc4)c3)C2)CC1
REMARK SMILES IDX 23 1 22 2 21 3 19 4 20 5 18 7 14 8 15 9 77 10 16 11 17 12
REMARK SMILES IDX 13 13 9 14 10 15 78 16 11 17 12 18 6 19 7 20 8 21 5 22 1 23
REMARK SMILES IDX 2 24 3 25 80 26 4 27 79 28 24 29 25 30 26 31 27 32 28 34
REMARK SMILES IDX 29 35 30 36 76 37 31 38 75 39 32 40 33 41 34 42 69 43 35 44
REMARK SMILES IDX 74 45 68 46 70 47 36 48 73 49 67 50 66 51 37 53 59 54 44 55
REMARK SMILES IDX 58 56 45 57 48 58 57 59 71 60 46 61 47 62 56 64 72 65 49 66
REMARK SMILES IDX 38 67 39 68 43 69 40 70 42 71 41 72 60 73 61 74 65 75 62 76
REMARK SMILES IDX 64 77 63 78 50 79 51 80 55 81 52 82 54 83 53 84
REMARK H PARENT 21 6 26 33 70 52 48 63
REMARK Flexibility Score: inf
ROOT
ATOM      1  C   UNL A   1      35.993  21.347  25.592  1.00  0.00     0.023 C 
ENDROOT
BRANCH   1   2
ATOM      2  C   UNL A   1      35.625  20.209  24.653  1.00  0.00     0.116 C 
BRANCH   2   3
ATOM      3  N   UNL A   1      34.371  19.527  24.951  1.00  0.00    -0.352 N 
ATOM      4  C   UNL A   1      33.120  20.020  25.288  1.00  0.00     0.251 C 
ATOM      5  O   UNL A   1      32.210  19.223  25.506  1.00  0.00    -0.269 OA
ATOM      6  H   UNL A   1      34.421  18.545  24.907  1.00  0.00     0.163 HD
BRANCH   4   7
ATOM      7  C   UNL A   1      32.873  21.479  25.463  1.00  0.00     0.040 A 
ATOM      8  C   UNL A   1      33.045  23.703  24.501  1.00  0.00    -0.043 A 
ATOM      9  C   UNL A   1      32.978  24.244  25.791  1.00  0.00     0.004 A 
ATOM     10  C   UNL A   1      32.815  22.330  24.366  1.00  0.00     0.017 A 
ATOM     11  C   UNL A   1      32.801  23.412  26.903  1.00  0.00     0.001 A 
ATOM     12  C   UNL A   1      32.802  22.025  26.745  1.00  0.00     0.014 A 
BRANCH   8  13
ATOM     13  C   UNL A   1      33.622  24.443  23.296  1.00  0.00     0.034 C 
ATOM     14  N   UNL A   1      32.673  26.726  23.457  1.00  0.00    -0.188 NA
ATOM     15  C   UNL A   1      31.823  26.556  22.264  1.00  0.00     0.103 C 
ATOM     16  C   UNL A   1      33.917  25.931  23.484  1.00  0.00     0.111 C 
ATOM     17  C   UNL A   1      31.557  25.072  22.006  1.00  0.00     0.017 C 
ATOM     18  C   UNL A   1      32.857  24.281  21.969  1.00  0.00     0.011 C 
BRANCH  14  19
ATOM     19  S   UNL A   1      32.664  28.214  24.221  1.00  0.00     0.281 S 
ATOM     20  O   UNL A   1      31.471  28.913  23.808  1.00  0.00    -0.195 OA
ATOM     21  O   UNL A   1      33.965  28.821  24.030  1.00  0.00    -0.195 OA
BRANCH  19  22
ATOM     22  N   UNL A   1      32.545  27.836  25.875  1.00  0.00    -0.189 NA
ATOM     23  C   UNL A   1      34.332  31.355  27.489  1.00  0.00     0.008 C 
ATOM     24  C   UNL A   1      33.693  29.968  27.542  1.00  0.00    -0.012 C 
ATOM     25  C   UNL A   1      34.577  28.938  26.810  1.00  0.00     0.020 C 
ATOM     26  C   UNL A   1      32.260  30.027  26.991  1.00  0.00     0.020 C 
ATOM     27  C   UNL A   1      33.871  27.609  26.525  1.00  0.00     0.104 C 
ATOM     28  C   UNL A   1      31.702  28.628  26.794  1.00  0.00     0.104 C 
ENDBRANCH  19  22
ENDBRANCH  14  19
ENDBRANCH   8  13
ENDBRANCH   4   7
ENDBRANCH   2   3
ENDBRANCH   1   2
BRANCH   1  29
ATOM     29  C   UNL A   1      36.465  22.633  24.934  1.00  0.00     0.023 C 
BRANCH  29  30
ATOM     30  C   UNL A   1      37.445  23.469  25.748  1.00  0.00     0.116 C 
BRANCH  30  31
ATOM     31  N   UNL A   1      38.780  22.891  25.835  1.00  0.00    -0.352 N 
ATOM     32  C   UNL A   1      39.935  23.424  26.363  1.00  0.00     0.251 C 
ATOM     33  H   UNL A   1      38.870  21.984  25.462  1.00  0.00     0.163 HD
ATOM     34  O   UNL A   1      41.000  22.825  26.261  1.00  0.00    -0.269 OA
BRANCH  32  35
ATOM     35  C   UNL A   1      39.892  24.753  27.009  1.00  0.00     0.039 A 
ATOM     36  C   UNL A   1      39.351  24.863  28.292  1.00  0.00     0.014 A 
ATOM     37  C   UNL A   1      40.453  25.866  26.381  1.00  0.00     0.014 A 
ATOM     38  C   UNL A   1      39.484  26.063  28.993  1.00  0.00     0.010 A 
ATOM     39  C   UNL A   1      40.662  27.032  27.111  1.00  0.00     0.010 A 
ATOM     40  C   UNL A   1      40.201  27.133  28.433  1.00  0.00    -0.014 A 
BRANCH  40  41
ATOM     41  C   UNL A   1      40.536  28.342  29.229  1.00  0.00     0.031 A 
ATOM     42  C   UNL A   1      41.830  28.418  29.989  1.00  0.00     0.074 A 
ATOM     43  C   UNL A   1      39.630  29.333  29.339  1.00  0.00     0.049 A 
ATOM     44  N   UNL A   1      42.253  29.350  30.804  1.00  0.00    -0.248 NA
ATOM     45  C   UNL A   1      42.760  27.290  29.828  1.00  0.00     0.031 C 
ATOM     46  C   UNL A   1      38.320  29.365  28.683  1.00  0.00     0.029 A 
ATOM     47  N   UNL A   1      39.667  30.505  30.055  1.00  0.00    -0.354 N 
ATOM     48  C   UNL A   1      43.490  28.917  31.262  1.00  0.00     0.074 A 
ATOM     49  C   UNL A   1      43.726  27.616  30.674  1.00  0.00     0.031 C 
ATOM     50  C   UNL A   1      37.692  30.506  29.006  1.00  0.00     0.029 A 
ATOM     51  C   UNL A   1      38.526  31.263  29.932  1.00  0.00     0.049 A 
ATOM     52  H   UNL A   1      40.437  30.777  30.604  1.00  0.00     0.167 HD
ATOM     53  C   UNL A   1      44.357  29.550  32.086  1.00  0.00     0.031 A 
ATOM     54  C   UNL A   1      38.180  32.427  30.514  1.00  0.00     0.031 A 
ATOM     55  C   UNL A   1      44.117  30.840  32.677  1.00  0.00     0.049 A 
ATOM     56  C   UNL A   1      39.140  33.084  31.467  1.00  0.00     0.074 A 
ATOM     57  C   UNL A   1      44.959  31.589  33.481  1.00  0.00     0.029 A 
ATOM     58  N   UNL A   1      42.945  31.567  32.538  1.00  0.00    -0.354 N 
ATOM     59  N   UNL A   1      40.340  32.698  31.828  1.00  0.00    -0.248 NA
ATOM     60  C   UNL A   1      38.696  34.337  32.093  1.00  0.00     0.031 C 
ATOM     61  C   UNL A   1      44.270  32.736  33.885  1.00  0.00     0.029 A 
ATOM     62  C   UNL A   1      43.024  32.736  33.278  1.00  0.00     0.049 A 
ATOM     63  H   UNL A   1      42.170  31.293  31.995  1.00  0.00     0.167 HD
ATOM     64  C   UNL A   1      40.802  33.670  32.705  1.00  0.00     0.074 A 
ATOM     65  C   UNL A   1      39.764  34.675  32.803  1.00  0.00     0.031 C 
ATOM     66  C   UNL A   1      41.979  33.723  33.374  1.00  0.00     0.031 A 
BRANCH  53  67
ATOM     67  C   UNL A   1      45.645  28.845  32.412  1.00  0.00    -0.014 A 
ATOM     68  C   UNL A   1      46.797  29.030  31.629  1.00  0.00     0.009 A 
ATOM     69  C   UNL A   1      45.721  28.017  33.542  1.00  0.00     0.009 A 
ATOM     70  C   UNL A   1      47.985  28.370  31.950  1.00  0.00     0.001 A 
ATOM     71  C   UNL A   1      46.918  27.383  33.880  1.00  0.00     0.001 A 
ATOM     72  C   UNL A   1      48.046  27.552  33.078  1.00  0.00     0.000 A 
ENDBRANCH  53  67
BRANCH  54  73
ATOM     73  C   UNL A   1      36.858  33.046  30.223  1.00  0.00    -0.014 A 
ATOM     74  C   UNL A   1      35.764  32.827  31.074  1.00  0.00     0.009 A 
ATOM     75  C   UNL A   1      36.679  33.848  29.084  1.00  0.00     0.009 A 
ATOM     76  C   UNL A   1      34.514  33.374  30.775  1.00  0.00     0.001 A 
ATOM     77  C   UNL A   1      35.436  34.421  28.807  1.00  0.00     0.001 A 
ATOM     78  C   UNL A   1      34.352  34.174  29.646  1.00  0.00     0.000 A 
ENDBRANCH  54  73
BRANCH  66  79
ATOM     79  C   UNL A   1      42.216  34.915  34.259  1.00  0.00    -0.014 A 
ATOM     80  C   UNL A   1      41.908  34.878  35.628  1.00  0.00     0.009 A 
ATOM     81  C   UNL A   1      42.801  36.075  33.727  1.00  0.00     0.009 A 
ATOM     82  C   UNL A   1      42.152  35.989  36.438  1.00  0.00     0.001 A 
ATOM     83  C   UNL A   1      43.074  37.172  34.545  1.00  0.00     0.001 A 
ATOM     84  C   UNL A   1      42.741  37.131  35.897  1.00  0.00     0.000 A 
ENDBRANCH  66  79
ENDBRANCH  40  41
ENDBRANCH  32  35
ENDBRANCH  30  31
ENDBRANCH  29  30
ENDBRANCH   1  29
TORSDOF 14
ENDMDL
