MODEL 1
REMARK VINA RESULT:     -10.3      0.000      0.000
REMARK SMILES CC[NH+](CC)[C@](C)(C(=O)NCCCCNC(=O)c1ccc(-c2c3nc(c(-c4ccccc4)c4ccc([nH]4)c(-c4ccccc4)c4nc(c(-c5ccccc5)c5ccc2[nH]5)C=C4)C=C3)cc1)c1cc(F)c(C)cc1F
REMARK SMILES IDX 12 1 11 2 10 3 8 4 9 5 6 7 7 8 3 9 2 11 1 12 4 13 5 14 66 15
REMARK SMILES IDX 67 16 73 17 68 18 72 19 74 20 69 21 70 22 71 23 13 24 14 25
REMARK SMILES IDX 15 26 16 27 17 29 18 30 19 31 65 32 20 33 64 34 21 35 22 36
REMARK SMILES IDX 23 37 58 38 24 39 63 40 57 41 59 42 25 43 62 44 56 45 55 46
REMARK SMILES IDX 26 48 48 49 33 50 47 51 34 52 37 53 46 54 60 55 35 56 36 57
REMARK SMILES IDX 45 59 61 60 38 61 27 62 28 63 32 64 29 65 31 66 30 67 49 68
REMARK SMILES IDX 50 69 54 70 51 71 53 72 52 73 39 74 40 75 44 76 41 77 43 78
REMARK SMILES IDX 42 79
REMARK H PARENT 10 6 3 10 15 28 59 47 37 58
REMARK Flexibility Score: inf
ROOT
ATOM      1  C   UNL A   1      33.039  28.319  24.474  1.00  0.00     0.023 C 
ENDROOT
BRANCH   1   2
ATOM      2  C   UNL A   1      32.566  26.968  23.957  1.00  0.00     0.116 C 
BRANCH   2   3
ATOM      3  N   UNL A   1      33.611  26.181  23.331  1.00  0.00    -0.350 N 
ATOM      4  C   UNL A   1      34.000  24.880  23.547  1.00  0.00     0.286 C 
ATOM      5  O   UNL A   1      34.665  24.390  22.624  1.00  0.00    -0.267 OA
ATOM      6  H   UNL A   1      34.125  26.656  22.640  1.00  0.00     0.163 HD
BRANCH   4   7
ATOM      7  C   UNL A   1      33.664  24.077  24.883  1.00  0.00     0.202 C 
ATOM      8  C   UNL A   1      33.926  25.060  26.087  1.00  0.00     0.096 C 
BRANCH   7   9
ATOM      9  N   UNL A   1      32.279  23.453  24.850  1.00  0.00    -0.319 N 
ATOM     10  H   UNL A   1      32.598  22.508  25.058  1.00  0.00     0.349 HD
BRANCH   9  11
ATOM     11  C   UNL A   1      31.549  23.204  23.603  1.00  0.00     0.259 C 
ATOM     12  C   UNL A   1      30.396  24.123  23.204  1.00  0.00     0.071 C 
ENDBRANCH   9  11
BRANCH   9  13
ATOM     13  C   UNL A   1      31.360  23.995  25.882  1.00  0.00     0.259 C 
ATOM     14  C   UNL A   1      30.755  22.943  26.816  1.00  0.00     0.071 C 
ENDBRANCH   9  13
ENDBRANCH   7   9
BRANCH   7  15
ATOM     15  C   UNL A   1      34.776  22.958  25.068  1.00  0.00     0.060 A 
ATOM     16  C   UNL A   1      34.422  21.595  24.900  1.00  0.00     0.053 A 
ATOM     17  C   UNL A   1      36.141  23.206  25.289  1.00  0.00     0.133 A 
ATOM     18  C   UNL A   1      35.384  20.580  24.881  1.00  0.00     0.126 A 
ATOM     19  C   UNL A   1      37.105  22.189  25.247  1.00  0.00     0.046 A 
ATOM     20  F   UNL A   1      36.618  24.435  25.521  1.00  0.00    -0.206 F 
ATOM     21  F   UNL A   1      34.984  19.314  24.696  1.00  0.00    -0.207 F 
ATOM     22  C   UNL A   1      36.740  20.864  25.011  1.00  0.00    -0.012 A 
ATOM     23  C   UNL A   1      37.766  19.778  24.929  1.00  0.00     0.047 C 
ENDBRANCH   7  15
ENDBRANCH   4   7
ENDBRANCH   2   3
ENDBRANCH   1   2
BRANCH   1  24
ATOM     24  C   UNL A   1      32.603  28.652  25.904  1.00  0.00     0.023 C 
BRANCH  24  25
ATOM     25  C   UNL A   1      33.723  28.799  26.933  1.00  0.00     0.116 C 
BRANCH  25  26
ATOM     26  N   UNL A   1      33.745  30.102  27.577  1.00  0.00    -0.352 N 
ATOM     27  C   UNL A   1      34.723  30.709  28.329  1.00  0.00     0.251 C 
ATOM     28  H   UNL A   1      32.928  30.637  27.455  1.00  0.00     0.163 HD
ATOM     29  O   UNL A   1      34.482  31.767  28.897  1.00  0.00    -0.269 OA
BRANCH  27  30
ATOM     30  C   UNL A   1      36.052  30.076  28.487  1.00  0.00     0.039 A 
ATOM     31  C   UNL A   1      36.943  30.124  27.412  1.00  0.00     0.014 A 
ATOM     32  C   UNL A   1      36.423  29.432  29.670  1.00  0.00     0.014 A 
ATOM     33  C   UNL A   1      38.226  29.592  27.551  1.00  0.00     0.010 A 
ATOM     34  C   UNL A   1      37.733  28.980  29.837  1.00  0.00     0.010 A 
ATOM     35  C   UNL A   1      38.649  29.054  28.779  1.00  0.00    -0.014 A 
BRANCH  35  36
ATOM     36  C   UNL A   1      40.054  28.601  28.955  1.00  0.00     0.031 A 
ATOM     37  C   UNL A   1      40.476  27.207  28.578  1.00  0.00     0.074 A 
ATOM     38  C   UNL A   1      40.958  29.454  29.478  1.00  0.00     0.049 A 
ATOM     39  N   UNL A   1      41.674  26.677  28.595  1.00  0.00    -0.248 NA
ATOM     40  C   UNL A   1      39.418  26.279  28.150  1.00  0.00     0.031 C 
ATOM     41  C   UNL A   1      40.668  30.811  29.948  1.00  0.00     0.029 A 
ATOM     42  N   UNL A   1      42.307  29.311  29.691  1.00  0.00    -0.354 N 
ATOM     43  C   UNL A   1      41.513  25.358  28.188  1.00  0.00     0.074 A 
ATOM     44  C   UNL A   1      40.095  25.151  27.987  1.00  0.00     0.031 C 
ATOM     45  C   UNL A   1      41.812  31.394  30.341  1.00  0.00     0.029 A 
ATOM     46  C   UNL A   1      42.908  30.443  30.188  1.00  0.00     0.049 A 
ATOM     47  H   UNL A   1      42.797  28.479  29.505  1.00  0.00     0.167 HD
ATOM     48  C   UNL A   1      42.457  24.410  27.977  1.00  0.00     0.031 A 
ATOM     49  C   UNL A   1      44.197  30.695  30.478  1.00  0.00     0.031 A 
ATOM     50  C   UNL A   1      43.868  24.612  28.182  1.00  0.00     0.049 A 
ATOM     51  C   UNL A   1      45.228  29.632  30.225  1.00  0.00     0.074 A 
ATOM     52  C   UNL A   1      44.909  23.732  27.940  1.00  0.00     0.029 A 
ATOM     53  N   UNL A   1      44.436  25.772  28.687  1.00  0.00    -0.354 N 
ATOM     54  N   UNL A   1      45.068  28.421  29.749  1.00  0.00    -0.248 NA
ATOM     55  C   UNL A   1      46.622  29.981  30.531  1.00  0.00     0.031 C 
ATOM     56  C   UNL A   1      46.101  24.338  28.357  1.00  0.00     0.029 A 
ATOM     57  C   UNL A   1      45.810  25.621  28.790  1.00  0.00     0.049 A 
ATOM     58  H   UNL A   1      43.937  26.583  28.936  1.00  0.00     0.167 HD
ATOM     59  C   UNL A   1      46.342  27.874  29.671  1.00  0.00     0.074 A 
ATOM     60  C   UNL A   1      47.264  28.895  30.124  1.00  0.00     0.031 C 
ATOM     61  C   UNL A   1      46.716  26.638  29.258  1.00  0.00     0.031 A 
BRANCH  48  62
ATOM     62  C   UNL A   1      41.990  23.058  27.509  1.00  0.00    -0.014 A 
ATOM     63  C   UNL A   1      41.532  22.087  28.415  1.00  0.00     0.009 A 
ATOM     64  C   UNL A   1      41.971  22.761  26.136  1.00  0.00     0.009 A 
ATOM     65  C   UNL A   1      41.106  20.836  27.962  1.00  0.00     0.001 A 
ATOM     66  C   UNL A   1      41.513  21.523  25.683  1.00  0.00     0.001 A 
ATOM     67  C   UNL A   1      41.091  20.558  26.595  1.00  0.00     0.000 A 
ENDBRANCH  48  62
BRANCH  49  68
ATOM     68  C   UNL A   1      44.593  32.027  31.009  1.00  0.00    -0.014 A 
ATOM     69  C   UNL A   1      44.542  32.294  32.387  1.00  0.00     0.009 A 
ATOM     70  C   UNL A   1      45.021  33.042  30.139  1.00  0.00     0.009 A 
ATOM     71  C   UNL A   1      44.880  33.558  32.877  1.00  0.00     0.001 A 
ATOM     72  C   UNL A   1      45.391  34.293  30.635  1.00  0.00     0.001 A 
ATOM     73  C   UNL A   1      45.310  34.554  32.001  1.00  0.00     0.000 A 
ENDBRANCH  49  68
BRANCH  61  74
ATOM     74  C   UNL A   1      48.192  26.340  29.246  1.00  0.00    -0.014 A 
ATOM     75  C   UNL A   1      48.835  25.763  30.353  1.00  0.00     0.009 A 
ATOM     76  C   UNL A   1      48.951  26.643  28.104  1.00  0.00     0.009 A 
ATOM     77  C   UNL A   1      50.215  25.549  30.338  1.00  0.00     0.001 A 
ATOM     78  C   UNL A   1      50.323  26.395  28.078  1.00  0.00     0.001 A 
ATOM     79  C   UNL A   1      50.958  25.863  29.199  1.00  0.00     0.000 A 
ENDBRANCH  61  74
ENDBRANCH  35  36
ENDBRANCH  27  30
ENDBRANCH  25  26
ENDBRANCH  24  25
ENDBRANCH   1  24
TORSDOF 15
ENDMDL
MODEL 2
REMARK VINA RESULT:     -10.3      3.890      7.881
REMARK SMILES CC[NH+](CC)[C@](C)(C(=O)NCCCCNC(=O)c1ccc(-c2c3nc(c(-c4ccccc4)c4ccc([nH]4)c(-c4ccccc4)c4nc(c(-c5ccccc5)c5ccc2[nH]5)C=C4)C=C3)cc1)c1cc(F)c(C)cc1F
REMARK SMILES IDX 12 1 11 2 10 3 8 4 9 5 6 7 7 8 3 9 2 11 1 12 4 13 5 14 66 15
REMARK SMILES IDX 67 16 73 17 68 18 72 19 74 20 69 21 70 22 71 23 13 24 14 25
REMARK SMILES IDX 15 26 16 27 17 29 18 30 19 31 65 32 20 33 64 34 21 35 22 36
REMARK SMILES IDX 23 37 58 38 24 39 63 40 57 41 59 42 25 43 62 44 56 45 55 46
REMARK SMILES IDX 26 48 48 49 33 50 47 51 34 52 37 53 46 54 60 55 35 56 36 57
REMARK SMILES IDX 45 59 61 60 38 61 27 62 28 63 32 64 29 65 31 66 30 67 49 68
REMARK SMILES IDX 50 69 54 70 51 71 53 72 52 73 39 74 40 75 44 76 41 77 43 78
REMARK SMILES IDX 42 79
REMARK H PARENT 10 6 3 10 15 28 59 47 37 58
REMARK Flexibility Score: inf
ROOT
ATOM      1  C   UNL A   1      31.480  30.692  25.965  1.00  0.00     0.023 C 
ENDROOT
BRANCH   1   2
ATOM      2  C   UNL A   1      32.748  29.999  26.443  1.00  0.00     0.116 C 
BRANCH   2   3
ATOM      3  N   UNL A   1      33.653  29.630  25.371  1.00  0.00    -0.350 N 
ATOM      4  C   UNL A   1      33.584  28.603  24.459  1.00  0.00     0.286 C 
ATOM      5  O   UNL A   1      34.300  28.763  23.461  1.00  0.00    -0.267 OA
ATOM      6  H   UNL A   1      34.444  30.208  25.282  1.00  0.00     0.163 HD
BRANCH   4   7
ATOM      7  C   UNL A   1      32.694  27.298  24.677  1.00  0.00     0.202 C 
ATOM      8  C   UNL A   1      32.423  27.181  26.225  1.00  0.00     0.096 C 
BRANCH   7   9
ATOM      9  N   UNL A   1      31.452  27.292  23.802  1.00  0.00    -0.319 N 
ATOM     10  H   UNL A   1      31.868  26.739  23.054  1.00  0.00     0.349 HD
BRANCH   9  11
ATOM     11  C   UNL A   1      31.014  28.463  23.035  1.00  0.00     0.259 C 
ATOM     12  C   UNL A   1      29.566  28.937  23.137  1.00  0.00     0.071 C 
ENDBRANCH   9  11
BRANCH   9  13
ATOM     13  C   UNL A   1      30.284  26.629  24.435  1.00  0.00     0.259 C 
ATOM     14  C   UNL A   1      29.976  25.228  23.898  1.00  0.00     0.071 C 
ENDBRANCH   9  13
ENDBRANCH   7   9
BRANCH   7  15
ATOM     15  C   UNL A   1      33.603  26.034  24.363  1.00  0.00     0.060 A 
ATOM     16  C   UNL A   1      34.367  25.454  25.407  1.00  0.00     0.053 A 
ATOM     17  C   UNL A   1      33.644  25.354  23.134  1.00  0.00     0.133 A 
ATOM     18  C   UNL A   1      35.050  24.245  25.238  1.00  0.00     0.126 A 
ATOM     19  C   UNL A   1      34.312  24.132  22.974  1.00  0.00     0.046 A 
ATOM     20  F   UNL A   1      33.020  25.811  22.042  1.00  0.00    -0.206 F 
ATOM     21  F   UNL A   1      35.737  23.741  26.272  1.00  0.00    -0.207 F 
ATOM     22  C   UNL A   1      35.000  23.547  24.036  1.00  0.00    -0.012 A 
ATOM     23  C   UNL A   1      35.685  22.225  23.884  1.00  0.00     0.047 C 
ENDBRANCH   7  15
ENDBRANCH   4   7
ENDBRANCH   2   3
ENDBRANCH   1   2
BRANCH   1  24
ATOM     24  C   UNL A   1      31.287  32.118  26.490  1.00  0.00     0.023 C 
BRANCH  24  25
ATOM     25  C   UNL A   1      32.467  32.722  27.250  1.00  0.00     0.116 C 
BRANCH  25  26
ATOM     26  N   UNL A   1      32.259  34.111  27.625  1.00  0.00    -0.352 N 
ATOM     27  C   UNL A   1      32.949  34.909  28.507  1.00  0.00     0.251 C 
ATOM     28  H   UNL A   1      31.503  34.552  27.175  1.00  0.00     0.163 HD
ATOM     29  O   UNL A   1      32.520  36.024  28.779  1.00  0.00    -0.269 OA
BRANCH  27  30
ATOM     30  C   UNL A   1      34.184  34.419  29.159  1.00  0.00     0.039 A 
ATOM     31  C   UNL A   1      34.073  33.791  30.402  1.00  0.00     0.014 A 
ATOM     32  C   UNL A   1      35.440  34.582  28.571  1.00  0.00     0.014 A 
ATOM     33  C   UNL A   1      35.212  33.263  31.015  1.00  0.00     0.010 A 
ATOM     34  C   UNL A   1      36.561  33.977  29.141  1.00  0.00     0.010 A 
ATOM     35  C   UNL A   1      36.460  33.311  30.370  1.00  0.00    -0.014 A 
BRANCH  35  36
ATOM     36  C   UNL A   1      37.642  32.640  30.973  1.00  0.00     0.031 A 
ATOM     37  C   UNL A   1      38.228  33.116  32.274  1.00  0.00     0.074 A 
ATOM     38  C   UNL A   1      38.204  31.598  30.328  1.00  0.00     0.049 A 
ATOM     39  N   UNL A   1      39.206  32.597  32.975  1.00  0.00    -0.248 NA
ATOM     40  C   UNL A   1      37.662  34.343  32.856  1.00  0.00     0.031 C 
ATOM     41  C   UNL A   1      37.778  31.079  29.026  1.00  0.00     0.029 A 
ATOM     42  N   UNL A   1      39.248  30.781  30.685  1.00  0.00    -0.354 N 
ATOM     43  C   UNL A   1      39.376  33.434  34.070  1.00  0.00     0.074 A 
ATOM     44  C   UNL A   1      38.440  34.527  33.913  1.00  0.00     0.031 C 
ATOM     45  C   UNL A   1      38.515  29.999  28.721  1.00  0.00     0.029 A 
ATOM     46  C   UNL A   1      39.490  29.772  29.783  1.00  0.00     0.049 A 
ATOM     47  H   UNL A   1      39.773  30.905  31.508  1.00  0.00     0.167 HD
ATOM     48  C   UNL A   1      40.216  33.298  35.124  1.00  0.00     0.031 A 
ATOM     49  C   UNL A   1      40.386  28.769  29.810  1.00  0.00     0.031 A 
ATOM     50  C   UNL A   1      41.152  32.215  35.280  1.00  0.00     0.049 A 
ATOM     51  C   UNL A   1      41.300  28.632  30.995  1.00  0.00     0.074 A 
ATOM     52  C   UNL A   1      42.004  31.958  36.340  1.00  0.00     0.029 A 
ATOM     53  N   UNL A   1      41.367  31.214  34.344  1.00  0.00    -0.354 N 
ATOM     54  N   UNL A   1      41.380  29.380  32.068  1.00  0.00    -0.248 NA
ATOM     55  C   UNL A   1      42.232  27.497  30.979  1.00  0.00     0.031 C 
ATOM     56  C   UNL A   1      42.778  30.836  36.018  1.00  0.00     0.029 A 
ATOM     57  C   UNL A   1      42.357  30.353  34.791  1.00  0.00     0.049 A 
ATOM     58  H   UNL A   1      40.886  31.129  33.489  1.00  0.00     0.167 HD
ATOM     59  C   UNL A   1      42.350  28.790  32.869  1.00  0.00     0.074 A 
ATOM     60  C   UNL A   1      42.809  27.609  32.167  1.00  0.00     0.031 C 
ATOM     61  C   UNL A   1      42.817  29.190  34.077  1.00  0.00     0.031 A 
BRANCH  48  62
ATOM     62  C   UNL A   1      40.167  34.359  36.191  1.00  0.00    -0.014 A 
ATOM     63  C   UNL A   1      39.315  34.242  37.302  1.00  0.00     0.009 A 
ATOM     64  C   UNL A   1      41.014  35.476  36.106  1.00  0.00     0.009 A 
ATOM     65  C   UNL A   1      39.280  35.239  38.280  1.00  0.00     0.001 A 
ATOM     66  C   UNL A   1      41.002  36.455  37.102  1.00  0.00     0.001 A 
ATOM     67  C   UNL A   1      40.129  36.341  38.182  1.00  0.00     0.000 A 
ENDBRANCH  48  62
BRANCH  49  68
ATOM     68  C   UNL A   1      40.440  27.790  28.691  1.00  0.00    -0.014 A 
ATOM     69  C   UNL A   1      41.238  28.034  27.562  1.00  0.00     0.009 A 
ATOM     70  C   UNL A   1      39.687  26.606  28.745  1.00  0.00     0.009 A 
ATOM     71  C   UNL A   1      41.257  27.128  26.499  1.00  0.00     0.001 A 
ATOM     72  C   UNL A   1      39.734  25.687  27.695  1.00  0.00     0.001 A 
ATOM     73  C   UNL A   1      40.510  25.954  26.569  1.00  0.00     0.000 A 
ENDBRANCH  49  68
BRANCH  61  74
ATOM     74  C   UNL A   1      43.855  28.315  34.729  1.00  0.00    -0.014 A 
ATOM     75  C   UNL A   1      45.229  28.533  34.533  1.00  0.00     0.009 A 
ATOM     76  C   UNL A   1      43.449  27.256  35.556  1.00  0.00     0.009 A 
ATOM     77  C   UNL A   1      46.170  27.673  35.104  1.00  0.00     0.001 A 
ATOM     78  C   UNL A   1      44.391  26.421  36.155  1.00  0.00     0.001 A 
ATOM     79  C   UNL A   1      45.750  26.620  35.917  1.00  0.00     0.000 A 
ENDBRANCH  61  74
ENDBRANCH  35  36
ENDBRANCH  27  30
ENDBRANCH  25  26
ENDBRANCH  24  25
ENDBRANCH   1  24
TORSDOF 15
ENDMDL
MODEL 3
REMARK VINA RESULT:     -10.2      2.211      7.458
REMARK SMILES CC[NH+](CC)[C@](C)(C(=O)NCCCCNC(=O)c1ccc(-c2c3nc(c(-c4ccccc4)c4ccc([nH]4)c(-c4ccccc4)c4nc(c(-c5ccccc5)c5ccc2[nH]5)C=C4)C=C3)cc1)c1cc(F)c(C)cc1F
REMARK SMILES IDX 12 1 11 2 10 3 8 4 9 5 6 7 7 8 3 9 2 11 1 12 4 13 5 14 66 15
REMARK SMILES IDX 67 16 73 17 68 18 72 19 74 20 69 21 70 22 71 23 13 24 14 25
REMARK SMILES IDX 15 26 16 27 17 29 18 30 19 31 65 32 20 33 64 34 21 35 22 36
REMARK SMILES IDX 23 37 58 38 24 39 63 40 57 41 59 42 25 43 62 44 56 45 55 46
REMARK SMILES IDX 26 48 48 49 33 50 47 51 34 52 37 53 46 54 60 55 35 56 36 57
REMARK SMILES IDX 45 59 61 60 38 61 27 62 28 63 32 64 29 65 31 66 30 67 49 68
REMARK SMILES IDX 50 69 54 70 51 71 53 72 52 73 39 74 40 75 44 76 41 77 43 78
REMARK SMILES IDX 42 79
REMARK H PARENT 10 6 3 10 15 28 59 47 37 58
REMARK Flexibility Score: inf
ROOT
ATOM      1  C   UNL A   1      36.580  20.423  25.025  1.00  0.00     0.023 C 
ENDROOT
BRANCH   1   2
ATOM      2  C   UNL A   1      36.634  21.929  25.237  1.00  0.00     0.116 C 
BRANCH   2   3
ATOM      3  N   UNL A   1      35.943  22.378  26.431  1.00  0.00    -0.350 N 
ATOM      4  C   UNL A   1      34.692  22.927  26.585  1.00  0.00     0.286 C 
ATOM      5  O   UNL A   1      34.252  22.869  27.741  1.00  0.00    -0.267 OA
ATOM      6  H   UNL A   1      36.453  22.271  27.266  1.00  0.00     0.163 HD
BRANCH   4   7
ATOM      7  C   UNL A   1      33.887  23.618  25.394  1.00  0.00     0.202 C 
ATOM      8  C   UNL A   1      34.947  24.032  24.304  1.00  0.00     0.096 C 
BRANCH   7   9
ATOM      9  N   UNL A   1      32.747  22.751  24.888  1.00  0.00    -0.319 N 
ATOM     10  H   UNL A   1      32.056  23.116  25.542  1.00  0.00     0.349 HD
BRANCH   9  11
ATOM     11  C   UNL A   1      32.644  21.318  25.186  1.00  0.00     0.259 C 
ATOM     12  C   UNL A   1      32.830  20.297  24.068  1.00  0.00     0.071 C 
ENDBRANCH   9  11
BRANCH   9  13
ATOM     13  C   UNL A   1      32.394  23.005  23.469  1.00  0.00     0.259 C 
ATOM     14  C   UNL A   1      31.112  23.818  23.265  1.00  0.00     0.071 C 
ENDBRANCH   9  13
ENDBRANCH   7   9
BRANCH   7  15
ATOM     15  C   UNL A   1      33.337  25.010  25.925  1.00  0.00     0.060 A 
ATOM     16  C   UNL A   1      34.135  26.172  25.774  1.00  0.00     0.053 A 
ATOM     17  C   UNL A   1      32.053  25.221  26.454  1.00  0.00     0.133 A 
ATOM     18  C   UNL A   1      33.641  27.449  26.063  1.00  0.00     0.126 A 
ATOM     19  C   UNL A   1      31.553  26.504  26.722  1.00  0.00     0.046 A 
ATOM     20  F   UNL A   1      31.207  24.215  26.705  1.00  0.00    -0.206 F 
ATOM     21  F   UNL A   1      34.440  28.508  25.879  1.00  0.00    -0.207 F 
ATOM     22  C   UNL A   1      32.334  27.638  26.500  1.00  0.00    -0.012 A 
ATOM     23  C   UNL A   1      31.796  29.012  26.749  1.00  0.00     0.047 C 
ENDBRANCH   7  15
ENDBRANCH   4   7
ENDBRANCH   2   3
ENDBRANCH   1   2
BRANCH   1  24
ATOM     24  C   UNL A   1      37.938  19.756  24.786  1.00  0.00     0.023 C 
BRANCH  24  25
ATOM     25  C   UNL A   1      39.071  20.180  25.721  1.00  0.00     0.116 C 
BRANCH  25  26
ATOM     26  N   UNL A   1      40.122  19.182  25.839  1.00  0.00    -0.352 N 
ATOM     27  C   UNL A   1      41.454  19.323  26.151  1.00  0.00     0.251 C 
ATOM     28  H   UNL A   1      39.835  18.257  25.668  1.00  0.00     0.163 HD
ATOM     29  O   UNL A   1      42.202  18.358  26.063  1.00  0.00    -0.269 OA
BRANCH  27  30
ATOM     30  C   UNL A   1      41.997  20.639  26.556  1.00  0.00     0.039 A 
ATOM     31  C   UNL A   1      42.545  21.463  25.570  1.00  0.00     0.014 A 
ATOM     32  C   UNL A   1      41.985  21.061  27.888  1.00  0.00     0.014 A 
ATOM     33  C   UNL A   1      43.010  22.736  25.910  1.00  0.00     0.010 A 
ATOM     34  C   UNL A   1      42.368  22.364  28.211  1.00  0.00     0.010 A 
ATOM     35  C   UNL A   1      42.885  23.215  27.225  1.00  0.00    -0.014 A 
BRANCH  35  36
ATOM     36  C   UNL A   1      43.270  24.614  27.552  1.00  0.00     0.031 A 
ATOM     37  C   UNL A   1      42.231  25.651  27.883  1.00  0.00     0.074 A 
ATOM     38  C   UNL A   1      44.574  24.957  27.532  1.00  0.00     0.049 A 
ATOM     39  N   UNL A   1      42.401  26.893  28.264  1.00  0.00    -0.248 NA
ATOM     40  C   UNL A   1      40.822  25.254  27.747  1.00  0.00     0.031 C 
ATOM     41  C   UNL A   1      45.678  24.068  27.162  1.00  0.00     0.029 A 
ATOM     42  N   UNL A   1      45.194  26.142  27.842  1.00  0.00    -0.354 N 
ATOM     43  C   UNL A   1      41.125  27.425  28.407  1.00  0.00     0.074 A 
ATOM     44  C   UNL A   1      40.193  26.390  28.015  1.00  0.00     0.031 C 
ATOM     45  C   UNL A   1      46.840  24.720  27.320  1.00  0.00     0.029 A 
ATOM     46  C   UNL A   1      46.565  26.083  27.764  1.00  0.00     0.049 A 
ATOM     47  H   UNL A   1      44.704  26.957  28.096  1.00  0.00     0.167 HD
ATOM     48  C   UNL A   1      40.759  28.653  28.845  1.00  0.00     0.031 A 
ATOM     49  C   UNL A   1      47.499  27.014  28.030  1.00  0.00     0.031 A 
ATOM     50  C   UNL A   1      41.685  29.686  29.231  1.00  0.00     0.049 A 
ATOM     51  C   UNL A   1      47.068  28.365  28.525  1.00  0.00     0.074 A 
ATOM     52  C   UNL A   1      41.411  30.943  29.743  1.00  0.00     0.029 A 
ATOM     53  N   UNL A   1      43.065  29.587  29.136  1.00  0.00    -0.354 N 
ATOM     54  N   UNL A   1      45.859  28.818  28.746  1.00  0.00    -0.248 NA
ATOM     55  C   UNL A   1      48.138  29.325  28.830  1.00  0.00     0.031 C 
ATOM     56  C   UNL A   1      42.624  31.626  29.901  1.00  0.00     0.029 A 
ATOM     57  C   UNL A   1      43.655  30.769  29.555  1.00  0.00     0.049 A 
ATOM     58  H   UNL A   1      43.553  28.793  28.818  1.00  0.00     0.167 HD
ATOM     59  C   UNL A   1      46.021  30.106  29.242  1.00  0.00     0.074 A 
ATOM     60  C   UNL A   1      47.448  30.348  29.313  1.00  0.00     0.031 C 
ATOM     61  C   UNL A   1      45.075  31.005  29.607  1.00  0.00     0.031 A 
BRANCH  48  62
ATOM     62  C   UNL A   1      39.285  28.951  28.921  1.00  0.00    -0.014 A 
ATOM     63  C   UNL A   1      38.586  29.471  27.819  1.00  0.00     0.009 A 
ATOM     64  C   UNL A   1      38.575  28.673  30.101  1.00  0.00     0.009 A 
ATOM     65  C   UNL A   1      37.218  29.745  27.910  1.00  0.00     0.001 A 
ATOM     66  C   UNL A   1      37.202  28.916  30.178  1.00  0.00     0.001 A 
ATOM     67  C   UNL A   1      36.527  29.461  29.088  1.00  0.00     0.000 A 
ENDBRANCH  48  62
BRANCH  49  68
ATOM     68  C   UNL A   1      48.941  26.688  27.866  1.00  0.00    -0.014 A 
ATOM     69  C   UNL A   1      49.693  26.196  28.945  1.00  0.00     0.009 A 
ATOM     70  C   UNL A   1      49.577  26.873  26.628  1.00  0.00     0.009 A 
ATOM     71  C   UNL A   1      51.055  25.926  28.795  1.00  0.00     0.001 A 
ATOM     72  C   UNL A   1      50.930  26.570  26.472  1.00  0.00     0.001 A 
ATOM     73  C   UNL A   1      51.671  26.108  27.558  1.00  0.00     0.000 A 
ENDBRANCH  49  68
BRANCH  61  74
ATOM     74  C   UNL A   1      45.561  32.322  30.152  1.00  0.00    -0.014 A 
ATOM     75  C   UNL A   1      45.817  32.503  31.520  1.00  0.00     0.009 A 
ATOM     76  C   UNL A   1      45.767  33.400  29.276  1.00  0.00     0.009 A 
ATOM     77  C   UNL A   1      46.212  33.751  32.008  1.00  0.00     0.001 A 
ATOM     78  C   UNL A   1      46.197  34.635  29.760  1.00  0.00     0.001 A 
ATOM     79  C   UNL A   1      46.405  34.815  31.126  1.00  0.00     0.000 A 
ENDBRANCH  61  74
ENDBRANCH  35  36
ENDBRANCH  27  30
ENDBRANCH  25  26
ENDBRANCH  24  25
ENDBRANCH   1  24
TORSDOF 15
ENDMDL
