MODEL 1
REMARK VINA RESULT:     -11.2      0.000      0.000
REMARK SMILES CC1=C(C)C[C@@H](C(=O)N[C@H](C)C(C)(C)C)[C@@H](C(=O)NCCCCNC(=O)c2ccc(-c3c4nc(c(-c5ccccc5)c5ccc([nH]5)c(-c5ccccc5)c5nc(c(-c6ccccc6)c6ccc3[nH]6)C=C5)C=C4)cc2)C1
REMARK SMILES IDX 21 1 20 2 19 3 17 4 18 5 16 7 1 8 2 9 3 10 75 11 4 12 5 13
REMARK SMILES IDX 6 14 7 15 8 16 9 17 10 19 11 20 12 21 13 22 14 23 15 24
REMARK SMILES IDX 22 25 23 26 24 27 25 28 26 30 27 31 28 32 74 33 29 34 73 35
REMARK SMILES IDX 30 36 31 37 32 38 67 39 33 40 72 41 66 42 68 43 34 44 71 45
REMARK SMILES IDX 65 46 64 47 35 49 57 50 42 51 56 52 43 53 46 54 55 55 69 56
REMARK SMILES IDX 44 57 45 58 54 60 70 61 47 62 36 63 37 64 41 65 38 66 40 67
REMARK SMILES IDX 39 68 58 69 59 70 63 71 60 72 62 73 61 74 48 75 49 76 53 77
REMARK SMILES IDX 50 78 52 79 51 80
REMARK H PARENT 19 6 9 18 24 29 68 48 46 59
REMARK Flexibility Score: inf
ROOT
ATOM      1  C   UNL A   1      34.521  33.189  28.985  1.00  0.00     0.023 C 
ENDROOT
BRANCH   1   2
ATOM      2  C   UNL A   1      34.431  31.954  28.088  1.00  0.00     0.116 C 
BRANCH   2   3
ATOM      3  N   UNL A   1      33.125  31.787  27.465  1.00  0.00    -0.356 N 
ATOM      4  C   UNL A   1      32.442  30.746  26.928  1.00  0.00     0.224 C 
ATOM      5  O   UNL A   1      31.249  30.984  26.692  1.00  0.00    -0.275 OA
ATOM      6  H   UNL A   1      32.617  32.631  27.422  1.00  0.00     0.163 HD
BRANCH   4   7
ATOM      7  C   UNL A   1      33.008  29.350  26.587  1.00  0.00     0.095 C 
ATOM      8  C   UNL A   1      30.654  26.147  26.500  1.00  0.00     0.039 C 
ATOM      9  C   UNL A   1      31.883  26.976  26.219  1.00  0.00    -0.074 C 
ATOM     10  C   UNL A   1      32.822  26.661  25.301  1.00  0.00    -0.074 C 
ATOM     11  C   UNL A   1      31.949  28.273  27.018  1.00  0.00     0.045 C 
ATOM     12  C   UNL A   1      32.777  25.483  24.361  1.00  0.00     0.039 C 
ATOM     13  C   UNL A   1      33.976  27.608  25.065  1.00  0.00     0.045 C 
ATOM     14  C   UNL A   1      33.526  29.079  25.173  1.00  0.00     0.095 C 
BRANCH  14  15
ATOM     15  C   UNL A   1      32.549  29.317  24.016  1.00  0.00     0.224 C 
ATOM     16  O   UNL A   1      32.927  29.230  22.849  1.00  0.00    -0.275 OA
ATOM     17  N   UNL A   1      31.247  29.558  24.378  1.00  0.00    -0.353 N 
ATOM     18  H   UNL A   1      31.112  30.106  25.184  1.00  0.00     0.163 HD
BRANCH  17  19
ATOM     19  C   UNL A   1      30.046  29.093  23.707  1.00  0.00     0.084 C 
ATOM     20  C   UNL A   1      30.274  27.853  22.830  1.00  0.00     0.031 C 
BRANCH  19  21
ATOM     21  C   UNL A   1      29.140  30.211  23.101  1.00  0.00    -0.018 C 
ATOM     22  C   UNL A   1      29.580  30.420  21.632  1.00  0.00     0.013 C 
ATOM     23  C   UNL A   1      27.652  29.792  23.036  1.00  0.00     0.013 C 
ATOM     24  C   UNL A   1      29.249  31.530  23.878  1.00  0.00     0.013 C 
ENDBRANCH  19  21
ENDBRANCH  17  19
ENDBRANCH  14  15
ENDBRANCH   4   7
ENDBRANCH   2   3
ENDBRANCH   1   2
BRANCH   1  25
ATOM     25  C   UNL A   1      33.352  34.159  28.917  1.00  0.00     0.023 C 
BRANCH  25  26
ATOM     26  C   UNL A   1      33.657  35.512  29.520  1.00  0.00     0.116 C 
BRANCH  26  27
ATOM     27  N   UNL A   1      32.645  35.987  30.462  1.00  0.00    -0.352 N 
ATOM     28  C   UNL A   1      32.626  35.854  31.836  1.00  0.00     0.251 C 
ATOM     29  H   UNL A   1      31.880  36.464  30.066  1.00  0.00     0.163 HD
ATOM     30  O   UNL A   1      31.699  36.259  32.509  1.00  0.00    -0.269 OA
BRANCH  28  31
ATOM     31  C   UNL A   1      33.754  35.134  32.460  1.00  0.00     0.039 A 
ATOM     32  C   UNL A   1      33.586  33.799  32.827  1.00  0.00     0.014 A 
ATOM     33  C   UNL A   1      35.007  35.743  32.505  1.00  0.00     0.014 A 
ATOM     34  C   UNL A   1      34.710  33.041  33.150  1.00  0.00     0.010 A 
ATOM     35  C   UNL A   1      36.128  34.953  32.683  1.00  0.00     0.010 A 
ATOM     36  C   UNL A   1      35.992  33.599  33.028  1.00  0.00    -0.014 A 
BRANCH  36  37
ATOM     37  C   UNL A   1      37.218  32.816  33.308  1.00  0.00     0.031 A 
ATOM     38  C   UNL A   1      37.942  33.043  34.608  1.00  0.00     0.074 A 
ATOM     39  C   UNL A   1      37.722  31.979  32.379  1.00  0.00     0.049 A 
ATOM     40  N   UNL A   1      39.091  32.564  35.010  1.00  0.00    -0.248 NA
ATOM     41  C   UNL A   1      37.318  33.979  35.561  1.00  0.00     0.031 C 
ATOM     42  C   UNL A   1      37.149  31.725  31.055  1.00  0.00     0.029 A 
ATOM     43  N   UNL A   1      38.840  31.184  32.414  1.00  0.00    -0.354 N 
ATOM     44  C   UNL A   1      39.338  33.176  36.232  1.00  0.00     0.074 A 
ATOM     45  C   UNL A   1      38.270  34.118  36.467  1.00  0.00     0.031 C 
ATOM     46  C   UNL A   1      37.891  30.798  30.426  1.00  0.00     0.029 A 
ATOM     47  C   UNL A   1      39.009  30.423  31.283  1.00  0.00     0.049 A 
ATOM     48  H   UNL A   1      39.461  31.162  33.177  1.00  0.00     0.167 HD
ATOM     49  C   UNL A   1      40.341  32.943  37.110  1.00  0.00     0.031 A 
ATOM     50  C   UNL A   1      39.959  29.517  30.982  1.00  0.00     0.031 A 
ATOM     51  C   UNL A   1      41.365  31.960  36.902  1.00  0.00     0.049 A 
ATOM     52  C   UNL A   1      41.038  29.236  31.991  1.00  0.00     0.074 A 
ATOM     53  C   UNL A   1      42.391  31.588  37.750  1.00  0.00     0.029 A 
ATOM     54  N   UNL A   1      41.475  31.177  35.762  1.00  0.00    -0.354 N 
ATOM     55  N   UNL A   1      41.229  29.781  33.169  1.00  0.00    -0.248 NA
ATOM     56  C   UNL A   1      42.021  28.204  31.637  1.00  0.00     0.031 C 
ATOM     57  C   UNL A   1      43.141  30.596  37.109  1.00  0.00     0.029 A 
ATOM     58  C   UNL A   1      42.554  30.322  35.883  1.00  0.00     0.049 A 
ATOM     59  H   UNL A   1      40.873  31.223  34.984  1.00  0.00     0.167 HD
ATOM     60  C   UNL A   1      42.339  29.142  33.707  1.00  0.00     0.074 A 
ATOM     61  C   UNL A   1      42.766  28.158  32.733  1.00  0.00     0.031 C 
ATOM     62  C   UNL A   1      42.951  29.350  34.898  1.00  0.00     0.031 A 
BRANCH  49  63
ATOM     63  C   UNL A   1      40.345  33.753  38.375  1.00  0.00    -0.014 A 
ATOM     64  C   UNL A   1      39.643  33.325  39.514  1.00  0.00     0.009 A 
ATOM     65  C   UNL A   1      41.046  34.967  38.428  1.00  0.00     0.009 A 
ATOM     66  C   UNL A   1      39.597  34.119  40.661  1.00  0.00     0.001 A 
ATOM     67  C   UNL A   1      41.028  35.743  39.588  1.00  0.00     0.001 A 
ATOM     68  C   UNL A   1      40.294  35.326  40.698  1.00  0.00     0.000 A 
ENDBRANCH  49  63
BRANCH  50  69
ATOM     69  C   UNL A   1      39.905  28.776  29.695  1.00  0.00    -0.014 A 
ATOM     70  C   UNL A   1      40.481  29.323  28.538  1.00  0.00     0.009 A 
ATOM     71  C   UNL A   1      39.286  27.519  29.613  1.00  0.00     0.009 A 
ATOM     72  C   UNL A   1      40.416  28.641  27.320  1.00  0.00     0.001 A 
ATOM     73  C   UNL A   1      39.245  26.826  28.399  1.00  0.00     0.001 A 
ATOM     74  C   UNL A   1      39.802  27.392  27.253  1.00  0.00     0.000 A 
ENDBRANCH  50  69
BRANCH  62  75
ATOM     75  C   UNL A   1      44.125  28.476  35.226  1.00  0.00    -0.014 A 
ATOM     76  C   UNL A   1      45.434  28.873  34.912  1.00  0.00     0.009 A 
ATOM     77  C   UNL A   1      43.920  27.271  35.913  1.00  0.00     0.009 A 
ATOM     78  C   UNL A   1      46.515  28.061  35.258  1.00  0.00     0.001 A 
ATOM     79  C   UNL A   1      45.005  26.475  36.282  1.00  0.00     0.001 A 
ATOM     80  C   UNL A   1      46.300  26.867  35.947  1.00  0.00     0.000 A 
ENDBRANCH  62  75
ENDBRANCH  36  37
ENDBRANCH  28  31
ENDBRANCH  26  27
ENDBRANCH  25  26
ENDBRANCH   1  25
TORSDOF 14
ENDMDL
MODEL 2
REMARK VINA RESULT:     -10.9      2.275      4.118
REMARK SMILES CC1=C(C)C[C@@H](C(=O)N[C@H](C)C(C)(C)C)[C@@H](C(=O)NCCCCNC(=O)c2ccc(-c3c4nc(c(-c5ccccc5)c5ccc([nH]5)c(-c5ccccc5)c5nc(c(-c6ccccc6)c6ccc3[nH]6)C=C5)C=C4)cc2)C1
REMARK SMILES IDX 21 1 20 2 19 3 17 4 18 5 16 7 1 8 2 9 3 10 75 11 4 12 5 13
REMARK SMILES IDX 6 14 7 15 8 16 9 17 10 19 11 20 12 21 13 22 14 23 15 24
REMARK SMILES IDX 22 25 23 26 24 27 25 28 26 30 27 31 28 32 74 33 29 34 73 35
REMARK SMILES IDX 30 36 31 37 32 38 67 39 33 40 72 41 66 42 68 43 34 44 71 45
REMARK SMILES IDX 65 46 64 47 35 49 57 50 42 51 56 52 43 53 46 54 55 55 69 56
REMARK SMILES IDX 44 57 45 58 54 60 70 61 47 62 36 63 37 64 41 65 38 66 40 67
REMARK SMILES IDX 39 68 58 69 59 70 63 71 60 72 62 73 61 74 48 75 49 76 53 77
REMARK SMILES IDX 50 78 52 79 51 80
REMARK H PARENT 19 6 9 18 24 29 68 48 46 59
REMARK Flexibility Score: inf
ROOT
ATOM      1  C   UNL A   1      32.187  30.153  26.846  1.00  0.00     0.023 C 
ENDROOT
BRANCH   1   2
ATOM      2  C   UNL A   1      33.655  29.750  26.701  1.00  0.00     0.116 C 
BRANCH   2   3
ATOM      3  N   UNL A   1      33.946  29.066  25.448  1.00  0.00    -0.356 N 
ATOM      4  C   UNL A   1      33.469  27.961  24.824  1.00  0.00     0.224 C 
ATOM      5  O   UNL A   1      33.842  27.836  23.649  1.00  0.00    -0.275 OA
ATOM      6  H   UNL A   1      34.659  29.510  24.933  1.00  0.00     0.163 HD
BRANCH   4   7
ATOM      7  C   UNL A   1      32.549  26.881  25.435  1.00  0.00     0.095 C 
ATOM      8  C   UNL A   1      30.282  24.571  23.126  1.00  0.00     0.039 C 
ATOM      9  C   UNL A   1      31.011  24.996  24.376  1.00  0.00    -0.074 C 
ATOM     10  C   UNL A   1      31.264  24.184  25.426  1.00  0.00    -0.074 C 
ATOM     11  C   UNL A   1      31.521  26.432  24.335  1.00  0.00     0.045 C 
ATOM     12  C   UNL A   1      30.933  22.716  25.505  1.00  0.00     0.039 C 
ATOM     13  C   UNL A   1      32.063  24.711  26.595  1.00  0.00     0.045 C 
ATOM     14  C   UNL A   1      33.176  25.670  26.129  1.00  0.00     0.095 C 
BRANCH  14  15
ATOM     15  C   UNL A   1      34.155  24.825  25.305  1.00  0.00     0.224 C 
ATOM     16  O   UNL A   1      34.573  25.229  24.220  1.00  0.00    -0.275 OA
ATOM     17  N   UNL A   1      34.566  23.653  25.889  1.00  0.00    -0.353 N 
ATOM     18  H   UNL A   1      33.886  23.159  26.403  1.00  0.00     0.163 HD
BRANCH  17  19
ATOM     19  C   UNL A   1      35.890  23.060  25.838  1.00  0.00     0.084 C 
ATOM     20  C   UNL A   1      37.025  24.077  26.034  1.00  0.00     0.031 C 
BRANCH  19  21
ATOM     21  C   UNL A   1      36.105  21.990  24.722  1.00  0.00    -0.018 C 
ATOM     22  C   UNL A   1      34.734  21.326  24.446  1.00  0.00     0.013 C 
ATOM     23  C   UNL A   1      36.543  22.619  23.378  1.00  0.00     0.013 C 
ATOM     24  C   UNL A   1      37.133  20.926  25.130  1.00  0.00     0.013 C 
ENDBRANCH  19  21
ENDBRANCH  17  19
ENDBRANCH  14  15
ENDBRANCH   4   7
ENDBRANCH   2   3
ENDBRANCH   1   2
BRANCH   1  25
ATOM     25  C   UNL A   1      31.881  31.638  26.725  1.00  0.00     0.023 C 
BRANCH  25  26
ATOM     26  C   UNL A   1      32.936  32.523  27.351  1.00  0.00     0.116 C 
BRANCH  26  27
ATOM     27  N   UNL A   1      32.486  33.886  27.627  1.00  0.00    -0.352 N 
ATOM     28  C   UNL A   1      33.026  34.804  28.505  1.00  0.00     0.251 C 
ATOM     29  H   UNL A   1      31.696  34.187  27.121  1.00  0.00     0.163 HD
ATOM     30  O   UNL A   1      32.528  35.899  28.675  1.00  0.00    -0.269 OA
BRANCH  28  31
ATOM     31  C   UNL A   1      34.204  34.379  29.286  1.00  0.00     0.039 A 
ATOM     32  C   UNL A   1      34.012  33.632  30.449  1.00  0.00     0.014 A 
ATOM     33  C   UNL A   1      35.478  34.575  28.756  1.00  0.00     0.014 A 
ATOM     34  C   UNL A   1      35.106  32.994  31.030  1.00  0.00     0.010 A 
ATOM     35  C   UNL A   1      36.530  33.825  29.250  1.00  0.00     0.010 A 
ATOM     36  C   UNL A   1      36.362  33.044  30.403  1.00  0.00    -0.014 A 
BRANCH  36  37
ATOM     37  C   UNL A   1      37.542  32.337  30.955  1.00  0.00     0.031 A 
ATOM     38  C   UNL A   1      38.139  32.824  32.248  1.00  0.00     0.074 A 
ATOM     39  C   UNL A   1      38.120  31.333  30.267  1.00  0.00     0.049 A 
ATOM     40  N   UNL A   1      39.235  32.440  32.849  1.00  0.00    -0.248 NA
ATOM     41  C   UNL A   1      37.440  33.930  32.927  1.00  0.00     0.031 C 
ATOM     42  C   UNL A   1      37.675  30.815  28.971  1.00  0.00     0.029 A 
ATOM     43  N   UNL A   1      39.216  30.565  30.571  1.00  0.00    -0.354 N 
ATOM     44  C   UNL A   1      39.371  33.286  33.943  1.00  0.00     0.074 A 
ATOM     45  C   UNL A   1      38.302  34.252  33.876  1.00  0.00     0.031 C 
ATOM     46  C   UNL A   1      38.460  29.783  28.617  1.00  0.00     0.029 A 
ATOM     47  C   UNL A   1      39.482  29.592  29.638  1.00  0.00     0.049 A 
ATOM     48  H   UNL A   1      39.759  30.699  31.381  1.00  0.00     0.167 HD
ATOM     49  C   UNL A   1      40.280  33.238  34.943  1.00  0.00     0.031 A 
ATOM     50  C   UNL A   1      40.442  28.648  29.621  1.00  0.00     0.031 A 
ATOM     51  C   UNL A   1      41.303  32.237  35.039  1.00  0.00     0.049 A 
ATOM     52  C   UNL A   1      41.412  28.579  30.767  1.00  0.00     0.074 A 
ATOM     53  C   UNL A   1      42.235  32.047  36.042  1.00  0.00     0.029 A 
ATOM     54  N   UNL A   1      41.511  31.241  34.097  1.00  0.00    -0.354 N 
ATOM     55  N   UNL A   1      41.496  29.351  31.825  1.00  0.00    -0.248 NA
ATOM     56  C   UNL A   1      42.409  27.501  30.727  1.00  0.00     0.031 C 
ATOM     57  C   UNL A   1      43.028  30.950  35.691  1.00  0.00     0.029 A 
ATOM     58  C   UNL A   1      42.559  30.432  34.493  1.00  0.00     0.049 A 
ATOM     59  H   UNL A   1      40.989  31.127  33.269  1.00  0.00     0.167 HD
ATOM     60  C   UNL A   1      42.538  28.837  32.587  1.00  0.00     0.074 A 
ATOM     61  C   UNL A   1      43.042  27.679  31.878  1.00  0.00     0.031 C 
ATOM     62  C   UNL A   1      43.034  29.283  33.767  1.00  0.00     0.031 A 
BRANCH  49  63
ATOM     63  C   UNL A   1      40.174  34.287  36.015  1.00  0.00    -0.014 A 
ATOM     64  C   UNL A   1      40.876  35.499  35.915  1.00  0.00     0.009 A 
ATOM     65  C   UNL A   1      39.377  34.057  37.145  1.00  0.00     0.009 A 
ATOM     66  C   UNL A   1      40.826  36.437  36.949  1.00  0.00     0.001 A 
ATOM     67  C   UNL A   1      39.300  35.011  38.161  1.00  0.00     0.001 A 
ATOM     68  C   UNL A   1      40.033  36.193  38.069  1.00  0.00     0.000 A 
ENDBRANCH  49  63
BRANCH  50  69
ATOM     69  C   UNL A   1      40.501  27.663  28.509  1.00  0.00    -0.014 A 
ATOM     70  C   UNL A   1      39.903  26.401  28.649  1.00  0.00     0.009 A 
ATOM     71  C   UNL A   1      41.147  27.975  27.303  1.00  0.00     0.009 A 
ATOM     72  C   UNL A   1      39.973  25.463  27.616  1.00  0.00     0.001 A 
ATOM     73  C   UNL A   1      41.194  27.044  26.261  1.00  0.00     0.001 A 
ATOM     74  C   UNL A   1      40.614  25.786  26.422  1.00  0.00     0.000 A 
ENDBRANCH  50  69
BRANCH  62  75
ATOM     75  C   UNL A   1      44.156  28.497  34.378  1.00  0.00    -0.014 A 
ATOM     76  C   UNL A   1      45.495  28.810  34.100  1.00  0.00     0.009 A 
ATOM     77  C   UNL A   1      43.867  27.473  35.291  1.00  0.00     0.009 A 
ATOM     78  C   UNL A   1      46.525  28.088  34.707  1.00  0.00     0.001 A 
ATOM     79  C   UNL A   1      44.898  26.772  35.917  1.00  0.00     0.001 A 
ATOM     80  C   UNL A   1      46.226  27.076  35.618  1.00  0.00     0.000 A 
ENDBRANCH  62  75
ENDBRANCH  36  37
ENDBRANCH  28  31
ENDBRANCH  26  27
ENDBRANCH  25  26
ENDBRANCH   1  25
TORSDOF 14
ENDMDL
MODEL 3
REMARK VINA RESULT:     -10.9      2.764      4.379
REMARK SMILES CC1=C(C)C[C@@H](C(=O)N[C@H](C)C(C)(C)C)[C@@H](C(=O)NCCCCNC(=O)c2ccc(-c3c4nc(c(-c5ccccc5)c5ccc([nH]5)c(-c5ccccc5)c5nc(c(-c6ccccc6)c6ccc3[nH]6)C=C5)C=C4)cc2)C1
REMARK SMILES IDX 21 1 20 2 19 3 17 4 18 5 16 7 1 8 2 9 3 10 75 11 4 12 5 13
REMARK SMILES IDX 6 14 7 15 8 16 9 17 10 19 11 20 12 21 13 22 14 23 15 24
REMARK SMILES IDX 22 25 23 26 24 27 25 28 26 30 27 31 28 32 74 33 29 34 73 35
REMARK SMILES IDX 30 36 31 37 32 38 67 39 33 40 72 41 66 42 68 43 34 44 71 45
REMARK SMILES IDX 65 46 64 47 35 49 57 50 42 51 56 52 43 53 46 54 55 55 69 56
REMARK SMILES IDX 44 57 45 58 54 60 70 61 47 62 36 63 37 64 41 65 38 66 40 67
REMARK SMILES IDX 39 68 58 69 59 70 63 71 60 72 62 73 61 74 48 75 49 76 53 77
REMARK SMILES IDX 50 78 52 79 51 80
REMARK H PARENT 19 6 9 18 24 29 68 48 46 59
REMARK Flexibility Score: inf
ROOT
ATOM      1  C   UNL A   1      34.584  30.571  27.423  1.00  0.00     0.023 C 
ENDROOT
BRANCH   1   2
ATOM      2  C   UNL A   1      34.245  29.118  27.090  1.00  0.00     0.116 C 
BRANCH   2   3
ATOM      3  N   UNL A   1      32.960  28.687  27.625  1.00  0.00    -0.356 N 
ATOM      4  C   UNL A   1      31.893  28.011  27.132  1.00  0.00     0.224 C 
ATOM      5  O   UNL A   1      31.073  27.655  27.990  1.00  0.00    -0.275 OA
ATOM      6  H   UNL A   1      32.837  28.949  28.566  1.00  0.00     0.163 HD
BRANCH   4   7
ATOM      7  C   UNL A   1      31.618  27.675  25.650  1.00  0.00     0.095 C 
ATOM      8  C   UNL A   1      34.094  28.883  22.782  1.00  0.00     0.039 C 
ATOM      9  C   UNL A   1      32.998  28.064  23.416  1.00  0.00    -0.074 C 
ATOM     10  C   UNL A   1      32.506  26.917  22.900  1.00  0.00    -0.074 C 
ATOM     11  C   UNL A   1      32.524  28.603  24.762  1.00  0.00     0.045 C 
ATOM     12  C   UNL A   1      33.003  26.225  21.657  1.00  0.00     0.039 C 
ATOM     13  C   UNL A   1      31.451  26.152  23.665  1.00  0.00     0.045 C 
ATOM     14  C   UNL A   1      31.700  26.220  25.185  1.00  0.00     0.095 C 
BRANCH  14  15
ATOM     15  C   UNL A   1      33.017  25.480  25.440  1.00  0.00     0.224 C 
ATOM     16  O   UNL A   1      33.899  25.989  26.131  1.00  0.00    -0.275 OA
ATOM     17  N   UNL A   1      33.102  24.216  24.910  1.00  0.00    -0.353 N 
ATOM     18  H   UNL A   1      32.691  24.086  24.024  1.00  0.00     0.163 HD
BRANCH  17  19
ATOM     19  C   UNL A   1      33.726  23.050  25.507  1.00  0.00     0.084 C 
ATOM     20  C   UNL A   1      33.443  22.906  27.010  1.00  0.00     0.031 C 
BRANCH  19  21
ATOM     21  C   UNL A   1      35.190  22.761  25.048  1.00  0.00    -0.018 C 
ATOM     22  C   UNL A   1      35.360  21.224  24.982  1.00  0.00     0.013 C 
ATOM     23  C   UNL A   1      35.471  23.275  23.616  1.00  0.00     0.013 C 
ATOM     24  C   UNL A   1      36.227  23.366  26.004  1.00  0.00     0.013 C 
ENDBRANCH  19  21
ENDBRANCH  17  19
ENDBRANCH  14  15
ENDBRANCH   4   7
ENDBRANCH   2   3
ENDBRANCH   1   2
BRANCH   1  25
ATOM     25  C   UNL A   1      33.406  31.486  27.723  1.00  0.00     0.023 C 
BRANCH  25  26
ATOM     26  C   UNL A   1      33.579  32.887  27.180  1.00  0.00     0.116 C 
BRANCH  26  27
ATOM     27  N   UNL A   1      32.899  33.918  27.962  1.00  0.00    -0.352 N 
ATOM     28  C   UNL A   1      33.326  34.533  29.122  1.00  0.00     0.251 C 
ATOM     29  H   UNL A   1      32.025  34.212  27.615  1.00  0.00     0.163 HD
ATOM     30  O   UNL A   1      32.643  35.352  29.704  1.00  0.00    -0.269 OA
BRANCH  28  31
ATOM     31  C   UNL A   1      34.627  34.106  29.673  1.00  0.00     0.039 A 
ATOM     32  C   UNL A   1      34.650  33.207  30.740  1.00  0.00     0.014 A 
ATOM     33  C   UNL A   1      35.798  34.465  29.006  1.00  0.00     0.014 A 
ATOM     34  C   UNL A   1      35.852  32.589  31.077  1.00  0.00     0.010 A 
ATOM     35  C   UNL A   1      36.952  33.743  29.248  1.00  0.00     0.010 A 
ATOM     36  C   UNL A   1      36.999  32.813  30.298  1.00  0.00    -0.014 A 
BRANCH  36  37
ATOM     37  C   UNL A   1      38.286  32.137  30.585  1.00  0.00     0.031 A 
ATOM     38  C   UNL A   1      39.255  32.794  31.531  1.00  0.00     0.074 A 
ATOM     39  C   UNL A   1      38.617  30.998  29.946  1.00  0.00     0.049 A 
ATOM     40  N   UNL A   1      40.480  32.449  31.833  1.00  0.00    -0.248 NA
ATOM     41  C   UNL A   1      38.807  34.039  32.181  1.00  0.00     0.031 C 
ATOM     42  C   UNL A   1      37.791  30.300  28.957  1.00  0.00     0.029 A 
ATOM     43  N   UNL A   1      39.747  30.226  30.037  1.00  0.00    -0.354 N 
ATOM     44  C   UNL A   1      40.952  33.455  32.666  1.00  0.00     0.074 A 
ATOM     45  C   UNL A   1      39.921  34.461  32.754  1.00  0.00     0.031 C 
ATOM     46  C   UNL A   1      38.421  29.177  28.572  1.00  0.00     0.029 A 
ATOM     47  C   UNL A   1      39.706  29.096  29.255  1.00  0.00     0.049 A 
ATOM     48  H   UNL A   1      40.514  30.459  30.608  1.00  0.00     0.167 HD
ATOM     49  C   UNL A   1      42.123  33.519  33.339  1.00  0.00     0.031 A 
ATOM     50  C   UNL A   1      40.607  28.105  29.117  1.00  0.00     0.031 A 
ATOM     51  C   UNL A   1      43.119  32.487  33.298  1.00  0.00     0.049 A 
ATOM     52  C   UNL A   1      41.882  28.168  29.912  1.00  0.00     0.074 A 
ATOM     53  C   UNL A   1      44.312  32.409  33.991  1.00  0.00     0.029 A 
ATOM     54  N   UNL A   1      43.020  31.336  32.529  1.00  0.00    -0.354 N 
ATOM     55  N   UNL A   1      42.293  29.098  30.740  1.00  0.00    -0.248 NA
ATOM     56  C   UNL A   1      42.810  27.039  29.765  1.00  0.00     0.031 C 
ATOM     57  C   UNL A   1      44.951  31.221  33.618  1.00  0.00     0.029 A 
ATOM     58  C   UNL A   1      44.132  30.542  32.728  1.00  0.00     0.049 A 
ATOM     59  H   UNL A   1      42.268  31.119  31.931  1.00  0.00     0.167 HD
ATOM     60  C   UNL A   1      43.514  28.656  31.232  1.00  0.00     0.074 A 
ATOM     61  C   UNL A   1      43.767  27.367  30.621  1.00  0.00     0.031 C 
ATOM     62  C   UNL A   1      44.352  29.261  32.110  1.00  0.00     0.031 A 
BRANCH  49  63
ATOM     63  C   UNL A   1      42.360  34.735  34.188  1.00  0.00    -0.014 A 
ATOM     64  C   UNL A   1      42.937  35.897  33.648  1.00  0.00     0.009 A 
ATOM     65  C   UNL A   1      42.017  34.719  35.548  1.00  0.00     0.009 A 
ATOM     66  C   UNL A   1      43.216  36.996  34.462  1.00  0.00     0.001 A 
ATOM     67  C   UNL A   1      42.265  35.833  36.352  1.00  0.00     0.001 A 
ATOM     68  C   UNL A   1      42.875  36.965  35.812  1.00  0.00     0.000 A 
ENDBRANCH  49  63
BRANCH  50  69
ATOM     69  C   UNL A   1      40.315  26.946  28.233  1.00  0.00    -0.014 A 
ATOM     70  C   UNL A   1      39.510  25.891  28.691  1.00  0.00     0.009 A 
ATOM     71  C   UNL A   1      40.829  26.888  26.928  1.00  0.00     0.009 A 
ATOM     72  C   UNL A   1      39.248  24.790  27.871  1.00  0.00     0.001 A 
ATOM     73  C   UNL A   1      40.544  25.798  26.102  1.00  0.00     0.001 A 
ATOM     74  C   UNL A   1      39.762  24.746  26.577  1.00  0.00     0.000 A 
ENDBRANCH  50  69
BRANCH  62  75
ATOM     75  C   UNL A   1      45.602  28.520  32.484  1.00  0.00    -0.014 A 
ATOM     76  C   UNL A   1      46.797  28.710  31.774  1.00  0.00     0.009 A 
ATOM     77  C   UNL A   1      45.595  27.670  33.599  1.00  0.00     0.009 A 
ATOM     78  C   UNL A   1      47.957  28.037  32.161  1.00  0.00     0.001 A 
ATOM     79  C   UNL A   1      46.763  27.020  34.000  1.00  0.00     0.001 A 
ATOM     80  C   UNL A   1      47.941  27.199  33.276  1.00  0.00     0.000 A 
ENDBRANCH  62  75
ENDBRANCH  36  37
ENDBRANCH  28  31
ENDBRANCH  26  27
ENDBRANCH  25  26
ENDBRANCH   1  25
TORSDOF 14
ENDMDL
