MODEL 1
REMARK VINA RESULT:     -10.0      0.000      0.000
REMARK SMILES CC(C)c1ccc2c(c1)c(SC(C)(C)C)c(CC(C)(C)C(=O)NCCCCNC(=O)c1ccc(-c3c4nc(c(-c5ccccc5)c5ccc([nH]5)c(-c5ccccc5)c5nc(c(-c6ccccc6)c6ccc3[nH]6)C=C5)C=C4)cc1)n2Cc1ccc(Cl)cc1
REMARK SMILES IDX 24 1 23 2 21 3 22 4 18 6 19 7 20 8 17 9 16 10 4 11 5 12 9 13
REMARK SMILES IDX 6 14 8 15 7 16 10 17 79 18 2 19 1 20 3 21 11 22 12 23 13 24
REMARK SMILES IDX 14 25 15 26 80 27 81 28 82 29 87 30 83 31 86 32 84 33 85 34
REMARK SMILES IDX 25 35 26 36 27 37 28 38 29 39 30 41 31 42 32 43 78 44 33 45
REMARK SMILES IDX 77 46 34 47 35 48 36 49 71 50 37 51 76 52 70 53 72 54 38 55
REMARK SMILES IDX 75 56 69 57 68 58 39 60 61 61 46 62 60 63 47 64 50 65 59 66
REMARK SMILES IDX 73 67 48 68 49 69 58 71 74 72 51 73 40 74 41 75 45 76 42 77
REMARK SMILES IDX 44 78 43 79 62 80 63 81 67 82 64 83 66 84 65 85 52 86 53 87
REMARK SMILES IDX 57 88 54 89 56 90 55 91
REMARK H PARENT 23 5 28 40 72 59 50 70
REMARK Flexibility Score: inf
ROOT
ATOM      1  C   UNL A   1      40.974  28.256  34.018  1.00  0.00     0.116 C 
ENDROOT
BRANCH   1   2
ATOM      2  N   UNL A   1      41.749  29.198  33.221  1.00  0.00    -0.356 N 
ATOM      3  C   UNL A   1      41.806  30.561  33.364  1.00  0.00     0.226 C 
ATOM      4  O   UNL A   1      42.827  31.126  32.945  1.00  0.00    -0.275 OA
ATOM      5  H   UNL A   1      42.292  28.812  32.496  1.00  0.00     0.163 HD
BRANCH   3   6
ATOM      6  C   UNL A   1      40.750  31.238  34.233  1.00  0.00     0.049 C 
ATOM      7  C   UNL A   1      41.091  32.697  33.819  1.00  0.00     0.022 C 
ATOM      8  C   UNL A   1      40.949  30.696  35.687  1.00  0.00     0.022 C 
BRANCH   6   9
ATOM      9  C   UNL A   1      39.237  30.943  34.017  1.00  0.00     0.071 C 
BRANCH   9  10
ATOM     10  C   UNL A   1      38.355  32.093  33.800  1.00  0.00     0.034 A 
ATOM     11  C   UNL A   1      34.774  34.805  32.697  1.00  0.00    -0.045 A 
ATOM     12  C   UNL A   1      34.651  34.803  34.089  1.00  0.00     0.006 A 
ATOM     13  C   UNL A   1      35.889  34.170  32.118  1.00  0.00     0.015 A 
ATOM     14  C   UNL A   1      35.580  34.150  34.908  1.00  0.00     0.027 A 
ATOM     15  C   UNL A   1      36.849  33.492  32.914  1.00  0.00     0.014 A 
ATOM     16  C   UNL A   1      36.648  33.465  34.303  1.00  0.00     0.050 A 
ATOM     17  C   UNL A   1      38.042  32.735  32.611  1.00  0.00     0.037 A 
ATOM     18  N   UNL A   1      37.652  32.678  34.851  1.00  0.00    -0.339 N 
BRANCH  11  19
ATOM     19  C   UNL A   1      33.675  35.431  31.851  1.00  0.00     0.013 C 
ATOM     20  C   UNL A   1      33.615  36.954  31.982  1.00  0.00     0.012 C 
ATOM     21  C   UNL A   1      33.815  35.019  30.382  1.00  0.00     0.012 C 
ENDBRANCH  11  19
BRANCH  17  22
ATOM     22  S   UNL A   1      38.627  32.571  30.930  1.00  0.00    -0.118 SA
BRANCH  22  23
ATOM     23  C   UNL A   1      38.972  30.875  30.202  1.00  0.00     0.012 C 
ATOM     24  C   UNL A   1      40.464  30.722  29.892  1.00  0.00     0.023 C 
ATOM     25  C   UNL A   1      38.471  29.548  30.820  1.00  0.00     0.023 C 
ATOM     26  C   UNL A   1      38.161  30.908  28.875  1.00  0.00     0.023 C 
ENDBRANCH  22  23
ENDBRANCH  17  22
BRANCH  18  27
ATOM     27  C   UNL A   1      38.016  32.668  36.297  1.00  0.00     0.158 C 
BRANCH  27  28
ATOM     28  C   UNL A   1      38.581  33.942  36.913  1.00  0.00    -0.028 A 
ATOM     29  C   UNL A   1      39.251  34.903  36.126  1.00  0.00     0.007 A 
ATOM     30  C   UNL A   1      38.473  34.201  38.290  1.00  0.00     0.007 A 
ATOM     31  C   UNL A   1      39.979  35.946  36.710  1.00  0.00     0.021 A 
ATOM     32  C   UNL A   1      39.146  35.288  38.872  1.00  0.00     0.021 A 
ATOM     33  C   UNL A   1      39.946  36.116  38.088  1.00  0.00     0.041 A 
ATOM     34  Cl  UNL A   1      40.931  37.324  38.820  1.00  0.00    -0.084 Cl
ENDBRANCH  27  28
ENDBRANCH  18  27
ENDBRANCH   9  10
ENDBRANCH   6   9
ENDBRANCH   3   6
ENDBRANCH   1   2
BRANCH   1  35
ATOM     35  C   UNL A   1      41.751  27.019  34.382  1.00  0.00     0.023 C 
BRANCH  35  36
ATOM     36  C   UNL A   1      41.534  26.636  35.836  1.00  0.00     0.023 C 
BRANCH  36  37
ATOM     37  C   UNL A   1      41.569  25.119  36.084  1.00  0.00     0.116 C 
BRANCH  37  38
ATOM     38  N   UNL A   1      42.770  24.666  36.761  1.00  0.00    -0.352 N 
ATOM     39  C   UNL A   1      44.071  24.524  36.371  1.00  0.00     0.251 C 
ATOM     40  H   UNL A   1      42.616  24.407  37.699  1.00  0.00     0.163 HD
ATOM     41  O   UNL A   1      44.882  24.193  37.241  1.00  0.00    -0.269 OA
BRANCH  39  42
ATOM     42  C   UNL A   1      44.539  24.673  34.970  1.00  0.00     0.039 A 
ATOM     43  C   UNL A   1      44.975  25.865  34.398  1.00  0.00     0.014 A 
ATOM     44  C   UNL A   1      44.451  23.529  34.157  1.00  0.00     0.014 A 
ATOM     45  C   UNL A   1      45.171  25.965  33.037  1.00  0.00     0.010 A 
ATOM     46  C   UNL A   1      44.698  23.605  32.794  1.00  0.00     0.010 A 
ATOM     47  C   UNL A   1      44.999  24.841  32.234  1.00  0.00    -0.014 A 
BRANCH  47  48
ATOM     48  C   UNL A   1      45.264  25.023  30.819  1.00  0.00     0.031 A 
ATOM     49  C   UNL A   1      46.411  25.919  30.533  1.00  0.00     0.074 A 
ATOM     50  C   UNL A   1      44.552  24.417  29.853  1.00  0.00     0.049 A 
ATOM     51  N   UNL A   1      46.386  27.072  29.953  1.00  0.00    -0.248 NA
ATOM     52  C   UNL A   1      47.722  25.555  31.093  1.00  0.00     0.031 C 
ATOM     53  C   UNL A   1      43.588  23.325  30.008  1.00  0.00     0.029 A 
ATOM     54  N   UNL A   1      44.628  24.580  28.502  1.00  0.00    -0.354 N 
ATOM     55  C   UNL A   1      47.708  27.505  29.906  1.00  0.00     0.074 A 
ATOM     56  C   UNL A   1      48.460  26.610  30.746  1.00  0.00     0.031 C 
ATOM     57  C   UNL A   1      43.371  22.755  28.801  1.00  0.00     0.029 A 
ATOM     58  C   UNL A   1      44.039  23.550  27.786  1.00  0.00     0.049 A 
ATOM     59  H   UNL A   1      45.060  25.356  28.077  1.00  0.00     0.167 HD
ATOM     60  C   UNL A   1      48.118  28.414  28.982  1.00  0.00     0.031 A 
ATOM     61  C   UNL A   1      44.149  23.335  26.456  1.00  0.00     0.031 A 
ATOM     62  C   UNL A   1      47.003  29.093  28.381  1.00  0.00     0.049 A 
ATOM     63  C   UNL A   1      44.495  24.620  25.813  1.00  0.00     0.074 A 
ATOM     64  C   UNL A   1      46.144  30.108  28.733  1.00  0.00     0.029 A 
ATOM     65  N   UNL A   1      46.446  28.422  27.325  1.00  0.00    -0.354 N 
ATOM     66  N   UNL A   1      43.698  25.650  25.797  1.00  0.00    -0.248 NA
ATOM     67  C   UNL A   1      45.880  24.897  25.452  1.00  0.00     0.031 C 
ATOM     68  C   UNL A   1      44.949  29.879  27.991  1.00  0.00     0.029 A 
ATOM     69  C   UNL A   1      45.127  28.761  27.177  1.00  0.00     0.049 A 
ATOM     70  H   UNL A   1      46.927  27.784  26.751  1.00  0.00     0.167 HD
ATOM     71  C   UNL A   1      44.543  26.741  25.853  1.00  0.00     0.074 A 
ATOM     72  C   UNL A   1      45.851  26.233  25.456  1.00  0.00     0.031 C 
ATOM     73  C   UNL A   1      44.186  27.877  26.516  1.00  0.00     0.031 A 
BRANCH  60  74
ATOM     74  C   UNL A   1      49.451  28.340  28.273  1.00  0.00    -0.014 A 
ATOM     75  C   UNL A   1      50.581  29.084  28.662  1.00  0.00     0.009 A 
ATOM     76  C   UNL A   1      49.680  27.276  27.379  1.00  0.00     0.009 A 
ATOM     77  C   UNL A   1      51.868  28.776  28.210  1.00  0.00     0.001 A 
ATOM     78  C   UNL A   1      50.972  26.942  26.951  1.00  0.00     0.001 A 
ATOM     79  C   UNL A   1      52.066  27.689  27.372  1.00  0.00     0.000 A 
ENDBRANCH  60  74
BRANCH  61  80
ATOM     80  C   UNL A   1      44.339  22.036  25.777  1.00  0.00    -0.014 A 
ATOM     81  C   UNL A   1      43.295  21.091  25.768  1.00  0.00     0.009 A 
ATOM     82  C   UNL A   1      45.621  21.603  25.408  1.00  0.00     0.009 A 
ATOM     83  C   UNL A   1      43.534  19.750  25.455  1.00  0.00     0.001 A 
ATOM     84  C   UNL A   1      45.859  20.258  25.095  1.00  0.00     0.001 A 
ATOM     85  C   UNL A   1      44.821  19.331  25.138  1.00  0.00     0.000 A 
ENDBRANCH  61  80
BRANCH  73  86
ATOM     86  C   UNL A   1      42.726  28.127  26.772  1.00  0.00    -0.014 A 
ATOM     87  C   UNL A   1      42.139  27.469  27.864  1.00  0.00     0.009 A 
ATOM     88  C   UNL A   1      41.897  28.857  25.905  1.00  0.00     0.009 A 
ATOM     89  C   UNL A   1      40.760  27.504  28.068  1.00  0.00     0.001 A 
ATOM     90  C   UNL A   1      40.516  28.916  26.126  1.00  0.00     0.001 A 
ATOM     91  C   UNL A   1      39.948  28.228  27.199  1.00  0.00     0.000 A 
ENDBRANCH  73  86
ENDBRANCH  47  48
ENDBRANCH  39  42
ENDBRANCH  37  38
ENDBRANCH  36  37
ENDBRANCH  35  36
ENDBRANCH   1  35
TORSDOF 18
ENDMDL
MODEL 2
REMARK VINA RESULT:     -10.0      3.436     12.152
REMARK SMILES CC(C)c1ccc2c(c1)c(SC(C)(C)C)c(CC(C)(C)C(=O)NCCCCNC(=O)c1ccc(-c3c4nc(c(-c5ccccc5)c5ccc([nH]5)c(-c5ccccc5)c5nc(c(-c6ccccc6)c6ccc3[nH]6)C=C5)C=C4)cc1)n2Cc1ccc(Cl)cc1
REMARK SMILES IDX 24 1 23 2 21 3 22 4 18 6 19 7 20 8 17 9 16 10 4 11 5 12 9 13
REMARK SMILES IDX 6 14 8 15 7 16 10 17 79 18 2 19 1 20 3 21 11 22 12 23 13 24
REMARK SMILES IDX 14 25 15 26 80 27 81 28 82 29 87 30 83 31 86 32 84 33 85 34
REMARK SMILES IDX 25 35 26 36 27 37 28 38 29 39 30 41 31 42 32 43 78 44 33 45
REMARK SMILES IDX 77 46 34 47 35 48 36 49 71 50 37 51 76 52 70 53 72 54 38 55
REMARK SMILES IDX 75 56 69 57 68 58 39 60 61 61 46 62 60 63 47 64 50 65 59 66
REMARK SMILES IDX 73 67 48 68 49 69 58 71 74 72 51 73 40 74 41 75 45 76 42 77
REMARK SMILES IDX 44 78 43 79 62 80 63 81 67 82 64 83 66 84 65 85 52 86 53 87
REMARK SMILES IDX 57 88 54 89 56 90 55 91
REMARK H PARENT 23 5 28 40 72 59 50 70
REMARK Flexibility Score: inf
ROOT
ATOM      1  C   UNL A   1      44.569  29.266  26.788  1.00  0.00     0.116 C 
ENDROOT
BRANCH   1   2
ATOM      2  N   UNL A   1      45.438  28.744  25.743  1.00  0.00    -0.356 N 
ATOM      3  C   UNL A   1      45.713  27.429  25.468  1.00  0.00     0.226 C 
ATOM      4  O   UNL A   1      46.064  27.160  24.309  1.00  0.00    -0.275 OA
ATOM      5  H   UNL A   1      45.880  29.412  25.169  1.00  0.00     0.163 HD
BRANCH   3   6
ATOM      6  C   UNL A   1      45.335  26.381  26.510  1.00  0.00     0.049 C 
ATOM      7  C   UNL A   1      46.372  26.816  27.582  1.00  0.00     0.022 C 
ATOM      8  C   UNL A   1      45.384  24.992  25.790  1.00  0.00     0.022 C 
BRANCH   6   9
ATOM      9  C   UNL A   1      43.900  26.344  27.114  1.00  0.00     0.071 C 
BRANCH   9  10
ATOM     10  C   UNL A   1      43.768  25.875  28.496  1.00  0.00     0.034 A 
ATOM     11  C   UNL A   1      44.601  24.142  32.703  1.00  0.00    -0.045 A 
ATOM     12  C   UNL A   1      44.528  25.502  33.016  1.00  0.00     0.006 A 
ATOM     13  C   UNL A   1      44.305  23.736  31.388  1.00  0.00     0.015 A 
ATOM     14  C   UNL A   1      44.216  26.464  32.047  1.00  0.00     0.027 A 
ATOM     15  C   UNL A   1      43.990  24.681  30.376  1.00  0.00     0.014 A 
ATOM     16  C   UNL A   1      43.990  26.041  30.726  1.00  0.00     0.050 A 
ATOM     17  C   UNL A   1      43.690  24.573  28.967  1.00  0.00     0.037 A 
ATOM     18  N   UNL A   1      43.748  26.766  29.567  1.00  0.00    -0.339 N 
BRANCH  11  19
ATOM     19  C   UNL A   1      45.057  23.154  33.766  1.00  0.00     0.013 C 
ATOM     20  C   UNL A   1      46.147  23.720  34.679  1.00  0.00     0.012 C 
ATOM     21  C   UNL A   1      43.868  22.652  34.591  1.00  0.00     0.012 C 
ENDBRANCH  11  19
BRANCH  17  22
ATOM     22  S   UNL A   1      43.578  22.977  28.169  1.00  0.00    -0.118 SA
BRANCH  22  23
ATOM     23  C   UNL A   1      42.096  22.548  27.100  1.00  0.00     0.012 C 
ATOM     24  C   UNL A   1      42.478  22.587  25.617  1.00  0.00     0.023 C 
ATOM     25  C   UNL A   1      41.189  21.314  27.329  1.00  0.00     0.023 C 
ATOM     26  C   UNL A   1      41.107  23.705  27.418  1.00  0.00     0.023 C 
ENDBRANCH  22  23
ENDBRANCH  17  22
BRANCH  18  27
ATOM     27  C   UNL A   1      43.325  28.196  29.544  1.00  0.00     0.158 C 
BRANCH  27  28
ATOM     28  C   UNL A   1      41.846  28.514  29.358  1.00  0.00    -0.028 A 
ATOM     29  C   UNL A   1      40.896  27.491  29.155  1.00  0.00     0.007 A 
ATOM     30  C   UNL A   1      41.375  29.837  29.363  1.00  0.00     0.007 A 
ATOM     31  C   UNL A   1      39.589  27.779  28.745  1.00  0.00     0.021 A 
ATOM     32  C   UNL A   1      40.045  30.128  29.019  1.00  0.00     0.021 A 
ATOM     33  C   UNL A   1      39.178  29.102  28.651  1.00  0.00     0.041 A 
ATOM     34  Cl  UNL A   1      37.611  29.464  28.036  1.00  0.00    -0.084 Cl
ENDBRANCH  27  28
ENDBRANCH  18  27
ENDBRANCH   9  10
ENDBRANCH   6   9
ENDBRANCH   3   6
ENDBRANCH   1   2
BRANCH   1  35
ATOM     35  C   UNL A   1      45.120  30.503  27.446  1.00  0.00     0.023 C 
BRANCH  35  36
ATOM     36  C   UNL A   1      45.410  31.590  26.425  1.00  0.00     0.023 C 
BRANCH  36  37
ATOM     37  C   UNL A   1      46.555  32.532  26.837  1.00  0.00     0.116 C 
BRANCH  37  38
ATOM     38  N   UNL A   1      46.164  33.928  26.906  1.00  0.00    -0.352 N 
ATOM     39  C   UNL A   1      45.451  34.660  27.811  1.00  0.00     0.251 C 
ATOM     40  H   UNL A   1      46.480  34.459  26.140  1.00  0.00     0.163 HD
ATOM     41  O   UNL A   1      45.377  35.875  27.612  1.00  0.00    -0.269 OA
BRANCH  39  42
ATOM     42  C   UNL A   1      44.714  34.072  28.958  1.00  0.00     0.039 A 
ATOM     43  C   UNL A   1      43.431  33.535  28.890  1.00  0.00     0.014 A 
ATOM     44  C   UNL A   1      45.347  34.146  30.211  1.00  0.00     0.014 A 
ATOM     45  C   UNL A   1      42.734  33.225  30.039  1.00  0.00     0.010 A 
ATOM     46  C   UNL A   1      44.675  33.785  31.370  1.00  0.00     0.010 A 
ATOM     47  C   UNL A   1      43.348  33.382  31.278  1.00  0.00    -0.014 A 
BRANCH  47  48
ATOM     48  C   UNL A   1      42.559  32.994  32.433  1.00  0.00     0.031 A 
ATOM     49  C   UNL A   1      42.571  31.536  32.707  1.00  0.00     0.074 A 
ATOM     50  C   UNL A   1      41.896  33.876  33.201  1.00  0.00     0.049 A 
ATOM     51  N   UNL A   1      41.580  30.712  32.640  1.00  0.00    -0.248 NA
ATOM     52  C   UNL A   1      43.875  30.893  32.938  1.00  0.00     0.031 C 
ATOM     53  C   UNL A   1      42.020  35.335  33.193  1.00  0.00     0.029 A 
ATOM     54  N   UNL A   1      41.045  33.638  34.239  1.00  0.00    -0.354 N 
ATOM     55  C   UNL A   1      42.092  29.469  33.001  1.00  0.00     0.074 A 
ATOM     56  C   UNL A   1      43.524  29.609  33.028  1.00  0.00     0.031 C 
ATOM     57  C   UNL A   1      41.484  35.829  34.332  1.00  0.00     0.029 A 
ATOM     58  C   UNL A   1      40.835  34.744  35.048  1.00  0.00     0.049 A 
ATOM     59  H   UNL A   1      40.621  32.764  34.398  1.00  0.00     0.167 HD
ATOM     60  C   UNL A   1      41.284  28.491  33.490  1.00  0.00     0.031 A 
ATOM     61  C   UNL A   1      40.223  34.750  36.253  1.00  0.00     0.031 A 
ATOM     62  C   UNL A   1      39.899  28.772  33.227  1.00  0.00     0.049 A 
ATOM     63  C   UNL A   1      39.340  33.567  36.322  1.00  0.00     0.074 A 
ATOM     64  C   UNL A   1      39.049  28.683  32.148  1.00  0.00     0.029 A 
ATOM     65  N   UNL A   1      39.308  29.585  34.157  1.00  0.00    -0.354 N 
ATOM     66  N   UNL A   1      38.299  33.405  35.556  1.00  0.00    -0.248 NA
ATOM     67  C   UNL A   1      39.787  32.373  37.029  1.00  0.00     0.031 C 
ATOM     68  C   UNL A   1      38.030  29.652  32.377  1.00  0.00     0.029 A 
ATOM     69  C   UNL A   1      38.261  30.273  33.605  1.00  0.00     0.049 A 
ATOM     70  H   UNL A   1      39.597  29.665  35.094  1.00  0.00     0.167 HD
ATOM     71  C   UNL A   1      38.233  32.041  35.350  1.00  0.00     0.074 A 
ATOM     72  C   UNL A   1      39.041  31.453  36.411  1.00  0.00     0.031 C 
ATOM     73  C   UNL A   1      37.798  31.528  34.164  1.00  0.00     0.031 A 
BRANCH  60  74
ATOM     74  C   UNL A   1      41.684  27.563  34.615  1.00  0.00    -0.014 A 
ATOM     75  C   UNL A   1      42.044  28.011  35.900  1.00  0.00     0.009 A 
ATOM     76  C   UNL A   1      41.405  26.189  34.486  1.00  0.00     0.009 A 
ATOM     77  C   UNL A   1      42.101  27.150  37.000  1.00  0.00     0.001 A 
ATOM     78  C   UNL A   1      41.426  25.328  35.592  1.00  0.00     0.001 A 
ATOM     79  C   UNL A   1      41.769  25.811  36.850  1.00  0.00     0.000 A 
ENDBRANCH  60  74
BRANCH  61  80
ATOM     80  C   UNL A   1      40.641  35.496  37.459  1.00  0.00    -0.014 A 
ATOM     81  C   UNL A   1      39.714  36.316  38.131  1.00  0.00     0.009 A 
ATOM     82  C   UNL A   1      41.999  35.647  37.772  1.00  0.00     0.009 A 
ATOM     83  C   UNL A   1      40.134  37.288  39.043  1.00  0.00     0.001 A 
ATOM     84  C   UNL A   1      42.419  36.622  38.686  1.00  0.00     0.001 A 
ATOM     85  C   UNL A   1      41.489  37.454  39.305  1.00  0.00     0.000 A 
ENDBRANCH  61  80
BRANCH  73  86
ATOM     86  C   UNL A   1      36.956  32.398  33.273  1.00  0.00    -0.014 A 
ATOM     87  C   UNL A   1      37.455  33.671  32.954  1.00  0.00     0.009 A 
ATOM     88  C   UNL A   1      35.652  32.069  32.869  1.00  0.00     0.009 A 
ATOM     89  C   UNL A   1      36.667  34.605  32.283  1.00  0.00     0.001 A 
ATOM     90  C   UNL A   1      34.871  32.997  32.170  1.00  0.00     0.001 A 
ATOM     91  C   UNL A   1      35.374  34.268  31.892  1.00  0.00     0.000 A 
ENDBRANCH  73  86
ENDBRANCH  47  48
ENDBRANCH  39  42
ENDBRANCH  37  38
ENDBRANCH  36  37
ENDBRANCH  35  36
ENDBRANCH   1  35
TORSDOF 18
ENDMDL
MODEL 3
REMARK VINA RESULT:      -9.9      9.482     14.065
REMARK SMILES CC(C)c1ccc2c(c1)c(SC(C)(C)C)c(CC(C)(C)C(=O)NCCCCNC(=O)c1ccc(-c3c4nc(c(-c5ccccc5)c5ccc([nH]5)c(-c5ccccc5)c5nc(c(-c6ccccc6)c6ccc3[nH]6)C=C5)C=C4)cc1)n2Cc1ccc(Cl)cc1
REMARK SMILES IDX 24 1 23 2 21 3 22 4 18 6 19 7 20 8 17 9 16 10 4 11 5 12 9 13
REMARK SMILES IDX 6 14 8 15 7 16 10 17 79 18 2 19 1 20 3 21 11 22 12 23 13 24
REMARK SMILES IDX 14 25 15 26 80 27 81 28 82 29 87 30 83 31 86 32 84 33 85 34
REMARK SMILES IDX 25 35 26 36 27 37 28 38 29 39 30 41 31 42 32 43 78 44 33 45
REMARK SMILES IDX 77 46 34 47 35 48 36 49 71 50 37 51 76 52 70 53 72 54 38 55
REMARK SMILES IDX 75 56 69 57 68 58 39 60 61 61 46 62 60 63 47 64 50 65 59 66
REMARK SMILES IDX 73 67 48 68 49 69 58 71 74 72 51 73 40 74 41 75 45 76 42 77
REMARK SMILES IDX 44 78 43 79 62 80 63 81 67 82 64 83 66 84 65 85 52 86 53 87
REMARK SMILES IDX 57 88 54 89 56 90 55 91
REMARK H PARENT 23 5 28 40 72 59 50 70
REMARK Flexibility Score: inf
ROOT
ATOM      1  C   UNL A   1      46.331  42.376  27.920  1.00  0.00     0.116 C 
ENDROOT
BRANCH   1   2
ATOM      2  N   UNL A   1      47.707  42.826  27.759  1.00  0.00    -0.356 N 
ATOM      3  C   UNL A   1      48.200  43.670  26.796  1.00  0.00     0.226 C 
ATOM      4  O   UNL A   1      49.231  44.299  27.078  1.00  0.00    -0.275 OA
ATOM      5  H   UNL A   1      48.357  42.486  28.416  1.00  0.00     0.163 HD
BRANCH   3   6
ATOM      6  C   UNL A   1      47.330  43.957  25.577  1.00  0.00     0.049 C 
ATOM      7  C   UNL A   1      48.443  44.621  24.719  1.00  0.00     0.022 C 
ATOM      8  C   UNL A   1      46.074  44.735  26.094  1.00  0.00     0.022 C 
BRANCH   6   9
ATOM      9  C   UNL A   1      46.651  42.795  24.795  1.00  0.00     0.071 C 
BRANCH   9  10
ATOM     10  C   UNL A   1      45.584  43.154  23.857  1.00  0.00     0.034 A 
ATOM     11  C   UNL A   1      42.668  43.259  20.267  1.00  0.00    -0.045 A 
ATOM     12  C   UNL A   1      41.817  42.746  21.250  1.00  0.00     0.006 A 
ATOM     13  C   UNL A   1      43.962  43.667  20.642  1.00  0.00     0.015 A 
ATOM     14  C   UNL A   1      42.237  42.588  22.577  1.00  0.00     0.027 A 
ATOM     15  C   UNL A   1      44.427  43.517  21.976  1.00  0.00     0.014 A 
ATOM     16  C   UNL A   1      43.556  42.939  22.913  1.00  0.00     0.050 A 
ATOM     17  C   UNL A   1      45.682  43.798  22.633  1.00  0.00     0.037 A 
ATOM     18  N   UNL A   1      44.255  42.814  24.105  1.00  0.00    -0.339 N 
BRANCH  11  19
ATOM     19  C   UNL A   1      42.199  43.302  18.821  1.00  0.00     0.013 C 
ATOM     20  C   UNL A   1      40.904  44.095  18.636  1.00  0.00     0.012 C 
ATOM     21  C   UNL A   1      43.300  43.843  17.905  1.00  0.00     0.012 C 
ENDBRANCH  11  19
BRANCH  17  22
ATOM     22  S   UNL A   1      47.034  44.566  21.749  1.00  0.00    -0.118 SA
BRANCH  22  23
ATOM     23  C   UNL A   1      46.743  46.106  20.716  1.00  0.00     0.012 C 
ATOM     24  C   UNL A   1      46.758  45.759  19.225  1.00  0.00     0.023 C 
ATOM     25  C   UNL A   1      45.592  47.112  20.963  1.00  0.00     0.023 C 
ATOM     26  C   UNL A   1      47.980  46.982  21.064  1.00  0.00     0.023 C 
ENDBRANCH  22  23
ENDBRANCH  17  22
BRANCH  18  27
ATOM     27  C   UNL A   1      43.616  42.579  25.433  1.00  0.00     0.158 C 
BRANCH  27  28
ATOM     28  C   UNL A   1      43.256  41.151  25.823  1.00  0.00    -0.028 A 
ATOM     29  C   UNL A   1      41.912  40.730  25.903  1.00  0.00     0.007 A 
ATOM     30  C   UNL A   1      44.246  40.206  26.137  1.00  0.00     0.007 A 
ATOM     31  C   UNL A   1      41.564  39.507  26.489  1.00  0.00     0.021 A 
ATOM     32  C   UNL A   1      43.900  38.949  26.662  1.00  0.00     0.021 A 
ATOM     33  C   UNL A   1      42.564  38.633  26.894  1.00  0.00     0.041 A 
ATOM     34  Cl  UNL A   1      42.143  37.182  27.721  1.00  0.00    -0.084 Cl
ENDBRANCH  27  28
ENDBRANCH  18  27
ENDBRANCH   9  10
ENDBRANCH   6   9
ENDBRANCH   3   6
ENDBRANCH   1   2
BRANCH   1  35
ATOM     35  C   UNL A   1      46.104  41.633  29.209  1.00  0.00     0.023 C 
BRANCH  35  36
ATOM     36  C   UNL A   1      44.624  41.503  29.521  1.00  0.00     0.023 C 
BRANCH  36  37
ATOM     37  C   UNL A   1      44.242  40.147  30.140  1.00  0.00     0.116 C 
BRANCH  37  38
ATOM     38  N   UNL A   1      45.242  39.620  31.051  1.00  0.00    -0.352 N 
ATOM     39  C   UNL A   1      45.361  38.446  31.736  1.00  0.00     0.251 C 
ATOM     40  H   UNL A   1      45.991  40.239  31.207  1.00  0.00     0.163 HD
ATOM     41  O   UNL A   1      46.407  38.272  32.369  1.00  0.00    -0.269 OA
BRANCH  39  42
ATOM     42  C   UNL A   1      44.292  37.420  31.819  1.00  0.00     0.039 A 
ATOM     43  C   UNL A   1      43.446  37.236  32.910  1.00  0.00     0.014 A 
ATOM     44  C   UNL A   1      44.196  36.528  30.736  1.00  0.00     0.014 A 
ATOM     45  C   UNL A   1      42.641  36.120  33.000  1.00  0.00     0.010 A 
ATOM     46  C   UNL A   1      43.350  35.430  30.792  1.00  0.00     0.010 A 
ATOM     47  C   UNL A   1      42.620  35.203  31.953  1.00  0.00    -0.014 A 
BRANCH  47  48
ATOM     48  C   UNL A   1      41.717  34.078  32.110  1.00  0.00     0.031 A 
ATOM     49  C   UNL A   1      40.479  34.183  31.297  1.00  0.00     0.074 A 
ATOM     50  C   UNL A   1      41.983  33.024  32.900  1.00  0.00     0.049 A 
ATOM     51  N   UNL A   1      39.266  34.307  31.720  1.00  0.00    -0.248 NA
ATOM     52  C   UNL A   1      40.626  34.317  29.839  1.00  0.00     0.031 C 
ATOM     53  C   UNL A   1      43.260  32.684  33.531  1.00  0.00     0.029 A 
ATOM     54  N   UNL A   1      41.186  31.965  33.213  1.00  0.00    -0.354 N 
ATOM     55  C   UNL A   1      38.468  34.350  30.580  1.00  0.00     0.074 A 
ATOM     56  C   UNL A   1      39.361  34.501  29.461  1.00  0.00     0.031 C 
ATOM     57  C   UNL A   1      43.227  31.392  33.926  1.00  0.00     0.029 A 
ATOM     58  C   UNL A   1      41.880  30.882  33.731  1.00  0.00     0.049 A 
ATOM     59  H   UNL A   1      40.210  31.968  33.084  1.00  0.00     0.167 HD
ATOM     60  C   UNL A   1      37.153  34.006  30.630  1.00  0.00     0.031 A 
ATOM     61  C   UNL A   1      41.393  29.637  33.926  1.00  0.00     0.031 A 
ATOM     62  C   UNL A   1      36.666  33.982  31.982  1.00  0.00     0.049 A 
ATOM     63  C   UNL A   1      39.923  29.736  34.044  1.00  0.00     0.074 A 
ATOM     64  C   UNL A   1      36.273  34.910  32.919  1.00  0.00     0.029 A 
ATOM     65  N   UNL A   1      36.894  32.801  32.636  1.00  0.00    -0.354 N 
ATOM     66  N   UNL A   1      39.323  30.355  35.021  1.00  0.00    -0.248 NA
ATOM     67  C   UNL A   1      39.083  29.425  32.893  1.00  0.00     0.031 C 
ATOM     68  C   UNL A   1      36.490  34.297  34.187  1.00  0.00     0.029 A 
ATOM     69  C   UNL A   1      36.966  33.001  33.988  1.00  0.00     0.049 A 
ATOM     70  H   UNL A   1      36.994  31.927  32.194  1.00  0.00     0.167 HD
ATOM     71  C   UNL A   1      38.185  30.884  34.445  1.00  0.00     0.074 A 
ATOM     72  C   UNL A   1      37.997  30.137  33.208  1.00  0.00     0.031 C 
ATOM     73  C   UNL A   1      37.679  32.082  34.855  1.00  0.00     0.031 A 
BRANCH  60  74
ATOM     74  C   UNL A   1      36.454  33.222  29.542  1.00  0.00    -0.014 A 
ATOM     75  C   UNL A   1      36.845  31.931  29.142  1.00  0.00     0.009 A 
ATOM     76  C   UNL A   1      35.185  33.654  29.110  1.00  0.00     0.009 A 
ATOM     77  C   UNL A   1      36.015  31.105  28.377  1.00  0.00     0.001 A 
ATOM     78  C   UNL A   1      34.336  32.818  28.373  1.00  0.00     0.001 A 
ATOM     79  C   UNL A   1      34.750  31.540  28.012  1.00  0.00     0.000 A 
ENDBRANCH  60  74
BRANCH  61  80
ATOM     80  C   UNL A   1      42.078  28.358  33.643  1.00  0.00    -0.014 A 
ATOM     81  C   UNL A   1      42.204  27.391  34.659  1.00  0.00     0.009 A 
ATOM     82  C   UNL A   1      42.863  28.208  32.491  1.00  0.00     0.009 A 
ATOM     83  C   UNL A   1      43.122  26.343  34.551  1.00  0.00     0.001 A 
ATOM     84  C   UNL A   1      43.784  27.157  32.384  1.00  0.00     0.001 A 
ATOM     85  C   UNL A   1      43.925  26.238  33.421  1.00  0.00     0.000 A 
ENDBRANCH  61  80
BRANCH  73  86
ATOM     86  C   UNL A   1      38.059  32.592  36.217  1.00  0.00    -0.014 A 
ATOM     87  C   UNL A   1      37.710  31.801  37.323  1.00  0.00     0.009 A 
ATOM     88  C   UNL A   1      38.605  33.865  36.449  1.00  0.00     0.009 A 
ATOM     89  C   UNL A   1      37.865  32.277  38.625  1.00  0.00     0.001 A 
ATOM     90  C   UNL A   1      38.787  34.332  37.755  1.00  0.00     0.001 A 
ATOM     91  C   UNL A   1      38.403  33.543  38.841  1.00  0.00     0.000 A 
ENDBRANCH  73  86
ENDBRANCH  47  48
ENDBRANCH  39  42
ENDBRANCH  37  38
ENDBRANCH  36  37
ENDBRANCH  35  36
ENDBRANCH   1  35
TORSDOF 18
ENDMDL
