MODEL 1
REMARK VINA RESULT:     -14.3      0.000      0.000
REMARK SMILES Cc1ccc([C@@]23C[C@@H]4C[C@@H](C[C@@](C(=O)N5CCC(C(=O)NCCCCNC(=O)c6ccc(-c7c8nc(c(-c9ccccc9)c9ccc([nH]9)c(-c9ccccc9)c9nc(c(-c%10ccccc%10)c%10ccc7[nH]%10)C=C9)C=C8)cc6)CC5)(C4)C2)C3)cc1
REMARK SMILES IDX 23 1 22 2 21 3 19 4 20 5 18 7 13 8 14 9 15 10 16 11 78 12
REMARK SMILES IDX 17 13 77 14 12 15 6 16 7 17 80 18 81 19 8 20 10 21 9 22
REMARK SMILES IDX 79 23 11 24 5 25 1 26 2 27 3 28 83 29 4 30 82 31 24 32 25 33
REMARK SMILES IDX 26 34 27 35 28 37 29 38 30 39 76 40 31 41 75 42 32 43 33 44
REMARK SMILES IDX 34 45 69 46 35 47 74 48 68 49 70 50 36 51 73 52 67 53 66 54
REMARK SMILES IDX 37 56 59 57 44 58 58 59 45 60 48 61 57 62 71 63 46 64 47 65
REMARK SMILES IDX 56 67 72 68 49 69 38 70 39 71 43 72 40 73 42 74 41 75 60 76
REMARK SMILES IDX 61 77 65 78 62 79 64 80 63 81 50 82 51 83 55 84 52 85 54 86
REMARK SMILES IDX 53 87
REMARK H PARENT 21 6 26 36 70 55 48 66
REMARK Flexibility Score: inf
ROOT
ATOM      1  C   UNL A   1      32.921  29.603  25.347  1.00  0.00     0.023 C 
ENDROOT
BRANCH   1   2
ATOM      2  C   UNL A   1      31.538  29.070  24.943  1.00  0.00     0.116 C 
BRANCH   2   3
ATOM      3  N   UNL A   1      31.065  29.594  23.668  1.00  0.00    -0.356 N 
ATOM      4  C   UNL A   1      30.554  28.983  22.563  1.00  0.00     0.223 C 
ATOM      5  O   UNL A   1      30.210  29.700  21.620  1.00  0.00    -0.275 OA
ATOM      6  H   UNL A   1      31.126  30.574  23.590  1.00  0.00     0.163 HD
BRANCH   4   7
ATOM      7  C   UNL A   1      30.410  27.471  22.466  1.00  0.00     0.082 C 
ATOM      8  C   UNL A   1      31.702  24.823  25.111  1.00  0.00     0.228 C 
ATOM      9  O   UNL A   1      31.118  25.095  26.165  1.00  0.00    -0.274 OA
ATOM     10  N   UNL A   1      31.102  25.097  23.883  1.00  0.00    -0.342 N 
ATOM     11  C   UNL A   1      29.688  25.443  23.853  1.00  0.00     0.120 C 
ATOM     12  C   UNL A   1      31.752  25.320  22.593  1.00  0.00     0.120 C 
ATOM     13  C   UNL A   1      29.502  26.928  23.586  1.00  0.00     0.035 C 
ATOM     14  C   UNL A   1      31.787  26.811  22.311  1.00  0.00     0.035 C 
BRANCH   8  15
ATOM     15  C   UNL A   1      33.087  24.137  25.160  1.00  0.00     0.051 C 
ATOM     16  C   UNL A   1      34.225  21.835  24.934  1.00  0.00    -0.003 C 
ATOM     17  C   UNL A   1      35.143  22.503  23.866  1.00  0.00     0.015 C 
ATOM     18  C   UNL A   1      32.895  22.623  24.950  1.00  0.00     0.028 C 
ATOM     19  C   UNL A   1      34.868  22.019  26.331  1.00  0.00     0.015 C 
ATOM     20  C   UNL A   1      35.411  23.985  24.194  1.00  0.00    -0.009 C 
ATOM     21  C   UNL A   1      35.079  23.516  26.637  1.00  0.00    -0.009 C 
ATOM     22  C   UNL A   1      36.038  24.102  25.590  1.00  0.00     0.007 C 
ATOM     23  C   UNL A   1      34.090  24.764  24.172  1.00  0.00     0.020 C 
ATOM     24  C   UNL A   1      33.734  24.273  26.575  1.00  0.00     0.020 C 
BRANCH  16  25
ATOM     25  C   UNL A   1      33.990  20.348  24.607  1.00  0.00    -0.042 A 
ATOM     26  C   UNL A   1      33.265  16.120  23.918  1.00  0.00     0.044 C 
ATOM     27  C   UNL A   1      33.503  17.585  24.128  1.00  0.00    -0.051 A 
ATOM     28  C   UNL A   1      34.782  18.032  24.451  1.00  0.00     0.004 A 
ATOM     29  C   UNL A   1      32.473  18.522  24.018  1.00  0.00     0.004 A 
ATOM     30  C   UNL A   1      35.020  19.390  24.677  1.00  0.00     0.004 A 
ATOM     31  C   UNL A   1      32.715  19.883  24.249  1.00  0.00     0.004 A 
ENDBRANCH  16  25
ENDBRANCH   8  15
ENDBRANCH   4   7
ENDBRANCH   2   3
ENDBRANCH   1   2
BRANCH   1  32
ATOM     32  C   UNL A   1      32.931  30.644  26.469  1.00  0.00     0.023 C 
BRANCH  32  33
ATOM     33  C   UNL A   1      33.681  30.211  27.720  1.00  0.00     0.116 C 
BRANCH  33  34
ATOM     34  N   UNL A   1      34.349  31.290  28.435  1.00  0.00    -0.352 N 
ATOM     35  C   UNL A   1      35.603  31.299  29.029  1.00  0.00     0.251 C 
ATOM     36  H   UNL A   1      33.840  32.130  28.506  1.00  0.00     0.163 HD
ATOM     37  O   UNL A   1      35.991  32.284  29.635  1.00  0.00    -0.269 OA
BRANCH  35  38
ATOM     38  C   UNL A   1      36.521  30.153  28.803  1.00  0.00     0.039 A 
ATOM     39  C   UNL A   1      36.769  29.299  29.884  1.00  0.00     0.014 A 
ATOM     40  C   UNL A   1      37.286  30.056  27.644  1.00  0.00     0.014 A 
ATOM     41  C   UNL A   1      37.940  28.547  29.901  1.00  0.00     0.010 A 
ATOM     42  C   UNL A   1      38.494  29.389  27.697  1.00  0.00     0.010 A 
ATOM     43  C   UNL A   1      38.853  28.698  28.858  1.00  0.00    -0.014 A 
BRANCH  43  44
ATOM     44  C   UNL A   1      40.249  28.293  28.968  1.00  0.00     0.031 A 
ATOM     45  C   UNL A   1      40.701  26.991  28.449  1.00  0.00     0.074 A 
ATOM     46  C   UNL A   1      41.142  29.117  29.560  1.00  0.00     0.049 A 
ATOM     47  N   UNL A   1      41.714  26.339  28.912  1.00  0.00    -0.248 NA
ATOM     48  C   UNL A   1      39.984  26.277  27.401  1.00  0.00     0.031 C 
ATOM     49  C   UNL A   1      42.597  28.997  29.570  1.00  0.00     0.029 A 
ATOM     50  N   UNL A   1      40.880  30.118  30.481  1.00  0.00    -0.354 N 
ATOM     51  C   UNL A   1      41.969  25.305  28.043  1.00  0.00     0.074 A 
ATOM     52  C   UNL A   1      40.794  25.234  27.204  1.00  0.00     0.031 C 
ATOM     53  C   UNL A   1      43.084  29.706  30.602  1.00  0.00     0.029 A 
ATOM     54  C   UNL A   1      41.952  30.189  31.376  1.00  0.00     0.049 A 
ATOM     55  H   UNL A   1      40.075  30.685  30.502  1.00  0.00     0.167 HD
ATOM     56  C   UNL A   1      43.207  24.735  28.025  1.00  0.00     0.031 A 
ATOM     57  C   UNL A   1      41.768  29.964  32.711  1.00  0.00     0.031 A 
ATOM     58  C   UNL A   1      44.056  25.240  29.109  1.00  0.00     0.049 A 
ATOM     59  C   UNL A   1      42.523  28.762  33.238  1.00  0.00     0.074 A 
ATOM     60  C   UNL A   1      45.110  26.140  29.144  1.00  0.00     0.029 A 
ATOM     61  N   UNL A   1      43.685  25.018  30.431  1.00  0.00    -0.354 N 
ATOM     62  N   UNL A   1      43.054  27.840  32.484  1.00  0.00    -0.248 NA
ATOM     63  C   UNL A   1      42.696  28.478  34.661  1.00  0.00     0.031 C 
ATOM     64  C   UNL A   1      45.328  26.510  30.498  1.00  0.00     0.029 A 
ATOM     65  C   UNL A   1      44.428  25.812  31.284  1.00  0.00     0.049 A 
ATOM     66  H   UNL A   1      42.991  24.383  30.719  1.00  0.00     0.167 HD
ATOM     67  C   UNL A   1      43.610  26.863  33.268  1.00  0.00     0.074 A 
ATOM     68  C   UNL A   1      43.377  27.318  34.625  1.00  0.00     0.031 C 
ATOM     69  C   UNL A   1      44.202  25.758  32.723  1.00  0.00     0.031 A 
BRANCH  56  70
ATOM     70  C   UNL A   1      43.754  23.945  26.851  1.00  0.00    -0.014 A 
ATOM     71  C   UNL A   1      44.606  24.577  25.925  1.00  0.00     0.009 A 
ATOM     72  C   UNL A   1      43.415  22.616  26.546  1.00  0.00     0.009 A 
ATOM     73  C   UNL A   1      45.009  23.957  24.732  1.00  0.00     0.001 A 
ATOM     74  C   UNL A   1      43.792  21.995  25.347  1.00  0.00     0.001 A 
ATOM     75  C   UNL A   1      44.579  22.672  24.430  1.00  0.00     0.000 A 
ENDBRANCH  56  70
BRANCH  57  76
ATOM     76  C   UNL A   1      40.444  30.418  33.216  1.00  0.00    -0.014 A 
ATOM     77  C   UNL A   1      40.181  31.802  33.250  1.00  0.00     0.009 A 
ATOM     78  C   UNL A   1      39.363  29.529  33.310  1.00  0.00     0.009 A 
ATOM     79  C   UNL A   1      38.868  32.282  33.264  1.00  0.00     0.001 A 
ATOM     80  C   UNL A   1      38.049  30.016  33.334  1.00  0.00     0.001 A 
ATOM     81  C   UNL A   1      37.803  31.387  33.277  1.00  0.00     0.000 A 
ENDBRANCH  57  76
BRANCH  69  82
ATOM     82  C   UNL A   1      44.689  24.539  33.472  1.00  0.00    -0.014 A 
ATOM     83  C   UNL A   1      43.916  23.401  33.734  1.00  0.00     0.009 A 
ATOM     84  C   UNL A   1      46.053  24.470  33.839  1.00  0.00     0.009 A 
ATOM     85  C   UNL A   1      44.465  22.274  34.366  1.00  0.00     0.001 A 
ATOM     86  C   UNL A   1      46.615  23.334  34.427  1.00  0.00     0.001 A 
ATOM     87  C   UNL A   1      45.814  22.236  34.703  1.00  0.00     0.000 A 
ENDBRANCH  69  82
ENDBRANCH  43  44
ENDBRANCH  35  38
ENDBRANCH  33  34
ENDBRANCH  32  33
ENDBRANCH   1  32
TORSDOF 13
ENDMDL
MODEL 2
REMARK VINA RESULT:     -13.9      2.270      4.000
REMARK SMILES Cc1ccc([C@@]23C[C@@H]4C[C@@H](C[C@@](C(=O)N5CCC(C(=O)NCCCCNC(=O)c6ccc(-c7c8nc(c(-c9ccccc9)c9ccc([nH]9)c(-c9ccccc9)c9nc(c(-c%10ccccc%10)c%10ccc7[nH]%10)C=C9)C=C8)cc6)CC5)(C4)C2)C3)cc1
REMARK SMILES IDX 23 1 22 2 21 3 19 4 20 5 18 7 13 8 14 9 15 10 16 11 78 12
REMARK SMILES IDX 17 13 77 14 12 15 6 16 7 17 80 18 81 19 8 20 10 21 9 22
REMARK SMILES IDX 79 23 11 24 5 25 1 26 2 27 3 28 83 29 4 30 82 31 24 32 25 33
REMARK SMILES IDX 26 34 27 35 28 37 29 38 30 39 76 40 31 41 75 42 32 43 33 44
REMARK SMILES IDX 34 45 69 46 35 47 74 48 68 49 70 50 36 51 73 52 67 53 66 54
REMARK SMILES IDX 37 56 59 57 44 58 58 59 45 60 48 61 57 62 71 63 46 64 47 65
REMARK SMILES IDX 56 67 72 68 49 69 38 70 39 71 43 72 40 73 42 74 41 75 60 76
REMARK SMILES IDX 61 77 65 78 62 79 64 80 63 81 50 82 51 83 55 84 52 85 54 86
REMARK SMILES IDX 53 87
REMARK H PARENT 21 6 26 36 70 55 48 66
REMARK Flexibility Score: inf
ROOT
ATOM      1  C   UNL A   1      33.667  33.426  27.643  1.00  0.00     0.023 C 
ENDROOT
BRANCH   1   2
ATOM      2  C   UNL A   1      33.046  32.026  27.519  1.00  0.00     0.116 C 
BRANCH   2   3
ATOM      3  N   UNL A   1      33.976  30.950  27.841  1.00  0.00    -0.356 N 
ATOM      4  C   UNL A   1      34.123  29.691  27.341  1.00  0.00     0.223 C 
ATOM      5  O   UNL A   1      35.032  28.996  27.801  1.00  0.00    -0.275 OA
ATOM      6  H   UNL A   1      34.618  31.175  28.552  1.00  0.00     0.163 HD
BRANCH   4   7
ATOM      7  C   UNL A   1      33.207  29.136  26.261  1.00  0.00     0.082 C 
ATOM      8  C   UNL A   1      32.100  25.357  25.846  1.00  0.00     0.228 C 
ATOM      9  O   UNL A   1      31.509  25.068  26.892  1.00  0.00    -0.274 OA
ATOM     10  N   UNL A   1      32.092  26.668  25.372  1.00  0.00    -0.342 N 
ATOM     11  C   UNL A   1      31.163  27.623  25.962  1.00  0.00     0.120 C 
ATOM     12  C   UNL A   1      33.067  27.315  24.497  1.00  0.00     0.120 C 
ATOM     13  C   UNL A   1      31.896  28.600  26.867  1.00  0.00     0.035 C 
ATOM     14  C   UNL A   1      33.983  28.184  25.338  1.00  0.00     0.035 C 
BRANCH   8  15
ATOM     15  C   UNL A   1      32.814  24.247  25.040  1.00  0.00     0.051 C 
ATOM     16  C   UNL A   1      35.098  23.085  24.761  1.00  0.00    -0.003 C 
ATOM     17  C   UNL A   1      34.334  21.746  24.986  1.00  0.00     0.015 C 
ATOM     18  C   UNL A   1      34.291  24.196  25.472  1.00  0.00     0.028 C 
ATOM     19  C   UNL A   1      35.080  23.421  23.249  1.00  0.00     0.015 C 
ATOM     20  C   UNL A   1      32.902  21.805  24.419  1.00  0.00    -0.009 C 
ATOM     21  C   UNL A   1      33.629  23.514  22.731  1.00  0.00    -0.009 C 
ATOM     22  C   UNL A   1      32.951  22.150  22.924  1.00  0.00     0.007 C 
ATOM     23  C   UNL A   1      32.100  22.885  25.156  1.00  0.00     0.020 C 
ATOM     24  C   UNL A   1      32.845  24.588  23.517  1.00  0.00     0.020 C 
BRANCH  16  25
ATOM     25  C   UNL A   1      36.535  23.000  25.308  1.00  0.00    -0.042 A 
ATOM     26  C   UNL A   1      40.498  22.675  27.059  1.00  0.00     0.044 C 
ATOM     27  C   UNL A   1      39.142  22.778  26.428  1.00  0.00    -0.051 A 
ATOM     28  C   UNL A   1      38.440  23.977  26.505  1.00  0.00     0.004 A 
ATOM     29  C   UNL A   1      38.553  21.697  25.767  1.00  0.00     0.004 A 
ATOM     30  C   UNL A   1      37.163  24.087  25.948  1.00  0.00     0.004 A 
ATOM     31  C   UNL A   1      37.272  21.809  25.212  1.00  0.00     0.004 A 
ENDBRANCH  16  25
ENDBRANCH   8  15
ENDBRANCH   4   7
ENDBRANCH   2   3
ENDBRANCH   1   2
BRANCH   1  32
ATOM     32  C   UNL A   1      32.922  34.406  28.552  1.00  0.00     0.023 C 
BRANCH  32  33
ATOM     33  C   UNL A   1      33.785  35.533  29.102  1.00  0.00     0.116 C 
BRANCH  33  34
ATOM     34  N   UNL A   1      34.016  35.478  30.540  1.00  0.00    -0.352 N 
ATOM     35  C   UNL A   1      34.786  34.581  31.266  1.00  0.00     0.251 C 
ATOM     36  H   UNL A   1      33.563  36.173  31.068  1.00  0.00     0.163 HD
ATOM     37  O   UNL A   1      34.831  34.652  32.483  1.00  0.00    -0.269 OA
BRANCH  35  38
ATOM     38  C   UNL A   1      35.663  33.625  30.542  1.00  0.00     0.039 A 
ATOM     39  C   UNL A   1      35.563  32.270  30.881  1.00  0.00     0.014 A 
ATOM     40  C   UNL A   1      36.702  34.069  29.728  1.00  0.00     0.014 A 
ATOM     41  C   UNL A   1      36.642  31.427  30.632  1.00  0.00     0.010 A 
ATOM     42  C   UNL A   1      37.811  33.262  29.566  1.00  0.00     0.010 A 
ATOM     43  C   UNL A   1      37.807  31.965  30.087  1.00  0.00    -0.014 A 
BRANCH  43  44
ATOM     44  C   UNL A   1      39.097  31.290  30.163  1.00  0.00     0.031 A 
ATOM     45  C   UNL A   1      39.296  29.968  29.546  1.00  0.00     0.074 A 
ATOM     46  C   UNL A   1      40.125  31.879  30.813  1.00  0.00     0.049 A 
ATOM     47  N   UNL A   1      40.157  29.099  29.956  1.00  0.00    -0.248 NA
ATOM     48  C   UNL A   1      38.467  29.487  28.449  1.00  0.00     0.031 C 
ATOM     49  C   UNL A   1      41.529  31.480  30.811  1.00  0.00     0.029 A 
ATOM     50  N   UNL A   1      40.050  32.841  31.808  1.00  0.00    -0.354 N 
ATOM     51  C   UNL A   1      40.218  28.103  29.010  1.00  0.00     0.074 A 
ATOM     52  C   UNL A   1      39.063  28.324  28.171  1.00  0.00     0.031 C 
ATOM     53  C   UNL A   1      42.131  32.002  31.892  1.00  0.00     0.029 A 
ATOM     54  C   UNL A   1      41.104  32.636  32.703  1.00  0.00     0.049 A 
ATOM     55  H   UNL A   1      39.369  33.550  31.874  1.00  0.00     0.167 HD
ATOM     56  C   UNL A   1      41.323  27.307  28.946  1.00  0.00     0.031 A 
ATOM     57  C   UNL A   1      40.864  32.352  34.017  1.00  0.00     0.031 A 
ATOM     58  C   UNL A   1      42.241  27.556  30.063  1.00  0.00     0.049 A 
ATOM     59  C   UNL A   1      41.366  30.990  34.451  1.00  0.00     0.074 A 
ATOM     60  C   UNL A   1      43.448  28.230  30.164  1.00  0.00     0.029 A 
ATOM     61  N   UNL A   1      41.818  27.312  31.366  1.00  0.00    -0.354 N 
ATOM     62  N   UNL A   1      41.718  30.042  33.627  1.00  0.00    -0.248 NA
ATOM     63  C   UNL A   1      41.464  30.572  35.848  1.00  0.00     0.031 C 
ATOM     64  C   UNL A   1      43.717  28.449  31.541  1.00  0.00     0.029 A 
ATOM     65  C   UNL A   1      42.690  27.881  32.275  1.00  0.00     0.049 A 
ATOM     66  H   UNL A   1      41.010  26.804  31.606  1.00  0.00     0.167 HD
ATOM     67  C   UNL A   1      42.066  28.920  34.334  1.00  0.00     0.074 A 
ATOM     68  C   UNL A   1      41.908  29.308  35.723  1.00  0.00     0.031 C 
ATOM     69  C   UNL A   1      42.439  27.765  33.706  1.00  0.00     0.031 A 
BRANCH  56  70
ATOM     70  C   UNL A   1      41.722  26.516  27.715  1.00  0.00    -0.014 A 
ATOM     71  C   UNL A   1      42.717  25.526  27.818  1.00  0.00     0.009 A 
ATOM     72  C   UNL A   1      41.230  26.741  26.418  1.00  0.00     0.009 A 
ATOM     73  C   UNL A   1      43.250  24.879  26.692  1.00  0.00     0.001 A 
ATOM     74  C   UNL A   1      41.770  26.119  25.284  1.00  0.00     0.001 A 
ATOM     75  C   UNL A   1      42.794  25.195  25.420  1.00  0.00     0.000 A 
ENDBRANCH  56  70
BRANCH  57  76
ATOM     76  C   UNL A   1      39.646  33.014  34.560  1.00  0.00    -0.014 A 
ATOM     77  C   UNL A   1      38.415  32.338  34.452  1.00  0.00     0.009 A 
ATOM     78  C   UNL A   1      39.746  34.083  35.463  1.00  0.00     0.009 A 
ATOM     79  C   UNL A   1      37.350  32.648  35.303  1.00  0.00     0.001 A 
ATOM     80  C   UNL A   1      38.672  34.396  36.306  1.00  0.00     0.001 A 
ATOM     81  C   UNL A   1      37.490  33.658  36.249  1.00  0.00     0.000 A 
ENDBRANCH  57  76
BRANCH  69  82
ATOM     82  C   UNL A   1      42.672  26.422  34.359  1.00  0.00    -0.014 A 
ATOM     83  C   UNL A   1      41.760  25.773  35.200  1.00  0.00     0.009 A 
ATOM     84  C   UNL A   1      43.837  25.695  34.017  1.00  0.00     0.009 A 
ATOM     85  C   UNL A   1      42.015  24.489  35.704  1.00  0.00     0.001 A 
ATOM     86  C   UNL A   1      44.076  24.399  34.479  1.00  0.00     0.001 A 
ATOM     87  C   UNL A   1      43.166  23.799  35.337  1.00  0.00     0.000 A 
ENDBRANCH  69  82
ENDBRANCH  43  44
ENDBRANCH  35  38
ENDBRANCH  33  34
ENDBRANCH  32  33
ENDBRANCH   1  32
TORSDOF 13
ENDMDL
MODEL 3
REMARK VINA RESULT:     -13.8      3.689      9.400
REMARK SMILES Cc1ccc([C@@]23C[C@@H]4C[C@@H](C[C@@](C(=O)N5CCC(C(=O)NCCCCNC(=O)c6ccc(-c7c8nc(c(-c9ccccc9)c9ccc([nH]9)c(-c9ccccc9)c9nc(c(-c%10ccccc%10)c%10ccc7[nH]%10)C=C9)C=C8)cc6)CC5)(C4)C2)C3)cc1
REMARK SMILES IDX 23 1 22 2 21 3 19 4 20 5 18 7 13 8 14 9 15 10 16 11 78 12
REMARK SMILES IDX 17 13 77 14 12 15 6 16 7 17 80 18 81 19 8 20 10 21 9 22
REMARK SMILES IDX 79 23 11 24 5 25 1 26 2 27 3 28 83 29 4 30 82 31 24 32 25 33
REMARK SMILES IDX 26 34 27 35 28 37 29 38 30 39 76 40 31 41 75 42 32 43 33 44
REMARK SMILES IDX 34 45 69 46 35 47 74 48 68 49 70 50 36 51 73 52 67 53 66 54
REMARK SMILES IDX 37 56 59 57 44 58 58 59 45 60 48 61 57 62 71 63 46 64 47 65
REMARK SMILES IDX 56 67 72 68 49 69 38 70 39 71 43 72 40 73 42 74 41 75 60 76
REMARK SMILES IDX 61 77 65 78 62 79 64 80 63 81 50 82 51 83 55 84 52 85 54 86
REMARK SMILES IDX 53 87
REMARK H PARENT 21 6 26 36 70 55 48 66
REMARK Flexibility Score: inf
ROOT
ATOM      1  C   UNL A   1      40.059  20.523  26.383  1.00  0.00     0.023 C 
ENDROOT
BRANCH   1   2
ATOM      2  C   UNL A   1      38.897  21.114  25.571  1.00  0.00     0.116 C 
BRANCH   2   3
ATOM      3  N   UNL A   1      38.692  22.538  25.806  1.00  0.00    -0.356 N 
ATOM      4  C   UNL A   1      37.578  23.321  25.755  1.00  0.00     0.223 C 
ATOM      5  O   UNL A   1      37.706  24.516  26.031  1.00  0.00    -0.275 OA
ATOM      6  H   UNL A   1      39.512  23.026  26.047  1.00  0.00     0.163 HD
BRANCH   4   7
ATOM      7  C   UNL A   1      36.215  22.768  25.367  1.00  0.00     0.082 C 
ATOM      8  C   UNL A   1      33.413  24.672  23.317  1.00  0.00     0.228 C 
ATOM      9  O   UNL A   1      33.927  24.945  22.227  1.00  0.00    -0.274 OA
ATOM     10  N   UNL A   1      33.823  23.543  24.025  1.00  0.00    -0.342 N 
ATOM     11  C   UNL A   1      34.650  22.552  23.351  1.00  0.00     0.120 C 
ATOM     12  C   UNL A   1      33.735  23.302  25.465  1.00  0.00     0.120 C 
ATOM     13  C   UNL A   1      36.088  22.629  23.838  1.00  0.00     0.035 C 
ATOM     14  C   UNL A   1      35.099  23.538  26.086  1.00  0.00     0.035 C 
BRANCH   8  15
ATOM     15  C   UNL A   1      32.280  25.565  23.872  1.00  0.00     0.051 C 
ATOM     16  C   UNL A   1      31.861  27.627  25.362  1.00  0.00    -0.003 C 
ATOM     17  C   UNL A   1      31.061  28.211  24.158  1.00  0.00     0.015 C 
ATOM     18  C   UNL A   1      32.901  26.641  24.783  1.00  0.00     0.028 C 
ATOM     19  C   UNL A   1      30.898  26.792  26.242  1.00  0.00     0.015 C 
ATOM     20  C   UNL A   1      30.350  27.104  23.356  1.00  0.00    -0.009 C 
ATOM     21  C   UNL A   1      30.242  25.669  25.412  1.00  0.00    -0.009 C 
ATOM     22  C   UNL A   1      29.421  26.308  24.283  1.00  0.00     0.007 C 
ATOM     23  C   UNL A   1      31.394  26.152  22.757  1.00  0.00     0.020 C 
ATOM     24  C   UNL A   1      31.323  24.751  24.798  1.00  0.00     0.020 C 
BRANCH  16  25
ATOM     25  C   UNL A   1      32.541  28.748  26.169  1.00  0.00    -0.042 A 
ATOM     26  C   UNL A   1      34.543  32.003  28.238  1.00  0.00     0.044 C 
ATOM     27  C   UNL A   1      33.829  30.882  27.544  1.00  0.00    -0.051 A 
ATOM     28  C   UNL A   1      34.475  29.660  27.372  1.00  0.00     0.004 A 
ATOM     29  C   UNL A   1      32.530  31.029  27.053  1.00  0.00     0.004 A 
ATOM     30  C   UNL A   1      33.838  28.611  26.704  1.00  0.00     0.004 A 
ATOM     31  C   UNL A   1      31.895  29.976  26.381  1.00  0.00     0.004 A 
ENDBRANCH  16  25
ENDBRANCH   8  15
ENDBRANCH   4   7
ENDBRANCH   2   3
ENDBRANCH   1   2
BRANCH   1  32
ATOM     32  C   UNL A   1      41.301  21.408  26.508  1.00  0.00     0.023 C 
BRANCH  32  33
ATOM     33  C   UNL A   1      42.604  20.641  26.677  1.00  0.00     0.116 C 
BRANCH  33  34
ATOM     34  N   UNL A   1      43.242  20.239  25.430  1.00  0.00    -0.352 N 
ATOM     35  C   UNL A   1      44.131  20.949  24.636  1.00  0.00     0.251 C 
ATOM     36  H   UNL A   1      43.008  19.340  25.105  1.00  0.00     0.163 HD
ATOM     37  O   UNL A   1      44.534  20.475  23.586  1.00  0.00    -0.269 OA
BRANCH  35  38
ATOM     38  C   UNL A   1      44.694  22.227  25.142  1.00  0.00     0.039 A 
ATOM     39  C   UNL A   1      45.349  22.202  26.379  1.00  0.00     0.014 A 
ATOM     40  C   UNL A   1      44.388  23.443  24.535  1.00  0.00     0.014 A 
ATOM     41  C   UNL A   1      45.450  23.378  27.117  1.00  0.00     0.010 A 
ATOM     42  C   UNL A   1      44.399  24.591  25.303  1.00  0.00     0.010 A 
ATOM     43  C   UNL A   1      44.858  24.539  26.621  1.00  0.00    -0.014 A 
BRANCH  43  44
ATOM     44  C   UNL A   1      44.550  25.687  27.464  1.00  0.00     0.031 A 
ATOM     45  C   UNL A   1      43.191  26.255  27.501  1.00  0.00     0.074 A 
ATOM     46  C   UNL A   1      45.522  26.247  28.218  1.00  0.00     0.049 A 
ATOM     47  N   UNL A   1      42.928  27.488  27.775  1.00  0.00    -0.248 NA
ATOM     48  C   UNL A   1      42.011  25.477  27.147  1.00  0.00     0.031 C 
ATOM     49  C   UNL A   1      45.371  27.240  29.276  1.00  0.00     0.029 A 
ATOM     50  N   UNL A   1      46.890  26.186  28.005  1.00  0.00    -0.354 N 
ATOM     51  C   UNL A   1      41.568  27.590  27.943  1.00  0.00     0.074 A 
ATOM     52  C   UNL A   1      41.039  26.353  27.415  1.00  0.00     0.031 C 
ATOM     53  C   UNL A   1      46.547  27.863  29.459  1.00  0.00     0.029 A 
ATOM     54  C   UNL A   1      47.458  27.392  28.428  1.00  0.00     0.049 A 
ATOM     55  H   UNL A   1      47.381  25.423  27.622  1.00  0.00     0.167 HD
ATOM     56  C   UNL A   1      41.058  28.635  28.656  1.00  0.00     0.031 A 
ATOM     57  C   UNL A   1      48.127  28.199  27.553  1.00  0.00     0.031 A 
ATOM     58  C   UNL A   1      42.092  29.615  29.005  1.00  0.00     0.049 A 
ATOM     59  C   UNL A   1      47.487  29.558  27.362  1.00  0.00     0.074 A 
ATOM     60  C   UNL A   1      42.768  29.899  30.181  1.00  0.00     0.029 A 
ATOM     61  N   UNL A   1      42.764  30.292  27.992  1.00  0.00    -0.354 N 
ATOM     62  N   UNL A   1      46.274  29.857  27.735  1.00  0.00    -0.248 NA
ATOM     63  C   UNL A   1      48.149  30.676  26.693  1.00  0.00     0.031 C 
ATOM     64  C   UNL A   1      43.894  30.703  29.858  1.00  0.00     0.029 A 
ATOM     65  C   UNL A   1      43.883  30.930  28.493  1.00  0.00     0.049 A 
ATOM     66  H   UNL A   1      42.481  30.315  27.050  1.00  0.00     0.167 HD
ATOM     67  C   UNL A   1      45.980  31.144  27.368  1.00  0.00     0.074 A 
ATOM     68  C   UNL A   1      47.194  31.622  26.734  1.00  0.00     0.031 C 
ATOM     69  C   UNL A   1      44.752  31.695  27.608  1.00  0.00     0.031 A 
BRANCH  56  70
ATOM     70  C   UNL A   1      39.684  28.625  29.299  1.00  0.00    -0.014 A 
ATOM     71  C   UNL A   1      38.614  29.280  28.658  1.00  0.00     0.009 A 
ATOM     72  C   UNL A   1      39.385  28.074  30.556  1.00  0.00     0.009 A 
ATOM     73  C   UNL A   1      37.365  29.453  29.275  1.00  0.00     0.001 A 
ATOM     74  C   UNL A   1      38.150  28.261  31.191  1.00  0.00     0.001 A 
ATOM     75  C   UNL A   1      37.141  28.965  30.554  1.00  0.00     0.000 A 
ENDBRANCH  56  70
BRANCH  57  76
ATOM     76  C   UNL A   1      48.855  27.453  26.490  1.00  0.00    -0.014 A 
ATOM     77  C   UNL A   1      48.310  27.437  25.191  1.00  0.00     0.009 A 
ATOM     78  C   UNL A   1      50.200  27.089  26.655  1.00  0.00     0.009 A 
ATOM     79  C   UNL A   1      49.114  27.176  24.078  1.00  0.00     0.001 A 
ATOM     80  C   UNL A   1      51.000  26.818  25.537  1.00  0.00     0.001 A 
ATOM     81  C   UNL A   1      50.466  26.895  24.251  1.00  0.00     0.000 A 
ENDBRANCH  57  76
BRANCH  69  82
ATOM     82  C   UNL A   1      44.250  33.027  27.099  1.00  0.00    -0.014 A 
ATOM     83  C   UNL A   1      44.069  33.350  25.749  1.00  0.00     0.009 A 
ATOM     84  C   UNL A   1      43.813  33.989  28.040  1.00  0.00     0.009 A 
ATOM     85  C   UNL A   1      43.521  34.582  25.359  1.00  0.00     0.001 A 
ATOM     86  C   UNL A   1      43.226  35.198  27.658  1.00  0.00     0.001 A 
ATOM     87  C   UNL A   1      43.091  35.500  26.311  1.00  0.00     0.000 A 
ENDBRANCH  69  82
ENDBRANCH  43  44
ENDBRANCH  35  38
ENDBRANCH  33  34
ENDBRANCH  32  33
ENDBRANCH   1  32
TORSDOF 13
ENDMDL
