MODEL 1
REMARK VINA RESULT:     -11.0      0.000      0.000
REMARK SMILES O=C(CCC(=O)N1CCC[C@@]2(CCC(=O)N(Cc3ccncc3)C2)C1)NCCCCNC(=O)c1ccc(-c2c3nc(c(-c4ccccc4)c4ccc([nH]4)c(-c4ccccc4)c4nc(c(-c5ccccc5)c5ccc2[nH]5)C=C4)C=C3)cc1
REMARK SMILES IDX 27 1 26 2 1 3 2 4 3 6 4 7 5 8 6 9 7 10 8 11 25 12 9 13 11 14
REMARK SMILES IDX 10 15 12 16 24 17 13 18 16 19 14 20 15 21 17 22 18 23 19 24
REMARK SMILES IDX 23 25 20 26 22 27 21 28 28 29 29 30 30 31 31 32 32 33 33 35
REMARK SMILES IDX 34 36 35 37 81 38 36 39 80 40 37 41 38 42 39 43 74 44 40 45
REMARK SMILES IDX 79 46 73 47 75 48 41 49 78 50 72 51 71 52 42 54 64 55 49 56
REMARK SMILES IDX 63 57 50 58 53 59 62 60 76 61 51 62 52 63 61 65 77 66 54 67
REMARK SMILES IDX 43 68 44 69 48 70 45 71 47 72 46 73 65 74 66 75 70 76 67 77
REMARK SMILES IDX 69 78 68 79 55 80 56 81 60 82 57 83 59 84 58 85
REMARK H PARENT 26 5 31 34 75 53 53 64
REMARK Flexibility Score: inf
ROOT
ATOM      1  C   UNL A   1      40.557  22.327  27.082  1.00  0.00     0.116 C 
ENDROOT
BRANCH   1   2
ATOM      2  N   UNL A   1      39.206  22.347  26.539  1.00  0.00    -0.356 N 
ATOM      3  O   UNL A   1      39.080  24.641  26.593  1.00  0.00    -0.275 OA
ATOM      4  C   UNL A   1      38.564  23.558  26.326  1.00  0.00     0.220 C 
ATOM      5  H   UNL A   1      38.749  21.502  26.325  1.00  0.00     0.163 HD
BRANCH   4   6
ATOM      6  C   UNL A   1      37.172  23.482  25.717  1.00  0.00     0.110 C 
BRANCH   6   7
ATOM      7  C   UNL A   1      37.104  22.412  24.615  1.00  0.00     0.110 C 
BRANCH   7   8
ATOM      8  C   UNL A   1      35.798  21.678  24.785  1.00  0.00     0.223 C 
ATOM      9  O   UNL A   1      35.800  20.457  24.962  1.00  0.00    -0.275 OA
BRANCH   8  10
ATOM     10  N   UNL A   1      34.649  22.365  24.444  1.00  0.00    -0.342 N 
ATOM     11  C   UNL A   1      34.608  22.885  23.096  1.00  0.00     0.119 C 
ATOM     12  C   UNL A   1      33.411  22.469  25.264  1.00  0.00     0.128 C 
ATOM     13  C   UNL A   1      34.182  24.342  23.128  1.00  0.00     0.022 C 
ATOM     14  C   UNL A   1      32.477  23.638  24.815  1.00  0.00     0.006 C 
ATOM     15  C   UNL A   1      33.417  24.764  24.365  1.00  0.00     0.012 C 
ATOM     16  C   UNL A   1      31.484  23.184  23.720  1.00  0.00     0.020 C 
ATOM     17  C   UNL A   1      31.580  24.175  25.944  1.00  0.00     0.128 C 
ATOM     18  C   UNL A   1      30.679  24.348  23.176  1.00  0.00     0.101 C 
ATOM     19  N   UNL A   1      30.724  25.281  25.478  1.00  0.00    -0.338 N 
ATOM     20  C   UNL A   1      30.151  25.317  24.210  1.00  0.00     0.222 C 
ATOM     21  O   UNL A   1      29.346  26.173  23.844  1.00  0.00    -0.275 OA
BRANCH  19  22
ATOM     22  C   UNL A   1      30.625  26.482  26.311  1.00  0.00     0.155 C 
BRANCH  22  23
ATOM     23  C   UNL A   1      31.710  27.501  26.085  1.00  0.00    -0.026 A 
ATOM     24  C   UNL A   1      32.933  27.418  26.750  1.00  0.00     0.025 A 
ATOM     25  C   UNL A   1      31.490  28.587  25.229  1.00  0.00     0.025 A 
ATOM     26  C   UNL A   1      33.869  28.417  26.536  1.00  0.00     0.111 A 
ATOM     27  C   UNL A   1      32.486  29.538  25.088  1.00  0.00     0.111 A 
ATOM     28  N   UNL A   1      33.680  29.471  25.713  1.00  0.00    -0.265 NA
ENDBRANCH  22  23
ENDBRANCH  19  22
ENDBRANCH   8  10
ENDBRANCH   7   8
ENDBRANCH   6   7
ENDBRANCH   4   6
ENDBRANCH   1   2
BRANCH   1  29
ATOM     29  C   UNL A   1      41.671  21.625  26.281  1.00  0.00     0.023 C 
BRANCH  29  30
ATOM     30  C   UNL A   1      41.674  20.106  26.024  1.00  0.00     0.023 C 
BRANCH  30  31
ATOM     31  C   UNL A   1      42.910  19.190  26.218  1.00  0.00     0.116 C 
BRANCH  31  32
ATOM     32  N   UNL A   1      43.669  18.772  25.058  1.00  0.00    -0.352 N 
ATOM     33  C   UNL A   1      44.519  19.545  24.282  1.00  0.00     0.251 C 
ATOM     34  H   UNL A   1      43.570  17.829  24.790  1.00  0.00     0.163 HD
ATOM     35  O   UNL A   1      44.970  19.092  23.238  1.00  0.00    -0.269 OA
BRANCH  33  36
ATOM     36  C   UNL A   1      44.863  20.939  24.673  1.00  0.00     0.039 A 
ATOM     37  C   UNL A   1      44.545  21.988  23.807  1.00  0.00     0.014 A 
ATOM     38  C   UNL A   1      45.574  21.221  25.843  1.00  0.00     0.014 A 
ATOM     39  C   UNL A   1      44.854  23.314  24.160  1.00  0.00     0.010 A 
ATOM     40  C   UNL A   1      45.857  22.541  26.210  1.00  0.00     0.010 A 
ATOM     41  C   UNL A   1      45.476  23.606  25.386  1.00  0.00    -0.014 A 
BRANCH  41  42
ATOM     42  C   UNL A   1      45.617  25.008  25.873  1.00  0.00     0.031 A 
ATOM     43  C   UNL A   1      46.937  25.729  25.882  1.00  0.00     0.074 A 
ATOM     44  C   UNL A   1      44.535  25.619  26.396  1.00  0.00     0.049 A 
ATOM     45  N   UNL A   1      47.211  26.937  26.313  1.00  0.00    -0.248 NA
ATOM     46  C   UNL A   1      48.100  25.003  25.351  1.00  0.00     0.031 C 
ATOM     47  C   UNL A   1      43.199  25.027  26.495  1.00  0.00     0.029 A 
ATOM     48  N   UNL A   1      44.388  26.866  26.952  1.00  0.00    -0.354 N 
ATOM     49  C   UNL A   1      48.572  27.120  26.105  1.00  0.00     0.074 A 
ATOM     50  C   UNL A   1      49.076  25.884  25.541  1.00  0.00     0.031 C 
ATOM     51  C   UNL A   1      42.365  25.918  27.054  1.00  0.00     0.029 A 
ATOM     52  C   UNL A   1      43.111  27.128  27.387  1.00  0.00     0.049 A 
ATOM     53  H   UNL A   1      45.127  27.512  27.031  1.00  0.00     0.167 HD
ATOM     54  C   UNL A   1      49.332  28.218  26.349  1.00  0.00     0.031 A 
ATOM     55  C   UNL A   1      42.589  28.212  27.990  1.00  0.00     0.031 A 
ATOM     56  C   UNL A   1      48.846  29.450  26.919  1.00  0.00     0.049 A 
ATOM     57  C   UNL A   1      43.456  29.404  28.271  1.00  0.00     0.074 A 
ATOM     58  C   UNL A   1      49.544  30.623  27.157  1.00  0.00     0.029 A 
ATOM     59  N   UNL A   1      47.547  29.669  27.349  1.00  0.00    -0.354 N 
ATOM     60  N   UNL A   1      44.729  29.577  28.013  1.00  0.00    -0.248 NA
ATOM     61  C   UNL A   1      42.809  30.557  28.916  1.00  0.00     0.031 C 
ATOM     62  C   UNL A   1      48.683  31.535  27.776  1.00  0.00     0.029 A 
ATOM     63  C   UNL A   1      47.431  30.950  27.870  1.00  0.00     0.049 A 
ATOM     64  H   UNL A   1      46.815  29.014  27.293  1.00  0.00     0.167 HD
ATOM     65  C   UNL A   1      45.028  30.864  28.440  1.00  0.00     0.074 A 
ATOM     66  C   UNL A   1      43.802  31.433  28.962  1.00  0.00     0.031 C 
ATOM     67  C   UNL A   1      46.217  31.514  28.398  1.00  0.00     0.031 A 
BRANCH  54  68
ATOM     68  C   UNL A   1      50.793  28.149  25.996  1.00  0.00    -0.014 A 
ATOM     69  C   UNL A   1      51.249  28.538  24.727  1.00  0.00     0.009 A 
ATOM     70  C   UNL A   1      51.733  27.774  26.969  1.00  0.00     0.009 A 
ATOM     71  C   UNL A   1      52.615  28.528  24.432  1.00  0.00     0.001 A 
ATOM     72  C   UNL A   1      53.100  27.790  26.680  1.00  0.00     0.001 A 
ATOM     73  C   UNL A   1      53.539  28.161  25.409  1.00  0.00     0.000 A 
ENDBRANCH  54  68
BRANCH  55  74
ATOM     74  C   UNL A   1      41.149  28.224  28.353  1.00  0.00    -0.014 A 
ATOM     75  C   UNL A   1      40.717  27.650  29.558  1.00  0.00     0.009 A 
ATOM     76  C   UNL A   1      40.204  28.822  27.505  1.00  0.00     0.009 A 
ATOM     77  C   UNL A   1      39.364  27.660  29.898  1.00  0.00     0.001 A 
ATOM     78  C   UNL A   1      38.855  28.853  27.861  1.00  0.00     0.001 A 
ATOM     79  C   UNL A   1      38.435  28.266  29.053  1.00  0.00     0.000 A 
ENDBRANCH  55  74
BRANCH  67  80
ATOM     80  C   UNL A   1      46.249  32.930  28.905  1.00  0.00    -0.014 A 
ATOM     81  C   UNL A   1      46.564  33.220  30.242  1.00  0.00     0.009 A 
ATOM     82  C   UNL A   1      45.999  33.991  28.020  1.00  0.00     0.009 A 
ATOM     83  C   UNL A   1      46.597  34.544  30.688  1.00  0.00     0.001 A 
ATOM     84  C   UNL A   1      46.058  35.313  28.463  1.00  0.00     0.001 A 
ATOM     85  C   UNL A   1      46.348  35.588  29.798  1.00  0.00     0.000 A 
ENDBRANCH  67  80
ENDBRANCH  41  42
ENDBRANCH  33  36
ENDBRANCH  31  32
ENDBRANCH  30  31
ENDBRANCH  29  30
ENDBRANCH   1  29
TORSDOF 16
ENDMDL
MODEL 2
REMARK VINA RESULT:     -10.9      5.285     10.900
REMARK SMILES O=C(CCC(=O)N1CCC[C@@]2(CCC(=O)N(Cc3ccncc3)C2)C1)NCCCCNC(=O)c1ccc(-c2c3nc(c(-c4ccccc4)c4ccc([nH]4)c(-c4ccccc4)c4nc(c(-c5ccccc5)c5ccc2[nH]5)C=C4)C=C3)cc1
REMARK SMILES IDX 27 1 26 2 1 3 2 4 3 6 4 7 5 8 6 9 7 10 8 11 25 12 9 13 11 14
REMARK SMILES IDX 10 15 12 16 24 17 13 18 16 19 14 20 15 21 17 22 18 23 19 24
REMARK SMILES IDX 23 25 20 26 22 27 21 28 28 29 29 30 30 31 31 32 32 33 33 35
REMARK SMILES IDX 34 36 35 37 81 38 36 39 80 40 37 41 38 42 39 43 74 44 40 45
REMARK SMILES IDX 79 46 73 47 75 48 41 49 78 50 72 51 71 52 42 54 64 55 49 56
REMARK SMILES IDX 63 57 50 58 53 59 62 60 76 61 51 62 52 63 61 65 77 66 54 67
REMARK SMILES IDX 43 68 44 69 48 70 45 71 47 72 46 73 65 74 66 75 70 76 67 77
REMARK SMILES IDX 69 78 68 79 55 80 56 81 60 82 57 83 59 84 58 85
REMARK H PARENT 26 5 31 34 75 53 53 64
REMARK Flexibility Score: inf
ROOT
ATOM      1  C   UNL A   1      34.316  36.404  32.850  1.00  0.00     0.116 C 
ENDROOT
BRANCH   1   2
ATOM      2  N   UNL A   1      34.358  35.950  31.467  1.00  0.00    -0.356 N 
ATOM      3  O   UNL A   1      32.266  36.777  30.996  1.00  0.00    -0.275 OA
ATOM      4  C   UNL A   1      33.284  36.197  30.624  1.00  0.00     0.220 C 
ATOM      5  H   UNL A   1      35.148  35.468  31.130  1.00  0.00     0.163 HD
BRANCH   4   6
ATOM      6  C   UNL A   1      33.435  35.723  29.187  1.00  0.00     0.110 C 
BRANCH   6   7
ATOM      7  C   UNL A   1      33.467  34.188  29.108  1.00  0.00     0.110 C 
BRANCH   7   8
ATOM      8  C   UNL A   1      34.732  33.805  28.381  1.00  0.00     0.223 C 
ATOM      9  O   UNL A   1      34.962  34.274  27.264  1.00  0.00    -0.275 OA
BRANCH   8  10
ATOM     10  N   UNL A   1      35.431  32.721  28.876  1.00  0.00    -0.342 N 
ATOM     11  C   UNL A   1      35.473  32.608  30.316  1.00  0.00     0.119 C 
ATOM     12  C   UNL A   1      35.987  31.595  28.076  1.00  0.00     0.128 C 
ATOM     13  C   UNL A   1      36.903  32.370  30.764  1.00  0.00     0.022 C 
ATOM     14  C   UNL A   1      37.066  30.772  28.849  1.00  0.00     0.006 C 
ATOM     15  C   UNL A   1      37.823  31.792  29.709  1.00  0.00     0.012 C 
ATOM     16  C   UNL A   1      36.428  29.624  29.666  1.00  0.00     0.020 C 
ATOM     17  C   UNL A   1      38.077  30.067  27.928  1.00  0.00     0.128 C 
ATOM     18  C   UNL A   1      37.452  28.918  30.534  1.00  0.00     0.101 C 
ATOM     19  N   UNL A   1      39.080  29.311  28.699  1.00  0.00    -0.338 N 
ATOM     20  C   UNL A   1      38.777  28.620  29.869  1.00  0.00     0.222 C 
ATOM     21  O   UNL A   1      39.573  27.894  30.463  1.00  0.00    -0.275 OA
BRANCH  19  22
ATOM     22  C   UNL A   1      40.490  29.445  28.326  1.00  0.00     0.155 C 
BRANCH  22  23
ATOM     23  C   UNL A   1      40.941  28.535  27.215  1.00  0.00    -0.026 A 
ATOM     24  C   UNL A   1      40.414  27.251  27.069  1.00  0.00     0.025 A 
ATOM     25  C   UNL A   1      41.941  28.948  26.326  1.00  0.00     0.025 A 
ATOM     26  C   UNL A   1      40.910  26.446  26.057  1.00  0.00     0.111 A 
ATOM     27  C   UNL A   1      42.374  28.066  25.351  1.00  0.00     0.111 A 
ATOM     28  N   UNL A   1      41.871  26.825  25.187  1.00  0.00    -0.265 NA
ENDBRANCH  22  23
ENDBRANCH  19  22
ENDBRANCH   8  10
ENDBRANCH   7   8
ENDBRANCH   6   7
ENDBRANCH   4   6
ENDBRANCH   1   2
BRANCH   1  29
ATOM     29  C   UNL A   1      34.564  35.382  33.977  1.00  0.00     0.023 C 
BRANCH  29  30
ATOM     30  C   UNL A   1      35.502  34.172  33.805  1.00  0.00     0.023 C 
BRANCH  30  31
ATOM     31  C   UNL A   1      36.890  34.040  34.482  1.00  0.00     0.116 C 
BRANCH  31  32
ATOM     32  N   UNL A   1      37.008  33.288  35.714  1.00  0.00    -0.352 N 
ATOM     33  C   UNL A   1      37.832  32.201  35.964  1.00  0.00     0.251 C 
ATOM     34  H   UNL A   1      36.436  33.582  36.459  1.00  0.00     0.163 HD
ATOM     35  O   UNL A   1      37.707  31.570  37.005  1.00  0.00    -0.269 OA
BRANCH  33  36
ATOM     36  C   UNL A   1      38.845  31.759  34.967  1.00  0.00     0.039 A 
ATOM     37  C   UNL A   1      40.160  32.216  35.083  1.00  0.00     0.014 A 
ATOM     38  C   UNL A   1      38.500  30.967  33.868  1.00  0.00     0.014 A 
ATOM     39  C   UNL A   1      41.135  31.804  34.157  1.00  0.00     0.010 A 
ATOM     40  C   UNL A   1      39.473  30.532  32.962  1.00  0.00     0.010 A 
ATOM     41  C   UNL A   1      40.809  30.924  33.111  1.00  0.00    -0.014 A 
BRANCH  41  42
ATOM     42  C   UNL A   1      41.861  30.309  32.254  1.00  0.00     0.031 A 
ATOM     43  C   UNL A   1      42.519  29.001  32.599  1.00  0.00     0.074 A 
ATOM     44  C   UNL A   1      42.292  30.992  31.174  1.00  0.00     0.049 A 
ATOM     45  N   UNL A   1      43.476  28.368  31.962  1.00  0.00    -0.248 NA
ATOM     46  C   UNL A   1      42.054  28.318  33.815  1.00  0.00     0.031 C 
ATOM     47  C   UNL A   1      41.779  32.294  30.741  1.00  0.00     0.029 A 
ATOM     48  N   UNL A   1      43.264  30.694  30.251  1.00  0.00    -0.354 N 
ATOM     49  C   UNL A   1      43.728  27.215  32.694  1.00  0.00     0.074 A 
ATOM     50  C   UNL A   1      42.846  27.253  33.844  1.00  0.00     0.031 C 
ATOM     51  C   UNL A   1      42.423  32.670  29.626  1.00  0.00     0.029 A 
ATOM     52  C   UNL A   1      43.419  31.658  29.284  1.00  0.00     0.049 A 
ATOM     53  H   UNL A   1      43.798  29.868  30.278  1.00  0.00     0.167 HD
ATOM     54  C   UNL A   1      44.602  26.211  32.430  1.00  0.00     0.031 A 
ATOM     55  C   UNL A   1      44.265  31.734  28.240  1.00  0.00     0.031 A 
ATOM     56  C   UNL A   1      45.492  26.168  31.296  1.00  0.00     0.049 A 
ATOM     57  C   UNL A   1      45.240  30.622  27.983  1.00  0.00     0.074 A 
ATOM     58  C   UNL A   1      46.377  25.164  30.935  1.00  0.00     0.029 A 
ATOM     59  N   UNL A   1      45.619  27.167  30.346  1.00  0.00    -0.354 N 
ATOM     60  N   UNL A   1      45.421  29.513  28.656  1.00  0.00    -0.248 NA
ATOM     61  C   UNL A   1      46.119  30.768  26.813  1.00  0.00     0.031 C 
ATOM     62  C   UNL A   1      47.076  25.577  29.796  1.00  0.00     0.029 A 
ATOM     63  C   UNL A   1      46.583  26.814  29.413  1.00  0.00     0.049 A 
ATOM     64  H   UNL A   1      45.102  28.005  30.333  1.00  0.00     0.167 HD
ATOM     65  C   UNL A   1      46.415  28.819  27.978  1.00  0.00     0.074 A 
ATOM     66  C   UNL A   1      46.788  29.625  26.835  1.00  0.00     0.031 C 
ATOM     67  C   UNL A   1      46.964  27.617  28.280  1.00  0.00     0.031 A 
BRANCH  54  68
ATOM     68  C   UNL A   1      44.648  25.054  33.390  1.00  0.00    -0.014 A 
ATOM     69  C   UNL A   1      45.409  25.122  34.567  1.00  0.00     0.009 A 
ATOM     70  C   UNL A   1      43.855  23.918  33.159  1.00  0.00     0.009 A 
ATOM     71  C   UNL A   1      45.394  24.065  35.482  1.00  0.00     0.001 A 
ATOM     72  C   UNL A   1      43.822  22.875  34.087  1.00  0.00     0.001 A 
ATOM     73  C   UNL A   1      44.596  22.946  35.244  1.00  0.00     0.000 A 
ENDBRANCH  54  68
BRANCH  55  74
ATOM     74  C   UNL A   1      44.209  32.912  27.338  1.00  0.00    -0.014 A 
ATOM     75  C   UNL A   1      43.785  32.766  26.008  1.00  0.00     0.009 A 
ATOM     76  C   UNL A   1      44.564  34.186  27.805  1.00  0.00     0.009 A 
ATOM     77  C   UNL A   1      43.735  33.872  25.159  1.00  0.00     0.001 A 
ATOM     78  C   UNL A   1      44.487  35.295  26.960  1.00  0.00     0.001 A 
ATOM     79  C   UNL A   1      44.079  35.136  25.637  1.00  0.00     0.000 A 
ENDBRANCH  55  74
BRANCH  67  80
ATOM     80  C   UNL A   1      48.011  27.080  27.344  1.00  0.00    -0.014 A 
ATOM     81  C   UNL A   1      47.664  26.301  26.229  1.00  0.00     0.009 A 
ATOM     82  C   UNL A   1      49.363  27.391  27.561  1.00  0.00     0.009 A 
ATOM     83  C   UNL A   1      48.653  25.820  25.368  1.00  0.00     0.001 A 
ATOM     84  C   UNL A   1      50.346  26.930  26.684  1.00  0.00     0.001 A 
ATOM     85  C   UNL A   1      49.992  26.139  25.593  1.00  0.00     0.000 A 
ENDBRANCH  67  80
ENDBRANCH  41  42
ENDBRANCH  33  36
ENDBRANCH  31  32
ENDBRANCH  30  31
ENDBRANCH  29  30
ENDBRANCH   1  29
TORSDOF 16
ENDMDL
MODEL 3
REMARK VINA RESULT:     -10.9      0.276      5.686
REMARK SMILES O=C(CCC(=O)N1CCC[C@@]2(CCC(=O)N(Cc3ccncc3)C2)C1)NCCCCNC(=O)c1ccc(-c2c3nc(c(-c4ccccc4)c4ccc([nH]4)c(-c4ccccc4)c4nc(c(-c5ccccc5)c5ccc2[nH]5)C=C4)C=C3)cc1
REMARK SMILES IDX 27 1 26 2 1 3 2 4 3 6 4 7 5 8 6 9 7 10 8 11 25 12 9 13 11 14
REMARK SMILES IDX 10 15 12 16 24 17 13 18 16 19 14 20 15 21 17 22 18 23 19 24
REMARK SMILES IDX 23 25 20 26 22 27 21 28 28 29 29 30 30 31 31 32 32 33 33 35
REMARK SMILES IDX 34 36 35 37 81 38 36 39 80 40 37 41 38 42 39 43 74 44 40 45
REMARK SMILES IDX 79 46 73 47 75 48 41 49 78 50 72 51 71 52 42 54 64 55 49 56
REMARK SMILES IDX 63 57 50 58 53 59 62 60 76 61 51 62 52 63 61 65 77 66 54 67
REMARK SMILES IDX 43 68 44 69 48 70 45 71 47 72 46 73 65 74 66 75 70 76 67 77
REMARK SMILES IDX 69 78 68 79 55 80 56 81 60 82 57 83 59 84 58 85
REMARK H PARENT 26 5 31 34 75 53 53 64
REMARK Flexibility Score: inf
ROOT
ATOM      1  C   UNL A   1      40.361  22.384  26.781  1.00  0.00     0.116 C 
ENDROOT
BRANCH   1   2
ATOM      2  N   UNL A   1      39.157  22.512  25.972  1.00  0.00    -0.356 N 
ATOM      3  O   UNL A   1      38.536  24.485  26.975  1.00  0.00    -0.275 OA
ATOM      4  C   UNL A   1      38.320  23.605  26.144  1.00  0.00     0.220 C 
ATOM      5  H   UNL A   1      38.937  21.823  25.304  1.00  0.00     0.163 HD
BRANCH   4   6
ATOM      6  C   UNL A   1      37.109  23.675  25.226  1.00  0.00     0.110 C 
BRANCH   6   7
ATOM      7  C   UNL A   1      36.994  22.410  24.359  1.00  0.00     0.110 C 
BRANCH   7   8
ATOM      8  C   UNL A   1      35.681  21.752  24.702  1.00  0.00     0.223 C 
ATOM      9  O   UNL A   1      35.655  20.556  25.000  1.00  0.00    -0.275 OA
BRANCH   8  10
ATOM     10  N   UNL A   1      34.533  22.451  24.383  1.00  0.00    -0.342 N 
ATOM     11  C   UNL A   1      34.461  22.951  23.028  1.00  0.00     0.119 C 
ATOM     12  C   UNL A   1      33.320  22.586  25.236  1.00  0.00     0.128 C 
ATOM     13  C   UNL A   1      34.057  24.414  23.049  1.00  0.00     0.022 C 
ATOM     14  C   UNL A   1      32.391  23.762  24.795  1.00  0.00     0.006 C 
ATOM     15  C   UNL A   1      33.333  24.866  24.301  1.00  0.00     0.012 C 
ATOM     16  C   UNL A   1      31.361  23.305  23.736  1.00  0.00     0.020 C 
ATOM     17  C   UNL A   1      31.535  24.329  25.940  1.00  0.00     0.128 C 
ATOM     18  C   UNL A   1      30.557  24.473  23.197  1.00  0.00     0.101 C 
ATOM     19  N   UNL A   1      30.682  25.440  25.482  1.00  0.00    -0.338 N 
ATOM     20  C   UNL A   1      30.073  25.465  24.230  1.00  0.00     0.222 C 
ATOM     21  O   UNL A   1      29.270  26.327  23.874  1.00  0.00    -0.275 OA
BRANCH  19  22
ATOM     22  C   UNL A   1      30.623  26.655  26.298  1.00  0.00     0.155 C 
BRANCH  22  23
ATOM     23  C   UNL A   1      31.766  27.613  26.091  1.00  0.00    -0.026 A 
ATOM     24  C   UNL A   1      32.858  27.639  26.958  1.00  0.00     0.025 A 
ATOM     25  C   UNL A   1      31.730  28.537  25.039  1.00  0.00     0.025 A 
ATOM     26  C   UNL A   1      33.852  28.580  26.741  1.00  0.00     0.111 A 
ATOM     27  C   UNL A   1      32.770  29.442  24.910  1.00  0.00     0.111 A 
ATOM     28  N   UNL A   1      33.839  29.477  25.731  1.00  0.00    -0.265 NA
ENDBRANCH  22  23
ENDBRANCH  19  22
ENDBRANCH   8  10
ENDBRANCH   7   8
ENDBRANCH   6   7
ENDBRANCH   4   6
ENDBRANCH   1   2
BRANCH   1  29
ATOM     29  C   UNL A   1      41.560  21.598  26.213  1.00  0.00     0.023 C 
BRANCH  29  30
ATOM     30  C   UNL A   1      41.571  20.061  26.119  1.00  0.00     0.023 C 
BRANCH  30  31
ATOM     31  C   UNL A   1      42.849  19.189  26.224  1.00  0.00     0.116 C 
BRANCH  31  32
ATOM     32  N   UNL A   1      43.567  18.838  25.016  1.00  0.00    -0.352 N 
ATOM     33  C   UNL A   1      44.383  19.657  24.251  1.00  0.00     0.251 C 
ATOM     34  H   UNL A   1      43.462  17.910  24.702  1.00  0.00     0.163 HD
ATOM     35  O   UNL A   1      44.798  19.262  23.169  1.00  0.00    -0.269 OA
BRANCH  33  36
ATOM     36  C   UNL A   1      44.736  21.030  24.703  1.00  0.00     0.039 A 
ATOM     37  C   UNL A   1      44.514  22.109  23.843  1.00  0.00     0.014 A 
ATOM     38  C   UNL A   1      45.363  21.264  25.930  1.00  0.00     0.014 A 
ATOM     39  C   UNL A   1      44.832  23.416  24.252  1.00  0.00     0.010 A 
ATOM     40  C   UNL A   1      45.654  22.566  26.352  1.00  0.00     0.010 A 
ATOM     41  C   UNL A   1      45.367  23.661  25.528  1.00  0.00    -0.014 A 
BRANCH  41  42
ATOM     42  C   UNL A   1      45.509  25.046  26.060  1.00  0.00     0.031 A 
ATOM     43  C   UNL A   1      44.338  25.833  26.582  1.00  0.00     0.074 A 
ATOM     44  C   UNL A   1      46.719  25.638  25.996  1.00  0.00     0.049 A 
ATOM     45  N   UNL A   1      44.313  27.062  27.040  1.00  0.00    -0.248 NA
ATOM     46  C   UNL A   1      43.029  25.164  26.583  1.00  0.00     0.031 C 
ATOM     47  C   UNL A   1      47.937  25.014  25.474  1.00  0.00     0.029 A 
ATOM     48  N   UNL A   1      47.123  26.899  26.362  1.00  0.00    -0.354 N 
ATOM     49  C   UNL A   1      42.991  27.316  27.386  1.00  0.00     0.074 A 
ATOM     50  C   UNL A   1      42.238  26.123  27.051  1.00  0.00     0.031 C 
ATOM     51  C   UNL A   1      48.953  25.884  25.574  1.00  0.00     0.029 A 
ATOM     52  C   UNL A   1      48.456  27.138  26.132  1.00  0.00     0.049 A 
ATOM     53  H   UNL A   1      46.515  27.568  26.753  1.00  0.00     0.167 HD
ATOM     54  C   UNL A   1      42.454  28.432  27.941  1.00  0.00     0.031 A 
ATOM     55  C   UNL A   1      49.204  28.238  26.338  1.00  0.00     0.031 A 
ATOM     56  C   UNL A   1      43.190  29.628  28.268  1.00  0.00     0.049 A 
ATOM     57  C   UNL A   1      48.581  29.468  26.930  1.00  0.00     0.074 A 
ATOM     58  C   UNL A   1      42.726  30.785  28.873  1.00  0.00     0.029 A 
ATOM     59  N   UNL A   1      44.537  29.828  28.014  1.00  0.00    -0.354 N 
ATOM     60  N   UNL A   1      47.341  29.667  27.303  1.00  0.00    -0.248 NA
ATOM     61  C   UNL A   1      49.467  30.623  27.142  1.00  0.00     0.031 C 
ATOM     62  C   UNL A   1      43.778  31.704  28.939  1.00  0.00     0.029 A 
ATOM     63  C   UNL A   1      44.913  31.097  28.429  1.00  0.00     0.049 A 
ATOM     64  H   UNL A   1      45.139  29.168  27.600  1.00  0.00     0.167 HD
ATOM     65  C   UNL A   1      47.303  30.957  27.815  1.00  0.00     0.074 A 
ATOM     66  C   UNL A   1      48.646  31.490  27.718  1.00  0.00     0.031 C 
ATOM     67  C   UNL A   1      46.245  31.634  28.324  1.00  0.00     0.031 A 
BRANCH  54  68
ATOM     68  C   UNL A   1      40.980  28.423  28.241  1.00  0.00    -0.014 A 
ATOM     69  C   UNL A   1      40.496  27.946  29.469  1.00  0.00     0.009 A 
ATOM     70  C   UNL A   1      40.073  28.976  27.322  1.00  0.00     0.009 A 
ATOM     71  C   UNL A   1      39.130  28.001  29.760  1.00  0.00     0.001 A 
ATOM     72  C   UNL A   1      38.712  29.053  27.626  1.00  0.00     0.001 A 
ATOM     73  C   UNL A   1      38.241  28.559  28.843  1.00  0.00     0.000 A 
ENDBRANCH  54  68
BRANCH  55  74
ATOM     74  C   UNL A   1      50.649  28.215  25.994  1.00  0.00    -0.014 A 
ATOM     75  C   UNL A   1      51.077  28.577  24.709  1.00  0.00     0.009 A 
ATOM     76  C   UNL A   1      51.604  27.846  26.954  1.00  0.00     0.009 A 
ATOM     77  C   UNL A   1      52.435  28.553  24.385  1.00  0.00     0.001 A 
ATOM     78  C   UNL A   1      52.963  27.849  26.634  1.00  0.00     0.001 A 
ATOM     79  C   UNL A   1      53.376  28.196  25.349  1.00  0.00     0.000 A 
ENDBRANCH  55  74
BRANCH  67  80
ATOM     80  C   UNL A   1      46.498  33.022  28.845  1.00  0.00    -0.014 A 
ATOM     81  C   UNL A   1      46.902  33.242  30.171  1.00  0.00     0.009 A 
ATOM     82  C   UNL A   1      46.367  34.123  27.983  1.00  0.00     0.009 A 
ATOM     83  C   UNL A   1      47.139  34.540  30.631  1.00  0.00     0.001 A 
ATOM     84  C   UNL A   1      46.631  35.415  28.438  1.00  0.00     0.001 A 
ATOM     85  C   UNL A   1      47.008  35.624  29.763  1.00  0.00     0.000 A 
ENDBRANCH  67  80
ENDBRANCH  41  42
ENDBRANCH  33  36
ENDBRANCH  31  32
ENDBRANCH  30  31
ENDBRANCH  29  30
ENDBRANCH   1  29
TORSDOF 16
ENDMDL
