MODEL 1
REMARK VINA RESULT:     -10.6      0.000      0.000
REMARK SMILES CC(C)N(C(=O)c1c(C(=O)NCCCCNC(=O)c2ccc(-c3c4nc(c(-c5ccccc5)c5ccc([nH]5)c(-c5ccccc5)c5nc(c(-c6ccccc6)c6ccc3[nH]6)C=C5)C=C4)cc2)cnn1C)C(C)C
REMARK SMILES IDX 13 1 12 2 11 3 9 4 10 5 8 7 7 8 69 9 67 10 68 11 70 12 5 13
REMARK SMILES IDX 4 14 6 15 2 16 1 17 3 18 71 19 72 20 73 21 14 22 15 23 16 24
REMARK SMILES IDX 17 25 18 27 19 28 20 29 66 30 21 31 65 32 22 33 23 34 24 35
REMARK SMILES IDX 59 36 25 37 64 38 58 39 60 40 26 41 63 42 57 43 56 44 27 46
REMARK SMILES IDX 49 47 34 48 48 49 35 50 38 51 47 52 61 53 36 54 37 55 46 57
REMARK SMILES IDX 62 58 39 59 28 60 29 61 33 62 30 63 32 64 31 65 50 66 51 67
REMARK SMILES IDX 55 68 52 69 54 70 53 71 40 72 41 73 45 74 42 75 44 76 43 77
REMARK H PARENT 11 6 16 26 60 45 38 56
REMARK Flexibility Score: inf
ROOT
ATOM      1  C   UNL A   1      36.979  21.931  24.190  1.00  0.00     0.023 C 
ENDROOT
BRANCH   1   2
ATOM      2  C   UNL A   1      36.810  23.234  24.955  1.00  0.00     0.116 C 
BRANCH   2   3
ATOM      3  N   UNL A   1      35.658  23.301  25.804  1.00  0.00    -0.352 N 
ATOM      4  C   UNL A   1      34.368  23.682  25.538  1.00  0.00     0.255 C 
ATOM      5  O   UNL A   1      33.617  23.680  26.520  1.00  0.00    -0.269 OA
ATOM      6  H   UNL A   1      35.820  23.029  26.736  1.00  0.00     0.163 HD
BRANCH   4   7
ATOM      7  C   UNL A   1      33.848  24.105  24.234  1.00  0.00     0.090 A 
ATOM      8  C   UNL A   1      33.327  25.281  23.679  1.00  0.00     0.138 A 
ATOM      9  N   UNL A   1      33.213  25.029  22.328  1.00  0.00    -0.262 N 
ATOM     10  C   UNL A   1      33.854  23.206  23.126  1.00  0.00     0.149 A 
ATOM     11  N   UNL A   1      33.417  23.748  21.994  1.00  0.00    -0.180 NA
ATOM     12  C   UNL A   1      32.885  25.958  21.270  1.00  0.00     0.174 C 
BRANCH   8  13
ATOM     13  C   UNL A   1      33.103  26.590  24.247  1.00  0.00     0.273 C 
ATOM     14  N   UNL A   1      31.873  26.841  24.926  1.00  0.00    -0.332 N 
ATOM     15  O   UNL A   1      33.996  27.433  24.213  1.00  0.00    -0.267 OA
BRANCH  14  16
ATOM     16  C   UNL A   1      30.660  25.994  24.740  1.00  0.00     0.079 C 
ATOM     17  C   UNL A   1      30.028  25.450  26.022  1.00  0.00     0.031 C 
ATOM     18  C   UNL A   1      29.619  26.667  23.844  1.00  0.00     0.031 C 
ENDBRANCH  14  16
BRANCH  14  19
ATOM     19  C   UNL A   1      31.855  28.073  25.767  1.00  0.00     0.079 C 
ATOM     20  C   UNL A   1      32.915  28.054  26.867  1.00  0.00     0.031 C 
ATOM     21  C   UNL A   1      31.882  29.405  25.020  1.00  0.00     0.031 C 
ENDBRANCH  14  19
ENDBRANCH   8  13
ENDBRANCH   4   7
ENDBRANCH   2   3
ENDBRANCH   1   2
BRANCH   1  22
ATOM     22  C   UNL A   1      37.500  20.737  24.967  1.00  0.00     0.023 C 
BRANCH  22  23
ATOM     23  C   UNL A   1      38.800  20.951  25.734  1.00  0.00     0.116 C 
BRANCH  23  24
ATOM     24  N   UNL A   1      39.730  19.828  25.682  1.00  0.00    -0.352 N 
ATOM     25  C   UNL A   1      41.060  19.756  26.041  1.00  0.00     0.251 C 
ATOM     26  H   UNL A   1      39.347  18.988  25.337  1.00  0.00     0.163 HD
ATOM     27  O   UNL A   1      41.693  18.727  25.873  1.00  0.00    -0.269 OA
BRANCH  25  28
ATOM     28  C   UNL A   1      41.728  20.961  26.580  1.00  0.00     0.039 A 
ATOM     29  C   UNL A   1      42.283  21.880  25.687  1.00  0.00     0.014 A 
ATOM     30  C   UNL A   1      41.724  21.223  27.951  1.00  0.00     0.014 A 
ATOM     31  C   UNL A   1      42.716  23.121  26.158  1.00  0.00     0.010 A 
ATOM     32  C   UNL A   1      42.059  22.493  28.402  1.00  0.00     0.010 A 
ATOM     33  C   UNL A   1      42.540  23.462  27.509  1.00  0.00    -0.014 A 
BRANCH  33  34
ATOM     34  C   UNL A   1      42.811  24.836  28.006  1.00  0.00     0.031 A 
ATOM     35  C   UNL A   1      44.200  25.226  28.426  1.00  0.00     0.074 A 
ATOM     36  C   UNL A   1      41.789  25.699  28.174  1.00  0.00     0.049 A 
ATOM     37  N   UNL A   1      44.613  26.339  28.978  1.00  0.00    -0.248 NA
ATOM     38  C   UNL A   1      45.259  24.221  28.235  1.00  0.00     0.031 C 
ATOM     39  C   UNL A   1      40.383  25.426  27.865  1.00  0.00     0.029 A 
ATOM     40  N   UNL A   1      41.775  26.983  28.660  1.00  0.00    -0.354 N 
ATOM     41  C   UNL A   1      45.967  26.155  29.225  1.00  0.00     0.074 A 
ATOM     42  C   UNL A   1      46.297  24.809  28.809  1.00  0.00     0.031 C 
ATOM     43  C   UNL A   1      39.651  26.520  28.135  1.00  0.00     0.029 A 
ATOM     44  C   UNL A   1      40.526  27.554  28.676  1.00  0.00     0.049 A 
ATOM     45  H   UNL A   1      42.586  27.450  28.969  1.00  0.00     0.167 HD
ATOM     46  C   UNL A   1      46.864  27.034  29.731  1.00  0.00     0.031 A 
ATOM     47  C   UNL A   1      40.126  28.773  29.084  1.00  0.00     0.031 A 
ATOM     48  C   UNL A   1      46.548  28.381  30.119  1.00  0.00     0.049 A 
ATOM     49  C   UNL A   1      41.144  29.736  29.627  1.00  0.00     0.074 A 
ATOM     50  C   UNL A   1      47.401  29.371  30.574  1.00  0.00     0.029 A 
ATOM     51  N   UNL A   1      45.275  28.929  30.094  1.00  0.00    -0.354 N 
ATOM     52  N   UNL A   1      42.434  29.571  29.787  1.00  0.00    -0.248 NA
ATOM     53  C   UNL A   1      40.648  31.057  30.040  1.00  0.00     0.031 C 
ATOM     54  C   UNL A   1      46.637  30.507  30.861  1.00  0.00     0.029 A 
ATOM     55  C   UNL A   1      45.317  30.237  30.542  1.00  0.00     0.049 A 
ATOM     56  H   UNL A   1      44.461  28.456  29.801  1.00  0.00     0.167 HD
ATOM     57  C   UNL A   1      42.909  30.772  30.296  1.00  0.00     0.074 A 
ATOM     58  C   UNL A   1      41.771  31.662  30.403  1.00  0.00     0.031 C 
ATOM     59  C   UNL A   1      44.175  31.108  30.643  1.00  0.00     0.031 A 
BRANCH  46  60
ATOM     60  C   UNL A   1      48.280  26.557  29.887  1.00  0.00    -0.014 A 
ATOM     61  C   UNL A   1      48.683  25.842  31.027  1.00  0.00     0.009 A 
ATOM     62  C   UNL A   1      49.219  26.809  28.876  1.00  0.00     0.009 A 
ATOM     63  C   UNL A   1      50.008  25.423  31.168  1.00  0.00     0.001 A 
ATOM     64  C   UNL A   1      50.536  26.364  29.006  1.00  0.00     0.001 A 
ATOM     65  C   UNL A   1      50.931  25.681  30.156  1.00  0.00     0.000 A 
ENDBRANCH  46  60
BRANCH  47  66
ATOM     66  C   UNL A   1      38.698  29.168  28.971  1.00  0.00    -0.014 A 
ATOM     67  C   UNL A   1      37.837  29.024  30.069  1.00  0.00     0.009 A 
ATOM     68  C   UNL A   1      38.187  29.681  27.769  1.00  0.00     0.009 A 
ATOM     69  C   UNL A   1      36.487  29.363  29.960  1.00  0.00     0.001 A 
ATOM     70  C   UNL A   1      36.842  30.043  27.670  1.00  0.00     0.001 A 
ATOM     71  C   UNL A   1      35.992  29.877  28.762  1.00  0.00     0.000 A 
ENDBRANCH  47  66
BRANCH  59  72
ATOM     72  C   UNL A   1      44.398  32.504  31.145  1.00  0.00    -0.014 A 
ATOM     73  C   UNL A   1      44.342  32.801  32.515  1.00  0.00     0.009 A 
ATOM     74  C   UNL A   1      44.710  33.528  30.236  1.00  0.00     0.009 A 
ATOM     75  C   UNL A   1      44.566  34.104  32.963  1.00  0.00     0.001 A 
ATOM     76  C   UNL A   1      44.958  34.824  30.690  1.00  0.00     0.001 A 
ATOM     77  C   UNL A   1      44.877  35.112  32.051  1.00  0.00     0.000 A 
ENDBRANCH  59  72
ENDBRANCH  33  34
ENDBRANCH  25  28
ENDBRANCH  23  24
ENDBRANCH  22  23
ENDBRANCH   1  22
TORSDOF 14
ENDMDL
MODEL 2
REMARK VINA RESULT:     -10.5      0.349      5.984
REMARK SMILES CC(C)N(C(=O)c1c(C(=O)NCCCCNC(=O)c2ccc(-c3c4nc(c(-c5ccccc5)c5ccc([nH]5)c(-c5ccccc5)c5nc(c(-c6ccccc6)c6ccc3[nH]6)C=C5)C=C4)cc2)cnn1C)C(C)C
REMARK SMILES IDX 13 1 12 2 11 3 9 4 10 5 8 7 7 8 69 9 67 10 68 11 70 12 5 13
REMARK SMILES IDX 4 14 6 15 2 16 1 17 3 18 71 19 72 20 73 21 14 22 15 23 16 24
REMARK SMILES IDX 17 25 18 27 19 28 20 29 66 30 21 31 65 32 22 33 23 34 24 35
REMARK SMILES IDX 59 36 25 37 64 38 58 39 60 40 26 41 63 42 57 43 56 44 27 46
REMARK SMILES IDX 49 47 34 48 48 49 35 50 38 51 47 52 61 53 36 54 37 55 46 57
REMARK SMILES IDX 62 58 39 59 28 60 29 61 33 62 30 63 32 64 31 65 50 66 51 67
REMARK SMILES IDX 55 68 52 69 54 70 53 71 40 72 41 73 45 74 42 75 44 76 43 77
REMARK H PARENT 11 6 16 26 60 45 38 56
REMARK Flexibility Score: inf
ROOT
ATOM      1  C   UNL A   1      37.047  22.520  24.178  1.00  0.00     0.023 C 
ENDROOT
BRANCH   1   2
ATOM      2  C   UNL A   1      36.696  23.708  25.060  1.00  0.00     0.116 C 
BRANCH   2   3
ATOM      3  N   UNL A   1      35.501  23.562  25.837  1.00  0.00    -0.352 N 
ATOM      4  C   UNL A   1      34.186  23.774  25.509  1.00  0.00     0.255 C 
ATOM      5  O   UNL A   1      33.390  23.608  26.440  1.00  0.00    -0.269 OA
ATOM      6  H   UNL A   1      35.647  23.260  26.762  1.00  0.00     0.163 HD
BRANCH   4   7
ATOM      7  C   UNL A   1      33.684  24.198  24.199  1.00  0.00     0.090 A 
ATOM      8  C   UNL A   1      33.180  25.377  23.635  1.00  0.00     0.138 A 
ATOM      9  N   UNL A   1      33.078  25.122  22.283  1.00  0.00    -0.262 N 
ATOM     10  C   UNL A   1      33.694  23.295  23.093  1.00  0.00     0.149 A 
ATOM     11  N   UNL A   1      33.274  23.838  21.955  1.00  0.00    -0.180 NA
ATOM     12  C   UNL A   1      32.770  26.051  21.218  1.00  0.00     0.174 C 
BRANCH   8  13
ATOM     13  C   UNL A   1      32.962  26.690  24.196  1.00  0.00     0.273 C 
ATOM     14  N   UNL A   1      31.727  26.955  24.858  1.00  0.00    -0.332 N 
ATOM     15  O   UNL A   1      33.865  27.524  24.172  1.00  0.00    -0.267 OA
BRANCH  14  16
ATOM     16  C   UNL A   1      30.508  26.120  24.659  1.00  0.00     0.079 C 
ATOM     17  C   UNL A   1      29.886  25.541  25.930  1.00  0.00     0.031 C 
ATOM     18  C   UNL A   1      29.461  26.825  23.795  1.00  0.00     0.031 C 
ENDBRANCH  14  16
BRANCH  14  19
ATOM     19  C   UNL A   1      31.711  28.189  25.696  1.00  0.00     0.079 C 
ATOM     20  C   UNL A   1      32.660  28.107  26.890  1.00  0.00     0.031 C 
ATOM     21  C   UNL A   1      31.894  29.514  24.956  1.00  0.00     0.031 C 
ENDBRANCH  14  19
ENDBRANCH   8  13
ENDBRANCH   4   7
ENDBRANCH   2   3
ENDBRANCH   1   2
BRANCH   1  22
ATOM     22  C   UNL A   1      37.423  21.228  24.878  1.00  0.00     0.023 C 
BRANCH  22  23
ATOM     23  C   UNL A   1      38.671  21.275  25.751  1.00  0.00     0.116 C 
BRANCH  23  24
ATOM     24  N   UNL A   1      39.526  20.097  25.656  1.00  0.00    -0.352 N 
ATOM     25  C   UNL A   1      40.849  19.926  26.011  1.00  0.00     0.251 C 
ATOM     26  H   UNL A   1      39.090  19.297  25.281  1.00  0.00     0.163 HD
ATOM     27  O   UNL A   1      41.414  18.864  25.803  1.00  0.00    -0.269 OA
BRANCH  25  28
ATOM     28  C   UNL A   1      41.592  21.064  26.592  1.00  0.00     0.039 A 
ATOM     29  C   UNL A   1      42.158  22.009  25.733  1.00  0.00     0.014 A 
ATOM     30  C   UNL A   1      41.652  21.243  27.975  1.00  0.00     0.014 A 
ATOM     31  C   UNL A   1      42.667  23.198  26.258  1.00  0.00     0.010 A 
ATOM     32  C   UNL A   1      42.064  22.466  28.486  1.00  0.00     0.010 A 
ATOM     33  C   UNL A   1      42.558  23.465  27.633  1.00  0.00    -0.014 A 
BRANCH  33  34
ATOM     34  C   UNL A   1      42.913  24.792  28.198  1.00  0.00     0.031 A 
ATOM     35  C   UNL A   1      41.848  25.831  28.412  1.00  0.00     0.074 A 
ATOM     36  C   UNL A   1      44.206  25.098  28.423  1.00  0.00     0.049 A 
ATOM     37  N   UNL A   1      41.976  27.076  28.797  1.00  0.00    -0.248 NA
ATOM     38  C   UNL A   1      40.462  25.431  28.121  1.00  0.00     0.031 C 
ATOM     39  C   UNL A   1      45.345  24.203  28.198  1.00  0.00     0.029 A 
ATOM     40  N   UNL A   1      44.784  26.255  28.882  1.00  0.00    -0.354 N 
ATOM     41  C   UNL A   1      40.695  27.611  28.765  1.00  0.00     0.074 A 
ATOM     42  C   UNL A   1      39.812  26.574  28.278  1.00  0.00     0.031 C 
ATOM     43  C   UNL A   1      46.478  24.833  28.553  1.00  0.00     0.029 A 
ATOM     44  C   UNL A   1      46.152  26.186  28.988  1.00  0.00     0.049 A 
ATOM     45  H   UNL A   1      44.266  27.061  29.113  1.00  0.00     0.167 HD
ATOM     46  C   UNL A   1      40.283  28.848  29.131  1.00  0.00     0.031 A 
ATOM     47  C   UNL A   1      47.047  27.109  29.387  1.00  0.00     0.031 A 
ATOM     48  C   UNL A   1      41.151  29.872  29.643  1.00  0.00     0.049 A 
ATOM     49  C   UNL A   1      46.563  28.470  29.802  1.00  0.00     0.074 A 
ATOM     50  C   UNL A   1      40.818  31.132  30.109  1.00  0.00     0.029 A 
ATOM     51  N   UNL A   1      42.527  29.752  29.760  1.00  0.00    -0.354 N 
ATOM     52  N   UNL A   1      45.339  28.936  29.834  1.00  0.00    -0.248 NA
ATOM     53  C   UNL A   1      47.587  29.428  30.244  1.00  0.00     0.031 C 
ATOM     54  C   UNL A   1      41.999  31.789  30.472  1.00  0.00     0.029 A 
ATOM     55  C   UNL A   1      43.060  30.921  30.273  1.00  0.00     0.049 A 
ATOM     56  H   UNL A   1      43.048  28.952  29.513  1.00  0.00     0.167 HD
ATOM     57  C   UNL A   1      45.441  30.233  30.320  1.00  0.00     0.074 A 
ATOM     58  C   UNL A   1      46.845  30.473  30.584  1.00  0.00     0.031 C 
ATOM     59  C   UNL A   1      44.459  31.143  30.529  1.00  0.00     0.031 A 
BRANCH  46  60
ATOM     60  C   UNL A   1      38.819  29.154  28.990  1.00  0.00    -0.014 A 
ATOM     61  C   UNL A   1      37.940  29.008  30.076  1.00  0.00     0.009 A 
ATOM     62  C   UNL A   1      38.314  29.611  27.764  1.00  0.00     0.009 A 
ATOM     63  C   UNL A   1      36.578  29.276  29.924  1.00  0.00     0.001 A 
ATOM     64  C   UNL A   1      36.956  29.905  27.623  1.00  0.00     0.001 A 
ATOM     65  C   UNL A   1      36.088  29.727  28.700  1.00  0.00     0.000 A 
ENDBRANCH  46  60
BRANCH  47  66
ATOM     66  C   UNL A   1      48.494  26.774  29.439  1.00  0.00    -0.014 A 
ATOM     67  C   UNL A   1      49.018  26.076  30.537  1.00  0.00     0.009 A 
ATOM     68  C   UNL A   1      49.357  27.153  28.399  1.00  0.00     0.009 A 
ATOM     69  C   UNL A   1      50.382  25.785  30.606  1.00  0.00     0.001 A 
ATOM     70  C   UNL A   1      50.717  26.840  28.459  1.00  0.00     0.001 A 
ATOM     71  C   UNL A   1      51.229  26.164  29.565  1.00  0.00     0.000 A 
ENDBRANCH  47  66
BRANCH  59  72
ATOM     72  C   UNL A   1      44.868  32.471  31.095  1.00  0.00    -0.014 A 
ATOM     73  C   UNL A   1      45.187  33.550  30.257  1.00  0.00     0.009 A 
ATOM     74  C   UNL A   1      44.893  32.655  32.486  1.00  0.00     0.009 A 
ATOM     75  C   UNL A   1      45.552  34.782  30.804  1.00  0.00     0.001 A 
ATOM     76  C   UNL A   1      45.234  33.895  33.029  1.00  0.00     0.001 A 
ATOM     77  C   UNL A   1      45.571  34.954  32.188  1.00  0.00     0.000 A 
ENDBRANCH  59  72
ENDBRANCH  33  34
ENDBRANCH  25  28
ENDBRANCH  23  24
ENDBRANCH  22  23
ENDBRANCH   1  22
TORSDOF 14
ENDMDL
MODEL 3
REMARK VINA RESULT:     -10.4      2.950      8.387
REMARK SMILES CC(C)N(C(=O)c1c(C(=O)NCCCCNC(=O)c2ccc(-c3c4nc(c(-c5ccccc5)c5ccc([nH]5)c(-c5ccccc5)c5nc(c(-c6ccccc6)c6ccc3[nH]6)C=C5)C=C4)cc2)cnn1C)C(C)C
REMARK SMILES IDX 13 1 12 2 11 3 9 4 10 5 8 7 7 8 69 9 67 10 68 11 70 12 5 13
REMARK SMILES IDX 4 14 6 15 2 16 1 17 3 18 71 19 72 20 73 21 14 22 15 23 16 24
REMARK SMILES IDX 17 25 18 27 19 28 20 29 66 30 21 31 65 32 22 33 23 34 24 35
REMARK SMILES IDX 59 36 25 37 64 38 58 39 60 40 26 41 63 42 57 43 56 44 27 46
REMARK SMILES IDX 49 47 34 48 48 49 35 50 38 51 47 52 61 53 36 54 37 55 46 57
REMARK SMILES IDX 62 58 39 59 28 60 29 61 33 62 30 63 32 64 31 65 50 66 51 67
REMARK SMILES IDX 55 68 52 69 54 70 53 71 40 72 41 73 45 74 42 75 44 76 43 77
REMARK H PARENT 11 6 16 26 60 45 38 56
REMARK Flexibility Score: inf
ROOT
ATOM      1  C   UNL A   1      32.068  29.947  25.395  1.00  0.00     0.023 C 
ENDROOT
BRANCH   1   2
ATOM      2  C   UNL A   1      33.247  28.997  25.249  1.00  0.00     0.116 C 
BRANCH   2   3
ATOM      3  N   UNL A   1      33.778  28.879  23.924  1.00  0.00    -0.352 N 
ATOM      4  C   UNL A   1      33.453  28.027  22.899  1.00  0.00     0.255 C 
ATOM      5  O   UNL A   1      34.151  28.150  21.886  1.00  0.00    -0.269 OA
ATOM      6  H   UNL A   1      34.499  29.516  23.713  1.00  0.00     0.163 HD
BRANCH   4   7
ATOM      7  C   UNL A   1      32.404  27.004  22.932  1.00  0.00     0.090 A 
ATOM      8  C   UNL A   1      32.338  25.610  22.807  1.00  0.00     0.138 A 
ATOM      9  N   UNL A   1      31.042  25.274  23.138  1.00  0.00    -0.262 N 
ATOM     10  C   UNL A   1      31.050  27.364  23.200  1.00  0.00     0.149 A 
ATOM     11  N   UNL A   1      30.223  26.326  23.266  1.00  0.00    -0.180 NA
ATOM     12  C   UNL A   1      30.482  23.955  23.333  1.00  0.00     0.174 C 
BRANCH   8  13
ATOM     13  C   UNL A   1      33.364  24.619  22.583  1.00  0.00     0.273 C 
ATOM     14  N   UNL A   1      34.037  24.062  23.711  1.00  0.00    -0.332 N 
ATOM     15  O   UNL A   1      33.582  24.209  21.445  1.00  0.00    -0.267 OA
BRANCH  14  16
ATOM     16  C   UNL A   1      34.043  24.716  25.052  1.00  0.00     0.079 C 
ATOM     17  C   UNL A   1      32.964  24.240  26.026  1.00  0.00     0.031 C 
ATOM     18  C   UNL A   1      35.429  24.694  25.698  1.00  0.00     0.031 C 
ENDBRANCH  14  16
BRANCH  14  19
ATOM     19  C   UNL A   1      34.820  22.823  23.433  1.00  0.00     0.079 C 
ATOM     20  C   UNL A   1      36.324  23.081  23.347  1.00  0.00     0.031 C 
ATOM     21  C   UNL A   1      34.533  21.622  24.332  1.00  0.00     0.031 C 
ENDBRANCH  14  19
ENDBRANCH   8  13
ENDBRANCH   4   7
ENDBRANCH   2   3
ENDBRANCH   1   2
BRANCH   1  22
ATOM     22  C   UNL A   1      31.912  30.653  26.729  1.00  0.00     0.023 C 
BRANCH  22  23
ATOM     23  C   UNL A   1      33.013  31.639  27.100  1.00  0.00     0.116 C 
BRANCH  23  24
ATOM     24  N   UNL A   1      32.540  32.964  27.486  1.00  0.00    -0.352 N 
ATOM     25  C   UNL A   1      33.126  33.919  28.292  1.00  0.00     0.251 C 
ATOM     26  H   UNL A   1      31.664  33.217  27.113  1.00  0.00     0.163 HD
ATOM     27  O   UNL A   1      32.543  34.960  28.544  1.00  0.00    -0.269 OA
BRANCH  25  28
ATOM     28  C   UNL A   1      34.447  33.640  28.896  1.00  0.00     0.039 A 
ATOM     29  C   UNL A   1      34.501  32.980  30.126  1.00  0.00     0.014 A 
ATOM     30  C   UNL A   1      35.622  33.948  28.209  1.00  0.00     0.014 A 
ATOM     31  C   UNL A   1      35.726  32.512  30.602  1.00  0.00     0.010 A 
ATOM     32  C   UNL A   1      36.824  33.395  28.633  1.00  0.00     0.010 A 
ATOM     33  C   UNL A   1      36.887  32.655  29.823  1.00  0.00    -0.014 A 
BRANCH  33  34
ATOM     34  C   UNL A   1      38.166  32.006  30.207  1.00  0.00     0.031 A 
ATOM     35  C   UNL A   1      39.132  32.719  31.112  1.00  0.00     0.074 A 
ATOM     36  C   UNL A   1      38.504  30.821  29.661  1.00  0.00     0.049 A 
ATOM     37  N   UNL A   1      40.338  32.361  31.476  1.00  0.00    -0.248 NA
ATOM     38  C   UNL A   1      38.703  34.020  31.649  1.00  0.00     0.031 C 
ATOM     39  C   UNL A   1      37.687  30.051  28.720  1.00  0.00     0.029 A 
ATOM     40  N   UNL A   1      39.636  30.058  29.812  1.00  0.00    -0.354 N 
ATOM     41  C   UNL A   1      40.818  33.404  32.258  1.00  0.00     0.074 A 
ATOM     42  C   UNL A   1      39.796  34.428  32.275  1.00  0.00     0.031 C 
ATOM     43  C   UNL A   1      38.327  28.912  28.407  1.00  0.00     0.029 A 
ATOM     44  C   UNL A   1      39.616  28.891  29.088  1.00  0.00     0.049 A 
ATOM     45  H   UNL A   1      40.391  30.323  30.386  1.00  0.00     0.167 HD
ATOM     46  C   UNL A   1      41.994  33.495  32.922  1.00  0.00     0.031 A 
ATOM     47  C   UNL A   1      40.534  27.911  28.980  1.00  0.00     0.031 A 
ATOM     48  C   UNL A   1      43.000  32.469  32.932  1.00  0.00     0.049 A 
ATOM     49  C   UNL A   1      41.825  28.029  29.740  1.00  0.00     0.074 A 
ATOM     50  C   UNL A   1      44.192  32.436  33.633  1.00  0.00     0.029 A 
ATOM     51  N   UNL A   1      42.928  31.290  32.206  1.00  0.00    -0.354 N 
ATOM     52  N   UNL A   1      42.233  28.990  30.532  1.00  0.00    -0.248 NA
ATOM     53  C   UNL A   1      42.780  26.920  29.595  1.00  0.00     0.031 C 
ATOM     54  C   UNL A   1      44.861  31.253  33.301  1.00  0.00     0.029 A 
ATOM     55  C   UNL A   1      44.064  30.531  32.428  1.00  0.00     0.049 A 
ATOM     56  H   UNL A   1      42.180  31.032  31.619  1.00  0.00     0.167 HD
ATOM     57  C   UNL A   1      43.479  28.593  30.998  1.00  0.00     0.074 A 
ATOM     58  C   UNL A   1      43.753  27.296  30.413  1.00  0.00     0.031 C 
ATOM     59  C   UNL A   1      44.320  29.244  31.837  1.00  0.00     0.031 A 
BRANCH  46  60
ATOM     60  C   UNL A   1      42.248  34.755  33.700  1.00  0.00    -0.014 A 
ATOM     61  C   UNL A   1      41.891  34.856  35.054  1.00  0.00     0.009 A 
ATOM     62  C   UNL A   1      42.868  35.848  33.077  1.00  0.00     0.009 A 
ATOM     63  C   UNL A   1      42.114  36.041  35.758  1.00  0.00     0.001 A 
ATOM     64  C   UNL A   1      43.116  37.023  33.791  1.00  0.00     0.001 A 
ATOM     65  C   UNL A   1      42.729  37.121  35.127  1.00  0.00     0.000 A 
ENDBRANCH  46  60
BRANCH  47  66
ATOM     66  C   UNL A   1      40.258  26.718  28.139  1.00  0.00    -0.014 A 
ATOM     67  C   UNL A   1      39.488  25.661  28.644  1.00  0.00     0.009 A 
ATOM     68  C   UNL A   1      40.767  26.626  26.834  1.00  0.00     0.009 A 
ATOM     69  C   UNL A   1      39.252  24.523  27.870  1.00  0.00     0.001 A 
ATOM     70  C   UNL A   1      40.509  25.498  26.053  1.00  0.00     0.001 A 
ATOM     71  C   UNL A   1      39.759  24.444  26.573  1.00  0.00     0.000 A 
ENDBRANCH  47  66
BRANCH  59  72
ATOM     72  C   UNL A   1      45.603  28.551  32.191  1.00  0.00    -0.014 A 
ATOM     73  C   UNL A   1      45.677  27.672  33.281  1.00  0.00     0.009 A 
ATOM     74  C   UNL A   1      46.743  28.751  31.396  1.00  0.00     0.009 A 
ATOM     75  C   UNL A   1      46.877  27.027  33.585  1.00  0.00     0.001 A 
ATOM     76  C   UNL A   1      47.934  28.086  31.688  1.00  0.00     0.001 A 
ATOM     77  C   UNL A   1      48.002  27.231  32.787  1.00  0.00     0.000 A 
ENDBRANCH  59  72
ENDBRANCH  33  34
ENDBRANCH  25  28
ENDBRANCH  23  24
ENDBRANCH  22  23
ENDBRANCH   1  22
TORSDOF 14
ENDMDL
