MODEL 1
REMARK VINA RESULT:     -11.8      0.000      0.000
REMARK SMILES Cc1cc2c(c(C)c1Cl)C=C(C(=O)NCCCCNC(=O)c1ccc(-c3c4nc(c(-c5ccccc5)c5ccc([nH]5)c(-c5ccccc5)c5nc(c(-c6ccccc6)c6ccc3[nH]6)C=C5)C=C4)cc1)[C@@H](C(F)(F)F)O2
REMARK SMILES IDX 17 1 16 2 15 3 14 4 12 5 13 6 11 8 1 9 2 10 3 11 8 12 4 13
REMARK SMILES IDX 6 14 9 15 5 16 75 17 7 18 10 19 70 20 71 21 72 22 73 23
REMARK SMILES IDX 74 24 18 25 19 26 20 27 21 29 22 30 23 31 69 32 24 33 68 34
REMARK SMILES IDX 25 35 26 36 27 37 62 38 28 39 67 40 61 41 63 42 29 43 66 44
REMARK SMILES IDX 60 45 59 46 30 48 52 49 37 50 51 51 38 52 41 53 50 54 64 55
REMARK SMILES IDX 39 56 40 57 49 59 65 60 42 61 31 62 32 63 36 64 33 65 35 66
REMARK SMILES IDX 34 67 53 68 54 69 58 70 55 71 57 72 56 73 43 74 44 75 48 76
REMARK SMILES IDX 45 77 47 78 46 79
REMARK H PARENT 14 7 19 28 63 47 41 58
REMARK Flexibility Score: inf
ROOT
ATOM      1  C   UNL A   1      37.421  20.945  24.710  1.00  0.00     0.023 C 
ENDROOT
BRANCH   1   2
ATOM      2  C   UNL A   1      36.795  22.301  24.378  1.00  0.00     0.023 C 
BRANCH   2   3
ATOM      3  C   UNL A   1      36.741  23.268  25.557  1.00  0.00     0.116 C 
BRANCH   3   4
ATOM      4  N   UNL A   1      35.664  22.944  26.474  1.00  0.00    -0.352 N 
ATOM      5  C   UNL A   1      34.357  23.265  26.612  1.00  0.00     0.251 C 
ATOM      6  O   UNL A   1      33.794  22.750  27.585  1.00  0.00    -0.270 OA
ATOM      7  H   UNL A   1      35.962  22.327  27.180  1.00  0.00     0.163 HD
BRANCH   5   8
ATOM      8  C   UNL A   1      33.585  24.164  25.703  1.00  0.00     0.067 C 
ATOM      9  C   UNL A   1      30.689  29.079  22.559  1.00  0.00     0.046 C 
ATOM     10  C   UNL A   1      31.356  28.175  23.562  1.00  0.00    -0.028 A 
ATOM     11  C   UNL A   1      31.687  26.881  23.150  1.00  0.00     0.052 A 
ATOM     12  C   UNL A   1      31.723  28.590  24.858  1.00  0.00     0.047 A 
ATOM     13  C   UNL A   1      32.344  26.008  24.011  1.00  0.00     0.128 A 
ATOM     14  C   UNL A   1      32.375  27.703  25.753  1.00  0.00    -0.021 A 
ATOM     15  Cl  UNL A   1      31.395  30.229  25.333  1.00  0.00    -0.084 Cl
ATOM     16  C   UNL A   1      32.705  26.402  25.303  1.00  0.00     0.022 A 
ATOM     17  O   UNL A   1      32.650  24.787  23.485  1.00  0.00    -0.475 OA
ATOM     18  C   UNL A   1      32.750  28.124  27.155  1.00  0.00     0.047 C 
ATOM     19  C   UNL A   1      33.469  25.443  26.108  1.00  0.00     0.026 C 
ATOM     20  C   UNL A   1      32.927  23.722  24.431  1.00  0.00     0.314 C 
BRANCH  20  21
ATOM     21  C   UNL A   1      31.642  22.909  24.676  1.00  0.00     0.429 C 
ATOM     22  F   UNL A   1      31.903  21.579  24.602  1.00  0.00    -0.167 F 
ATOM     23  F   UNL A   1      31.120  23.125  25.907  1.00  0.00    -0.167 F 
ATOM     24  F   UNL A   1      30.670  23.184  23.781  1.00  0.00    -0.167 F 
ENDBRANCH  20  21
ENDBRANCH   5   8
ENDBRANCH   3   4
ENDBRANCH   2   3
ENDBRANCH   1   2
BRANCH   1  25
ATOM     25  C   UNL A   1      38.574  20.983  25.711  1.00  0.00     0.116 C 
BRANCH  25  26
ATOM     26  N   UNL A   1      39.489  19.854  25.602  1.00  0.00    -0.352 N 
ATOM     27  C   UNL A   1      40.812  19.802  25.972  1.00  0.00     0.251 C 
ATOM     28  H   UNL A   1      39.115  19.029  25.215  1.00  0.00     0.163 HD
ATOM     29  O   UNL A   1      41.489  18.800  25.773  1.00  0.00    -0.269 OA
BRANCH  27  30
ATOM     30  C   UNL A   1      41.413  21.004  26.573  1.00  0.00     0.039 A 
ATOM     31  C   UNL A   1      41.935  21.984  25.727  1.00  0.00     0.014 A 
ATOM     32  C   UNL A   1      41.353  21.202  27.956  1.00  0.00     0.014 A 
ATOM     33  C   UNL A   1      42.326  23.208  26.266  1.00  0.00     0.010 A 
ATOM     34  C   UNL A   1      41.687  22.444  28.481  1.00  0.00     0.010 A 
ATOM     35  C   UNL A   1      42.164  23.460  27.638  1.00  0.00    -0.014 A 
BRANCH  35  36
ATOM     36  C   UNL A   1      42.471  24.794  28.201  1.00  0.00     0.031 A 
ATOM     37  C   UNL A   1      43.875  25.139  28.596  1.00  0.00     0.074 A 
ATOM     38  C   UNL A   1      41.473  25.679  28.388  1.00  0.00     0.049 A 
ATOM     39  N   UNL A   1      44.337  26.257  29.096  1.00  0.00    -0.248 NA
ATOM     40  C   UNL A   1      44.891  24.088  28.425  1.00  0.00     0.031 C 
ATOM     41  C   UNL A   1      40.060  25.445  28.082  1.00  0.00     0.029 A 
ATOM     42  N   UNL A   1      41.499  26.962  28.874  1.00  0.00    -0.354 N 
ATOM     43  C   UNL A   1      45.691  26.041  29.303  1.00  0.00     0.074 A 
ATOM     44  C   UNL A   1      45.968  24.673  28.925  1.00  0.00     0.031 C 
ATOM     45  C   UNL A   1      39.363  26.563  28.343  1.00  0.00     0.029 A 
ATOM     46  C   UNL A   1      40.273  27.581  28.859  1.00  0.00     0.049 A 
ATOM     47  H   UNL A   1      42.318  27.397  29.203  1.00  0.00     0.167 HD
ATOM     48  C   UNL A   1      46.628  26.912  29.743  1.00  0.00     0.031 A 
ATOM     49  C   UNL A   1      39.925  28.833  29.207  1.00  0.00     0.031 A 
ATOM     50  C   UNL A   1      46.359  28.276  30.104  1.00  0.00     0.049 A 
ATOM     51  C   UNL A   1      40.980  29.778  29.705  1.00  0.00     0.074 A 
ATOM     52  C   UNL A   1      47.250  29.251  30.515  1.00  0.00     0.029 A 
ATOM     53  N   UNL A   1      45.099  28.856  30.096  1.00  0.00    -0.354 N 
ATOM     54  N   UNL A   1      42.268  29.576  29.844  1.00  0.00    -0.248 NA
ATOM     55  C   UNL A   1      40.535  31.124  30.092  1.00  0.00     0.031 C 
ATOM     56  C   UNL A   1      46.524  30.416  30.784  1.00  0.00     0.029 A 
ATOM     57  C   UNL A   1      45.187  30.173  30.509  1.00  0.00     0.049 A 
ATOM     58  H   UNL A   1      44.268  28.399  29.835  1.00  0.00     0.167 HD
ATOM     59  C   UNL A   1      42.789  30.773  30.315  1.00  0.00     0.074 A 
ATOM     60  C   UNL A   1      41.681  31.699  30.432  1.00  0.00     0.031 C 
ATOM     61  C   UNL A   1      44.073  31.076  30.621  1.00  0.00     0.031 A 
BRANCH  48  62
ATOM     62  C   UNL A   1      48.037  26.408  29.840  1.00  0.00    -0.014 A 
ATOM     63  C   UNL A   1      48.921  26.534  28.756  1.00  0.00     0.009 A 
ATOM     64  C   UNL A   1      48.493  25.819  31.029  1.00  0.00     0.009 A 
ATOM     65  C   UNL A   1      50.226  26.049  28.850  1.00  0.00     0.001 A 
ATOM     66  C   UNL A   1      49.806  25.353  31.126  1.00  0.00     0.001 A 
ATOM     67  C   UNL A   1      50.668  25.462  30.035  1.00  0.00     0.000 A 
ENDBRANCH  48  62
BRANCH  49  68
ATOM     68  C   UNL A   1      38.519  29.281  29.046  1.00  0.00    -0.014 A 
ATOM     69  C   UNL A   1      37.643  29.247  30.141  1.00  0.00     0.009 A 
ATOM     70  C   UNL A   1      38.052  29.758  27.813  1.00  0.00     0.009 A 
ATOM     71  C   UNL A   1      36.319  29.668  30.000  1.00  0.00     0.001 A 
ATOM     72  C   UNL A   1      36.732  30.195  27.680  1.00  0.00     0.001 A 
ATOM     73  C   UNL A   1      35.866  30.146  28.771  1.00  0.00     0.000 A 
ENDBRANCH  49  68
BRANCH  61  74
ATOM     74  C   UNL A   1      44.356  32.467  31.101  1.00  0.00    -0.014 A 
ATOM     75  C   UNL A   1      44.627  33.500  30.192  1.00  0.00     0.009 A 
ATOM     76  C   UNL A   1      44.275  32.763  32.471  1.00  0.00     0.009 A 
ATOM     77  C   UNL A   1      44.825  34.804  30.648  1.00  0.00     0.001 A 
ATOM     78  C   UNL A   1      44.455  34.071  32.922  1.00  0.00     0.001 A 
ATOM     79  C   UNL A   1      44.732  35.089  32.010  1.00  0.00     0.000 A 
ENDBRANCH  61  74
ENDBRANCH  35  36
ENDBRANCH  27  30
ENDBRANCH  25  26
ENDBRANCH   1  25
TORSDOF 12
ENDMDL
MODEL 2
REMARK VINA RESULT:     -11.7      0.531      5.919
REMARK SMILES Cc1cc2c(c(C)c1Cl)C=C(C(=O)NCCCCNC(=O)c1ccc(-c3c4nc(c(-c5ccccc5)c5ccc([nH]5)c(-c5ccccc5)c5nc(c(-c6ccccc6)c6ccc3[nH]6)C=C5)C=C4)cc1)[C@@H](C(F)(F)F)O2
REMARK SMILES IDX 17 1 16 2 15 3 14 4 12 5 13 6 11 8 1 9 2 10 3 11 8 12 4 13
REMARK SMILES IDX 6 14 9 15 5 16 75 17 7 18 10 19 70 20 71 21 72 22 73 23
REMARK SMILES IDX 74 24 18 25 19 26 20 27 21 29 22 30 23 31 69 32 24 33 68 34
REMARK SMILES IDX 25 35 26 36 27 37 62 38 28 39 67 40 61 41 63 42 29 43 66 44
REMARK SMILES IDX 60 45 59 46 30 48 52 49 37 50 51 51 38 52 41 53 50 54 64 55
REMARK SMILES IDX 39 56 40 57 49 59 65 60 42 61 31 62 32 63 36 64 33 65 35 66
REMARK SMILES IDX 34 67 53 68 54 69 58 70 55 71 57 72 56 73 43 74 44 75 48 76
REMARK SMILES IDX 45 77 47 78 46 79
REMARK H PARENT 14 7 19 28 63 47 41 58
REMARK Flexibility Score: inf
ROOT
ATOM      1  C   UNL A   1      37.440  21.012  24.877  1.00  0.00     0.023 C 
ENDROOT
BRANCH   1   2
ATOM      2  C   UNL A   1      37.009  22.301  24.175  1.00  0.00     0.023 C 
BRANCH   2   3
ATOM      3  C   UNL A   1      36.724  23.462  25.123  1.00  0.00     0.116 C 
BRANCH   3   4
ATOM      4  N   UNL A   1      35.895  23.055  26.242  1.00  0.00    -0.352 N 
ATOM      5  C   UNL A   1      34.617  23.248  26.643  1.00  0.00     0.251 C 
ATOM      6  O   UNL A   1      34.320  22.704  27.713  1.00  0.00    -0.270 OA
ATOM      7  H   UNL A   1      36.392  22.491  26.876  1.00  0.00     0.163 HD
BRANCH   5   8
ATOM      8  C   UNL A   1      33.588  24.040  25.907  1.00  0.00     0.067 C 
ATOM      9  C   UNL A   1      29.802  28.578  23.167  1.00  0.00     0.046 C 
ATOM     10  C   UNL A   1      30.762  27.798  24.025  1.00  0.00    -0.028 A 
ATOM     11  C   UNL A   1      30.951  26.446  23.724  1.00  0.00     0.052 A 
ATOM     12  C   UNL A   1      31.525  28.376  25.060  1.00  0.00     0.047 A 
ATOM     13  C   UNL A   1      31.856  25.677  24.448  1.00  0.00     0.128 A 
ATOM     14  C   UNL A   1      32.435  27.598  25.821  1.00  0.00    -0.021 A 
ATOM     15  Cl  UNL A   1      31.357  30.078  25.369  1.00  0.00    -0.084 Cl
ATOM     16  C   UNL A   1      32.611  26.234  25.485  1.00  0.00     0.022 A 
ATOM     17  O   UNL A   1      31.984  24.382  24.038  1.00  0.00    -0.475 OA
ATOM     18  C   UNL A   1      33.240  28.197  26.951  1.00  0.00     0.047 C 
ATOM     19  C   UNL A   1      33.600  25.367  26.135  1.00  0.00     0.026 C 
ATOM     20  C   UNL A   1      32.557  23.451  24.992  1.00  0.00     0.314 C 
BRANCH  20  21
ATOM     21  C   UNL A   1      31.425  22.734  25.751  1.00  0.00     0.429 C 
ATOM     22  F   UNL A   1      31.621  21.391  25.733  1.00  0.00    -0.167 F 
ATOM     23  F   UNL A   1      31.370  23.093  27.055  1.00  0.00    -0.167 F 
ATOM     24  F   UNL A   1      30.206  22.976  25.223  1.00  0.00    -0.167 F 
ENDBRANCH  20  21
ENDBRANCH   5   8
ENDBRANCH   3   4
ENDBRANCH   2   3
ENDBRANCH   1   2
BRANCH   1  25
ATOM     25  C   UNL A   1      38.706  21.120  25.725  1.00  0.00     0.116 C 
BRANCH  25  26
ATOM     26  N   UNL A   1      39.557  19.938  25.671  1.00  0.00    -0.352 N 
ATOM     27  C   UNL A   1      40.872  19.826  26.055  1.00  0.00     0.251 C 
ATOM     28  H   UNL A   1      39.139  19.120  25.316  1.00  0.00     0.163 HD
ATOM     29  O   UNL A   1      41.492  18.780  25.903  1.00  0.00    -0.269 OA
BRANCH  27  30
ATOM     30  C   UNL A   1      41.537  21.017  26.610  1.00  0.00     0.039 A 
ATOM     31  C   UNL A   1      42.120  21.928  25.728  1.00  0.00     0.014 A 
ATOM     32  C   UNL A   1      41.478  21.277  27.982  1.00  0.00     0.014 A 
ATOM     33  C   UNL A   1      42.577  23.150  26.218  1.00  0.00     0.010 A 
ATOM     34  C   UNL A   1      41.880  22.520  28.458  1.00  0.00     0.010 A 
ATOM     35  C   UNL A   1      42.420  23.469  27.576  1.00  0.00    -0.014 A 
BRANCH  35  36
ATOM     36  C   UNL A   1      42.798  24.807  28.085  1.00  0.00     0.031 A 
ATOM     37  C   UNL A   1      41.752  25.864  28.275  1.00  0.00     0.074 A 
ATOM     38  C   UNL A   1      44.093  25.076  28.340  1.00  0.00     0.049 A 
ATOM     39  N   UNL A   1      41.891  27.088  28.717  1.00  0.00    -0.248 NA
ATOM     40  C   UNL A   1      40.373  25.508  27.903  1.00  0.00     0.031 C 
ATOM     41  C   UNL A   1      45.207  24.145  28.155  1.00  0.00     0.029 A 
ATOM     42  N   UNL A   1      44.689  26.215  28.821  1.00  0.00    -0.354 N 
ATOM     43  C   UNL A   1      40.622  27.646  28.671  1.00  0.00     0.074 A 
ATOM     44  C   UNL A   1      39.736  26.650  28.111  1.00  0.00     0.031 C 
ATOM     45  C   UNL A   1      46.344  24.733  28.562  1.00  0.00     0.029 A 
ATOM     46  C   UNL A   1      46.043  26.090  29.010  1.00  0.00     0.049 A 
ATOM     47  H   UNL A   1      44.192  27.044  29.011  1.00  0.00     0.167 HD
ATOM     48  C   UNL A   1      40.223  28.871  29.085  1.00  0.00     0.031 A 
ATOM     49  C   UNL A   1      46.938  26.964  29.505  1.00  0.00     0.031 A 
ATOM     50  C   UNL A   1      41.098  29.857  29.656  1.00  0.00     0.049 A 
ATOM     51  C   UNL A   1      46.474  28.322  29.944  1.00  0.00     0.074 A 
ATOM     52  C   UNL A   1      40.779  31.109  30.150  1.00  0.00     0.029 A 
ATOM     53  N   UNL A   1      42.466  29.697  29.809  1.00  0.00    -0.354 N 
ATOM     54  N   UNL A   1      45.260  28.817  29.946  1.00  0.00    -0.248 NA
ATOM     55  C   UNL A   1      47.502  29.241  30.453  1.00  0.00     0.031 C 
ATOM     56  C   UNL A   1      41.962  31.721  30.577  1.00  0.00     0.029 A 
ATOM     57  C   UNL A   1      43.010  30.835  30.377  1.00  0.00     0.049 A 
ATOM     58  H   UNL A   1      42.974  28.895  29.553  1.00  0.00     0.167 HD
ATOM     59  C   UNL A   1      45.375  30.096  30.473  1.00  0.00     0.074 A 
ATOM     60  C   UNL A   1      46.775  30.299  30.786  1.00  0.00     0.031 C 
ATOM     61  C   UNL A   1      44.405  31.019  30.678  1.00  0.00     0.031 A 
BRANCH  48  62
ATOM     62  C   UNL A   1      38.766  29.199  28.943  1.00  0.00    -0.014 A 
ATOM     63  C   UNL A   1      38.259  29.699  27.733  1.00  0.00     0.009 A 
ATOM     64  C   UNL A   1      37.890  28.989  30.017  1.00  0.00     0.009 A 
ATOM     65  C   UNL A   1      36.905  30.015  27.613  1.00  0.00     0.001 A 
ATOM     66  C   UNL A   1      36.532  29.287  29.887  1.00  0.00     0.001 A 
ATOM     67  C   UNL A   1      36.043  29.807  28.688  1.00  0.00     0.000 A 
ENDBRANCH  48  62
BRANCH  49  68
ATOM     68  C   UNL A   1      48.358  26.561  29.658  1.00  0.00    -0.014 A 
ATOM     69  C   UNL A   1      49.292  26.891  28.665  1.00  0.00     0.009 A 
ATOM     70  C   UNL A   1      48.790  25.863  30.795  1.00  0.00     0.009 A 
ATOM     71  C   UNL A   1      50.630  26.518  28.800  1.00  0.00     0.001 A 
ATOM     72  C   UNL A   1      50.133  25.507  30.937  1.00  0.00     0.001 A 
ATOM     73  C   UNL A   1      51.051  25.830  29.938  1.00  0.00     0.000 A 
ENDBRANCH  49  68
BRANCH  61  74
ATOM     74  C   UNL A   1      44.816  32.328  31.281  1.00  0.00    -0.014 A 
ATOM     75  C   UNL A   1      45.162  33.416  30.467  1.00  0.00     0.009 A 
ATOM     76  C   UNL A   1      44.782  32.496  32.674  1.00  0.00     0.009 A 
ATOM     77  C   UNL A   1      45.480  34.648  31.039  1.00  0.00     0.001 A 
ATOM     78  C   UNL A   1      45.081  33.734  33.242  1.00  0.00     0.001 A 
ATOM     79  C   UNL A   1      45.432  34.809  32.424  1.00  0.00     0.000 A 
ENDBRANCH  61  74
ENDBRANCH  35  36
ENDBRANCH  27  30
ENDBRANCH  25  26
ENDBRANCH   1  25
TORSDOF 12
ENDMDL
MODEL 3
REMARK VINA RESULT:     -11.6      2.356      3.796
REMARK SMILES Cc1cc2c(c(C)c1Cl)C=C(C(=O)NCCCCNC(=O)c1ccc(-c3c4nc(c(-c5ccccc5)c5ccc([nH]5)c(-c5ccccc5)c5nc(c(-c6ccccc6)c6ccc3[nH]6)C=C5)C=C4)cc1)[C@@H](C(F)(F)F)O2
REMARK SMILES IDX 17 1 16 2 15 3 14 4 12 5 13 6 11 8 1 9 2 10 3 11 8 12 4 13
REMARK SMILES IDX 6 14 9 15 5 16 75 17 7 18 10 19 70 20 71 21 72 22 73 23
REMARK SMILES IDX 74 24 18 25 19 26 20 27 21 29 22 30 23 31 69 32 24 33 68 34
REMARK SMILES IDX 25 35 26 36 27 37 62 38 28 39 67 40 61 41 63 42 29 43 66 44
REMARK SMILES IDX 60 45 59 46 30 48 52 49 37 50 51 51 38 52 41 53 50 54 64 55
REMARK SMILES IDX 39 56 40 57 49 59 65 60 42 61 31 62 32 63 36 64 33 65 35 66
REMARK SMILES IDX 34 67 53 68 54 69 58 70 55 71 57 72 56 73 43 74 44 75 48 76
REMARK SMILES IDX 45 77 47 78 46 79
REMARK H PARENT 14 7 19 28 63 47 41 58
REMARK Flexibility Score: inf
ROOT
ATOM      1  C   UNL A   1      35.877  22.835  25.858  1.00  0.00     0.023 C 
ENDROOT
BRANCH   1   2
ATOM      2  C   UNL A   1      34.652  23.744  25.977  1.00  0.00     0.023 C 
BRANCH   2   3
ATOM      3  C   UNL A   1      33.491  23.347  25.069  1.00  0.00     0.116 C 
BRANCH   3   4
ATOM      4  N   UNL A   1      33.690  23.805  23.706  1.00  0.00    -0.352 N 
ATOM      5  C   UNL A   1      33.418  24.920  22.991  1.00  0.00     0.251 C 
ATOM      6  O   UNL A   1      33.766  24.877  21.805  1.00  0.00    -0.270 OA
ATOM      7  H   UNL A   1      34.143  23.124  23.158  1.00  0.00     0.163 HD
BRANCH   5   8
ATOM      8  C   UNL A   1      32.752  26.148  23.520  1.00  0.00     0.067 C 
ATOM      9  C   UNL A   1      31.097  31.793  26.316  1.00  0.00     0.046 C 
ATOM     10  C   UNL A   1      31.749  30.498  25.910  1.00  0.00    -0.028 A 
ATOM     11  C   UNL A   1      31.145  29.760  24.888  1.00  0.00     0.052 A 
ATOM     12  C   UNL A   1      32.964  30.036  26.454  1.00  0.00     0.047 A 
ATOM     13  C   UNL A   1      31.717  28.577  24.433  1.00  0.00     0.128 A 
ATOM     14  C   UNL A   1      33.548  28.819  26.014  1.00  0.00    -0.021 A 
ATOM     15  Cl  UNL A   1      33.761  31.005  27.656  1.00  0.00    -0.084 Cl
ATOM     16  C   UNL A   1      32.916  28.100  24.971  1.00  0.00     0.022 A 
ATOM     17  O   UNL A   1      31.059  27.965  23.406  1.00  0.00    -0.475 OA
ATOM     18  C   UNL A   1      34.836  28.297  26.607  1.00  0.00     0.047 C 
ATOM     19  C   UNL A   1      33.487  26.889  24.370  1.00  0.00     0.026 C 
ATOM     20  C   UNL A   1      31.348  26.559  23.194  1.00  0.00     0.314 C 
BRANCH  20  21
ATOM     21  C   UNL A   1      30.293  25.704  23.920  1.00  0.00     0.429 C 
ATOM     22  F   UNL A   1      30.042  24.568  23.222  1.00  0.00    -0.167 F 
ATOM     23  F   UNL A   1      30.703  25.312  25.150  1.00  0.00    -0.167 F 
ATOM     24  F   UNL A   1      29.118  26.350  24.083  1.00  0.00    -0.167 F 
ENDBRANCH  20  21
ENDBRANCH   5   8
ENDBRANCH   3   4
ENDBRANCH   2   3
ENDBRANCH   1   2
BRANCH   1  25
ATOM     25  C   UNL A   1      37.157  23.519  25.384  1.00  0.00     0.116 C 
BRANCH  25  26
ATOM     26  N   UNL A   1      38.360  22.718  25.571  1.00  0.00    -0.352 N 
ATOM     27  C   UNL A   1      39.510  23.066  26.239  1.00  0.00     0.251 C 
ATOM     28  H   UNL A   1      38.347  21.819  25.170  1.00  0.00     0.163 HD
ATOM     29  O   UNL A   1      40.477  22.314  26.273  1.00  0.00    -0.269 OA
BRANCH  27  30
ATOM     30  C   UNL A   1      39.572  24.394  26.872  1.00  0.00     0.039 A 
ATOM     31  C   UNL A   1      39.030  24.551  28.149  1.00  0.00     0.014 A 
ATOM     32  C   UNL A   1      40.262  25.436  26.246  1.00  0.00     0.014 A 
ATOM     33  C   UNL A   1      39.254  25.740  28.839  1.00  0.00     0.010 A 
ATOM     34  C   UNL A   1      40.534  26.597  26.961  1.00  0.00     0.010 A 
ATOM     35  C   UNL A   1      40.043  26.751  28.267  1.00  0.00    -0.014 A 
BRANCH  35  36
ATOM     36  C   UNL A   1      40.379  27.970  29.035  1.00  0.00     0.031 A 
ATOM     37  C   UNL A   1      41.724  28.103  29.686  1.00  0.00     0.074 A 
ATOM     38  C   UNL A   1      39.456  28.941  29.176  1.00  0.00     0.049 A 
ATOM     39  N   UNL A   1      42.202  29.097  30.390  1.00  0.00    -0.248 NA
ATOM     40  C   UNL A   1      42.646  26.965  29.543  1.00  0.00     0.031 C 
ATOM     41  C   UNL A   1      38.099  28.909  28.627  1.00  0.00     0.029 A 
ATOM     42  N   UNL A   1      39.525  30.151  29.820  1.00  0.00    -0.354 N 
ATOM     43  C   UNL A   1      43.474  28.701  30.776  1.00  0.00     0.074 A 
ATOM     44  C   UNL A   1      43.676  27.360  30.275  1.00  0.00     0.031 C 
ATOM     45  C   UNL A   1      37.481  30.066  28.916  1.00  0.00     0.029 A 
ATOM     46  C   UNL A   1      38.387  30.908  29.693  1.00  0.00     0.049 A 
ATOM     47  H   UNL A   1      40.316  30.448  30.324  1.00  0.00     0.167 HD
ATOM     48  C   UNL A   1      44.405  29.403  31.463  1.00  0.00     0.031 A 
ATOM     49  C   UNL A   1      38.109  32.147  30.138  1.00  0.00     0.031 A 
ATOM     50  C   UNL A   1      44.213  30.741  31.949  1.00  0.00     0.049 A 
ATOM     51  C   UNL A   1      39.152  32.900  30.911  1.00  0.00     0.074 A 
ATOM     52  C   UNL A   1      45.114  31.554  32.614  1.00  0.00     0.029 A 
ATOM     53  N   UNL A   1      43.036  31.463  31.818  1.00  0.00    -0.354 N 
ATOM     54  N   UNL A   1      40.372  32.534  31.222  1.00  0.00    -0.248 NA
ATOM     55  C   UNL A   1      38.783  34.239  31.392  1.00  0.00     0.031 C 
ATOM     56  C   UNL A   1      44.471  32.760  32.913  1.00  0.00     0.029 A 
ATOM     57  C   UNL A   1      43.182  32.707  32.405  1.00  0.00     0.049 A 
ATOM     58  H   UNL A   1      42.221  31.138  31.375  1.00  0.00     0.167 HD
ATOM     59  C   UNL A   1      40.922  33.603  31.916  1.00  0.00     0.074 A 
ATOM     60  C   UNL A   1      39.906  34.634  31.976  1.00  0.00     0.031 C 
ATOM     61  C   UNL A   1      42.159  33.718  32.456  1.00  0.00     0.031 A 
BRANCH  48  62
ATOM     62  C   UNL A   1      45.720  28.729  31.714  1.00  0.00    -0.014 A 
ATOM     63  C   UNL A   1      45.925  27.965  32.874  1.00  0.00     0.009 A 
ATOM     64  C   UNL A   1      46.759  28.842  30.778  1.00  0.00     0.009 A 
ATOM     65  C   UNL A   1      47.157  27.353  33.108  1.00  0.00     0.001 A 
ATOM     66  C   UNL A   1      47.983  28.211  31.005  1.00  0.00     0.001 A 
ATOM     67  C   UNL A   1      48.184  27.474  32.172  1.00  0.00     0.000 A 
ENDBRANCH  48  62
BRANCH  49  68
ATOM     68  C   UNL A   1      36.802  32.772  29.819  1.00  0.00    -0.014 A 
ATOM     69  C   UNL A   1      35.739  32.677  30.729  1.00  0.00     0.009 A 
ATOM     70  C   UNL A   1      36.613  33.474  28.620  1.00  0.00     0.009 A 
ATOM     71  C   UNL A   1      34.505  33.264  30.438  1.00  0.00     0.001 A 
ATOM     72  C   UNL A   1      35.384  34.076  28.340  1.00  0.00     0.001 A 
ATOM     73  C   UNL A   1      34.330  33.966  29.246  1.00  0.00     0.000 A 
ENDBRANCH  49  68
BRANCH  61  74
ATOM     74  C   UNL A   1      42.492  35.005  33.147  1.00  0.00    -0.014 A 
ATOM     75  C   UNL A   1      42.177  35.196  34.500  1.00  0.00     0.009 A 
ATOM     76  C   UNL A   1      43.197  36.005  32.458  1.00  0.00     0.009 A 
ATOM     77  C   UNL A   1      42.551  36.374  35.149  1.00  0.00     0.001 A 
ATOM     78  C   UNL A   1      43.586  37.172  33.115  1.00  0.00     0.001 A 
ATOM     79  C   UNL A   1      43.261  37.357  34.458  1.00  0.00     0.000 A 
ENDBRANCH  61  74
ENDBRANCH  35  36
ENDBRANCH  27  30
ENDBRANCH  25  26
ENDBRANCH   1  25
TORSDOF 12
ENDMDL
