MODEL 1
REMARK VINA RESULT:     -11.7      0.000      0.000
REMARK SMILES C[C@@H](C(=O)NCCCCNC(=O)c1ccc(-c2c3nc(c(-c4ccccc4)c4ccc([nH]4)c(-c4ccccc4)c4nc(c(-c5ccccc5)c5ccc2[nH]5)C=C4)C=C3)cc1)c1ccc(C[C@H]2CCC[C@@H]2O)cc1F
REMARK SMILES IDX 6 1 5 2 3 3 4 4 2 6 1 7 61 8 62 9 73 10 63 11 72 12 74 13
REMARK SMILES IDX 64 14 65 15 66 16 67 17 70 18 68 19 69 20 71 21 7 23 8 24
REMARK SMILES IDX 9 25 10 26 11 27 12 29 13 30 14 31 60 32 15 33 59 34 16 35
REMARK SMILES IDX 17 36 18 37 53 38 19 39 58 40 52 41 54 42 20 43 57 44 51 45
REMARK SMILES IDX 50 46 21 48 43 49 28 50 42 51 29 52 32 53 41 54 55 55 30 56
REMARK SMILES IDX 31 57 40 59 56 60 33 61 22 62 23 63 27 64 24 65 26 66 25 67
REMARK SMILES IDX 44 68 45 69 49 70 46 71 48 72 47 73 34 74 35 75 39 76 36 77
REMARK SMILES IDX 38 78 37 79
REMARK H PARENT 5 5 71 22 10 28 54 47 32 58
REMARK Flexibility Score: inf
ROOT
ATOM      1  C   UNL A   1      33.330  28.657  26.392  1.00  0.00     0.116 C 
ENDROOT
BRANCH   1   2
ATOM      2  N   UNL A   1      34.007  28.913  25.137  1.00  0.00    -0.356 N 
ATOM      3  C   UNL A   1      33.950  28.245  23.948  1.00  0.00     0.227 C 
ATOM      4  O   UNL A   1      34.619  28.713  23.024  1.00  0.00    -0.274 OA
ATOM      5  H   UNL A   1      34.604  29.696  25.142  1.00  0.00     0.163 HD
BRANCH   3   6
ATOM      6  C   UNL A   1      33.025  27.028  23.795  1.00  0.00     0.108 C 
ATOM      7  C   UNL A   1      33.533  26.002  22.774  1.00  0.00     0.023 C 
BRANCH   6   8
ATOM      8  C   UNL A   1      31.597  27.417  23.439  1.00  0.00    -0.000 A 
ATOM      9  C   UNL A   1      31.344  28.553  22.659  1.00  0.00     0.008 A 
ATOM     10  C   UNL A   1      30.504  26.693  23.928  1.00  0.00     0.127 A 
ATOM     11  C   UNL A   1      30.034  28.988  22.445  1.00  0.00     0.004 A 
ATOM     12  C   UNL A   1      29.199  27.126  23.723  1.00  0.00     0.043 A 
ATOM     13  F   UNL A   1      30.698  25.592  24.668  1.00  0.00    -0.207 F 
ATOM     14  C   UNL A   1      28.952  28.310  23.020  1.00  0.00    -0.045 A 
BRANCH  14  15
ATOM     15  C   UNL A   1      27.550  28.864  22.947  1.00  0.00     0.041 C 
BRANCH  15  16
ATOM     16  C   UNL A   1      27.450  30.368  22.621  1.00  0.00     0.022 C 
ATOM     17  C   UNL A   1      27.913  31.333  23.728  1.00  0.00     0.007 C 
ATOM     18  C   UNL A   1      28.209  30.829  21.372  1.00  0.00     0.117 C 
ATOM     19  C   UNL A   1      28.589  32.509  23.015  1.00  0.00     0.003 C 
ATOM     20  C   UNL A   1      28.250  32.340  21.544  1.00  0.00     0.032 C 
BRANCH  18  21
ATOM     21  O   UNL A   1      27.532  30.484  20.178  1.00  0.00    -0.393 OA
ATOM     22  H   UNL A   1      26.634  30.852  20.198  1.00  0.00     0.210 HD
ENDBRANCH  18  21
ENDBRANCH  15  16
ENDBRANCH  14  15
ENDBRANCH   6   8
ENDBRANCH   3   6
ENDBRANCH   1   2
BRANCH   1  23
ATOM     23  C   UNL A   1      31.907  29.214  26.389  1.00  0.00     0.023 C 
BRANCH  23  24
ATOM     24  C   UNL A   1      31.813  30.741  26.325  1.00  0.00     0.023 C 
BRANCH  24  25
ATOM     25  C   UNL A   1      32.838  31.495  27.163  1.00  0.00     0.116 C 
BRANCH  25  26
ATOM     26  N   UNL A   1      32.455  32.873  27.428  1.00  0.00    -0.352 N 
ATOM     27  C   UNL A   1      33.101  33.824  28.182  1.00  0.00     0.251 C 
ATOM     28  H   UNL A   1      31.614  33.166  27.009  1.00  0.00     0.163 HD
ATOM     29  O   UNL A   1      32.575  34.908  28.399  1.00  0.00    -0.269 OA
BRANCH  27  30
ATOM     30  C   UNL A   1      34.421  33.510  28.767  1.00  0.00     0.039 A 
ATOM     31  C   UNL A   1      34.473  32.948  30.045  1.00  0.00     0.014 A 
ATOM     32  C   UNL A   1      35.594  33.723  28.038  1.00  0.00     0.014 A 
ATOM     33  C   UNL A   1      35.695  32.506  30.554  1.00  0.00     0.010 A 
ATOM     34  C   UNL A   1      36.804  33.232  28.524  1.00  0.00     0.010 A 
ATOM     35  C   UNL A   1      36.860  32.596  29.775  1.00  0.00    -0.014 A 
BRANCH  35  36
ATOM     36  C   UNL A   1      38.130  31.967  30.211  1.00  0.00     0.031 A 
ATOM     37  C   UNL A   1      39.093  32.714  31.087  1.00  0.00     0.074 A 
ATOM     38  C   UNL A   1      38.462  30.752  29.725  1.00  0.00     0.049 A 
ATOM     39  N   UNL A   1      40.295  32.367  31.473  1.00  0.00    -0.248 NA
ATOM     40  C   UNL A   1      38.660  34.032  31.579  1.00  0.00     0.031 C 
ATOM     41  C   UNL A   1      37.632  29.942  28.829  1.00  0.00     0.029 A 
ATOM     42  N   UNL A   1      39.595  29.998  29.900  1.00  0.00    -0.354 N 
ATOM     43  C   UNL A   1      40.769  33.427  32.232  1.00  0.00     0.074 A 
ATOM     44  C   UNL A   1      39.738  34.444  32.233  1.00  0.00     0.031 C 
ATOM     45  C   UNL A   1      38.284  28.805  28.536  1.00  0.00     0.029 A 
ATOM     46  C   UNL A   1      39.589  28.823  29.185  1.00  0.00     0.049 A 
ATOM     47  H   UNL A   1      40.341  30.272  30.480  1.00  0.00     0.167 HD
ATOM     48  C   UNL A   1      41.954  33.540  32.878  1.00  0.00     0.031 A 
ATOM     49  C   UNL A   1      40.539  27.879  29.046  1.00  0.00     0.031 A 
ATOM     50  C   UNL A   1      42.971  32.523  32.894  1.00  0.00     0.049 A 
ATOM     51  C   UNL A   1      41.852  28.043  29.756  1.00  0.00     0.074 A 
ATOM     52  C   UNL A   1      44.164  32.512  33.596  1.00  0.00     0.029 A 
ATOM     53  N   UNL A   1      42.922  31.345  32.168  1.00  0.00    -0.354 N 
ATOM     54  N   UNL A   1      42.246  29.012  30.546  1.00  0.00    -0.248 NA
ATOM     55  C   UNL A   1      42.853  26.984  29.554  1.00  0.00     0.031 C 
ATOM     56  C   UNL A   1      44.863  31.352  33.250  1.00  0.00     0.029 A 
ATOM     57  C   UNL A   1      44.083  30.619  32.372  1.00  0.00     0.049 A 
ATOM     58  H   UNL A   1      42.174  31.065  31.592  1.00  0.00     0.167 HD
ATOM     59  C   UNL A   1      43.530  28.670  30.948  1.00  0.00     0.074 A 
ATOM     60  C   UNL A   1      43.841  27.397  30.334  1.00  0.00     0.031 C 
ATOM     61  C   UNL A   1      44.380  29.356  31.751  1.00  0.00     0.031 A 
BRANCH  48  62
ATOM     62  C   UNL A   1      42.229  34.814  33.623  1.00  0.00    -0.014 A 
ATOM     63  C   UNL A   1      42.942  35.864  33.027  1.00  0.00     0.009 A 
ATOM     64  C   UNL A   1      41.695  34.995  34.909  1.00  0.00     0.009 A 
ATOM     65  C   UNL A   1      43.133  37.066  33.712  1.00  0.00     0.001 A 
ATOM     66  C   UNL A   1      41.868  36.205  35.583  1.00  0.00     0.001 A 
ATOM     67  C   UNL A   1      42.589  37.237  34.986  1.00  0.00     0.000 A 
ENDBRANCH  48  62
BRANCH  49  68
ATOM     68  C   UNL A   1      40.300  26.699  28.172  1.00  0.00    -0.014 A 
ATOM     69  C   UNL A   1      40.799  26.669  26.862  1.00  0.00     0.009 A 
ATOM     70  C   UNL A   1      39.543  25.612  28.637  1.00  0.00     0.009 A 
ATOM     71  C   UNL A   1      40.516  25.587  26.024  1.00  0.00     0.001 A 
ATOM     72  C   UNL A   1      39.288  24.519  27.807  1.00  0.00     0.001 A 
ATOM     73  C   UNL A   1      39.764  24.513  26.497  1.00  0.00     0.000 A 
ENDBRANCH  49  68
BRANCH  61  74
ATOM     74  C   UNL A   1      45.719  28.735  32.021  1.00  0.00    -0.014 A 
ATOM     75  C   UNL A   1      45.898  27.843  33.089  1.00  0.00     0.009 A 
ATOM     76  C   UNL A   1      46.803  29.012  31.173  1.00  0.00     0.009 A 
ATOM     77  C   UNL A   1      47.147  27.259  33.317  1.00  0.00     0.001 A 
ATOM     78  C   UNL A   1      48.041  28.406  31.388  1.00  0.00     0.001 A 
ATOM     79  C   UNL A   1      48.214  27.536  32.463  1.00  0.00     0.000 A 
ENDBRANCH  61  74
ENDBRANCH  35  36
ENDBRANCH  27  30
ENDBRANCH  25  26
ENDBRANCH  24  25
ENDBRANCH  23  24
ENDBRANCH   1  23
TORSDOF 15
ENDMDL
MODEL 2
REMARK VINA RESULT:     -11.7      0.665      5.983
REMARK SMILES C[C@@H](C(=O)NCCCCNC(=O)c1ccc(-c2c3nc(c(-c4ccccc4)c4ccc([nH]4)c(-c4ccccc4)c4nc(c(-c5ccccc5)c5ccc2[nH]5)C=C4)C=C3)cc1)c1ccc(C[C@H]2CCC[C@@H]2O)cc1F
REMARK SMILES IDX 6 1 5 2 3 3 4 4 2 6 1 7 61 8 62 9 73 10 63 11 72 12 74 13
REMARK SMILES IDX 64 14 65 15 66 16 67 17 70 18 68 19 69 20 71 21 7 23 8 24
REMARK SMILES IDX 9 25 10 26 11 27 12 29 13 30 14 31 60 32 15 33 59 34 16 35
REMARK SMILES IDX 17 36 18 37 53 38 19 39 58 40 52 41 54 42 20 43 57 44 51 45
REMARK SMILES IDX 50 46 21 48 43 49 28 50 42 51 29 52 32 53 41 54 55 55 30 56
REMARK SMILES IDX 31 57 40 59 56 60 33 61 22 62 23 63 27 64 24 65 26 66 25 67
REMARK SMILES IDX 44 68 45 69 49 70 46 71 48 72 47 73 34 74 35 75 39 76 36 77
REMARK SMILES IDX 38 78 37 79
REMARK H PARENT 5 5 71 22 10 28 54 47 32 58
REMARK Flexibility Score: inf
ROOT
ATOM      1  C   UNL A   1      33.505  28.568  26.535  1.00  0.00     0.116 C 
ENDROOT
BRANCH   1   2
ATOM      2  N   UNL A   1      34.094  28.873  25.248  1.00  0.00    -0.356 N 
ATOM      3  C   UNL A   1      33.967  28.242  24.044  1.00  0.00     0.227 C 
ATOM      4  O   UNL A   1      34.569  28.748  23.094  1.00  0.00    -0.274 OA
ATOM      5  H   UNL A   1      34.681  29.664  25.239  1.00  0.00     0.163 HD
BRANCH   3   6
ATOM      6  C   UNL A   1      33.050  27.017  23.912  1.00  0.00     0.108 C 
ATOM      7  C   UNL A   1      33.565  25.975  22.912  1.00  0.00     0.023 C 
BRANCH   6   8
ATOM      8  C   UNL A   1      31.621  27.391  23.548  1.00  0.00    -0.000 A 
ATOM      9  C   UNL A   1      31.366  28.476  22.699  1.00  0.00     0.008 A 
ATOM     10  C   UNL A   1      30.529  26.707  24.093  1.00  0.00     0.127 A 
ATOM     11  C   UNL A   1      30.055  28.904  22.470  1.00  0.00     0.004 A 
ATOM     12  C   UNL A   1      29.224  27.133  23.874  1.00  0.00     0.043 A 
ATOM     13  F   UNL A   1      30.725  25.654  24.900  1.00  0.00    -0.207 F 
ATOM     14  C   UNL A   1      28.975  28.271  23.099  1.00  0.00    -0.045 A 
BRANCH  14  15
ATOM     15  C   UNL A   1      27.576  28.828  23.005  1.00  0.00     0.041 C 
BRANCH  15  16
ATOM     16  C   UNL A   1      27.484  30.328  22.663  1.00  0.00     0.022 C 
ATOM     17  C   UNL A   1      27.982  31.303  23.746  1.00  0.00     0.007 C 
ATOM     18  C   UNL A   1      28.217  30.766  21.391  1.00  0.00     0.117 C 
ATOM     19  C   UNL A   1      28.653  32.462  23.002  1.00  0.00     0.003 C 
ATOM     20  C   UNL A   1      28.277  32.279  21.542  1.00  0.00     0.032 C 
BRANCH  18  21
ATOM     21  O   UNL A   1      27.508  30.413  20.218  1.00  0.00    -0.393 OA
ATOM     22  H   UNL A   1      26.578  30.250  20.439  1.00  0.00     0.210 HD
ENDBRANCH  18  21
ENDBRANCH  15  16
ENDBRANCH  14  15
ENDBRANCH   6   8
ENDBRANCH   3   6
ENDBRANCH   1   2
BRANCH   1  23
ATOM     23  C   UNL A   1      32.082  29.117  26.648  1.00  0.00     0.023 C 
BRANCH  23  24
ATOM     24  C   UNL A   1      31.963  30.635  26.490  1.00  0.00     0.023 C 
BRANCH  24  25
ATOM     25  C   UNL A   1      32.971  31.456  27.285  1.00  0.00     0.116 C 
BRANCH  25  26
ATOM     26  N   UNL A   1      32.526  32.820  27.531  1.00  0.00    -0.352 N 
ATOM     27  C   UNL A   1      33.128  33.807  28.276  1.00  0.00     0.251 C 
ATOM     28  H   UNL A   1      31.676  33.070  27.105  1.00  0.00     0.163 HD
ATOM     29  O   UNL A   1      32.554  34.870  28.476  1.00  0.00    -0.269 OA
BRANCH  27  30
ATOM     30  C   UNL A   1      34.458  33.558  28.869  1.00  0.00     0.039 A 
ATOM     31  C   UNL A   1      34.530  32.914  30.107  1.00  0.00     0.014 A 
ATOM     32  C   UNL A   1      35.623  33.913  28.185  1.00  0.00     0.014 A 
ATOM     33  C   UNL A   1      35.775  32.535  30.615  1.00  0.00     0.010 A 
ATOM     34  C   UNL A   1      36.859  33.486  28.666  1.00  0.00     0.010 A 
ATOM     35  C   UNL A   1      36.943  32.771  29.872  1.00  0.00    -0.014 A 
BRANCH  35  36
ATOM     36  C   UNL A   1      38.251  32.214  30.294  1.00  0.00     0.031 A 
ATOM     37  C   UNL A   1      38.739  30.906  29.742  1.00  0.00     0.074 A 
ATOM     38  C   UNL A   1      38.952  32.843  31.260  1.00  0.00     0.049 A 
ATOM     39  N   UNL A   1      39.799  30.216  30.078  1.00  0.00    -0.248 NA
ATOM     40  C   UNL A   1      37.921  30.281  28.690  1.00  0.00     0.031 C 
ATOM     41  C   UNL A   1      38.563  34.098  31.910  1.00  0.00     0.029 A 
ATOM     42  N   UNL A   1      40.127  32.500  31.880  1.00  0.00    -0.354 N 
ATOM     43  C   UNL A   1      39.765  29.068  29.298  1.00  0.00     0.074 A 
ATOM     44  C   UNL A   1      38.567  29.140  28.488  1.00  0.00     0.031 C 
ATOM     45  C   UNL A   1      39.483  34.419  32.833  1.00  0.00     0.029 A 
ATOM     46  C   UNL A   1      40.501  33.376  32.872  1.00  0.00     0.049 A 
ATOM     47  H   UNL A   1      40.651  31.703  31.639  1.00  0.00     0.167 HD
ATOM     48  C   UNL A   1      40.657  28.051  29.253  1.00  0.00     0.031 A 
ATOM     49  C   UNL A   1      41.534  33.332  33.735  1.00  0.00     0.031 A 
ATOM     50  C   UNL A   1      41.859  27.988  30.043  1.00  0.00     0.049 A 
ATOM     51  C   UNL A   1      42.494  32.178  33.677  1.00  0.00     0.074 A 
ATOM     52  C   UNL A   1      42.867  27.040  29.998  1.00  0.00     0.029 A 
ATOM     53  N   UNL A   1      42.207  28.899  31.026  1.00  0.00    -0.354 N 
ATOM     54  N   UNL A   1      42.497  31.148  32.866  1.00  0.00    -0.248 NA
ATOM     55  C   UNL A   1      43.594  32.180  34.653  1.00  0.00     0.031 C 
ATOM     56  C   UNL A   1      43.799  27.348  30.994  1.00  0.00     0.029 A 
ATOM     57  C   UNL A   1      43.395  28.513  31.624  1.00  0.00     0.049 A 
ATOM     58  H   UNL A   1      41.687  29.700  31.264  1.00  0.00     0.167 HD
ATOM     59  C   UNL A   1      43.604  30.390  33.224  1.00  0.00     0.074 A 
ATOM     60  C   UNL A   1      44.262  31.089  34.308  1.00  0.00     0.031 C 
ATOM     61  C   UNL A   1      44.034  29.216  32.704  1.00  0.00     0.031 A 
BRANCH  48  62
ATOM     62  C   UNL A   1      40.374  26.908  28.322  1.00  0.00    -0.014 A 
ATOM     63  C   UNL A   1      39.551  25.841  28.712  1.00  0.00     0.009 A 
ATOM     64  C   UNL A   1      40.870  26.942  27.009  1.00  0.00     0.009 A 
ATOM     65  C   UNL A   1      39.246  24.819  27.811  1.00  0.00     0.001 A 
ATOM     66  C   UNL A   1      40.545  25.932  26.104  1.00  0.00     0.001 A 
ATOM     67  C   UNL A   1      39.737  24.870  26.506  1.00  0.00     0.000 A 
ENDBRANCH  48  62
BRANCH  49  68
ATOM     68  C   UNL A   1      41.705  34.400  34.756  1.00  0.00    -0.014 A 
ATOM     69  C   UNL A   1      41.130  34.269  36.028  1.00  0.00     0.009 A 
ATOM     70  C   UNL A   1      42.417  35.570  34.448  1.00  0.00     0.009 A 
ATOM     71  C   UNL A   1      41.237  35.303  36.961  1.00  0.00     0.001 A 
ATOM     72  C   UNL A   1      42.547  36.589  35.393  1.00  0.00     0.001 A 
ATOM     73  C   UNL A   1      41.948  36.460  36.645  1.00  0.00     0.000 A 
ENDBRANCH  49  68
BRANCH  61  74
ATOM     74  C   UNL A   1      45.281  28.621  33.291  1.00  0.00    -0.014 A 
ATOM     75  C   UNL A   1      45.213  27.700  34.347  1.00  0.00     0.009 A 
ATOM     76  C   UNL A   1      46.534  28.953  32.753  1.00  0.00     0.009 A 
ATOM     77  C   UNL A   1      46.381  27.142  34.871  1.00  0.00     0.001 A 
ATOM     78  C   UNL A   1      47.697  28.373  33.261  1.00  0.00     0.001 A 
ATOM     79  C   UNL A   1      47.620  27.474  34.324  1.00  0.00     0.000 A 
ENDBRANCH  61  74
ENDBRANCH  35  36
ENDBRANCH  27  30
ENDBRANCH  25  26
ENDBRANCH  24  25
ENDBRANCH  23  24
ENDBRANCH   1  23
TORSDOF 15
ENDMDL
MODEL 3
REMARK VINA RESULT:     -11.5      3.303      7.861
REMARK SMILES C[C@@H](C(=O)NCCCCNC(=O)c1ccc(-c2c3nc(c(-c4ccccc4)c4ccc([nH]4)c(-c4ccccc4)c4nc(c(-c5ccccc5)c5ccc2[nH]5)C=C4)C=C3)cc1)c1ccc(C[C@H]2CCC[C@@H]2O)cc1F
REMARK SMILES IDX 6 1 5 2 3 3 4 4 2 6 1 7 61 8 62 9 73 10 63 11 72 12 74 13
REMARK SMILES IDX 64 14 65 15 66 16 67 17 70 18 68 19 69 20 71 21 7 23 8 24
REMARK SMILES IDX 9 25 10 26 11 27 12 29 13 30 14 31 60 32 15 33 59 34 16 35
REMARK SMILES IDX 17 36 18 37 53 38 19 39 58 40 52 41 54 42 20 43 57 44 51 45
REMARK SMILES IDX 50 46 21 48 43 49 28 50 42 51 29 52 32 53 41 54 55 55 30 56
REMARK SMILES IDX 31 57 40 59 56 60 33 61 22 62 23 63 27 64 24 65 26 66 25 67
REMARK SMILES IDX 44 68 45 69 49 70 46 71 48 72 47 73 34 74 35 75 39 76 36 77
REMARK SMILES IDX 38 78 37 79
REMARK H PARENT 5 5 71 22 10 28 54 47 32 58
REMARK Flexibility Score: inf
ROOT
ATOM      1  C   UNL A   1      31.583  27.680  26.252  1.00  0.00     0.116 C 
ENDROOT
BRANCH   1   2
ATOM      2  N   UNL A   1      31.338  26.403  26.889  1.00  0.00    -0.356 N 
ATOM      3  C   UNL A   1      31.370  25.138  26.377  1.00  0.00     0.227 C 
ATOM      4  O   UNL A   1      31.147  24.221  27.170  1.00  0.00    -0.274 OA
ATOM      5  H   UNL A   1      31.112  26.455  27.846  1.00  0.00     0.163 HD
BRANCH   3   6
ATOM      6  C   UNL A   1      31.746  24.915  24.905  1.00  0.00     0.108 C 
ATOM      7  C   UNL A   1      30.544  24.961  23.954  1.00  0.00     0.023 C 
BRANCH   6   8
ATOM      8  C   UNL A   1      32.504  23.613  24.684  1.00  0.00    -0.000 A 
ATOM      9  C   UNL A   1      31.843  22.485  24.178  1.00  0.00     0.008 A 
ATOM     10  C   UNL A   1      33.852  23.489  25.034  1.00  0.00     0.127 A 
ATOM     11  C   UNL A   1      32.501  21.255  24.100  1.00  0.00     0.004 A 
ATOM     12  C   UNL A   1      34.509  22.265  24.965  1.00  0.00     0.043 A 
ATOM     13  F   UNL A   1      34.529  24.544  25.510  1.00  0.00    -0.207 F 
ATOM     14  C   UNL A   1      33.823  21.121  24.544  1.00  0.00    -0.045 A 
BRANCH  14  15
ATOM     15  C   UNL A   1      34.486  19.768  24.633  1.00  0.00     0.041 C 
BRANCH  15  16
ATOM     16  C   UNL A   1      33.548  18.558  24.454  1.00  0.00     0.022 C 
ATOM     17  C   UNL A   1      33.924  17.569  23.336  1.00  0.00     0.007 C 
ATOM     18  C   UNL A   1      33.356  17.678  25.693  1.00  0.00     0.117 C 
ATOM     19  C   UNL A   1      33.562  16.175  23.859  1.00  0.00     0.003 C 
ATOM     20  C   UNL A   1      32.738  16.414  25.114  1.00  0.00     0.032 C 
BRANCH  18  21
ATOM     21  O   UNL A   1      32.482  18.268  26.637  1.00  0.00    -0.393 OA
ATOM     22  H   UNL A   1      32.940  18.360  27.487  1.00  0.00     0.210 HD
ENDBRANCH  18  21
ENDBRANCH  15  16
ENDBRANCH  14  15
ENDBRANCH   6   8
ENDBRANCH   3   6
ENDBRANCH   1   2
BRANCH   1  23
ATOM     23  C   UNL A   1      31.968  28.754  27.270  1.00  0.00     0.023 C 
BRANCH  23  24
ATOM     24  C   UNL A   1      31.732  30.194  26.808  1.00  0.00     0.023 C 
BRANCH  24  25
ATOM     25  C   UNL A   1      32.863  31.171  27.106  1.00  0.00     0.116 C 
BRANCH  25  26
ATOM     26  N   UNL A   1      32.397  32.532  27.325  1.00  0.00    -0.352 N 
ATOM     27  C   UNL A   1      32.991  33.548  28.036  1.00  0.00     0.251 C 
ATOM     28  H   UNL A   1      31.536  32.756  26.906  1.00  0.00     0.163 HD
ATOM     29  O   UNL A   1      32.402  34.605  28.219  1.00  0.00    -0.269 OA
BRANCH  27  30
ATOM     30  C   UNL A   1      34.335  33.338  28.614  1.00  0.00     0.039 A 
ATOM     31  C   UNL A   1      34.440  32.691  29.848  1.00  0.00     0.014 A 
ATOM     32  C   UNL A   1      35.482  33.732  27.920  1.00  0.00     0.014 A 
ATOM     33  C   UNL A   1      35.701  32.349  30.341  1.00  0.00     0.010 A 
ATOM     34  C   UNL A   1      36.735  33.342  28.385  1.00  0.00     0.010 A 
ATOM     35  C   UNL A   1      36.854  32.625  29.587  1.00  0.00    -0.014 A 
BRANCH  35  36
ATOM     36  C   UNL A   1      38.183  32.107  29.993  1.00  0.00     0.031 A 
ATOM     37  C   UNL A   1      38.686  30.794  29.467  1.00  0.00     0.074 A 
ATOM     38  C   UNL A   1      38.893  32.778  30.924  1.00  0.00     0.049 A 
ATOM     39  N   UNL A   1      39.767  30.135  29.796  1.00  0.00    -0.248 NA
ATOM     40  C   UNL A   1      37.857  30.122  28.453  1.00  0.00     0.031 C 
ATOM     41  C   UNL A   1      38.493  34.043  31.547  1.00  0.00     0.029 A 
ATOM     42  N   UNL A   1      40.089  32.477  31.525  1.00  0.00    -0.354 N 
ATOM     43  C   UNL A   1      39.740  28.965  29.050  1.00  0.00     0.074 A 
ATOM     44  C   UNL A   1      38.521  28.989  28.268  1.00  0.00     0.031 C 
ATOM     45  C   UNL A   1      39.428  34.408  32.438  1.00  0.00     0.029 A 
ATOM     46  C   UNL A   1      40.469  33.388  32.482  1.00  0.00     0.049 A 
ATOM     47  H   UNL A   1      40.625  31.684  31.293  1.00  0.00     0.167 HD
ATOM     48  C   UNL A   1      40.651  27.966  29.012  1.00  0.00     0.031 A 
ATOM     49  C   UNL A   1      41.522  33.390  33.320  1.00  0.00     0.031 A 
ATOM     50  C   UNL A   1      41.872  27.950  29.774  1.00  0.00     0.049 A 
ATOM     51  C   UNL A   1      42.505  32.255  33.272  1.00  0.00     0.074 A 
ATOM     52  C   UNL A   1      42.899  27.022  29.732  1.00  0.00     0.029 A 
ATOM     53  N   UNL A   1      42.224  28.896  30.722  1.00  0.00    -0.354 N 
ATOM     54  N   UNL A   1      42.510  31.202  32.491  1.00  0.00    -0.248 NA
ATOM     55  C   UNL A   1      43.627  32.308  34.220  1.00  0.00     0.031 C 
ATOM     56  C   UNL A   1      43.848  27.378  30.696  1.00  0.00     0.029 A 
ATOM     57  C   UNL A   1      43.434  28.551  31.302  1.00  0.00     0.049 A 
ATOM     58  H   UNL A   1      41.694  29.693  30.951  1.00  0.00     0.167 HD
ATOM     59  C   UNL A   1      43.641  30.478  32.843  1.00  0.00     0.074 A 
ATOM     60  C   UNL A   1      44.310  31.221  33.890  1.00  0.00     0.031 C 
ATOM     61  C   UNL A   1      44.084  29.298  32.345  1.00  0.00     0.031 A 
BRANCH  48  62
ATOM     62  C   UNL A   1      40.370  26.791  28.121  1.00  0.00    -0.014 A 
ATOM     63  C   UNL A   1      40.938  26.698  26.842  1.00  0.00     0.009 A 
ATOM     64  C   UNL A   1      39.592  25.725  28.602  1.00  0.00     0.009 A 
ATOM     65  C   UNL A   1      40.718  25.567  26.053  1.00  0.00     0.001 A 
ATOM     66  C   UNL A   1      39.392  24.587  27.820  1.00  0.00     0.001 A 
ATOM     67  C   UNL A   1      39.951  24.510  26.546  1.00  0.00     0.000 A 
ENDBRANCH  48  62
BRANCH  49  68
ATOM     68  C   UNL A   1      41.694  34.490  34.306  1.00  0.00    -0.014 A 
ATOM     69  C   UNL A   1      41.133  34.394  35.588  1.00  0.00     0.009 A 
ATOM     70  C   UNL A   1      42.393  35.656  33.956  1.00  0.00     0.009 A 
ATOM     71  C   UNL A   1      41.242  35.457  36.488  1.00  0.00     0.001 A 
ATOM     72  C   UNL A   1      42.525  36.705  34.867  1.00  0.00     0.001 A 
ATOM     73  C   UNL A   1      41.939  36.609  36.128  1.00  0.00     0.000 A 
ENDBRANCH  49  68
BRANCH  61  74
ATOM     74  C   UNL A   1      45.357  28.746  32.919  1.00  0.00    -0.014 A 
ATOM     75  C   UNL A   1      45.330  27.791  33.947  1.00  0.00     0.009 A 
ATOM     76  C   UNL A   1      46.594  29.154  32.395  1.00  0.00     0.009 A 
ATOM     77  C   UNL A   1      46.523  27.274  34.457  1.00  0.00     0.001 A 
ATOM     78  C   UNL A   1      47.781  28.615  32.890  1.00  0.00     0.001 A 
ATOM     79  C   UNL A   1      47.746  27.681  33.925  1.00  0.00     0.000 A 
ENDBRANCH  61  74
ENDBRANCH  35  36
ENDBRANCH  27  30
ENDBRANCH  25  26
ENDBRANCH  24  25
ENDBRANCH  23  24
ENDBRANCH   1  23
TORSDOF 15
ENDMDL
