MODEL 1
REMARK VINA RESULT:     -13.8      0.000      0.000
REMARK SMILES COc1cc([C@@H]2CC(=O)Nc3c(C(=O)NCCCCNC(=O)c4ccc(-c5c6nc(c(-c7ccccc7)c7ccc([nH]7)c(-c7ccccc7)c7nc(c(-c8ccccc8)c8ccc5[nH]8)C=C7)C=C6)cc4)cn(-c4ccc(F)cc4)c32)c(OC)c2c1OCO2
REMARK SMILES IDX 17 1 16 2 15 3 13 4 14 5 12 7 6 8 7 9 80 10 8 11 11 12 72 13
REMARK SMILES IDX 9 14 10 15 71 16 5 18 3 19 4 20 85 21 84 22 86 23 81 24
REMARK SMILES IDX 88 25 87 26 2 27 1 28 82 29 83 30 73 31 74 32 79 33 75 34
REMARK SMILES IDX 78 35 76 36 77 37 18 38 19 39 20 40 21 41 22 43 23 44 24 45
REMARK SMILES IDX 70 46 25 47 69 48 26 49 27 50 28 51 63 52 29 53 68 54 62 55
REMARK SMILES IDX 64 56 30 57 67 58 61 59 60 60 31 62 53 63 38 64 52 65 39 66
REMARK SMILES IDX 42 67 51 68 65 69 40 70 41 71 50 73 66 74 43 75 32 76 33 77
REMARK SMILES IDX 37 78 34 79 36 80 35 81 54 82 55 83 59 84 56 85 58 86 57 87
REMARK SMILES IDX 44 88 45 89 49 90 46 91 48 92 47 93
REMARK H PARENT 15 6 10 17 20 42 64 61 42 72
REMARK Flexibility Score: inf
ROOT
ATOM      1  C   UNL A   1      36.719  22.244  23.770  1.00  0.00     0.023 C 
ENDROOT
BRANCH   1   2
ATOM      2  C   UNL A   1      35.227  22.595  23.648  1.00  0.00     0.116 C 
BRANCH   2   3
ATOM      3  N   UNL A   1      34.579  22.617  24.936  1.00  0.00    -0.352 N 
ATOM      4  C   UNL A   1      33.891  23.572  25.638  1.00  0.00     0.254 C 
ATOM      5  O   UNL A   1      33.450  23.177  26.724  1.00  0.00    -0.269 OA
ATOM      6  H   UNL A   1      34.646  21.760  25.417  1.00  0.00     0.163 HD
BRANCH   4   7
ATOM      7  C   UNL A   1      33.622  24.946  25.187  1.00  0.00     0.081 A 
ATOM      8  C   UNL A   1      32.658  27.967  23.206  1.00  0.00     0.082 C 
ATOM      9  C   UNL A   1      33.195  27.551  21.834  1.00  0.00     0.115 C 
ATOM     10  C   UNL A   1      33.049  26.949  24.241  1.00  0.00     0.055 A 
ATOM     11  C   UNL A   1      33.082  26.068  21.585  1.00  0.00     0.225 C 
ATOM     12  C   UNL A   1      33.348  25.629  23.962  1.00  0.00     0.076 A 
ATOM     13  N   UNL A   1      33.273  27.172  25.578  1.00  0.00    -0.317 N 
ATOM     14  O   UNL A   1      32.937  25.598  20.456  1.00  0.00    -0.275 OA
ATOM     15  N   UNL A   1      33.291  25.232  22.648  1.00  0.00    -0.324 N 
ATOM     16  C   UNL A   1      33.661  25.977  26.132  1.00  0.00     0.107 A 
ATOM     17  H   UNL A   1      33.410  24.273  22.457  1.00  0.00     0.170 HD
BRANCH   8  18
ATOM     18  C   UNL A   1      31.162  28.286  23.131  1.00  0.00     0.012 A 
ATOM     19  C   UNL A   1      29.501  29.996  22.522  1.00  0.00     0.165 A 
ATOM     20  C   UNL A   1      30.820  29.546  22.574  1.00  0.00     0.059 A 
ATOM     21  C   UNL A   1      28.516  29.136  22.961  1.00  0.00     0.211 A 
ATOM     22  C   UNL A   1      28.820  27.883  23.462  1.00  0.00     0.211 A 
ATOM     23  O   UNL A   1      27.174  29.370  22.946  1.00  0.00    -0.449 OA
ATOM     24  C   UNL A   1      30.128  27.423  23.566  1.00  0.00     0.168 A 
ATOM     25  O   UNL A   1      27.690  27.209  23.831  1.00  0.00    -0.449 OA
ATOM     26  C   UNL A   1      26.660  28.113  23.407  1.00  0.00     0.468 C 
BRANCH  19  27
ATOM     27  O   UNL A   1      29.322  31.240  21.995  1.00  0.00    -0.493 OA
ATOM     28  C   UNL A   1      29.083  32.257  22.963  1.00  0.00     0.278 C 
ENDBRANCH  19  27
BRANCH  24  29
ATOM     29  O   UNL A   1      30.506  26.214  24.064  1.00  0.00    -0.492 OA
ATOM     30  C   UNL A   1      29.969  25.771  25.301  1.00  0.00     0.278 C 
ENDBRANCH  24  29
ENDBRANCH   8  18
BRANCH  13  31
ATOM     31  C   UNL A   1      33.231  28.412  26.256  1.00  0.00     0.046 A 
ATOM     32  C   UNL A   1      32.019  29.099  26.382  1.00  0.00     0.029 A 
ATOM     33  C   UNL A   1      34.420  28.977  26.729  1.00  0.00     0.029 A 
ATOM     34  C   UNL A   1      32.005  30.393  26.897  1.00  0.00     0.041 A 
ATOM     35  C   UNL A   1      34.400  30.276  27.242  1.00  0.00     0.041 A 
ATOM     36  C   UNL A   1      33.198  30.977  27.304  1.00  0.00     0.123 A 
ATOM     37  F   UNL A   1      33.190  32.235  27.762  1.00  0.00    -0.207 F 
ENDBRANCH  13  31
ENDBRANCH   4   7
ENDBRANCH   2   3
ENDBRANCH   1   2
BRANCH   1  38
ATOM     38  C   UNL A   1      37.182  21.743  25.141  1.00  0.00     0.023 C 
BRANCH  38  39
ATOM     39  C   UNL A   1      38.146  22.680  25.861  1.00  0.00     0.116 C 
BRANCH  39  40
ATOM     40  N   UNL A   1      39.234  21.981  26.565  1.00  0.00    -0.352 N 
ATOM     41  C   UNL A   1      40.391  22.513  27.124  1.00  0.00     0.251 C 
ATOM     42  H   UNL A   1      39.127  21.005  26.652  1.00  0.00     0.163 HD
ATOM     43  O   UNL A   1      41.390  21.840  27.302  1.00  0.00    -0.269 OA
BRANCH  41  44
ATOM     44  C   UNL A   1      40.354  23.923  27.548  1.00  0.00     0.039 A 
ATOM     45  C   UNL A   1      39.204  24.719  27.523  1.00  0.00     0.014 A 
ATOM     46  C   UNL A   1      41.547  24.407  28.060  1.00  0.00     0.014 A 
ATOM     47  C   UNL A   1      39.279  26.004  28.062  1.00  0.00     0.010 A 
ATOM     48  C   UNL A   1      41.515  25.499  28.864  1.00  0.00     0.010 A 
ATOM     49  C   UNL A   1      40.454  26.378  28.726  1.00  0.00    -0.014 A 
BRANCH  49  50
ATOM     50  C   UNL A   1      40.674  27.666  29.352  1.00  0.00     0.031 A 
ATOM     51  C   UNL A   1      41.609  28.552  28.625  1.00  0.00     0.074 A 
ATOM     52  C   UNL A   1      39.829  28.116  30.309  1.00  0.00     0.049 A 
ATOM     53  N   UNL A   1      42.773  28.937  29.019  1.00  0.00    -0.248 NA
ATOM     54  C   UNL A   1      41.286  28.943  27.243  1.00  0.00     0.031 C 
ATOM     55  C   UNL A   1      38.633  27.462  30.866  1.00  0.00     0.029 A 
ATOM     56  N   UNL A   1      39.781  29.340  30.892  1.00  0.00    -0.354 N 
ATOM     57  C   UNL A   1      43.256  29.780  28.025  1.00  0.00     0.074 A 
ATOM     58  C   UNL A   1      42.403  29.580  26.882  1.00  0.00     0.031 C 
ATOM     59  C   UNL A   1      37.868  28.377  31.505  1.00  0.00     0.029 A 
ATOM     60  C   UNL A   1      38.588  29.636  31.541  1.00  0.00     0.049 A 
ATOM     61  H   UNL A   1      40.536  29.972  30.857  1.00  0.00     0.167 HD
ATOM     62  C   UNL A   1      44.161  30.757  28.309  1.00  0.00     0.031 A 
ATOM     63  C   UNL A   1      38.215  30.844  32.036  1.00  0.00     0.031 A 
ATOM     64  C   UNL A   1      44.670  30.619  29.652  1.00  0.00     0.049 A 
ATOM     65  C   UNL A   1      39.453  31.651  32.180  1.00  0.00     0.074 A 
ATOM     66  C   UNL A   1      45.373  29.639  30.323  1.00  0.00     0.029 A 
ATOM     67  N   UNL A   1      44.072  31.395  30.622  1.00  0.00    -0.354 N 
ATOM     68  N   UNL A   1      40.394  31.353  33.031  1.00  0.00    -0.248 NA
ATOM     69  C   UNL A   1      39.874  32.464  31.047  1.00  0.00     0.031 C 
ATOM     70  C   UNL A   1      44.766  29.577  31.612  1.00  0.00     0.029 A 
ATOM     71  C   UNL A   1      43.801  30.584  31.694  1.00  0.00     0.049 A 
ATOM     72  H   UNL A   1      43.876  32.357  30.556  1.00  0.00     0.167 HD
ATOM     73  C   UNL A   1      41.577  31.531  32.325  1.00  0.00     0.074 A 
ATOM     74  C   UNL A   1      41.200  32.313  31.145  1.00  0.00     0.031 C 
ATOM     75  C   UNL A   1      42.681  30.770  32.593  1.00  0.00     0.031 A 
BRANCH  62  76
ATOM     76  C   UNL A   1      44.289  32.054  27.556  1.00  0.00    -0.014 A 
ATOM     77  C   UNL A   1      43.811  33.228  28.165  1.00  0.00     0.009 A 
ATOM     78  C   UNL A   1      44.609  32.137  26.188  1.00  0.00     0.009 A 
ATOM     79  C   UNL A   1      43.586  34.395  27.426  1.00  0.00     0.001 A 
ATOM     80  C   UNL A   1      44.425  33.312  25.456  1.00  0.00     0.001 A 
ATOM     81  C   UNL A   1      43.884  34.433  26.069  1.00  0.00     0.000 A 
ENDBRANCH  62  76
BRANCH  63  82
ATOM     82  C   UNL A   1      36.859  31.433  32.146  1.00  0.00    -0.014 A 
ATOM     83  C   UNL A   1      36.450  32.114  33.304  1.00  0.00     0.009 A 
ATOM     84  C   UNL A   1      36.049  31.556  31.001  1.00  0.00     0.009 A 
ATOM     85  C   UNL A   1      35.297  32.917  33.303  1.00  0.00     0.001 A 
ATOM     86  C   UNL A   1      34.899  32.356  31.000  1.00  0.00     0.001 A 
ATOM     87  C   UNL A   1      34.531  33.050  32.147  1.00  0.00     0.000 A 
ENDBRANCH  63  82
BRANCH  75  88
ATOM     88  C   UNL A   1      42.636  29.851  33.794  1.00  0.00    -0.014 A 
ATOM     89  C   UNL A   1      43.044  30.244  35.082  1.00  0.00     0.009 A 
ATOM     90  C   UNL A   1      41.988  28.616  33.657  1.00  0.00     0.009 A 
ATOM     91  C   UNL A   1      42.832  29.416  36.191  1.00  0.00     0.001 A 
ATOM     92  C   UNL A   1      41.757  27.799  34.766  1.00  0.00     0.001 A 
ATOM     93  C   UNL A   1      42.182  28.196  36.031  1.00  0.00     0.000 A 
ENDBRANCH  75  88
ENDBRANCH  49  50
ENDBRANCH  41  44
ENDBRANCH  39  40
ENDBRANCH  38  39
ENDBRANCH   1  38
TORSDOF 15
ENDMDL
MODEL 2
REMARK VINA RESULT:     -13.3      1.645      5.221
REMARK SMILES COc1cc([C@@H]2CC(=O)Nc3c(C(=O)NCCCCNC(=O)c4ccc(-c5c6nc(c(-c7ccccc7)c7ccc([nH]7)c(-c7ccccc7)c7nc(c(-c8ccccc8)c8ccc5[nH]8)C=C7)C=C6)cc4)cn(-c4ccc(F)cc4)c32)c(OC)c2c1OCO2
REMARK SMILES IDX 17 1 16 2 15 3 13 4 14 5 12 7 6 8 7 9 80 10 8 11 11 12 72 13
REMARK SMILES IDX 9 14 10 15 71 16 5 18 3 19 4 20 85 21 84 22 86 23 81 24
REMARK SMILES IDX 88 25 87 26 2 27 1 28 82 29 83 30 73 31 74 32 79 33 75 34
REMARK SMILES IDX 78 35 76 36 77 37 18 38 19 39 20 40 21 41 22 43 23 44 24 45
REMARK SMILES IDX 70 46 25 47 69 48 26 49 27 50 28 51 63 52 29 53 68 54 62 55
REMARK SMILES IDX 64 56 30 57 67 58 61 59 60 60 31 62 53 63 38 64 52 65 39 66
REMARK SMILES IDX 42 67 51 68 65 69 40 70 41 71 50 73 66 74 43 75 32 76 33 77
REMARK SMILES IDX 37 78 34 79 36 80 35 81 54 82 55 83 59 84 56 85 58 86 57 87
REMARK SMILES IDX 44 88 45 89 49 90 46 91 48 92 47 93
REMARK H PARENT 15 6 10 17 20 42 64 61 42 72
REMARK Flexibility Score: inf
ROOT
ATOM      1  C   UNL A   1      37.034  23.434  24.533  1.00  0.00     0.023 C 
ENDROOT
BRANCH   1   2
ATOM      2  C   UNL A   1      35.751  22.735  24.055  1.00  0.00     0.116 C 
BRANCH   2   3
ATOM      3  N   UNL A   1      34.776  22.633  25.112  1.00  0.00    -0.352 N 
ATOM      4  C   UNL A   1      33.849  23.497  25.636  1.00  0.00     0.254 C 
ATOM      5  O   UNL A   1      33.160  23.006  26.539  1.00  0.00    -0.269 OA
ATOM      6  H   UNL A   1      34.776  21.754  25.555  1.00  0.00     0.163 HD
BRANCH   4   7
ATOM      7  C   UNL A   1      33.606  24.876  25.188  1.00  0.00     0.081 A 
ATOM      8  C   UNL A   1      32.706  27.920  23.210  1.00  0.00     0.082 C 
ATOM      9  C   UNL A   1      33.245  27.498  21.840  1.00  0.00     0.115 C 
ATOM     10  C   UNL A   1      33.073  26.892  24.244  1.00  0.00     0.055 A 
ATOM     11  C   UNL A   1      33.107  26.018  21.586  1.00  0.00     0.225 C 
ATOM     12  C   UNL A   1      33.351  25.568  23.963  1.00  0.00     0.076 A 
ATOM     13  N   UNL A   1      33.293  27.107  25.583  1.00  0.00    -0.317 N 
ATOM     14  O   UNL A   1      32.961  25.554  20.455  1.00  0.00    -0.275 OA
ATOM     15  N   UNL A   1      33.296  25.175  22.648  1.00  0.00    -0.324 N 
ATOM     16  C   UNL A   1      33.657  25.904  26.136  1.00  0.00     0.107 A 
ATOM     17  H   UNL A   1      33.399  24.215  22.454  1.00  0.00     0.170 HD
BRANCH   8  18
ATOM     18  C   UNL A   1      31.217  28.265  23.128  1.00  0.00     0.012 A 
ATOM     19  C   UNL A   1      29.589  30.004  22.512  1.00  0.00     0.165 A 
ATOM     20  C   UNL A   1      30.899  29.532  22.571  1.00  0.00     0.059 A 
ATOM     21  C   UNL A   1      28.587  29.160  22.943  1.00  0.00     0.211 A 
ATOM     22  C   UNL A   1      28.866  27.901  23.444  1.00  0.00     0.211 A 
ATOM     23  O   UNL A   1      27.249  29.418  22.921  1.00  0.00    -0.449 OA
ATOM     24  C   UNL A   1      30.165  27.419  23.554  1.00  0.00     0.168 A 
ATOM     25  O   UNL A   1      27.723  27.246  23.805  1.00  0.00    -0.449 OA
ATOM     26  C   UNL A   1      26.711  28.169  23.377  1.00  0.00     0.468 C 
BRANCH  19  27
ATOM     27  O   UNL A   1      29.434  31.252  21.987  1.00  0.00    -0.493 OA
ATOM     28  C   UNL A   1      28.529  32.082  22.706  1.00  0.00     0.278 C 
ENDBRANCH  19  27
BRANCH  24  29
ATOM     29  O   UNL A   1      30.519  26.202  24.052  1.00  0.00    -0.492 OA
ATOM     30  C   UNL A   1      29.964  25.026  23.481  1.00  0.00     0.278 C 
ENDBRANCH  24  29
ENDBRANCH   8  18
BRANCH  13  31
ATOM     31  C   UNL A   1      33.268  28.345  26.265  1.00  0.00     0.046 A 
ATOM     32  C   UNL A   1      32.074  29.066  26.362  1.00  0.00     0.029 A 
ATOM     33  C   UNL A   1      34.460  28.874  26.771  1.00  0.00     0.029 A 
ATOM     34  C   UNL A   1      32.083  30.359  26.881  1.00  0.00     0.041 A 
ATOM     35  C   UNL A   1      34.463  30.172  27.288  1.00  0.00     0.041 A 
ATOM     36  C   UNL A   1      33.280  30.907  27.321  1.00  0.00     0.123 A 
ATOM     37  F   UNL A   1      33.296  32.164  27.784  1.00  0.00    -0.207 F 
ENDBRANCH  13  31
ENDBRANCH   4   7
ENDBRANCH   2   3
ENDBRANCH   1   2
BRANCH   1  38
ATOM     38  C   UNL A   1      37.457  23.148  25.977  1.00  0.00     0.023 C 
BRANCH  38  39
ATOM     39  C   UNL A   1      38.249  24.274  26.635  1.00  0.00     0.116 C 
BRANCH  39  40
ATOM     40  N   UNL A   1      39.611  24.429  26.099  1.00  0.00    -0.352 N 
ATOM     41  C   UNL A   1      40.444  25.542  26.151  1.00  0.00     0.251 C 
ATOM     42  H   UNL A   1      39.982  23.639  25.644  1.00  0.00     0.163 HD
ATOM     43  O   UNL A   1      41.343  25.713  25.348  1.00  0.00    -0.269 OA
BRANCH  41  44
ATOM     44  C   UNL A   1      40.234  26.497  27.252  1.00  0.00     0.039 A 
ATOM     45  C   UNL A   1      39.960  26.123  28.573  1.00  0.00     0.014 A 
ATOM     46  C   UNL A   1      40.405  27.828  26.908  1.00  0.00     0.014 A 
ATOM     47  C   UNL A   1      39.900  27.123  29.543  1.00  0.00     0.010 A 
ATOM     48  C   UNL A   1      40.672  28.725  27.890  1.00  0.00     0.010 A 
ATOM     49  C   UNL A   1      40.255  28.427  29.176  1.00  0.00    -0.014 A 
BRANCH  49  50
ATOM     50  C   UNL A   1      40.260  29.565  30.073  1.00  0.00     0.031 A 
ATOM     51  C   UNL A   1      38.943  30.215  30.251  1.00  0.00     0.074 A 
ATOM     52  C   UNL A   1      41.300  29.769  30.915  1.00  0.00     0.049 A 
ATOM     53  N   UNL A   1      38.607  31.397  29.867  1.00  0.00    -0.248 NA
ATOM     54  C   UNL A   1      37.826  29.419  30.785  1.00  0.00     0.031 C 
ATOM     55  C   UNL A   1      42.524  28.966  31.082  1.00  0.00     0.029 A 
ATOM     56  N   UNL A   1      41.415  30.673  31.919  1.00  0.00    -0.354 N 
ATOM     57  C   UNL A   1      37.292  31.576  30.283  1.00  0.00     0.074 A 
ATOM     58  C   UNL A   1      36.807  30.271  30.648  1.00  0.00     0.031 C 
ATOM     59  C   UNL A   1      43.116  29.275  32.259  1.00  0.00     0.029 A 
ATOM     60  C   UNL A   1      42.410  30.397  32.850  1.00  0.00     0.049 A 
ATOM     61  H   UNL A   1      40.835  31.467  31.985  1.00  0.00     0.167 HD
ATOM     62  C   UNL A   1      36.797  32.820  30.532  1.00  0.00     0.031 A 
ATOM     63  C   UNL A   1      42.609  31.029  34.034  1.00  0.00     0.031 A 
ATOM     64  C   UNL A   1      37.715  33.843  30.092  1.00  0.00     0.049 A 
ATOM     65  C   UNL A   1      41.896  32.330  33.952  1.00  0.00     0.074 A 
ATOM     66  C   UNL A   1      38.256  34.198  28.872  1.00  0.00     0.029 A 
ATOM     67  N   UNL A   1      38.547  34.379  31.052  1.00  0.00    -0.354 N 
ATOM     68  N   UNL A   1      42.258  33.282  33.139  1.00  0.00    -0.248 NA
ATOM     69  C   UNL A   1      40.506  32.376  34.383  1.00  0.00     0.031 C 
ATOM     70  C   UNL A   1      39.622  34.490  29.155  1.00  0.00     0.029 A 
ATOM     71  C   UNL A   1      39.818  34.399  30.535  1.00  0.00     0.049 A 
ATOM     72  H   UNL A   1      38.277  34.691  31.945  1.00  0.00     0.167 HD
ATOM     73  C   UNL A   1      41.069  33.755  32.599  1.00  0.00     0.074 A 
ATOM     74  C   UNL A   1      40.020  33.232  33.476  1.00  0.00     0.031 C 
ATOM     75  C   UNL A   1      41.021  34.257  31.328  1.00  0.00     0.031 A 
BRANCH  62  76
ATOM     76  C   UNL A   1      35.702  33.126  31.518  1.00  0.00    -0.014 A 
ATOM     77  C   UNL A   1      34.677  34.006  31.122  1.00  0.00     0.009 A 
ATOM     78  C   UNL A   1      35.768  32.807  32.886  1.00  0.00     0.009 A 
ATOM     79  C   UNL A   1      33.822  34.598  32.058  1.00  0.00     0.001 A 
ATOM     80  C   UNL A   1      34.889  33.364  33.818  1.00  0.00     0.001 A 
ATOM     81  C   UNL A   1      33.935  34.284  33.408  1.00  0.00     0.000 A 
ENDBRANCH  62  76
BRANCH  63  82
ATOM     82  C   UNL A   1      43.140  30.488  35.307  1.00  0.00    -0.014 A 
ATOM     83  C   UNL A   1      42.923  29.151  35.681  1.00  0.00     0.009 A 
ATOM     84  C   UNL A   1      44.095  31.218  36.040  1.00  0.00     0.009 A 
ATOM     85  C   UNL A   1      43.660  28.560  36.720  1.00  0.00     0.001 A 
ATOM     86  C   UNL A   1      44.831  30.628  37.076  1.00  0.00     0.001 A 
ATOM     87  C   UNL A   1      44.624  29.294  37.406  1.00  0.00     0.000 A 
ENDBRANCH  63  82
BRANCH  75  88
ATOM     88  C   UNL A   1      42.327  34.445  30.589  1.00  0.00    -0.014 A 
ATOM     89  C   UNL A   1      43.064  35.644  30.617  1.00  0.00     0.009 A 
ATOM     90  C   UNL A   1      42.922  33.321  30.001  1.00  0.00     0.009 A 
ATOM     91  C   UNL A   1      44.343  35.718  30.053  1.00  0.00     0.001 A 
ATOM     92  C   UNL A   1      44.207  33.389  29.457  1.00  0.00     0.001 A 
ATOM     93  C   UNL A   1      44.916  34.587  29.479  1.00  0.00     0.000 A 
ENDBRANCH  75  88
ENDBRANCH  49  50
ENDBRANCH  41  44
ENDBRANCH  39  40
ENDBRANCH  38  39
ENDBRANCH   1  38
TORSDOF 15
ENDMDL
MODEL 3
REMARK VINA RESULT:     -13.2      3.113      8.397
REMARK SMILES COc1cc([C@@H]2CC(=O)Nc3c(C(=O)NCCCCNC(=O)c4ccc(-c5c6nc(c(-c7ccccc7)c7ccc([nH]7)c(-c7ccccc7)c7nc(c(-c8ccccc8)c8ccc5[nH]8)C=C7)C=C6)cc4)cn(-c4ccc(F)cc4)c32)c(OC)c2c1OCO2
REMARK SMILES IDX 17 1 16 2 15 3 13 4 14 5 12 7 6 8 7 9 80 10 8 11 11 12 72 13
REMARK SMILES IDX 9 14 10 15 71 16 5 18 3 19 4 20 85 21 84 22 86 23 81 24
REMARK SMILES IDX 88 25 87 26 2 27 1 28 82 29 83 30 73 31 74 32 79 33 75 34
REMARK SMILES IDX 78 35 76 36 77 37 18 38 19 39 20 40 21 41 22 43 23 44 24 45
REMARK SMILES IDX 70 46 25 47 69 48 26 49 27 50 28 51 63 52 29 53 68 54 62 55
REMARK SMILES IDX 64 56 30 57 67 58 61 59 60 60 31 62 53 63 38 64 52 65 39 66
REMARK SMILES IDX 42 67 51 68 65 69 40 70 41 71 50 73 66 74 43 75 32 76 33 77
REMARK SMILES IDX 37 78 34 79 36 80 35 81 54 82 55 83 59 84 56 85 58 86 57 87
REMARK SMILES IDX 44 88 45 89 49 90 46 91 48 92 47 93
REMARK H PARENT 15 6 10 17 20 42 64 61 42 72
REMARK Flexibility Score: inf
ROOT
ATOM      1  C   UNL A   1      34.618  29.467  27.344  1.00  0.00     0.023 C 
ENDROOT
BRANCH   1   2
ATOM      2  C   UNL A   1      33.398  28.566  27.098  1.00  0.00     0.116 C 
BRANCH   2   3
ATOM      3  N   UNL A   1      33.155  28.373  25.689  1.00  0.00    -0.352 N 
ATOM      4  C   UNL A   1      33.194  27.282  24.859  1.00  0.00     0.254 C 
ATOM      5  O   UNL A   1      32.880  27.531  23.689  1.00  0.00    -0.269 OA
ATOM      6  H   UNL A   1      32.909  29.203  25.222  1.00  0.00     0.163 HD
BRANCH   4   7
ATOM      7  C   UNL A   1      33.525  25.906  25.260  1.00  0.00     0.081 A 
ATOM      8  C   UNL A   1      33.372  22.330  26.341  1.00  0.00     0.082 C 
ATOM      9  C   UNL A   1      32.230  22.422  27.357  1.00  0.00     0.115 C 
ATOM     10  C   UNL A   1      33.729  23.703  25.844  1.00  0.00     0.055 A 
ATOM     11  C   UNL A   1      31.182  23.435  26.970  1.00  0.00     0.225 C 
ATOM     12  C   UNL A   1      32.869  24.784  25.854  1.00  0.00     0.076 A 
ATOM     13  N   UNL A   1      34.960  24.132  25.409  1.00  0.00    -0.317 N 
ATOM     14  O   UNL A   1      30.000  23.315  27.293  1.00  0.00    -0.275 OA
ATOM     15  N   UNL A   1      31.608  24.585  26.363  1.00  0.00    -0.324 N 
ATOM     16  C   UNL A   1      34.844  25.465  25.103  1.00  0.00     0.107 A 
ATOM     17  H   UNL A   1      30.963  25.324  26.285  1.00  0.00     0.170 HD
BRANCH   8  18
ATOM     18  C   UNL A   1      33.051  21.301  25.253  1.00  0.00     0.012 A 
ATOM     19  C   UNL A   1      33.097  18.910  24.674  1.00  0.00     0.165 A 
ATOM     20  C   UNL A   1      33.271  19.941  25.596  1.00  0.00     0.059 A 
ATOM     21  C   UNL A   1      32.622  19.247  23.424  1.00  0.00     0.211 A 
ATOM     22  C   UNL A   1      32.353  20.559  23.081  1.00  0.00     0.211 A 
ATOM     23  O   UNL A   1      32.343  18.383  22.407  1.00  0.00    -0.449 OA
ATOM     24  C   UNL A   1      32.555  21.613  23.965  1.00  0.00     0.168 A 
ATOM     25  O   UNL A   1      31.890  20.652  21.798  1.00  0.00    -0.449 OA
ATOM     26  C   UNL A   1      31.792  19.271  21.423  1.00  0.00     0.468 C 
BRANCH  19  27
ATOM     27  O   UNL A   1      33.380  17.657  25.128  1.00  0.00    -0.493 OA
ATOM     28  C   UNL A   1      34.610  17.123  24.649  1.00  0.00     0.278 C 
ENDBRANCH  19  27
BRANCH  24  29
ATOM     29  O   UNL A   1      32.331  22.928  23.695  1.00  0.00    -0.492 OA
ATOM     30  C   UNL A   1      32.892  23.505  22.525  1.00  0.00     0.278 C 
ENDBRANCH  24  29
ENDBRANCH   8  18
BRANCH  13  31
ATOM     31  C   UNL A   1      36.162  23.389  25.382  1.00  0.00     0.046 A 
ATOM     32  C   UNL A   1      36.273  22.267  24.553  1.00  0.00     0.029 A 
ATOM     33  C   UNL A   1      37.207  23.741  26.244  1.00  0.00     0.029 A 
ATOM     34  C   UNL A   1      37.389  21.439  24.651  1.00  0.00     0.041 A 
ATOM     35  C   UNL A   1      38.321  22.904  26.339  1.00  0.00     0.041 A 
ATOM     36  C   UNL A   1      38.393  21.755  25.556  1.00  0.00     0.123 A 
ATOM     37  F   UNL A   1      39.447  20.937  25.678  1.00  0.00    -0.207 F 
ENDBRANCH  13  31
ENDBRANCH   4   7
ENDBRANCH   2   3
ENDBRANCH   1   2
BRANCH   1  38
ATOM     38  C   UNL A   1      34.319  30.944  27.620  1.00  0.00     0.023 C 
BRANCH  38  39
ATOM     39  C   UNL A   1      35.505  31.736  28.162  1.00  0.00     0.116 C 
BRANCH  39  40
ATOM     40  N   UNL A   1      35.267  32.319  29.493  1.00  0.00    -0.352 N 
ATOM     41  C   UNL A   1      35.605  31.804  30.740  1.00  0.00     0.251 C 
ATOM     42  H   UNL A   1      34.807  33.190  29.500  1.00  0.00     0.163 HD
ATOM     43  O   UNL A   1      35.018  32.134  31.755  1.00  0.00    -0.269 OA
BRANCH  41  44
ATOM     44  C   UNL A   1      36.744  30.873  30.804  1.00  0.00     0.039 A 
ATOM     45  C   UNL A   1      36.632  29.486  30.659  1.00  0.00     0.014 A 
ATOM     46  C   UNL A   1      37.983  31.479  30.946  1.00  0.00     0.014 A 
ATOM     47  C   UNL A   1      37.804  28.729  30.623  1.00  0.00     0.010 A 
ATOM     48  C   UNL A   1      39.091  30.787  30.578  1.00  0.00     0.010 A 
ATOM     49  C   UNL A   1      39.030  29.404  30.591  1.00  0.00    -0.014 A 
BRANCH  49  50
ATOM     50  C   UNL A   1      40.326  28.759  30.533  1.00  0.00     0.031 A 
ATOM     51  C   UNL A   1      41.010  28.635  31.839  1.00  0.00     0.074 A 
ATOM     52  C   UNL A   1      40.688  28.043  29.443  1.00  0.00     0.049 A 
ATOM     53  N   UNL A   1      42.093  29.230  32.203  1.00  0.00    -0.248 NA
ATOM     54  C   UNL A   1      40.350  27.881  32.916  1.00  0.00     0.031 C 
ATOM     55  C   UNL A   1      39.924  27.794  28.208  1.00  0.00     0.029 A 
ATOM     56  N   UNL A   1      41.776  27.254  29.268  1.00  0.00    -0.354 N 
ATOM     57  C   UNL A   1      42.364  28.777  33.490  1.00  0.00     0.074 A 
ATOM     58  C   UNL A   1      41.164  28.125  33.946  1.00  0.00     0.031 C 
ATOM     59  C   UNL A   1      40.461  26.744  27.544  1.00  0.00     0.029 A 
ATOM     60  C   UNL A   1      41.685  26.351  28.215  1.00  0.00     0.049 A 
ATOM     61  H   UNL A   1      42.571  27.315  29.846  1.00  0.00     0.167 HD
ATOM     62  C   UNL A   1      43.637  28.756  33.974  1.00  0.00     0.031 A 
ATOM     63  C   UNL A   1      42.544  25.334  27.945  1.00  0.00     0.031 A 
ATOM     64  C   UNL A   1      44.541  29.451  33.089  1.00  0.00     0.049 A 
ATOM     65  C   UNL A   1      43.807  25.634  28.666  1.00  0.00     0.074 A 
ATOM     66  C   UNL A   1      44.636  30.749  32.628  1.00  0.00     0.029 A 
ATOM     67  N   UNL A   1      45.254  28.675  32.200  1.00  0.00    -0.354 N 
ATOM     68  N   UNL A   1      44.571  26.645  28.360  1.00  0.00    -0.248 NA
ATOM     69  C   UNL A   1      43.951  25.135  30.027  1.00  0.00     0.031 C 
ATOM     70  C   UNL A   1      44.968  30.618  31.248  1.00  0.00     0.029 A 
ATOM     71  C   UNL A   1      45.157  29.263  30.965  1.00  0.00     0.049 A 
ATOM     72  H   UNL A   1      45.743  27.849  32.414  1.00  0.00     0.167 HD
ATOM     73  C   UNL A   1      44.935  27.194  29.583  1.00  0.00     0.074 A 
ATOM     74  C   UNL A   1      44.610  26.165  30.572  1.00  0.00     0.031 C 
ATOM     75  C   UNL A   1      45.168  28.535  29.714  1.00  0.00     0.031 A 
BRANCH  62  76
ATOM     76  C   UNL A   1      44.147  27.786  35.005  1.00  0.00    -0.014 A 
ATOM     77  C   UNL A   1      44.338  26.446  34.622  1.00  0.00     0.009 A 
ATOM     78  C   UNL A   1      44.195  28.063  36.384  1.00  0.00     0.009 A 
ATOM     79  C   UNL A   1      44.483  25.429  35.572  1.00  0.00     0.001 A 
ATOM     80  C   UNL A   1      44.381  27.055  37.334  1.00  0.00     0.001 A 
ATOM     81  C   UNL A   1      44.495  25.733  36.929  1.00  0.00     0.000 A 
ENDBRANCH  62  76
BRANCH  63  82
ATOM     82  C   UNL A   1      42.268  24.014  27.331  1.00  0.00    -0.014 A 
ATOM     83  C   UNL A   1      42.694  23.710  26.027  1.00  0.00     0.009 A 
ATOM     84  C   UNL A   1      41.811  22.947  28.128  1.00  0.00     0.009 A 
ATOM     85  C   UNL A   1      42.698  22.386  25.556  1.00  0.00     0.001 A 
ATOM     86  C   UNL A   1      41.815  21.627  27.659  1.00  0.00     0.001 A 
ATOM     87  C   UNL A   1      42.274  21.345  26.377  1.00  0.00     0.000 A 
ENDBRANCH  63  82
BRANCH  75  88
ATOM     88  C   UNL A   1      45.190  29.378  28.457  1.00  0.00    -0.014 A 
ATOM     89  C   UNL A   1      44.049  30.015  27.935  1.00  0.00     0.009 A 
ATOM     90  C   UNL A   1      46.433  29.688  27.891  1.00  0.00     0.009 A 
ATOM     91  C   UNL A   1      44.149  30.914  26.867  1.00  0.00     0.001 A 
ATOM     92  C   UNL A   1      46.537  30.602  26.840  1.00  0.00     0.001 A 
ATOM     93  C   UNL A   1      45.397  31.211  26.325  1.00  0.00     0.000 A 
ENDBRANCH  75  88
ENDBRANCH  49  50
ENDBRANCH  41  44
ENDBRANCH  39  40
ENDBRANCH  38  39
ENDBRANCH   1  38
TORSDOF 15
ENDMDL
