MODEL 1
REMARK VINA RESULT:     -11.7      0.000      0.000
REMARK SMILES O=C1NC(=O)/C(=C/c2ccc(OCc3cn(-c4ccc(C(=O)NCCCCNC(=O)c5ccc(-c6c7nc(c(-c8ccccc8)c8ccc([nH]8)c(-c8ccccc8)c8nc(c(-c9ccccc9)c9ccc6[nH]9)C=C8)C=C7)cc5)cc4)nn3)cc2)S1
REMARK SMILES IDX 24 1 23 2 21 3 22 4 20 6 17 7 18 8 80 9 19 10 79 11 16 12
REMARK SMILES IDX 14 13 15 14 82 15 81 16 13 17 12 18 11 19 8 20 9 21 84 22
REMARK SMILES IDX 10 23 83 24 7 25 1 26 2 27 3 28 85 29 4 30 6 32 5 33 25 34
REMARK SMILES IDX 26 35 27 36 28 37 29 38 30 40 31 41 32 42 78 43 33 44 77 45
REMARK SMILES IDX 34 46 35 47 36 48 71 49 37 50 76 51 70 52 72 53 38 54 75 55
REMARK SMILES IDX 69 56 68 57 39 59 61 60 46 61 60 62 47 63 50 64 59 65 73 66
REMARK SMILES IDX 48 67 49 68 58 70 74 71 51 72 40 73 41 74 45 75 42 76 44 77
REMARK SMILES IDX 43 78 62 79 63 80 67 81 64 82 66 83 65 84 52 85 53 86 57 87
REMARK SMILES IDX 54 88 56 89 55 90
REMARK H PARENT 23 5 3 31 28 39 72 58 50 69
REMARK Flexibility Score: inf
ROOT
ATOM      1  C   UNL A   1      44.905  31.265  27.112  1.00  0.00     0.116 C 
ENDROOT
BRANCH   1   2
ATOM      2  N   UNL A   1      43.981  31.372  28.223  1.00  0.00    -0.352 N 
ATOM      3  C   UNL A   1      42.985  30.557  28.698  1.00  0.00     0.251 C 
ATOM      4  O   UNL A   1      42.368  30.957  29.687  1.00  0.00    -0.269 OA
ATOM      5  H   UNL A   1      44.091  32.200  28.744  1.00  0.00     0.163 HD
BRANCH   3   6
ATOM      6  C   UNL A   1      42.662  29.212  28.134  1.00  0.00     0.039 A 
ATOM      7  C   UNL A   1      42.294  26.590  27.194  1.00  0.00     0.066 A 
ATOM      8  C   UNL A   1      42.570  26.810  28.546  1.00  0.00     0.029 A 
ATOM      9  C   UNL A   1      42.128  27.669  26.328  1.00  0.00     0.029 A 
ATOM     10  C   UNL A   1      42.786  28.114  29.002  1.00  0.00     0.016 A 
ATOM     11  C   UNL A   1      42.251  28.970  26.820  1.00  0.00     0.016 A 
BRANCH   7  12
ATOM     12  N   UNL A   1      42.157  25.274  26.712  1.00  0.00    -0.220 N 
ATOM     13  C   UNL A   1      41.532  23.227  26.296  1.00  0.00     0.120 A 
ATOM     14  C   UNL A   1      41.158  24.365  26.979  1.00  0.00     0.144 A 
ATOM     15  N   UNL A   1      42.693  23.494  25.618  1.00  0.00    -0.131 NA
ATOM     16  N   UNL A   1      43.042  24.747  25.845  1.00  0.00    -0.062 NA
BRANCH  13  17
ATOM     17  C   UNL A   1      40.835  21.917  26.120  1.00  0.00     0.289 C 
BRANCH  17  18
ATOM     18  O   UNL A   1      39.526  21.824  26.708  1.00  0.00    -0.487 OA
BRANCH  18  19
ATOM     19  C   UNL A   1      38.435  22.069  25.920  1.00  0.00     0.119 A 
ATOM     20  C   UNL A   1      36.013  22.733  24.657  1.00  0.00    -0.024 A 
ATOM     21  C   UNL A   1      36.741  23.712  25.337  1.00  0.00     0.012 A 
ATOM     22  C   UNL A   1      36.554  21.454  24.528  1.00  0.00     0.012 A 
ATOM     23  C   UNL A   1      37.944  23.376  25.971  1.00  0.00     0.047 A 
ATOM     24  C   UNL A   1      37.774  21.136  25.126  1.00  0.00     0.047 A 
BRANCH  20  25
ATOM     25  C   UNL A   1      34.706  23.038  24.067  1.00  0.00     0.029 C 
ATOM     26  O   UNL A   1      30.850  23.634  27.250  1.00  0.00    -0.261 OA
ATOM     27  C   UNL A   1      31.617  23.525  26.316  1.00  0.00     0.290 C 
ATOM     28  N   UNL A   1      31.280  23.584  25.000  1.00  0.00    -0.282 N 
ATOM     29  S   UNL A   1      33.345  23.271  26.467  1.00  0.00    -0.022 SA
ATOM     30  C   UNL A   1      32.270  23.448  24.075  1.00  0.00     0.265 C 
ATOM     31  H   UNL A   1      30.344  23.718  24.723  1.00  0.00     0.174 HD
ATOM     32  C   UNL A   1      33.573  23.237  24.756  1.00  0.00     0.083 C 
ATOM     33  O   UNL A   1      32.100  23.482  22.866  1.00  0.00    -0.268 OA
ENDBRANCH  20  25
ENDBRANCH  18  19
ENDBRANCH  17  18
ENDBRANCH  13  17
ENDBRANCH   7  12
ENDBRANCH   3   6
ENDBRANCH   1   2
BRANCH   1  34
ATOM     34  C   UNL A   1      45.093  32.618  26.416  1.00  0.00     0.023 C 
BRANCH  34  35
ATOM     35  C   UNL A   1      43.793  33.277  25.929  1.00  0.00     0.023 C 
BRANCH  35  36
ATOM     36  C   UNL A   1      43.943  34.725  25.481  1.00  0.00     0.116 C 
BRANCH  36  37
ATOM     37  N   UNL A   1      44.973  35.449  26.229  1.00  0.00    -0.352 N 
ATOM     38  C   UNL A   1      44.849  36.091  27.448  1.00  0.00     0.251 C 
ATOM     39  H   UNL A   1      45.864  35.484  25.812  1.00  0.00     0.163 HD
ATOM     40  O   UNL A   1      45.625  36.975  27.784  1.00  0.00    -0.269 OA
BRANCH  38  41
ATOM     41  C   UNL A   1      43.772  35.664  28.353  1.00  0.00     0.039 A 
ATOM     42  C   UNL A   1      42.458  36.113  28.209  1.00  0.00     0.014 A 
ATOM     43  C   UNL A   1      44.113  34.752  29.347  1.00  0.00     0.014 A 
ATOM     44  C   UNL A   1      41.475  35.568  29.031  1.00  0.00     0.010 A 
ATOM     45  C   UNL A   1      43.127  34.089  30.025  1.00  0.00     0.010 A 
ATOM     46  C   UNL A   1      41.819  34.542  29.926  1.00  0.00    -0.014 A 
BRANCH  46  47
ATOM     47  C   UNL A   1      40.805  33.848  30.706  1.00  0.00     0.031 A 
ATOM     48  C   UNL A   1      41.174  33.602  32.125  1.00  0.00     0.074 A 
ATOM     49  C   UNL A   1      39.549  33.646  30.255  1.00  0.00     0.049 A 
ATOM     50  N   UNL A   1      41.390  32.463  32.690  1.00  0.00    -0.248 NA
ATOM     51  C   UNL A   1      41.458  34.762  32.988  1.00  0.00     0.031 C 
ATOM     52  C   UNL A   1      38.926  34.125  29.015  1.00  0.00     0.029 A 
ATOM     53  N   UNL A   1      38.507  33.058  30.896  1.00  0.00    -0.354 N 
ATOM     54  C   UNL A   1      41.655  32.738  34.026  1.00  0.00     0.074 A 
ATOM     55  C   UNL A   1      41.849  34.164  34.115  1.00  0.00     0.031 C 
ATOM     56  C   UNL A   1      37.581  34.035  29.121  1.00  0.00     0.029 A 
ATOM     57  C   UNL A   1      37.260  33.334  30.350  1.00  0.00     0.049 A 
ATOM     58  H   UNL A   1      38.625  32.482  31.685  1.00  0.00     0.167 HD
ATOM     59  C   UNL A   1      41.459  31.802  34.996  1.00  0.00     0.031 A 
ATOM     60  C   UNL A   1      36.055  33.039  30.897  1.00  0.00     0.031 A 
ATOM     61  C   UNL A   1      41.300  30.482  34.437  1.00  0.00     0.049 A 
ATOM     62  C   UNL A   1      36.283  31.979  31.910  1.00  0.00     0.074 A 
ATOM     63  C   UNL A   1      42.083  29.678  33.631  1.00  0.00     0.029 A 
ATOM     64  N   UNL A   1      40.018  29.996  34.318  1.00  0.00    -0.354 N 
ATOM     65  N   UNL A   1      36.664  30.773  31.602  1.00  0.00    -0.248 NA
ATOM     66  C   UNL A   1      36.570  32.397  33.275  1.00  0.00     0.031 C 
ATOM     67  C   UNL A   1      41.171  29.120  32.686  1.00  0.00     0.029 A 
ATOM     68  C   UNL A   1      39.883  29.534  33.032  1.00  0.00     0.049 A 
ATOM     69  H   UNL A   1      39.329  29.982  35.021  1.00  0.00     0.167 HD
ATOM     70  C   UNL A   1      37.621  30.453  32.555  1.00  0.00     0.074 A 
ATOM     71  C   UNL A   1      37.456  31.454  33.610  1.00  0.00     0.031 C 
ATOM     72  C   UNL A   1      38.653  29.603  32.272  1.00  0.00     0.031 A 
BRANCH  59  73
ATOM     73  C   UNL A   1      41.024  32.134  36.397  1.00  0.00    -0.014 A 
ATOM     74  C   UNL A   1      39.701  32.555  36.620  1.00  0.00     0.009 A 
ATOM     75  C   UNL A   1      41.932  32.311  37.459  1.00  0.00     0.009 A 
ATOM     76  C   UNL A   1      39.326  33.172  37.819  1.00  0.00     0.001 A 
ATOM     77  C   UNL A   1      41.552  32.888  38.672  1.00  0.00     0.001 A 
ATOM     78  C   UNL A   1      40.254  33.343  38.843  1.00  0.00     0.000 A 
ENDBRANCH  59  73
BRANCH  60  79
ATOM     79  C   UNL A   1      34.790  33.803  30.811  1.00  0.00    -0.014 A 
ATOM     80  C   UNL A   1      34.327  34.563  31.898  1.00  0.00     0.009 A 
ATOM     81  C   UNL A   1      34.169  34.007  29.564  1.00  0.00     0.009 A 
ATOM     82  C   UNL A   1      33.312  35.517  31.733  1.00  0.00     0.001 A 
ATOM     83  C   UNL A   1      33.154  34.957  29.399  1.00  0.00     0.001 A 
ATOM     84  C   UNL A   1      32.737  35.724  30.482  1.00  0.00     0.000 A 
ENDBRANCH  60  79
BRANCH  72  85
ATOM     85  C   UNL A   1      38.640  28.869  30.948  1.00  0.00    -0.014 A 
ATOM     86  C   UNL A   1      38.691  29.520  29.702  1.00  0.00     0.009 A 
ATOM     87  C   UNL A   1      38.750  27.471  30.965  1.00  0.00     0.009 A 
ATOM     88  C   UNL A   1      38.820  28.793  28.513  1.00  0.00     0.001 A 
ATOM     89  C   UNL A   1      38.900  26.745  29.781  1.00  0.00     0.001 A 
ATOM     90  C   UNL A   1      38.930  27.405  28.554  1.00  0.00     0.000 A 
ENDBRANCH  72  85
ENDBRANCH  46  47
ENDBRANCH  38  41
ENDBRANCH  36  37
ENDBRANCH  35  36
ENDBRANCH  34  35
ENDBRANCH   1  34
TORSDOF 16
ENDMDL
MODEL 2
REMARK VINA RESULT:     -11.7      2.541      5.865
REMARK SMILES O=C1NC(=O)/C(=C/c2ccc(OCc3cn(-c4ccc(C(=O)NCCCCNC(=O)c5ccc(-c6c7nc(c(-c8ccccc8)c8ccc([nH]8)c(-c8ccccc8)c8nc(c(-c9ccccc9)c9ccc6[nH]9)C=C8)C=C7)cc5)cc4)nn3)cc2)S1
REMARK SMILES IDX 24 1 23 2 21 3 22 4 20 6 17 7 18 8 80 9 19 10 79 11 16 12
REMARK SMILES IDX 14 13 15 14 82 15 81 16 13 17 12 18 11 19 8 20 9 21 84 22
REMARK SMILES IDX 10 23 83 24 7 25 1 26 2 27 3 28 85 29 4 30 6 32 5 33 25 34
REMARK SMILES IDX 26 35 27 36 28 37 29 38 30 40 31 41 32 42 78 43 33 44 77 45
REMARK SMILES IDX 34 46 35 47 36 48 71 49 37 50 76 51 70 52 72 53 38 54 75 55
REMARK SMILES IDX 69 56 68 57 39 59 61 60 46 61 60 62 47 63 50 64 59 65 73 66
REMARK SMILES IDX 48 67 49 68 58 70 74 71 51 72 40 73 41 74 45 75 42 76 44 77
REMARK SMILES IDX 43 78 62 79 63 80 67 81 64 82 66 83 65 84 52 85 53 86 57 87
REMARK SMILES IDX 54 88 56 89 55 90
REMARK H PARENT 23 5 3 31 28 39 72 58 50 69
REMARK Flexibility Score: inf
ROOT
ATOM      1  C   UNL A   1      47.496  28.640  27.716  1.00  0.00     0.116 C 
ENDROOT
BRANCH   1   2
ATOM      2  N   UNL A   1      47.288  28.961  26.318  1.00  0.00    -0.352 N 
ATOM      3  C   UNL A   1      46.543  28.383  25.323  1.00  0.00     0.251 C 
ATOM      4  O   UNL A   1      46.592  28.918  24.214  1.00  0.00    -0.269 OA
ATOM      5  H   UNL A   1      47.785  29.758  26.023  1.00  0.00     0.163 HD
BRANCH   3   6
ATOM      6  C   UNL A   1      45.643  27.208  25.524  1.00  0.00     0.039 A 
ATOM      7  C   UNL A   1      44.017  24.919  25.639  1.00  0.00     0.066 A 
ATOM      8  C   UNL A   1      45.342  24.807  25.209  1.00  0.00     0.029 A 
ATOM      9  C   UNL A   1      43.524  26.146  26.080  1.00  0.00     0.029 A 
ATOM     10  C   UNL A   1      46.136  25.954  25.121  1.00  0.00     0.016 A 
ATOM     11  C   UNL A   1      44.361  27.264  26.078  1.00  0.00     0.016 A 
BRANCH   7  12
ATOM     12  N   UNL A   1      43.186  23.783  25.651  1.00  0.00    -0.220 N 
ATOM     13  C   UNL A   1      41.570  22.346  25.931  1.00  0.00     0.120 A 
ATOM     14  C   UNL A   1      41.891  23.675  26.107  1.00  0.00     0.144 A 
ATOM     15  N   UNL A   1      42.640  21.718  25.348  1.00  0.00    -0.131 NA
ATOM     16  N   UNL A   1      43.597  22.605  25.147  1.00  0.00    -0.062 NA
BRANCH  13  17
ATOM     17  C   UNL A   1      40.289  21.609  26.158  1.00  0.00     0.289 C 
BRANCH  17  18
ATOM     18  O   UNL A   1      39.191  22.402  26.642  1.00  0.00    -0.487 OA
BRANCH  18  19
ATOM     19  C   UNL A   1      38.049  22.467  25.892  1.00  0.00     0.119 A 
ATOM     20  C   UNL A   1      35.525  22.786  24.697  1.00  0.00    -0.024 A 
ATOM     21  C   UNL A   1      36.195  23.891  25.226  1.00  0.00     0.012 A 
ATOM     22  C   UNL A   1      36.169  21.548  24.678  1.00  0.00     0.012 A 
ATOM     23  C   UNL A   1      37.449  23.728  25.827  1.00  0.00     0.047 A 
ATOM     24  C   UNL A   1      37.438  21.400  25.241  1.00  0.00     0.047 A 
BRANCH  20  25
ATOM     25  C   UNL A   1      34.172  22.915  24.149  1.00  0.00     0.029 C 
ATOM     26  O   UNL A   1      30.397  23.292  27.459  1.00  0.00    -0.261 OA
ATOM     27  C   UNL A   1      31.134  23.209  26.500  1.00  0.00     0.290 C 
ATOM     28  N   UNL A   1      30.744  23.152  25.199  1.00  0.00    -0.282 N 
ATOM     29  S   UNL A   1      32.885  23.148  26.589  1.00  0.00    -0.022 SA
ATOM     30  C   UNL A   1      31.707  23.066  24.240  1.00  0.00     0.265 C 
ATOM     31  H   UNL A   1      29.790  23.170  24.956  1.00  0.00     0.174 HD
ATOM     32  C   UNL A   1      33.051  23.034  24.874  1.00  0.00     0.083 C 
ATOM     33  O   UNL A   1      31.490  23.008  23.039  1.00  0.00    -0.268 OA
ENDBRANCH  20  25
ENDBRANCH  18  19
ENDBRANCH  17  18
ENDBRANCH  13  17
ENDBRANCH   7  12
ENDBRANCH   3   6
ENDBRANCH   1   2
BRANCH   1  34
ATOM     34  C   UNL A   1      48.436  27.439  27.874  1.00  0.00     0.023 C 
BRANCH  34  35
ATOM     35  C   UNL A   1      47.777  26.179  28.457  1.00  0.00     0.023 C 
BRANCH  35  36
ATOM     36  C   UNL A   1      46.386  26.401  29.037  1.00  0.00     0.116 C 
BRANCH  36  37
ATOM     37  N   UNL A   1      45.877  25.232  29.758  1.00  0.00    -0.352 N 
ATOM     38  C   UNL A   1      44.908  25.192  30.744  1.00  0.00     0.251 C 
ATOM     39  H   UNL A   1      46.275  24.366  29.510  1.00  0.00     0.163 HD
ATOM     40  O   UNL A   1      44.843  24.263  31.537  1.00  0.00    -0.269 OA
BRANCH  38  41
ATOM     41  C   UNL A   1      43.928  26.288  30.801  1.00  0.00     0.039 A 
ATOM     42  C   UNL A   1      43.832  27.142  31.901  1.00  0.00     0.014 A 
ATOM     43  C   UNL A   1      43.120  26.465  29.682  1.00  0.00     0.014 A 
ATOM     44  C   UNL A   1      42.962  28.228  31.825  1.00  0.00     0.010 A 
ATOM     45  C   UNL A   1      42.408  27.623  29.538  1.00  0.00     0.010 A 
ATOM     46  C   UNL A   1      42.267  28.469  30.629  1.00  0.00    -0.014 A 
BRANCH  46  47
ATOM     47  C   UNL A   1      41.454  29.664  30.456  1.00  0.00     0.031 A 
ATOM     48  C   UNL A   1      42.214  30.880  30.066  1.00  0.00     0.074 A 
ATOM     49  C   UNL A   1      40.105  29.630  30.422  1.00  0.00     0.049 A 
ATOM     50  N   UNL A   1      42.390  31.948  30.767  1.00  0.00    -0.248 NA
ATOM     51  C   UNL A   1      42.972  30.861  28.804  1.00  0.00     0.031 C 
ATOM     52  C   UNL A   1      39.210  28.466  30.451  1.00  0.00     0.029 A 
ATOM     53  N   UNL A   1      39.240  30.656  30.224  1.00  0.00    -0.354 N 
ATOM     54  C   UNL A   1      43.122  32.819  29.968  1.00  0.00     0.074 A 
ATOM     55  C   UNL A   1      43.593  32.042  28.849  1.00  0.00     0.031 C 
ATOM     56  C   UNL A   1      37.981  28.830  30.020  1.00  0.00     0.029 A 
ATOM     57  C   UNL A   1      37.956  30.272  29.860  1.00  0.00     0.049 A 
ATOM     58  H   UNL A   1      39.501  31.599  30.330  1.00  0.00     0.167 HD
ATOM     59  C   UNL A   1      43.085  34.166  30.167  1.00  0.00     0.031 A 
ATOM     60  C   UNL A   1      36.963  31.084  29.419  1.00  0.00     0.031 A 
ATOM     61  C   UNL A   1      42.512  34.500  31.447  1.00  0.00     0.049 A 
ATOM     62  C   UNL A   1      37.310  32.464  29.836  1.00  0.00     0.074 A 
ATOM     63  C   UNL A   1      42.828  34.181  32.754  1.00  0.00     0.029 A 
ATOM     64  N   UNL A   1      41.195  34.899  31.467  1.00  0.00    -0.354 N 
ATOM     65  N   UNL A   1      37.342  32.842  31.083  1.00  0.00    -0.248 NA
ATOM     66  C   UNL A   1      38.099  33.271  28.917  1.00  0.00     0.031 C 
ATOM     67  C   UNL A   1      41.571  33.895  33.367  1.00  0.00     0.029 A 
ATOM     68  C   UNL A   1      40.566  34.155  32.433  1.00  0.00     0.049 A 
ATOM     69  H   UNL A   1      40.783  35.588  30.897  1.00  0.00     0.167 HD
ATOM     70  C   UNL A   1      38.482  33.628  31.182  1.00  0.00     0.074 A 
ATOM     71  C   UNL A   1      38.857  33.931  29.799  1.00  0.00     0.031 C 
ATOM     72  C   UNL A   1      39.190  33.713  32.348  1.00  0.00     0.031 A 
BRANCH  59  73
ATOM     73  C   UNL A   1      43.200  35.174  29.055  1.00  0.00    -0.014 A 
ATOM     74  C   UNL A   1      44.099  36.246  29.195  1.00  0.00     0.009 A 
ATOM     75  C   UNL A   1      42.268  35.262  28.003  1.00  0.00     0.009 A 
ATOM     76  C   UNL A   1      44.028  37.368  28.362  1.00  0.00     0.001 A 
ATOM     77  C   UNL A   1      42.221  36.362  27.144  1.00  0.00     0.001 A 
ATOM     78  C   UNL A   1      43.085  37.428  27.340  1.00  0.00     0.000 A 
ENDBRANCH  59  73
BRANCH  60  79
ATOM     79  C   UNL A   1      35.902  30.791  28.429  1.00  0.00    -0.014 A 
ATOM     80  C   UNL A   1      35.846  29.549  27.775  1.00  0.00     0.009 A 
ATOM     81  C   UNL A   1      34.779  31.633  28.323  1.00  0.00     0.009 A 
ATOM     82  C   UNL A   1      34.695  29.151  27.078  1.00  0.00     0.001 A 
ATOM     83  C   UNL A   1      33.632  31.238  27.625  1.00  0.00     0.001 A 
ATOM     84  C   UNL A   1      33.584  29.989  27.016  1.00  0.00     0.000 A 
ENDBRANCH  60  79
BRANCH  72  85
ATOM     85  C   UNL A   1      38.611  33.073  33.590  1.00  0.00    -0.014 A 
ATOM     86  C   UNL A   1      38.767  31.710  33.904  1.00  0.00     0.009 A 
ATOM     87  C   UNL A   1      38.036  33.909  34.560  1.00  0.00     0.009 A 
ATOM     88  C   UNL A   1      38.335  31.199  35.134  1.00  0.00     0.001 A 
ATOM     89  C   UNL A   1      37.624  33.404  35.795  1.00  0.00     0.001 A 
ATOM     90  C   UNL A   1      37.768  32.048  36.081  1.00  0.00     0.000 A 
ENDBRANCH  72  85
ENDBRANCH  46  47
ENDBRANCH  38  41
ENDBRANCH  36  37
ENDBRANCH  35  36
ENDBRANCH  34  35
ENDBRANCH   1  34
TORSDOF 16
ENDMDL
MODEL 3
REMARK VINA RESULT:     -11.5      3.626      9.470
REMARK SMILES O=C1NC(=O)/C(=C/c2ccc(OCc3cn(-c4ccc(C(=O)NCCCCNC(=O)c5ccc(-c6c7nc(c(-c8ccccc8)c8ccc([nH]8)c(-c8ccccc8)c8nc(c(-c9ccccc9)c9ccc6[nH]9)C=C8)C=C7)cc5)cc4)nn3)cc2)S1
REMARK SMILES IDX 24 1 23 2 21 3 22 4 20 6 17 7 18 8 80 9 19 10 79 11 16 12
REMARK SMILES IDX 14 13 15 14 82 15 81 16 13 17 12 18 11 19 8 20 9 21 84 22
REMARK SMILES IDX 10 23 83 24 7 25 1 26 2 27 3 28 85 29 4 30 6 32 5 33 25 34
REMARK SMILES IDX 26 35 27 36 28 37 29 38 30 40 31 41 32 42 78 43 33 44 77 45
REMARK SMILES IDX 34 46 35 47 36 48 71 49 37 50 76 51 70 52 72 53 38 54 75 55
REMARK SMILES IDX 69 56 68 57 39 59 61 60 46 61 60 62 47 63 50 64 59 65 73 66
REMARK SMILES IDX 48 67 49 68 58 70 74 71 51 72 40 73 41 74 45 75 42 76 44 77
REMARK SMILES IDX 43 78 62 79 63 80 67 81 64 82 66 83 65 84 52 85 53 86 57 87
REMARK SMILES IDX 54 88 56 89 55 90
REMARK H PARENT 23 5 3 31 28 39 72 58 50 69
REMARK Flexibility Score: inf
ROOT
ATOM      1  C   UNL A   1      31.384  29.868  25.006  1.00  0.00     0.116 C 
ENDROOT
BRANCH   1   2
ATOM      2  N   UNL A   1      30.680  29.872  23.739  1.00  0.00    -0.352 N 
ATOM      3  C   UNL A   1      30.357  28.887  22.842  1.00  0.00     0.251 C 
ATOM      4  O   UNL A   1      29.740  29.238  21.834  1.00  0.00    -0.269 OA
ATOM      5  H   UNL A   1      30.371  30.766  23.467  1.00  0.00     0.163 HD
BRANCH   3   6
ATOM      6  C   UNL A   1      30.646  27.436  23.049  1.00  0.00     0.039 A 
ATOM      7  C   UNL A   1      31.215  24.766  23.717  1.00  0.00     0.066 A 
ATOM      8  C   UNL A   1      30.226  25.461  24.418  1.00  0.00     0.029 A 
ATOM      9  C   UNL A   1      31.866  25.369  22.641  1.00  0.00     0.029 A 
ATOM     10  C   UNL A   1      29.971  26.799  24.105  1.00  0.00     0.016 A 
ATOM     11  C   UNL A   1      31.529  26.675  22.278  1.00  0.00     0.016 A 
BRANCH   7  12
ATOM     12  N   UNL A   1      31.536  23.445  24.080  1.00  0.00    -0.220 N 
ATOM     13  C   UNL A   1      32.285  21.399  24.178  1.00  0.00     0.120 A 
ATOM     14  C   UNL A   1      32.360  22.554  23.429  1.00  0.00     0.144 A 
ATOM     15  N   UNL A   1      31.473  21.638  25.257  1.00  0.00    -0.131 NA
ATOM     16  N   UNL A   1      31.056  22.890  25.209  1.00  0.00    -0.062 NA
BRANCH  13  17
ATOM     17  C   UNL A   1      33.004  20.096  24.043  1.00  0.00     0.289 C 
BRANCH  17  18
ATOM     18  O   UNL A   1      34.140  19.919  24.908  1.00  0.00    -0.487 OA
BRANCH  18  19
ATOM     19  C   UNL A   1      34.880  21.018  25.251  1.00  0.00     0.119 A 
ATOM     20  C   UNL A   1      36.742  23.017  25.911  1.00  0.00    -0.024 A 
ATOM     21  C   UNL A   1      36.854  22.325  24.703  1.00  0.00     0.012 A 
ATOM     22  C   UNL A   1      35.639  22.774  26.731  1.00  0.00     0.012 A 
ATOM     23  C   UNL A   1      35.929  21.325  24.381  1.00  0.00     0.047 A 
ATOM     24  C   UNL A   1      34.697  21.805  26.383  1.00  0.00     0.047 A 
BRANCH  20  25
ATOM     25  C   UNL A   1      37.751  24.001  26.314  1.00  0.00     0.029 C 
ATOM     26  O   UNL A   1      42.161  22.204  27.950  1.00  0.00    -0.261 OA
ATOM     27  C   UNL A   1      41.193  22.848  27.605  1.00  0.00     0.290 C 
ATOM     28  N   UNL A   1      41.067  24.199  27.682  1.00  0.00    -0.282 N 
ATOM     29  S   UNL A   1      39.730  22.163  26.921  1.00  0.00    -0.022 SA
ATOM     30  C   UNL A   1      39.909  24.765  27.243  1.00  0.00     0.265 C 
ATOM     31  H   UNL A   1      41.794  24.755  28.047  1.00  0.00     0.174 HD
ATOM     32  C   UNL A   1      38.979  23.709  26.765  1.00  0.00     0.083 C 
ATOM     33  O   UNL A   1      39.672  25.964  27.257  1.00  0.00    -0.268 OA
ENDBRANCH  20  25
ENDBRANCH  18  19
ENDBRANCH  17  18
ENDBRANCH  13  17
ENDBRANCH   7  12
ENDBRANCH   3   6
ENDBRANCH   1   2
BRANCH   1  34
ATOM     34  C   UNL A   1      32.843  29.432  24.827  1.00  0.00     0.023 C 
BRANCH  34  35
ATOM     35  C   UNL A   1      33.314  28.345  25.805  1.00  0.00     0.023 C 
BRANCH  35  36
ATOM     36  C   UNL A   1      34.274  28.832  26.883  1.00  0.00     0.116 C 
BRANCH  36  37
ATOM     37  N   UNL A   1      34.008  30.211  27.301  1.00  0.00    -0.352 N 
ATOM     38  C   UNL A   1      34.786  31.023  28.106  1.00  0.00     0.251 C 
ATOM     39  H   UNL A   1      33.171  30.608  26.969  1.00  0.00     0.163 HD
ATOM     40  O   UNL A   1      34.305  31.976  28.704  1.00  0.00    -0.269 OA
BRANCH  38  41
ATOM     41  C   UNL A   1      36.224  30.733  28.205  1.00  0.00     0.039 A 
ATOM     42  C   UNL A   1      37.116  31.601  28.838  1.00  0.00     0.014 A 
ATOM     43  C   UNL A   1      36.658  29.523  27.672  1.00  0.00     0.014 A 
ATOM     44  C   UNL A   1      38.439  31.195  28.996  1.00  0.00     0.010 A 
ATOM     45  C   UNL A   1      37.903  29.052  27.985  1.00  0.00     0.010 A 
ATOM     46  C   UNL A   1      38.818  29.909  28.580  1.00  0.00    -0.014 A 
BRANCH  46  47
ATOM     47  C   UNL A   1      40.152  29.391  28.847  1.00  0.00     0.031 A 
ATOM     48  C   UNL A   1      40.391  28.990  30.258  1.00  0.00     0.074 A 
ATOM     49  C   UNL A   1      41.024  29.081  27.865  1.00  0.00     0.049 A 
ATOM     50  N   UNL A   1      41.196  29.542  31.101  1.00  0.00    -0.248 NA
ATOM     51  C   UNL A   1      39.549  27.931  30.841  1.00  0.00     0.031 C 
ATOM     52  C   UNL A   1      40.820  29.097  26.410  1.00  0.00     0.029 A 
ATOM     53  N   UNL A   1      42.269  28.554  27.977  1.00  0.00    -0.354 N 
ATOM     54  C   UNL A   1      41.109  28.792  32.268  1.00  0.00     0.074 A 
ATOM     55  C   UNL A   1      39.967  27.927  32.108  1.00  0.00     0.031 C 
ATOM     56  C   UNL A   1      41.789  28.369  25.810  1.00  0.00     0.029 A 
ATOM     57  C   UNL A   1      42.769  27.991  26.810  1.00  0.00     0.049 A 
ATOM     58  H   UNL A   1      42.778  28.568  28.820  1.00  0.00     0.167 HD
ATOM     59  C   UNL A   1      42.123  28.773  33.177  1.00  0.00     0.031 A 
ATOM     60  C   UNL A   1      43.889  27.235  26.692  1.00  0.00     0.031 A 
ATOM     61  C   UNL A   1      43.065  29.840  32.946  1.00  0.00     0.049 A 
ATOM     62  C   UNL A   1      44.724  27.503  27.888  1.00  0.00     0.074 A 
ATOM     63  C   UNL A   1      42.963  31.217  32.888  1.00  0.00     0.029 A 
ATOM     64  N   UNL A   1      44.231  29.523  32.288  1.00  0.00    -0.354 N 
ATOM     65  N   UNL A   1      45.284  28.656  28.120  1.00  0.00    -0.248 NA
ATOM     66  C   UNL A   1      44.525  26.657  29.056  1.00  0.00     0.031 C 
ATOM     67  C   UNL A   1      43.763  31.589  31.767  1.00  0.00     0.029 A 
ATOM     68  C   UNL A   1      44.380  30.438  31.274  1.00  0.00     0.049 A 
ATOM     69  H   UNL A   1      44.843  28.782  32.502  1.00  0.00     0.167 HD
ATOM     70  C   UNL A   1      45.092  28.872  29.478  1.00  0.00     0.074 A 
ATOM     71  C   UNL A   1      44.700  27.569  30.019  1.00  0.00     0.031 C 
ATOM     72  C   UNL A   1      44.973  30.134  29.990  1.00  0.00     0.031 A 
BRANCH  59  73
ATOM     73  C   UNL A   1      42.466  27.571  34.015  1.00  0.00    -0.014 A 
ATOM     74  C   UNL A   1      43.455  26.681  33.560  1.00  0.00     0.009 A 
ATOM     75  C   UNL A   1      41.669  27.137  35.092  1.00  0.00     0.009 A 
ATOM     76  C   UNL A   1      43.596  25.405  34.117  1.00  0.00     0.001 A 
ATOM     77  C   UNL A   1      41.835  25.880  35.677  1.00  0.00     0.001 A 
ATOM     78  C   UNL A   1      42.782  25.003  35.172  1.00  0.00     0.000 A 
ENDBRANCH  59  73
BRANCH  60  79
ATOM     79  C   UNL A   1      44.145  26.101  25.775  1.00  0.00    -0.014 A 
ATOM     80  C   UNL A   1      45.456  25.709  25.458  1.00  0.00     0.009 A 
ATOM     81  C   UNL A   1      43.101  25.225  25.423  1.00  0.00     0.009 A 
ATOM     82  C   UNL A   1      45.712  24.472  24.848  1.00  0.00     0.001 A 
ATOM     83  C   UNL A   1      43.356  23.992  24.812  1.00  0.00     0.001 A 
ATOM     84  C   UNL A   1      44.664  23.608  24.539  1.00  0.00     0.000 A 
ENDBRANCH  60  79
BRANCH  72  85
ATOM     85  C   UNL A   1      45.231  31.310  29.073  1.00  0.00    -0.014 A 
ATOM     86  C   UNL A   1      46.469  31.976  29.000  1.00  0.00     0.009 A 
ATOM     87  C   UNL A   1      44.247  31.645  28.132  1.00  0.00     0.009 A 
ATOM     88  C   UNL A   1      46.700  32.964  28.035  1.00  0.00     0.001 A 
ATOM     89  C   UNL A   1      44.484  32.616  27.156  1.00  0.00     0.001 A 
ATOM     90  C   UNL A   1      45.708  33.280  27.110  1.00  0.00     0.000 A 
ENDBRANCH  72  85
ENDBRANCH  46  47
ENDBRANCH  38  41
ENDBRANCH  36  37
ENDBRANCH  35  36
ENDBRANCH  34  35
ENDBRANCH   1  34
TORSDOF 16
ENDMDL
