MODEL 1
REMARK VINA RESULT:     -10.8      0.000      0.000
REMARK SMILES Cc1nn(CC(F)F)c2c1c(C(F)(F)F)cc(=O)n2CC(=O)NCCCCNC(=O)c1ccc(-c2c3nc(c(-c4ccccc4)c4ccc([nH]4)c(-c4ccccc4)c4nc(c(-c5ccccc5)c5ccc2[nH]5)C=C4)C=C3)cc1
REMARK SMILES IDX 25 1 24 2 23 3 21 4 22 5 20 7 19 8 1 9 2 10 3 11 10 12 4 13
REMARK SMILES IDX 9 14 11 15 16 16 17 17 18 18 5 19 6 20 7 21 8 22 12 23 13 24
REMARK SMILES IDX 14 25 15 26 26 27 27 28 28 29 29 30 30 32 31 33 32 34 78 35
REMARK SMILES IDX 33 36 77 37 34 38 35 39 36 40 71 41 37 42 76 43 70 44 72 45
REMARK SMILES IDX 38 46 75 47 69 48 68 49 39 51 61 52 46 53 60 54 47 55 50 56
REMARK SMILES IDX 59 57 73 58 48 59 49 60 58 62 74 63 51 64 40 65 41 66 45 67
REMARK SMILES IDX 42 68 44 69 43 70 62 71 63 72 67 73 64 74 66 75 65 76 52 77
REMARK SMILES IDX 53 78 57 79 54 80 56 81 55 82
REMARK H PARENT 23 6 28 31 72 50 50 61
REMARK Flexibility Score: inf
ROOT
ATOM      1  C   UNL A   1      40.059  33.575  33.679  1.00  0.00     0.023 C 
ENDROOT
BRANCH   1   2
ATOM      2  C   UNL A   1      38.931  33.677  32.657  1.00  0.00     0.116 C 
BRANCH   2   3
ATOM      3  N   UNL A   1      37.832  34.492  33.126  1.00  0.00    -0.355 N 
ATOM      4  C   UNL A   1      36.691  34.108  33.758  1.00  0.00     0.240 C 
ATOM      5  O   UNL A   1      36.064  34.988  34.358  1.00  0.00    -0.273 OA
ATOM      6  H   UNL A   1      37.923  35.459  32.966  1.00  0.00     0.163 HD
BRANCH   4   7
ATOM      7  C   UNL A   1      36.246  32.645  33.838  1.00  0.00     0.227 C 
BRANCH   7   8
ATOM      8  N   UNL A   1      36.350  31.849  32.612  1.00  0.00    -0.283 N 
ATOM      9  C   UNL A   1      34.946  31.618  27.781  1.00  0.00     0.069 C 
ATOM     10  C   UNL A   1      35.093  31.907  29.232  1.00  0.00     0.069 A 
ATOM     11  N   UNL A   1      34.350  32.891  29.745  1.00  0.00    -0.175 NA
ATOM     12  C   UNL A   1      35.917  31.339  30.230  1.00  0.00     0.053 A 
ATOM     13  N   UNL A   1      34.705  32.977  31.045  1.00  0.00    -0.243 N 
ATOM     14  C   UNL A   1      35.688  32.072  31.388  1.00  0.00     0.142 A 
ATOM     15  C   UNL A   1      36.862  30.272  30.269  1.00  0.00     0.074 A 
ATOM     16  C   UNL A   1      37.449  29.956  31.436  1.00  0.00     0.085 A 
ATOM     17  C   UNL A   1      37.174  30.716  32.679  1.00  0.00     0.253 A 
ATOM     18  O   UNL A   1      37.740  30.325  33.707  1.00  0.00    -0.269 OA
BRANCH  13  19
ATOM     19  C   UNL A   1      34.004  33.977  31.813  1.00  0.00     0.219 C 
BRANCH  19  20
ATOM     20  C   UNL A   1      33.813  35.273  31.068  1.00  0.00     0.363 C 
ATOM     21  F   UNL A   1      32.686  35.252  30.316  1.00  0.00    -0.208 F 
ATOM     22  F   UNL A   1      33.644  36.279  31.967  1.00  0.00    -0.208 F 
ENDBRANCH  19  20
ENDBRANCH  13  19
BRANCH  15  23
ATOM     23  C   UNL A   1      37.182  29.532  29.012  1.00  0.00     0.417 C 
ATOM     24  F   UNL A   1      37.792  30.321  28.092  1.00  0.00    -0.166 F 
ATOM     25  F   UNL A   1      37.988  28.463  29.231  1.00  0.00    -0.166 F 
ATOM     26  F   UNL A   1      36.066  29.042  28.405  1.00  0.00    -0.166 F 
ENDBRANCH  15  23
ENDBRANCH   7   8
ENDBRANCH   4   7
ENDBRANCH   2   3
ENDBRANCH   1   2
BRANCH   1  27
ATOM     27  C   UNL A   1      41.057  34.744  33.670  1.00  0.00     0.023 C 
BRANCH  27  28
ATOM     28  C   UNL A   1      42.235  34.594  32.703  1.00  0.00     0.116 C 
BRANCH  28  29
ATOM     29  N   UNL A   1      41.902  34.899  31.326  1.00  0.00    -0.352 N 
ATOM     30  C   UNL A   1      41.540  34.175  30.226  1.00  0.00     0.251 C 
ATOM     31  H   UNL A   1      41.949  35.865  31.137  1.00  0.00     0.163 HD
ATOM     32  O   UNL A   1      41.160  34.839  29.256  1.00  0.00    -0.269 OA
BRANCH  30  33
ATOM     33  C   UNL A   1      41.617  32.695  30.083  1.00  0.00     0.039 A 
ATOM     34  C   UNL A   1      40.564  31.800  30.247  1.00  0.00     0.014 A 
ATOM     35  C   UNL A   1      42.902  32.173  29.815  1.00  0.00     0.014 A 
ATOM     36  C   UNL A   1      40.804  30.425  30.214  1.00  0.00     0.010 A 
ATOM     37  C   UNL A   1      43.147  30.802  29.779  1.00  0.00     0.010 A 
ATOM     38  C   UNL A   1      42.099  29.923  30.013  1.00  0.00    -0.014 A 
BRANCH  38  39
ATOM     39  C   UNL A   1      42.260  28.474  29.876  1.00  0.00     0.031 A 
ATOM     40  C   UNL A   1      42.940  27.852  31.040  1.00  0.00     0.074 A 
ATOM     41  C   UNL A   1      41.808  27.704  28.863  1.00  0.00     0.049 A 
ATOM     42  N   UNL A   1      44.137  27.371  31.066  1.00  0.00    -0.248 NA
ATOM     43  C   UNL A   1      42.282  27.906  32.354  1.00  0.00     0.031 C 
ATOM     44  C   UNL A   1      40.909  28.088  27.773  1.00  0.00     0.029 A 
ATOM     45  N   UNL A   1      42.005  26.366  28.638  1.00  0.00    -0.354 N 
ATOM     46  C   UNL A   1      44.320  26.877  32.352  1.00  0.00     0.074 A 
ATOM     47  C   UNL A   1      43.219  27.371  33.139  1.00  0.00     0.031 C 
ATOM     48  C   UNL A   1      40.460  26.976  27.145  1.00  0.00     0.029 A 
ATOM     49  C   UNL A   1      41.161  25.818  27.679  1.00  0.00     0.049 A 
ATOM     50  H   UNL A   1      42.686  25.839  29.115  1.00  0.00     0.167 HD
ATOM     51  C   UNL A   1      45.218  25.885  32.593  1.00  0.00     0.031 A 
ATOM     52  C   UNL A   1      41.034  24.506  27.357  1.00  0.00     0.031 A 
ATOM     53  C   UNL A   1      46.127  25.720  31.488  1.00  0.00     0.049 A 
ATOM     54  C   UNL A   1      42.293  23.831  27.722  1.00  0.00     0.074 A 
ATOM     55  C   UNL A   1      47.144  26.451  30.916  1.00  0.00     0.029 A 
ATOM     56  N   UNL A   1      45.724  24.787  30.567  1.00  0.00    -0.354 N 
ATOM     57  N   UNL A   1      43.423  24.039  27.113  1.00  0.00    -0.248 NA
ATOM     58  C   UNL A   1      42.383  23.111  28.984  1.00  0.00     0.031 C 
ATOM     59  C   UNL A   1      47.139  26.102  29.534  1.00  0.00     0.029 A 
ATOM     60  C   UNL A   1      46.162  25.129  29.317  1.00  0.00     0.049 A 
ATOM     61  H   UNL A   1      45.196  23.984  30.777  1.00  0.00     0.167 HD
ATOM     62  C   UNL A   1      44.372  23.902  28.107  1.00  0.00     0.074 A 
ATOM     63  C   UNL A   1      43.705  23.153  29.165  1.00  0.00     0.031 C 
ATOM     64  C   UNL A   1      45.489  24.685  28.111  1.00  0.00     0.031 A 
BRANCH  51  65
ATOM     65  C   UNL A   1      44.958  24.753  33.561  1.00  0.00    -0.014 A 
ATOM     66  C   UNL A   1      43.826  23.919  33.486  1.00  0.00     0.009 A 
ATOM     67  C   UNL A   1      46.013  24.308  34.381  1.00  0.00     0.009 A 
ATOM     68  C   UNL A   1      43.748  22.706  34.177  1.00  0.00     0.001 A 
ATOM     69  C   UNL A   1      45.953  23.076  35.045  1.00  0.00     0.001 A 
ATOM     70  C   UNL A   1      44.821  22.274  34.941  1.00  0.00     0.000 A 
ENDBRANCH  51  65
BRANCH  52  71
ATOM     71  C   UNL A   1      39.822  23.721  27.024  1.00  0.00    -0.014 A 
ATOM     72  C   UNL A   1      39.945  22.396  26.576  1.00  0.00     0.009 A 
ATOM     73  C   UNL A   1      38.590  24.371  26.813  1.00  0.00     0.009 A 
ATOM     74  C   UNL A   1      38.909  21.770  25.872  1.00  0.00     0.001 A 
ATOM     75  C   UNL A   1      37.556  23.746  26.103  1.00  0.00     0.001 A 
ATOM     76  C   UNL A   1      37.724  22.454  25.613  1.00  0.00     0.000 A 
ENDBRANCH  52  71
BRANCH  64  77
ATOM     77  C   UNL A   1      45.931  25.307  26.812  1.00  0.00    -0.014 A 
ATOM     78  C   UNL A   1      46.966  24.665  26.110  1.00  0.00     0.009 A 
ATOM     79  C   UNL A   1      45.465  26.540  26.327  1.00  0.00     0.009 A 
ATOM     80  C   UNL A   1      47.535  25.243  24.977  1.00  0.00     0.001 A 
ATOM     81  C   UNL A   1      46.013  27.105  25.171  1.00  0.00     0.001 A 
ATOM     82  C   UNL A   1      47.057  26.462  24.505  1.00  0.00     0.000 A 
ENDBRANCH  64  77
ENDBRANCH  38  39
ENDBRANCH  30  33
ENDBRANCH  28  29
ENDBRANCH  27  28
ENDBRANCH   1  27
TORSDOF 15
ENDMDL
MODEL 2
REMARK VINA RESULT:     -10.7      4.992     10.243
REMARK SMILES Cc1nn(CC(F)F)c2c1c(C(F)(F)F)cc(=O)n2CC(=O)NCCCCNC(=O)c1ccc(-c2c3nc(c(-c4ccccc4)c4ccc([nH]4)c(-c4ccccc4)c4nc(c(-c5ccccc5)c5ccc2[nH]5)C=C4)C=C3)cc1
REMARK SMILES IDX 25 1 24 2 23 3 21 4 22 5 20 7 19 8 1 9 2 10 3 11 10 12 4 13
REMARK SMILES IDX 9 14 11 15 16 16 17 17 18 18 5 19 6 20 7 21 8 22 12 23 13 24
REMARK SMILES IDX 14 25 15 26 26 27 27 28 28 29 29 30 30 32 31 33 32 34 78 35
REMARK SMILES IDX 33 36 77 37 34 38 35 39 36 40 71 41 37 42 76 43 70 44 72 45
REMARK SMILES IDX 38 46 75 47 69 48 68 49 39 51 61 52 46 53 60 54 47 55 50 56
REMARK SMILES IDX 59 57 73 58 48 59 49 60 58 62 74 63 51 64 40 65 41 66 45 67
REMARK SMILES IDX 42 68 44 69 43 70 62 71 63 72 67 73 64 74 66 75 65 76 52 77
REMARK SMILES IDX 53 78 57 79 54 80 56 81 55 82
REMARK H PARENT 23 6 28 31 72 50 50 61
REMARK Flexibility Score: inf
ROOT
ATOM      1  C   UNL A   1      36.666  22.958  23.319  1.00  0.00     0.023 C 
ENDROOT
BRANCH   1   2
ATOM      2  C   UNL A   1      35.265  23.505  23.577  1.00  0.00     0.116 C 
BRANCH   2   3
ATOM      3  N   UNL A   1      34.323  22.468  23.931  1.00  0.00    -0.355 N 
ATOM      4  C   UNL A   1      33.067  22.255  23.457  1.00  0.00     0.240 C 
ATOM      5  O   UNL A   1      32.582  21.134  23.648  1.00  0.00    -0.273 OA
ATOM      6  H   UNL A   1      34.634  21.827  24.610  1.00  0.00     0.163 HD
BRANCH   4   7
ATOM      7  C   UNL A   1      32.314  23.294  22.620  1.00  0.00     0.227 C 
BRANCH   7   8
ATOM      8  N   UNL A   1      32.416  24.693  23.047  1.00  0.00    -0.283 N 
ATOM      9  C   UNL A   1      31.668  27.830  26.915  1.00  0.00     0.069 C 
ATOM     10  C   UNL A   1      31.673  26.698  25.951  1.00  0.00     0.069 A 
ATOM     11  N   UNL A   1      31.089  25.558  26.333  1.00  0.00    -0.175 NA
ATOM     12  C   UNL A   1      32.216  26.563  24.653  1.00  0.00     0.053 A 
ATOM     13  N   UNL A   1      31.274  24.695  25.312  1.00  0.00    -0.243 N 
ATOM     14  C   UNL A   1      31.989  25.247  24.270  1.00  0.00     0.142 A 
ATOM     15  C   UNL A   1      32.902  27.431  23.754  1.00  0.00     0.074 A 
ATOM     16  C   UNL A   1      33.245  26.978  22.536  1.00  0.00     0.085 A 
ATOM     17  C   UNL A   1      32.968  25.584  22.115  1.00  0.00     0.253 A 
ATOM     18  O   UNL A   1      33.293  25.274  20.963  1.00  0.00    -0.269 OA
BRANCH  13  19
ATOM     19  C   UNL A   1      30.699  23.384  25.498  1.00  0.00     0.219 C 
BRANCH  19  20
ATOM     20  C   UNL A   1      30.271  23.120  26.919  1.00  0.00     0.363 C 
ATOM     21  F   UNL A   1      29.242  22.240  26.973  1.00  0.00    -0.208 F 
ATOM     22  F   UNL A   1      31.300  22.534  27.589  1.00  0.00    -0.208 F 
ENDBRANCH  19  20
ENDBRANCH  13  19
BRANCH  15  23
ATOM     23  C   UNL A   1      33.229  28.823  24.186  1.00  0.00     0.417 C 
ATOM     24  F   UNL A   1      34.045  28.846  25.270  1.00  0.00    -0.166 F 
ATOM     25  F   UNL A   1      33.832  29.542  23.206  1.00  0.00    -0.166 F 
ATOM     26  F   UNL A   1      32.118  29.527  24.538  1.00  0.00    -0.166 F 
ENDBRANCH  15  23
ENDBRANCH   7   8
ENDBRANCH   4   7
ENDBRANCH   2   3
ENDBRANCH   1   2
BRANCH   1  27
ATOM     27  C   UNL A   1      37.080  21.776  24.210  1.00  0.00     0.023 C 
BRANCH  27  28
ATOM     28  C   UNL A   1      37.622  22.154  25.591  1.00  0.00     0.116 C 
BRANCH  28  29
ATOM     29  N   UNL A   1      39.019  21.821  25.782  1.00  0.00    -0.352 N 
ATOM     30  C   UNL A   1      40.066  22.361  26.474  1.00  0.00     0.251 C 
ATOM     31  H   UNL A   1      39.277  21.005  25.294  1.00  0.00     0.163 HD
ATOM     32  O   UNL A   1      41.083  21.663  26.527  1.00  0.00    -0.269 OA
BRANCH  30  33
ATOM     33  C   UNL A   1      40.101  23.710  27.103  1.00  0.00     0.039 A 
ATOM     34  C   UNL A   1      39.153  24.716  26.938  1.00  0.00     0.014 A 
ATOM     35  C   UNL A   1      41.243  23.990  27.887  1.00  0.00     0.014 A 
ATOM     36  C   UNL A   1      39.377  25.982  27.482  1.00  0.00     0.010 A 
ATOM     37  C   UNL A   1      41.470  25.252  28.432  1.00  0.00     0.010 A 
ATOM     38  C   UNL A   1      40.549  26.263  28.201  1.00  0.00    -0.014 A 
BRANCH  38  39
ATOM     39  C   UNL A   1      40.665  27.576  28.838  1.00  0.00     0.031 A 
ATOM     40  C   UNL A   1      41.680  28.447  28.195  1.00  0.00     0.074 A 
ATOM     41  C   UNL A   1      39.920  28.044  29.862  1.00  0.00     0.049 A 
ATOM     42  N   UNL A   1      42.827  28.783  28.682  1.00  0.00    -0.248 NA
ATOM     43  C   UNL A   1      41.470  28.865  26.801  1.00  0.00     0.031 C 
ATOM     44  C   UNL A   1      38.720  27.444  30.451  1.00  0.00     0.029 A 
ATOM     45  N   UNL A   1      40.042  29.222  30.554  1.00  0.00    -0.354 N 
ATOM     46  C   UNL A   1      43.408  29.622  27.740  1.00  0.00     0.074 A 
ATOM     47  C   UNL A   1      42.610  29.511  26.546  1.00  0.00     0.031 C 
ATOM     48  C   UNL A   1      38.102  28.354  31.240  1.00  0.00     0.029 A 
ATOM     49  C   UNL A   1      38.941  29.538  31.342  1.00  0.00     0.049 A 
ATOM     50  H   UNL A   1      40.842  29.794  30.498  1.00  0.00     0.167 HD
ATOM     51  C   UNL A   1      44.341  30.540  28.111  1.00  0.00     0.031 A 
ATOM     52  C   UNL A   1      38.725  30.696  32.016  1.00  0.00     0.031 A 
ATOM     53  C   UNL A   1      44.856  30.264  29.427  1.00  0.00     0.049 A 
ATOM     54  C   UNL A   1      40.038  31.313  32.280  1.00  0.00     0.074 A 
ATOM     55  C   UNL A   1      45.637  29.290  30.008  1.00  0.00     0.029 A 
ATOM     56  N   UNL A   1      44.188  30.910  30.435  1.00  0.00    -0.354 N 
ATOM     57  N   UNL A   1      40.917  30.811  33.097  1.00  0.00    -0.248 NA
ATOM     58  C   UNL A   1      40.526  32.369  31.405  1.00  0.00     0.031 C 
ATOM     59  C   UNL A   1      45.198  29.201  31.361  1.00  0.00     0.029 A 
ATOM     60  C   UNL A   1      44.207  30.159  31.579  1.00  0.00     0.049 A 
ATOM     61  H   UNL A   1      43.756  31.790  30.349  1.00  0.00     0.167 HD
ATOM     62  C   UNL A   1      42.132  31.142  32.529  1.00  0.00     0.074 A 
ATOM     63  C   UNL A   1      41.837  32.244  31.621  1.00  0.00     0.031 C 
ATOM     64  C   UNL A   1      43.189  30.284  32.605  1.00  0.00     0.031 A 
BRANCH  51  65
ATOM     65  C   UNL A   1      44.406  31.934  27.528  1.00  0.00    -0.014 A 
ATOM     66  C   UNL A   1      44.743  32.194  26.186  1.00  0.00     0.009 A 
ATOM     67  C   UNL A   1      43.819  32.995  28.245  1.00  0.00     0.009 A 
ATOM     68  C   UNL A   1      44.503  33.433  25.585  1.00  0.00     0.001 A 
ATOM     69  C   UNL A   1      43.544  34.225  27.635  1.00  0.00     0.001 A 
ATOM     70  C   UNL A   1      43.884  34.443  26.304  1.00  0.00     0.000 A 
ENDBRANCH  51  65
BRANCH  52  71
ATOM     71  C   UNL A   1      37.474  31.466  32.208  1.00  0.00    -0.014 A 
ATOM     72  C   UNL A   1      36.936  32.208  31.144  1.00  0.00     0.009 A 
ATOM     73  C   UNL A   1      37.008  31.751  33.506  1.00  0.00     0.009 A 
ATOM     74  C   UNL A   1      36.029  33.251  31.374  1.00  0.00     0.001 A 
ATOM     75  C   UNL A   1      36.105  32.799  33.736  1.00  0.00     0.001 A 
ATOM     76  C   UNL A   1      35.634  33.562  32.672  1.00  0.00     0.000 A 
ENDBRANCH  52  71
BRANCH  64  77
ATOM     77  C   UNL A   1      43.196  29.253  33.705  1.00  0.00    -0.014 A 
ATOM     78  C   UNL A   1      43.894  29.571  34.881  1.00  0.00     0.009 A 
ATOM     79  C   UNL A   1      42.658  27.961  33.579  1.00  0.00     0.009 A 
ATOM     80  C   UNL A   1      44.074  28.626  35.891  1.00  0.00     0.001 A 
ATOM     81  C   UNL A   1      42.810  27.023  34.606  1.00  0.00     0.001 A 
ATOM     82  C   UNL A   1      43.529  27.353  35.755  1.00  0.00     0.000 A 
ENDBRANCH  64  77
ENDBRANCH  38  39
ENDBRANCH  30  33
ENDBRANCH  28  29
ENDBRANCH  27  28
ENDBRANCH   1  27
TORSDOF 15
ENDMDL
MODEL 3
REMARK VINA RESULT:     -10.7      4.715     10.121
REMARK SMILES Cc1nn(CC(F)F)c2c1c(C(F)(F)F)cc(=O)n2CC(=O)NCCCCNC(=O)c1ccc(-c2c3nc(c(-c4ccccc4)c4ccc([nH]4)c(-c4ccccc4)c4nc(c(-c5ccccc5)c5ccc2[nH]5)C=C4)C=C3)cc1
REMARK SMILES IDX 25 1 24 2 23 3 21 4 22 5 20 7 19 8 1 9 2 10 3 11 10 12 4 13
REMARK SMILES IDX 9 14 11 15 16 16 17 17 18 18 5 19 6 20 7 21 8 22 12 23 13 24
REMARK SMILES IDX 14 25 15 26 26 27 27 28 28 29 29 30 30 32 31 33 32 34 78 35
REMARK SMILES IDX 33 36 77 37 34 38 35 39 36 40 71 41 37 42 76 43 70 44 72 45
REMARK SMILES IDX 38 46 75 47 69 48 68 49 39 51 61 52 46 53 60 54 47 55 50 56
REMARK SMILES IDX 59 57 73 58 48 59 49 60 58 62 74 63 51 64 40 65 41 66 45 67
REMARK SMILES IDX 42 68 44 69 43 70 62 71 63 72 67 73 64 74 66 75 65 76 52 77
REMARK SMILES IDX 53 78 57 79 54 80 56 81 55 82
REMARK H PARENT 23 6 28 31 72 50 50 61
REMARK Flexibility Score: inf
ROOT
ATOM      1  C   UNL A   1      37.377  23.347  25.177  1.00  0.00     0.023 C 
ENDROOT
BRANCH   1   2
ATOM      2  C   UNL A   1      36.731  21.964  25.179  1.00  0.00     0.116 C 
BRANCH   2   3
ATOM      3  N   UNL A   1      35.799  21.791  26.271  1.00  0.00    -0.355 N 
ATOM      4  C   UNL A   1      34.442  21.718  26.234  1.00  0.00     0.240 C 
ATOM      5  O   UNL A   1      33.883  21.237  27.226  1.00  0.00    -0.273 OA
ATOM      6  H   UNL A   1      36.204  21.715  27.165  1.00  0.00     0.163 HD
BRANCH   4   7
ATOM      7  C   UNL A   1      33.630  22.095  24.991  1.00  0.00     0.227 C 
BRANCH   7   8
ATOM      8  N   UNL A   1      33.496  23.523  24.692  1.00  0.00    -0.283 N 
ATOM      9  C   UNL A   1      31.682  27.890  26.424  1.00  0.00     0.069 C 
ATOM     10  C   UNL A   1      31.996  26.465  26.142  1.00  0.00     0.069 A 
ATOM     11  N   UNL A   1      31.476  25.544  26.959  1.00  0.00    -0.175 NA
ATOM     12  C   UNL A   1      32.789  25.849  25.147  1.00  0.00     0.053 A 
ATOM     13  N   UNL A   1      31.946  24.358  26.517  1.00  0.00    -0.243 N 
ATOM     14  C   UNL A   1      32.784  24.490  25.431  1.00  0.00     0.142 A 
ATOM     15  C   UNL A   1      33.538  26.315  24.027  1.00  0.00     0.074 A 
ATOM     16  C   UNL A   1      34.156  25.423  23.233  1.00  0.00     0.085 A 
ATOM     17  C   UNL A   1      34.117  23.968  23.515  1.00  0.00     0.253 A 
ATOM     18  O   UNL A   1      34.690  23.228  22.707  1.00  0.00    -0.269 OA
BRANCH  13  19
ATOM     19  C   UNL A   1      31.491  23.201  27.250  1.00  0.00     0.219 C 
BRANCH  19  20
ATOM     20  C   UNL A   1      30.300  22.528  26.618  1.00  0.00     0.363 C 
ATOM     21  F   UNL A   1      29.150  22.850  27.258  1.00  0.00    -0.208 F 
ATOM     22  F   UNL A   1      30.160  22.984  25.344  1.00  0.00    -0.208 F 
ENDBRANCH  19  20
ENDBRANCH  13  19
BRANCH  15  23
ATOM     23  C   UNL A   1      33.622  27.782  23.761  1.00  0.00     0.417 C 
ATOM     24  F   UNL A   1      34.148  28.464  24.810  1.00  0.00    -0.166 F 
ATOM     25  F   UNL A   1      34.375  28.069  22.669  1.00  0.00    -0.166 F 
ATOM     26  F   UNL A   1      32.400  28.334  23.529  1.00  0.00    -0.166 F 
ENDBRANCH  15  23
ENDBRANCH   7   8
ENDBRANCH   4   7
ENDBRANCH   2   3
ENDBRANCH   1   2
BRANCH   1  27
ATOM     27  C   UNL A   1      38.518  23.538  26.188  1.00  0.00     0.023 C 
BRANCH  27  28
ATOM     28  C   UNL A   1      39.338  22.282  26.497  1.00  0.00     0.116 C 
BRANCH  28  29
ATOM     29  N   UNL A   1      40.705  22.347  26.022  1.00  0.00    -0.352 N 
ATOM     30  C   UNL A   1      41.756  23.206  26.184  1.00  0.00     0.251 C 
ATOM     31  H   UNL A   1      40.934  21.586  25.440  1.00  0.00     0.163 HD
ATOM     32  O   UNL A   1      42.839  22.807  25.745  1.00  0.00    -0.269 OA
BRANCH  30  33
ATOM     33  C   UNL A   1      41.692  24.570  26.778  1.00  0.00     0.039 A 
ATOM     34  C   UNL A   1      42.018  24.909  28.088  1.00  0.00     0.014 A 
ATOM     35  C   UNL A   1      41.195  25.584  25.929  1.00  0.00     0.014 A 
ATOM     36  C   UNL A   1      41.787  26.205  28.552  1.00  0.00     0.010 A 
ATOM     37  C   UNL A   1      40.963  26.879  26.388  1.00  0.00     0.010 A 
ATOM     38  C   UNL A   1      41.230  27.183  27.715  1.00  0.00    -0.014 A 
BRANCH  38  39
ATOM     39  C   UNL A   1      41.120  28.548  28.232  1.00  0.00     0.031 A 
ATOM     40  C   UNL A   1      42.302  29.389  27.913  1.00  0.00     0.074 A 
ATOM     41  C   UNL A   1      40.064  29.082  28.882  1.00  0.00     0.049 A 
ATOM     42  N   UNL A   1      43.204  29.796  28.741  1.00  0.00    -0.248 NA
ATOM     43  C   UNL A   1      42.600  29.680  26.502  1.00  0.00     0.031 C 
ATOM     44  C   UNL A   1      38.731  28.503  29.061  1.00  0.00     0.029 A 
ATOM     45  N   UNL A   1      39.940  30.317  29.465  1.00  0.00    -0.354 N 
ATOM     46  C   UNL A   1      44.085  30.567  27.993  1.00  0.00     0.074 A 
ATOM     47  C   UNL A   1      43.760  30.333  26.609  1.00  0.00     0.031 C 
ATOM     48  C   UNL A   1      37.878  29.460  29.498  1.00  0.00     0.029 A 
ATOM     49  C   UNL A   1      38.633  30.670  29.782  1.00  0.00     0.049 A 
ATOM     50  H   UNL A   1      40.711  30.904  29.643  1.00  0.00     0.167 HD
ATOM     51  C   UNL A   1      44.832  31.537  28.584  1.00  0.00     0.031 A 
ATOM     52  C   UNL A   1      38.199  31.875  30.231  1.00  0.00     0.031 A 
ATOM     53  C   UNL A   1      44.847  31.388  30.017  1.00  0.00     0.049 A 
ATOM     54  C   UNL A   1      39.338  32.547  30.884  1.00  0.00     0.074 A 
ATOM     55  C   UNL A   1      45.367  30.489  30.920  1.00  0.00     0.029 A 
ATOM     56  N   UNL A   1      43.869  32.100  30.663  1.00  0.00    -0.354 N 
ATOM     57  N   UNL A   1      39.869  32.140  32.000  1.00  0.00    -0.248 NA
ATOM     58  C   UNL A   1      40.108  33.537  30.147  1.00  0.00     0.031 C 
ATOM     59  C   UNL A   1      44.478  30.503  32.034  1.00  0.00     0.029 A 
ATOM     60  C   UNL A   1      43.479  31.450  31.802  1.00  0.00     0.049 A 
ATOM     61  H   UNL A   1      43.500  32.957  30.352  1.00  0.00     0.167 HD
ATOM     62  C   UNL A   1      41.207  32.454  31.869  1.00  0.00     0.074 A 
ATOM     63  C   UNL A   1      41.258  33.466  30.821  1.00  0.00     0.031 C 
ATOM     64  C   UNL A   1      42.165  31.635  32.389  1.00  0.00     0.031 A 
BRANCH  51  65
ATOM     65  C   UNL A   1      45.105  32.877  27.940  1.00  0.00    -0.014 A 
ATOM     66  C   UNL A   1      46.266  33.151  27.191  1.00  0.00     0.009 A 
ATOM     67  C   UNL A   1      44.045  33.796  27.813  1.00  0.00     0.009 A 
ATOM     68  C   UNL A   1      46.366  34.267  26.355  1.00  0.00     0.001 A 
ATOM     69  C   UNL A   1      44.128  34.894  26.948  1.00  0.00     0.001 A 
ATOM     70  C   UNL A   1      45.288  35.128  26.217  1.00  0.00     0.000 A 
ENDBRANCH  51  65
BRANCH  52  71
ATOM     71  C   UNL A   1      36.964  32.625  29.900  1.00  0.00    -0.014 A 
ATOM     72  C   UNL A   1      35.876  32.610  30.786  1.00  0.00     0.009 A 
ATOM     73  C   UNL A   1      36.730  33.059  28.581  1.00  0.00     0.009 A 
ATOM     74  C   UNL A   1      34.584  32.937  30.352  1.00  0.00     0.001 A 
ATOM     75  C   UNL A   1      35.436  33.380  28.146  1.00  0.00     0.001 A 
ATOM     76  C   UNL A   1      34.361  33.296  29.026  1.00  0.00     0.000 A 
ENDBRANCH  52  71
BRANCH  64  77
ATOM     77  C   UNL A   1      41.778  30.702  33.508  1.00  0.00    -0.014 A 
ATOM     78  C   UNL A   1      41.822  31.212  34.816  1.00  0.00     0.009 A 
ATOM     79  C   UNL A   1      41.499  29.336  33.336  1.00  0.00     0.009 A 
ATOM     80  C   UNL A   1      41.620  30.384  35.920  1.00  0.00     0.001 A 
ATOM     81  C   UNL A   1      41.263  28.512  34.441  1.00  0.00     0.001 A 
ATOM     82  C   UNL A   1      41.337  29.034  35.733  1.00  0.00     0.000 A 
ENDBRANCH  64  77
ENDBRANCH  38  39
ENDBRANCH  30  33
ENDBRANCH  28  29
ENDBRANCH  27  28
ENDBRANCH   1  27
TORSDOF 15
ENDMDL
