MODEL 1
REMARK VINA RESULT:     -11.7      0.000      0.000
REMARK SMILES O=C(NCCCCNC(=O)c1cccc2c1ccn2Cc1ccncc1)c1ccc(-c2c3nc(c(-c4ccccc4)c4ccc([nH]4)c(-c4ccccc4)c4nc(c(-c5ccccc5)c5ccc2[nH]5)C=C4)C=C3)cc1
REMARK SMILES IDX 5 1 4 2 3 3 1 4 2 5 27 7 28 8 74 9 29 10 73 11 30 12 31 13
REMARK SMILES IDX 32 14 67 15 33 16 72 17 66 18 68 19 34 20 71 21 65 22 64 23
REMARK SMILES IDX 35 25 57 26 42 27 56 28 43 29 46 30 55 31 69 32 44 33 45 34
REMARK SMILES IDX 54 36 70 37 47 38 36 39 37 40 41 41 38 42 40 43 39 44 58 45
REMARK SMILES IDX 59 46 63 47 60 48 62 49 61 50 48 51 49 52 53 53 50 54 52 55
REMARK SMILES IDX 51 56 6 57 7 58 8 59 9 60 10 62 11 63 12 64 16 65 13 66
REMARK SMILES IDX 15 67 17 68 14 69 19 70 18 71 20 72 21 73 22 74 26 75 23 76
REMARK SMILES IDX 25 77 24 78
REMARK H PARENT 3 6 68 24 46 35 8 61
REMARK Flexibility Score: inf
ROOT
ATOM      1  C   UNL A   1      31.256  31.930  26.431  1.00  0.00     0.023 C 
ENDROOT
BRANCH   1   2
ATOM      2  C   UNL A   1      32.426  32.492  27.219  1.00  0.00     0.116 C 
BRANCH   2   3
ATOM      3  N   UNL A   1      32.278  33.904  27.592  1.00  0.00    -0.352 N 
ATOM      4  O   UNL A   1      32.531  35.636  29.058  1.00  0.00    -0.269 OA
ATOM      5  C   UNL A   1      32.980  34.602  28.563  1.00  0.00     0.251 C 
ATOM      6  H   UNL A   1      31.599  34.415  27.095  1.00  0.00     0.163 HD
BRANCH   5   7
ATOM      7  C   UNL A   1      34.297  34.093  28.978  1.00  0.00     0.039 A 
ATOM      8  C   UNL A   1      34.536  33.484  30.213  1.00  0.00     0.014 A 
ATOM      9  C   UNL A   1      35.318  34.208  28.044  1.00  0.00     0.014 A 
ATOM     10  C   UNL A   1      35.803  32.955  30.452  1.00  0.00     0.010 A 
ATOM     11  C   UNL A   1      36.436  33.442  28.165  1.00  0.00     0.010 A 
ATOM     12  C   UNL A   1      36.748  32.934  29.410  1.00  0.00    -0.014 A 
BRANCH  12  13
ATOM     13  C   UNL A   1      38.067  32.341  29.557  1.00  0.00     0.031 A 
ATOM     14  C   UNL A   1      38.114  30.904  29.216  1.00  0.00     0.074 A 
ATOM     15  C   UNL A   1      39.184  33.060  29.813  1.00  0.00     0.049 A 
ATOM     16  N   UNL A   1      38.225  29.924  30.043  1.00  0.00    -0.248 NA
ATOM     17  C   UNL A   1      37.825  30.499  27.832  1.00  0.00     0.031 C 
ATOM     18  C   UNL A   1      39.350  34.522  29.869  1.00  0.00     0.029 A 
ATOM     19  N   UNL A   1      40.459  32.622  29.986  1.00  0.00    -0.354 N 
ATOM     20  C   UNL A   1      38.236  28.773  29.268  1.00  0.00     0.074 A 
ATOM     21  C   UNL A   1      37.791  29.170  27.956  1.00  0.00     0.031 C 
ATOM     22  C   UNL A   1      40.663  34.840  29.818  1.00  0.00     0.029 A 
ATOM     23  C   UNL A   1      41.431  33.617  29.929  1.00  0.00     0.049 A 
ATOM     24  H   UNL A   1      40.678  31.675  30.138  1.00  0.00     0.167 HD
ATOM     25  C   UNL A   1      38.857  27.648  29.714  1.00  0.00     0.031 A 
ATOM     26  C   UNL A   1      42.775  33.440  29.972  1.00  0.00     0.031 A 
ATOM     27  C   UNL A   1      39.149  27.741  31.125  1.00  0.00     0.049 A 
ATOM     28  C   UNL A   1      43.013  32.117  30.588  1.00  0.00     0.074 A 
ATOM     29  C   UNL A   1      38.382  27.874  32.265  1.00  0.00     0.029 A 
ATOM     30  N   UNL A   1      40.419  28.151  31.462  1.00  0.00    -0.354 N 
ATOM     31  N   UNL A   1      42.732  31.841  31.828  1.00  0.00    -0.248 NA
ATOM     32  C   UNL A   1      43.153  30.973  29.705  1.00  0.00     0.031 C 
ATOM     33  C   UNL A   1      39.112  28.768  33.099  1.00  0.00     0.029 A 
ATOM     34  C   UNL A   1      40.329  29.066  32.479  1.00  0.00     0.049 A 
ATOM     35  H   UNL A   1      41.253  27.840  31.042  1.00  0.00     0.167 HD
ATOM     36  C   UNL A   1      42.210  30.556  31.787  1.00  0.00     0.074 A 
ATOM     37  C   UNL A   1      42.603  30.034  30.479  1.00  0.00     0.031 C 
ATOM     38  C   UNL A   1      41.270  30.151  32.690  1.00  0.00     0.031 A 
BRANCH  25  39
ATOM     39  C   UNL A   1      39.567  26.670  28.811  1.00  0.00    -0.014 A 
ATOM     40  C   UNL A   1      39.173  25.330  28.640  1.00  0.00     0.009 A 
ATOM     41  C   UNL A   1      40.512  27.168  27.897  1.00  0.00     0.009 A 
ATOM     42  C   UNL A   1      39.668  24.536  27.601  1.00  0.00     0.001 A 
ATOM     43  C   UNL A   1      40.982  26.388  26.832  1.00  0.00     0.001 A 
ATOM     44  C   UNL A   1      40.555  25.073  26.684  1.00  0.00     0.000 A 
ENDBRANCH  25  39
BRANCH  26  45
ATOM     45  C   UNL A   1      43.837  34.143  29.218  1.00  0.00    -0.014 A 
ATOM     46  C   UNL A   1      44.648  35.094  29.863  1.00  0.00     0.009 A 
ATOM     47  C   UNL A   1      43.831  34.134  27.813  1.00  0.00     0.009 A 
ATOM     48  C   UNL A   1      45.370  36.045  29.132  1.00  0.00     0.001 A 
ATOM     49  C   UNL A   1      44.553  35.088  27.082  1.00  0.00     0.001 A 
ATOM     50  C   UNL A   1      45.304  36.056  27.742  1.00  0.00     0.000 A 
ENDBRANCH  26  45
BRANCH  38  51
ATOM     51  C   UNL A   1      41.015  31.021  33.906  1.00  0.00    -0.014 A 
ATOM     52  C   UNL A   1      41.579  30.613  35.126  1.00  0.00     0.009 A 
ATOM     53  C   UNL A   1      40.111  32.096  33.924  1.00  0.00     0.009 A 
ATOM     54  C   UNL A   1      41.231  31.234  36.327  1.00  0.00     0.001 A 
ATOM     55  C   UNL A   1      39.785  32.740  35.126  1.00  0.00     0.001 A 
ATOM     56  C   UNL A   1      40.335  32.298  36.327  1.00  0.00     0.000 A 
ENDBRANCH  38  51
ENDBRANCH  12  13
ENDBRANCH   5   7
ENDBRANCH   2   3
ENDBRANCH   1   2
BRANCH   1  57
ATOM     57  C   UNL A   1      31.432  30.487  25.938  1.00  0.00     0.023 C 
BRANCH  57  58
ATOM     58  C   UNL A   1      32.864  29.973  25.761  1.00  0.00     0.116 C 
BRANCH  58  59
ATOM     59  N   UNL A   1      33.214  29.691  24.379  1.00  0.00    -0.352 N 
ATOM     60  C   UNL A   1      32.935  28.586  23.611  1.00  0.00     0.251 C 
ATOM     61  H   UNL A   1      33.729  30.397  23.925  1.00  0.00     0.163 HD
ATOM     62  O   UNL A   1      33.401  28.503  22.477  1.00  0.00    -0.269 OA
BRANCH  60  63
ATOM     63  C   UNL A   1      32.089  27.499  24.147  1.00  0.00     0.049 A 
ATOM     64  C   UNL A   1      30.700  27.509  23.950  1.00  0.00     0.014 A 
ATOM     65  C   UNL A   1      32.691  26.432  24.851  1.00  0.00     0.012 A 
ATOM     66  C   UNL A   1      29.906  26.513  24.510  1.00  0.00     0.003 A 
ATOM     67  C   UNL A   1      31.874  25.418  25.377  1.00  0.00     0.049 A 
ATOM     68  C   UNL A   1      34.029  26.122  25.217  1.00  0.00     0.029 A 
ATOM     69  C   UNL A   1      30.476  25.457  25.233  1.00  0.00     0.027 A 
ATOM     70  N   UNL A   1      32.713  24.502  25.988  1.00  0.00    -0.343 N 
ATOM     71  C   UNL A   1      34.002  24.981  25.977  1.00  0.00     0.087 A 
BRANCH  70  72
ATOM     72  C   UNL A   1      32.315  23.249  26.633  1.00  0.00     0.157 C 
BRANCH  72  73
ATOM     73  C   UNL A   1      32.757  22.025  25.864  1.00  0.00    -0.025 A 
ATOM     74  C   UNL A   1      31.908  21.390  24.948  1.00  0.00     0.025 A 
ATOM     75  C   UNL A   1      34.046  21.505  26.020  1.00  0.00     0.025 A 
ATOM     76  C   UNL A   1      32.359  20.269  24.267  1.00  0.00     0.111 A 
ATOM     77  C   UNL A   1      34.414  20.389  25.277  1.00  0.00     0.111 A 
ATOM     78  N   UNL A   1      33.598  19.759  24.408  1.00  0.00    -0.265 NA
ENDBRANCH  72  73
ENDBRANCH  70  72
ENDBRANCH  60  63
ENDBRANCH  58  59
ENDBRANCH  57  58
ENDBRANCH   1  57
TORSDOF 13
ENDMDL
MODEL 2
REMARK VINA RESULT:     -11.6      3.265      7.598
REMARK SMILES O=C(NCCCCNC(=O)c1cccc2c1ccn2Cc1ccncc1)c1ccc(-c2c3nc(c(-c4ccccc4)c4ccc([nH]4)c(-c4ccccc4)c4nc(c(-c5ccccc5)c5ccc2[nH]5)C=C4)C=C3)cc1
REMARK SMILES IDX 5 1 4 2 3 3 1 4 2 5 27 7 28 8 74 9 29 10 73 11 30 12 31 13
REMARK SMILES IDX 32 14 67 15 33 16 72 17 66 18 68 19 34 20 71 21 65 22 64 23
REMARK SMILES IDX 35 25 57 26 42 27 56 28 43 29 46 30 55 31 69 32 44 33 45 34
REMARK SMILES IDX 54 36 70 37 47 38 36 39 37 40 41 41 38 42 40 43 39 44 58 45
REMARK SMILES IDX 59 46 63 47 60 48 62 49 61 50 48 51 49 52 53 53 50 54 52 55
REMARK SMILES IDX 51 56 6 57 7 58 8 59 9 60 10 62 11 63 12 64 16 65 13 66
REMARK SMILES IDX 15 67 17 68 14 69 19 70 18 71 20 72 21 73 22 74 26 75 23 76
REMARK SMILES IDX 25 77 24 78
REMARK H PARENT 3 6 68 24 46 35 8 61
REMARK Flexibility Score: inf
ROOT
ATOM      1  C   UNL A   1      33.430  30.791  26.830  1.00  0.00     0.023 C 
ENDROOT
BRANCH   1   2
ATOM      2  C   UNL A   1      34.166  31.187  28.100  1.00  0.00     0.116 C 
BRANCH   2   3
ATOM      3  N   UNL A   1      34.990  32.394  27.966  1.00  0.00    -0.352 N 
ATOM      4  O   UNL A   1      36.709  33.740  28.629  1.00  0.00    -0.269 OA
ATOM      5  C   UNL A   1      36.270  32.604  28.453  1.00  0.00     0.251 C 
ATOM      6  H   UNL A   1      34.585  33.144  27.472  1.00  0.00     0.163 HD
BRANCH   5   7
ATOM      7  C   UNL A   1      37.113  31.432  28.739  1.00  0.00     0.039 A 
ATOM      8  C   UNL A   1      36.953  30.193  28.113  1.00  0.00     0.014 A 
ATOM      9  C   UNL A   1      38.136  31.626  29.658  1.00  0.00     0.014 A 
ATOM     10  C   UNL A   1      37.876  29.187  28.397  1.00  0.00     0.010 A 
ATOM     11  C   UNL A   1      39.182  30.756  29.701  1.00  0.00     0.010 A 
ATOM     12  C   UNL A   1      38.996  29.487  29.193  1.00  0.00    -0.014 A 
BRANCH  12  13
ATOM     13  C   UNL A   1      40.038  28.513  29.481  1.00  0.00     0.031 A 
ATOM     14  C   UNL A   1      40.306  28.341  30.924  1.00  0.00     0.074 A 
ATOM     15  C   UNL A   1      40.591  27.712  28.542  1.00  0.00     0.049 A 
ATOM     16  N   UNL A   1      41.339  28.763  31.566  1.00  0.00    -0.248 NA
ATOM     17  C   UNL A   1      39.237  27.806  31.781  1.00  0.00     0.031 C 
ATOM     18  C   UNL A   1      40.213  27.546  27.129  1.00  0.00     0.029 A 
ATOM     19  N   UNL A   1      41.573  26.783  28.686  1.00  0.00    -0.354 N 
ATOM     20  C   UNL A   1      41.158  28.362  32.882  1.00  0.00     0.074 A 
ATOM     21  C   UNL A   1      39.778  27.961  32.992  1.00  0.00     0.031 C 
ATOM     22  C   UNL A   1      40.781  26.426  26.628  1.00  0.00     0.029 A 
ATOM     23  C   UNL A   1      41.713  25.911  27.610  1.00  0.00     0.049 A 
ATOM     24  H   UNL A   1      42.140  26.731  29.488  1.00  0.00     0.167 HD
ATOM     25  C   UNL A   1      42.231  28.154  33.693  1.00  0.00     0.031 A 
ATOM     26  C   UNL A   1      42.543  24.841  27.537  1.00  0.00     0.031 A 
ATOM     27  C   UNL A   1      43.431  28.715  33.119  1.00  0.00     0.049 A 
ATOM     28  C   UNL A   1      43.604  25.053  28.544  1.00  0.00     0.074 A 
ATOM     29  C   UNL A   1      43.832  29.988  32.770  1.00  0.00     0.029 A 
ATOM     30  N   UNL A   1      44.238  27.848  32.418  1.00  0.00    -0.354 N 
ATOM     31  N   UNL A   1      44.491  26.003  28.466  1.00  0.00    -0.248 NA
ATOM     32  C   UNL A   1      43.409  24.483  29.866  1.00  0.00     0.031 C 
ATOM     33  C   UNL A   1      44.553  29.827  31.552  1.00  0.00     0.029 A 
ATOM     34  C   UNL A   1      44.643  28.463  31.262  1.00  0.00     0.049 A 
ATOM     35  H   UNL A   1      44.484  26.938  32.701  1.00  0.00     0.167 HD
ATOM     36  C   UNL A   1      44.623  26.462  29.768  1.00  0.00     0.074 A 
ATOM     37  C   UNL A   1      44.026  25.416  30.597  1.00  0.00     0.031 C 
ATOM     38  C   UNL A   1      44.939  27.765  30.024  1.00  0.00     0.031 A 
BRANCH  25  39
ATOM     39  C   UNL A   1      42.274  27.098  34.770  1.00  0.00    -0.014 A 
ATOM     40  C   UNL A   1      41.871  27.316  36.100  1.00  0.00     0.009 A 
ATOM     41  C   UNL A   1      42.483  25.761  34.388  1.00  0.00     0.009 A 
ATOM     42  C   UNL A   1      41.659  26.263  36.995  1.00  0.00     0.001 A 
ATOM     43  C   UNL A   1      42.235  24.701  35.269  1.00  0.00     0.001 A 
ATOM     44  C   UNL A   1      41.819  24.954  36.572  1.00  0.00     0.000 A 
ENDBRANCH  25  39
BRANCH  26  45
ATOM     45  C   UNL A   1      42.304  23.510  26.935  1.00  0.00    -0.014 A 
ATOM     46  C   UNL A   1      41.245  22.708  27.394  1.00  0.00     0.009 A 
ATOM     47  C   UNL A   1      43.304  22.894  26.163  1.00  0.00     0.009 A 
ATOM     48  C   UNL A   1      41.222  21.329  27.151  1.00  0.00     0.001 A 
ATOM     49  C   UNL A   1      43.282  21.513  25.922  1.00  0.00     0.001 A 
ATOM     50  C   UNL A   1      42.252  20.729  26.435  1.00  0.00     0.000 A 
ENDBRANCH  26  45
BRANCH  38  51
ATOM     51  C   UNL A   1      45.419  28.630  28.875  1.00  0.00    -0.014 A 
ATOM     52  C   UNL A   1      44.446  29.182  28.026  1.00  0.00     0.009 A 
ATOM     53  C   UNL A   1      46.769  28.763  28.506  1.00  0.00     0.009 A 
ATOM     54  C   UNL A   1      44.801  29.815  26.834  1.00  0.00     0.001 A 
ATOM     55  C   UNL A   1      47.127  29.427  27.324  1.00  0.00     0.001 A 
ATOM     56  C   UNL A   1      46.142  29.940  26.483  1.00  0.00     0.000 A 
ENDBRANCH  38  51
ENDBRANCH  12  13
ENDBRANCH   5   7
ENDBRANCH   2   3
ENDBRANCH   1   2
BRANCH   1  57
ATOM     57  C   UNL A   1      32.369  29.696  27.004  1.00  0.00     0.023 C 
BRANCH  57  58
ATOM     58  C   UNL A   1      32.826  28.361  27.603  1.00  0.00     0.116 C 
BRANCH  58  59
ATOM     59  N   UNL A   1      33.650  27.572  26.702  1.00  0.00    -0.352 N 
ATOM     60  C   UNL A   1      33.279  26.772  25.647  1.00  0.00     0.251 C 
ATOM     61  H   UNL A   1      34.619  27.616  26.874  1.00  0.00     0.163 HD
ATOM     62  O   UNL A   1      34.132  26.112  25.059  1.00  0.00    -0.269 OA
BRANCH  60  63
ATOM     63  C   UNL A   1      31.863  26.696  25.230  1.00  0.00     0.049 A 
ATOM     64  C   UNL A   1      31.019  25.698  25.739  1.00  0.00     0.014 A 
ATOM     65  C   UNL A   1      31.354  27.651  24.322  1.00  0.00     0.012 A 
ATOM     66  C   UNL A   1      29.705  25.598  25.295  1.00  0.00     0.003 A 
ATOM     67  C   UNL A   1      30.013  27.554  23.916  1.00  0.00     0.049 A 
ATOM     68  C   UNL A   1      31.919  28.760  23.637  1.00  0.00     0.029 A 
ATOM     69  C   UNL A   1      29.182  26.518  24.378  1.00  0.00     0.027 A 
ATOM     70  N   UNL A   1      29.776  28.613  23.056  1.00  0.00    -0.343 N 
ATOM     71  C   UNL A   1      30.954  29.279  22.812  1.00  0.00     0.087 A 
BRANCH  70  72
ATOM     72  C   UNL A   1      28.503  28.950  22.418  1.00  0.00     0.157 C 
BRANCH  72  73
ATOM     73  C   UNL A   1      28.346  30.433  22.163  1.00  0.00    -0.025 A 
ATOM     74  C   UNL A   1      28.084  30.932  20.881  1.00  0.00     0.025 A 
ATOM     75  C   UNL A   1      28.426  31.354  23.213  1.00  0.00     0.025 A 
ATOM     76  C   UNL A   1      27.949  32.300  20.699  1.00  0.00     0.111 A 
ATOM     77  C   UNL A   1      28.257  32.705  22.934  1.00  0.00     0.111 A 
ATOM     78  N   UNL A   1      28.024  33.198  21.701  1.00  0.00    -0.265 NA
ENDBRANCH  72  73
ENDBRANCH  70  72
ENDBRANCH  60  63
ENDBRANCH  58  59
ENDBRANCH  57  58
ENDBRANCH   1  57
TORSDOF 13
ENDMDL
MODEL 3
REMARK VINA RESULT:     -11.6      3.140      7.504
REMARK SMILES O=C(NCCCCNC(=O)c1cccc2c1ccn2Cc1ccncc1)c1ccc(-c2c3nc(c(-c4ccccc4)c4ccc([nH]4)c(-c4ccccc4)c4nc(c(-c5ccccc5)c5ccc2[nH]5)C=C4)C=C3)cc1
REMARK SMILES IDX 5 1 4 2 3 3 1 4 2 5 27 7 28 8 74 9 29 10 73 11 30 12 31 13
REMARK SMILES IDX 32 14 67 15 33 16 72 17 66 18 68 19 34 20 71 21 65 22 64 23
REMARK SMILES IDX 35 25 57 26 42 27 56 28 43 29 46 30 55 31 69 32 44 33 45 34
REMARK SMILES IDX 54 36 70 37 47 38 36 39 37 40 41 41 38 42 40 43 39 44 58 45
REMARK SMILES IDX 59 46 63 47 60 48 62 49 61 50 48 51 49 52 53 53 50 54 52 55
REMARK SMILES IDX 51 56 6 57 7 58 8 59 9 60 10 62 11 63 12 64 16 65 13 66
REMARK SMILES IDX 15 67 17 68 14 69 19 70 18 71 20 72 21 73 22 74 26 75 23 76
REMARK SMILES IDX 25 77 24 78
REMARK H PARENT 3 6 68 24 46 35 8 61
REMARK Flexibility Score: inf
ROOT
ATOM      1  C   UNL A   1      36.057  23.005  25.608  1.00  0.00     0.023 C 
ENDROOT
BRANCH   1   2
ATOM      2  C   UNL A   1      37.554  23.251  25.543  1.00  0.00     0.116 C 
BRANCH   2   3
ATOM      3  N   UNL A   1      38.370  22.132  26.029  1.00  0.00    -0.352 N 
ATOM      4  O   UNL A   1      40.362  21.226  26.678  1.00  0.00    -0.269 OA
ATOM      5  C   UNL A   1      39.601  22.193  26.664  1.00  0.00     0.251 C 
ATOM      6  H   UNL A   1      38.000  21.231  25.885  1.00  0.00     0.163 HD
BRANCH   5   7
ATOM      7  C   UNL A   1      39.975  23.441  27.349  1.00  0.00     0.039 A 
ATOM      8  C   UNL A   1      41.253  23.694  27.851  1.00  0.00     0.014 A 
ATOM      9  C   UNL A   1      38.982  24.408  27.441  1.00  0.00     0.014 A 
ATOM     10  C   UNL A   1      41.512  24.953  28.393  1.00  0.00     0.010 A 
ATOM     11  C   UNL A   1      39.318  25.702  27.692  1.00  0.00     0.010 A 
ATOM     12  C   UNL A   1      40.530  25.956  28.299  1.00  0.00    -0.014 A 
BRANCH  12  13
ATOM     13  C   UNL A   1      40.745  27.312  28.779  1.00  0.00     0.031 A 
ATOM     14  C   UNL A   1      41.885  27.997  28.135  1.00  0.00     0.074 A 
ATOM     15  C   UNL A   1      39.888  27.955  29.605  1.00  0.00     0.049 A 
ATOM     16  N   UNL A   1      43.027  28.252  28.672  1.00  0.00    -0.248 NA
ATOM     17  C   UNL A   1      41.822  28.263  26.689  1.00  0.00     0.031 C 
ATOM     18  C   UNL A   1      38.563  27.525  30.080  1.00  0.00     0.029 A 
ATOM     19  N   UNL A   1      39.987  29.206  30.129  1.00  0.00    -0.354 N 
ATOM     20  C   UNL A   1      43.765  28.910  27.698  1.00  0.00     0.074 A 
ATOM     21  C   UNL A   1      43.059  28.711  26.458  1.00  0.00     0.031 C 
ATOM     22  C   UNL A   1      37.897  28.578  30.606  1.00  0.00     0.029 A 
ATOM     23  C   UNL A   1      38.812  29.698  30.690  1.00  0.00     0.049 A 
ATOM     24  H   UNL A   1      40.823  29.723  30.112  1.00  0.00     0.167 HD
ATOM     25  C   UNL A   1      44.755  29.774  28.050  1.00  0.00     0.031 A 
ATOM     26  C   UNL A   1      38.612  30.942  31.189  1.00  0.00     0.031 A 
ATOM     27  C   UNL A   1      45.105  29.622  29.443  1.00  0.00     0.049 A 
ATOM     28  C   UNL A   1      39.946  31.498  31.500  1.00  0.00     0.074 A 
ATOM     29  C   UNL A   1      45.614  28.591  30.206  1.00  0.00     0.029 A 
ATOM     30  N   UNL A   1      44.510  30.498  30.323  1.00  0.00    -0.354 N 
ATOM     31  N   UNL A   1      40.721  31.027  32.434  1.00  0.00    -0.248 NA
ATOM     32  C   UNL A   1      40.603  32.296  30.480  1.00  0.00     0.031 C 
ATOM     33  C   UNL A   1      44.920  28.671  31.447  1.00  0.00     0.029 A 
ATOM     34  C   UNL A   1      44.092  29.797  31.424  1.00  0.00     0.049 A 
ATOM     35  H   UNL A   1      44.403  31.466  30.184  1.00  0.00     0.167 HD
ATOM     36  C   UNL A   1      41.993  31.071  31.882  1.00  0.00     0.074 A 
ATOM     37  C   UNL A   1      41.872  31.966  30.732  1.00  0.00     0.031 C 
ATOM     38  C   UNL A   1      42.943  30.156  32.235  1.00  0.00     0.031 A 
BRANCH  25  39
ATOM     39  C   UNL A   1      45.099  31.017  27.268  1.00  0.00    -0.014 A 
ATOM     40  C   UNL A   1      44.168  32.017  26.933  1.00  0.00     0.009 A 
ATOM     41  C   UNL A   1      46.456  31.332  27.075  1.00  0.00     0.009 A 
ATOM     42  C   UNL A   1      44.562  33.272  26.460  1.00  0.00     0.001 A 
ATOM     43  C   UNL A   1      46.858  32.600  26.638  1.00  0.00     0.001 A 
ATOM     44  C   UNL A   1      45.909  33.571  26.335  1.00  0.00     0.000 A 
ENDBRANCH  25  39
BRANCH  26  45
ATOM     45  C   UNL A   1      37.417  31.811  31.090  1.00  0.00    -0.014 A 
ATOM     46  C   UNL A   1      36.460  31.814  32.119  1.00  0.00     0.009 A 
ATOM     47  C   UNL A   1      37.050  32.368  29.853  1.00  0.00     0.009 A 
ATOM     48  C   UNL A   1      35.162  32.293  31.900  1.00  0.00     0.001 A 
ATOM     49  C   UNL A   1      35.750  32.845  29.634  1.00  0.00     0.001 A 
ATOM     50  C   UNL A   1      34.801  32.787  30.651  1.00  0.00     0.000 A 
ENDBRANCH  26  45
BRANCH  38  51
ATOM     51  C   UNL A   1      42.682  29.275  33.441  1.00  0.00    -0.014 A 
ATOM     52  C   UNL A   1      43.309  29.624  34.649  1.00  0.00     0.009 A 
ATOM     53  C   UNL A   1      42.008  28.043  33.380  1.00  0.00     0.009 A 
ATOM     54  C   UNL A   1      43.291  28.764  35.748  1.00  0.00     0.001 A 
ATOM     55  C   UNL A   1      41.964  27.193  34.494  1.00  0.00     0.001 A 
ATOM     56  C   UNL A   1      42.618  27.548  35.672  1.00  0.00     0.000 A 
ENDBRANCH  38  51
ENDBRANCH  12  13
ENDBRANCH   5   7
ENDBRANCH   2   3
ENDBRANCH   1   2
BRANCH   1  57
ATOM     57  C   UNL A   1      35.645  21.597  26.061  1.00  0.00     0.023 C 
BRANCH  57  58
ATOM     58  C   UNL A   1      35.447  20.537  24.973  1.00  0.00     0.116 C 
BRANCH  58  59
ATOM     59  N   UNL A   1      34.296  19.678  25.200  1.00  0.00    -0.352 N 
ATOM     60  C   UNL A   1      32.958  19.936  25.014  1.00  0.00     0.251 C 
ATOM     61  H   UNL A   1      34.506  18.778  25.539  1.00  0.00     0.163 HD
ATOM     62  O   UNL A   1      32.128  19.096  25.351  1.00  0.00    -0.269 OA
BRANCH  60  63
ATOM     63  C   UNL A   1      32.521  21.218  24.421  1.00  0.00     0.049 A 
ATOM     64  C   UNL A   1      32.495  21.391  23.030  1.00  0.00     0.014 A 
ATOM     65  C   UNL A   1      32.110  22.271  25.268  1.00  0.00     0.012 A 
ATOM     66  C   UNL A   1      32.139  22.620  22.484  1.00  0.00     0.003 A 
ATOM     67  C   UNL A   1      31.719  23.491  24.695  1.00  0.00     0.049 A 
ATOM     68  C   UNL A   1      32.016  22.423  26.679  1.00  0.00     0.029 A 
ATOM     69  C   UNL A   1      31.750  23.688  23.302  1.00  0.00     0.027 A 
ATOM     70  N   UNL A   1      31.349  24.325  25.736  1.00  0.00    -0.343 N 
ATOM     71  C   UNL A   1      31.625  23.712  26.936  1.00  0.00     0.087 A 
BRANCH  70  72
ATOM     72  C   UNL A   1      30.824  25.687  25.619  1.00  0.00     0.157 C 
BRANCH  72  73
ATOM     73  C   UNL A   1      31.781  26.734  26.142  1.00  0.00    -0.025 A 
ATOM     74  C   UNL A   1      31.374  27.698  27.074  1.00  0.00     0.025 A 
ATOM     75  C   UNL A   1      33.119  26.753  25.733  1.00  0.00     0.025 A 
ATOM     76  C   UNL A   1      32.290  28.637  27.523  1.00  0.00     0.111 A 
ATOM     77  C   UNL A   1      33.966  27.722  26.255  1.00  0.00     0.111 A 
ATOM     78  N   UNL A   1      33.581  28.666  27.138  1.00  0.00    -0.265 NA
ENDBRANCH  72  73
ENDBRANCH  70  72
ENDBRANCH  60  63
ENDBRANCH  58  59
ENDBRANCH  57  58
ENDBRANCH   1  57
TORSDOF 13
ENDMDL
