MODEL 1
REMARK VINA RESULT:     -11.2      0.000      0.000
REMARK SMILES CC[C@@H]1SC[C@@H](C(=O)NCCCCNC(=O)c2ccc(-c3c4nc(c(-c5ccccc5)c5ccc([nH]5)c(-c5ccccc5)c5nc(c(-c6ccccc6)c6ccc3[nH]6)C=C5)C=C4)cc2)N1C(=O)NC1C(C)(C)C1(C)C
REMARK SMILES IDX 11 1 10 2 9 3 7 4 8 5 6 7 3 8 4 9 65 10 5 11 2 12 1 13 66 14
REMARK SMILES IDX 67 15 68 16 69 18 70 19 73 20 71 21 72 22 74 23 75 24 12 25
REMARK SMILES IDX 13 26 14 27 15 28 16 30 17 31 18 32 64 33 19 34 63 35 20 36
REMARK SMILES IDX 21 37 22 38 57 39 23 40 62 41 56 42 58 43 24 44 61 45 55 46
REMARK SMILES IDX 54 47 25 49 47 50 32 51 46 52 33 53 36 54 45 55 59 56 34 57
REMARK SMILES IDX 35 58 44 60 60 61 37 62 26 63 27 64 31 65 28 66 30 67 29 68
REMARK SMILES IDX 48 69 49 70 53 71 50 72 52 73 51 74 38 75 39 76 43 77 40 78
REMARK SMILES IDX 42 79 41 80
REMARK H PARENT 9 6 68 17 14 29 58 48 36 59
REMARK Flexibility Score: inf
ROOT
ATOM      1  C   UNL A   1      37.008  22.237  24.241  1.00  0.00     0.023 C 
ENDROOT
BRANCH   1   2
ATOM      2  C   UNL A   1      35.543  22.559  24.533  1.00  0.00     0.116 C 
BRANCH   2   3
ATOM      3  N   UNL A   1      35.183  22.273  25.904  1.00  0.00    -0.354 N 
ATOM      4  C   UNL A   1      33.994  21.935  26.481  1.00  0.00     0.243 C 
ATOM      5  O   UNL A   1      34.083  21.453  27.618  1.00  0.00    -0.273 OA
ATOM      6  H   UNL A   1      35.933  22.333  26.538  1.00  0.00     0.163 HD
BRANCH   4   7
ATOM      7  C   UNL A   1      32.625  21.923  25.738  1.00  0.00     0.187 C 
ATOM      8  C   UNL A   1      32.124  23.439  23.877  1.00  0.00     0.145 C 
ATOM      9  S   UNL A   1      32.063  21.766  23.135  1.00  0.00    -0.134 SA
ATOM     10  N   UNL A   1      32.030  23.233  25.330  1.00  0.00    -0.300 N 
ATOM     11  C   UNL A   1      32.712  20.934  24.582  1.00  0.00     0.107 C 
BRANCH   8  12
ATOM     12  C   UNL A   1      31.214  24.335  23.055  1.00  0.00     0.033 C 
ATOM     13  C   UNL A   1      31.917  25.146  21.961  1.00  0.00     0.007 C 
ENDBRANCH   8  12
BRANCH  10  14
ATOM     14  C   UNL A   1      31.589  23.956  26.405  1.00  0.00     0.319 C 
ATOM     15  O   UNL A   1      30.782  23.452  27.203  1.00  0.00    -0.249 OA
ATOM     16  N   UNL A   1      31.913  25.213  26.750  1.00  0.00    -0.334 N 
ATOM     17  H   UNL A   1      31.450  25.492  27.573  1.00  0.00     0.165 HD
BRANCH  16  18
ATOM     18  C   UNL A   1      32.741  26.242  26.248  1.00  0.00     0.096 C 
ATOM     19  C   UNL A   1      32.180  27.284  25.273  1.00  0.00    -0.007 C 
ATOM     20  C   UNL A   1      32.665  27.710  26.659  1.00  0.00    -0.007 C 
ATOM     21  C   UNL A   1      32.981  27.731  24.069  1.00  0.00     0.014 C 
ATOM     22  C   UNL A   1      30.691  27.271  24.970  1.00  0.00     0.014 C 
ATOM     23  C   UNL A   1      31.672  28.221  27.673  1.00  0.00     0.014 C 
ATOM     24  C   UNL A   1      34.001  28.434  26.768  1.00  0.00     0.014 C 
ENDBRANCH  16  18
ENDBRANCH  10  14
ENDBRANCH   4   7
ENDBRANCH   2   3
ENDBRANCH   1   2
BRANCH   1  25
ATOM     25  C   UNL A   1      37.483  20.896  24.797  1.00  0.00     0.023 C 
BRANCH  25  26
ATOM     26  C   UNL A   1      38.644  20.998  25.782  1.00  0.00     0.116 C 
BRANCH  26  27
ATOM     27  N   UNL A   1      39.585  19.889  25.704  1.00  0.00    -0.352 N 
ATOM     28  C   UNL A   1      40.917  19.886  26.051  1.00  0.00     0.251 C 
ATOM     29  H   UNL A   1      39.225  19.038  25.362  1.00  0.00     0.163 HD
ATOM     30  O   UNL A   1      41.615  18.898  25.857  1.00  0.00    -0.269 OA
BRANCH  28  31
ATOM     31  C   UNL A   1      41.504  21.119  26.612  1.00  0.00     0.039 A 
ATOM     32  C   UNL A   1      42.026  22.075  25.739  1.00  0.00     0.014 A 
ATOM     33  C   UNL A   1      41.464  21.358  27.988  1.00  0.00     0.014 A 
ATOM     34  C   UNL A   1      42.435  23.311  26.241  1.00  0.00     0.010 A 
ATOM     35  C   UNL A   1      41.802  22.615  28.475  1.00  0.00     0.010 A 
ATOM     36  C   UNL A   1      42.286  23.604  27.605  1.00  0.00    -0.014 A 
BRANCH  36  37
ATOM     37  C   UNL A   1      42.615  24.946  28.144  1.00  0.00     0.031 A 
ATOM     38  C   UNL A   1      44.017  25.260  28.580  1.00  0.00     0.074 A 
ATOM     39  C   UNL A   1      41.633  25.849  28.325  1.00  0.00     0.049 A 
ATOM     40  N   UNL A   1      44.485  26.353  29.130  1.00  0.00    -0.248 NA
ATOM     41  C   UNL A   1      45.019  24.196  28.408  1.00  0.00     0.031 C 
ATOM     42  C   UNL A   1      40.218  25.641  28.007  1.00  0.00     0.029 A 
ATOM     43  N   UNL A   1      41.674  27.121  28.837  1.00  0.00    -0.354 N 
ATOM     44  C   UNL A   1      45.824  26.096  29.393  1.00  0.00     0.074 A 
ATOM     45  C   UNL A   1      46.083  24.732  28.987  1.00  0.00     0.031 C 
ATOM     46  C   UNL A   1      39.531  26.753  28.312  1.00  0.00     0.029 A 
ATOM     47  C   UNL A   1      40.448  27.739  28.876  1.00  0.00     0.049 A 
ATOM     48  H   UNL A   1      42.504  27.551  29.148  1.00  0.00     0.167 HD
ATOM     49  C   UNL A   1      46.759  26.926  29.910  1.00  0.00     0.031 A 
ATOM     50  C   UNL A   1      40.099  28.961  29.318  1.00  0.00     0.031 A 
ATOM     51  C   UNL A   1      46.507  28.289  30.295  1.00  0.00     0.049 A 
ATOM     52  C   UNL A   1      41.158  29.878  29.858  1.00  0.00     0.074 A 
ATOM     53  C   UNL A   1      47.406  29.239  30.743  1.00  0.00     0.029 A 
ATOM     54  N   UNL A   1      45.258  28.892  30.281  1.00  0.00    -0.354 N 
ATOM     55  N   UNL A   1      42.442  29.655  30.009  1.00  0.00    -0.248 NA
ATOM     56  C   UNL A   1      40.724  31.218  30.274  1.00  0.00     0.031 C 
ATOM     57  C   UNL A   1      46.693  30.404  31.048  1.00  0.00     0.029 A 
ATOM     58  C   UNL A   1      45.358  30.194  30.740  1.00  0.00     0.049 A 
ATOM     59  H   UNL A   1      44.425  28.458  29.988  1.00  0.00     0.167 HD
ATOM     60  C   UNL A   1      42.973  30.833  30.519  1.00  0.00     0.074 A 
ATOM     61  C   UNL A   1      41.875  31.772  30.634  1.00  0.00     0.031 C 
ATOM     62  C   UNL A   1      44.255  31.112  30.859  1.00  0.00     0.031 A 
BRANCH  49  63
ATOM     63  C   UNL A   1      48.142  26.369  30.101  1.00  0.00    -0.014 A 
ATOM     64  C   UNL A   1      49.094  26.407  29.068  1.00  0.00     0.009 A 
ATOM     65  C   UNL A   1      48.501  25.803  31.333  1.00  0.00     0.009 A 
ATOM     66  C   UNL A   1      50.360  25.847  29.251  1.00  0.00     0.001 A 
ATOM     67  C   UNL A   1      49.778  25.271  31.524  1.00  0.00     0.001 A 
ATOM     68  C   UNL A   1      50.701  25.281  30.479  1.00  0.00     0.000 A 
ENDBRANCH  49  63
BRANCH  50  69
ATOM     69  C   UNL A   1      38.680  29.393  29.242  1.00  0.00    -0.014 A 
ATOM     70  C   UNL A   1      37.822  29.214  30.338  1.00  0.00     0.009 A 
ATOM     71  C   UNL A   1      38.183  30.007  28.082  1.00  0.00     0.009 A 
ATOM     72  C   UNL A   1      36.489  29.628  30.266  1.00  0.00     0.001 A 
ATOM     73  C   UNL A   1      36.858  30.441  28.023  1.00  0.00     0.001 A 
ATOM     74  C   UNL A   1      36.010  30.246  29.112  1.00  0.00     0.000 A 
ENDBRANCH  50  69
BRANCH  62  75
ATOM     75  C   UNL A   1      44.544  32.494  31.369  1.00  0.00    -0.014 A 
ATOM     76  C   UNL A   1      44.507  32.785  32.742  1.00  0.00     0.009 A 
ATOM     77  C   UNL A   1      44.903  33.508  30.467  1.00  0.00     0.009 A 
ATOM     78  C   UNL A   1      44.797  34.072  33.198  1.00  0.00     0.001 A 
ATOM     79  C   UNL A   1      45.218  34.786  30.928  1.00  0.00     0.001 A 
ATOM     80  C   UNL A   1      45.157  35.070  32.292  1.00  0.00     0.000 A 
ENDBRANCH  62  75
ENDBRANCH  36  37
ENDBRANCH  28  31
ENDBRANCH  26  27
ENDBRANCH  25  26
ENDBRANCH   1  25
TORSDOF 14
ENDMDL
MODEL 2
REMARK VINA RESULT:     -11.1      0.692      5.970
REMARK SMILES CC[C@@H]1SC[C@@H](C(=O)NCCCCNC(=O)c2ccc(-c3c4nc(c(-c5ccccc5)c5ccc([nH]5)c(-c5ccccc5)c5nc(c(-c6ccccc6)c6ccc3[nH]6)C=C5)C=C4)cc2)N1C(=O)NC1C(C)(C)C1(C)C
REMARK SMILES IDX 11 1 10 2 9 3 7 4 8 5 6 7 3 8 4 9 65 10 5 11 2 12 1 13 66 14
REMARK SMILES IDX 67 15 68 16 69 18 70 19 73 20 71 21 72 22 74 23 75 24 12 25
REMARK SMILES IDX 13 26 14 27 15 28 16 30 17 31 18 32 64 33 19 34 63 35 20 36
REMARK SMILES IDX 21 37 22 38 57 39 23 40 62 41 56 42 58 43 24 44 61 45 55 46
REMARK SMILES IDX 54 47 25 49 47 50 32 51 46 52 33 53 36 54 45 55 59 56 34 57
REMARK SMILES IDX 35 58 44 60 60 61 37 62 26 63 27 64 31 65 28 66 30 67 29 68
REMARK SMILES IDX 48 69 49 70 53 71 50 72 52 73 51 74 38 75 39 76 43 77 40 78
REMARK SMILES IDX 42 79 41 80
REMARK H PARENT 9 6 68 17 14 29 58 48 36 59
REMARK Flexibility Score: inf
ROOT
ATOM      1  C   UNL A   1      36.623  22.157  24.347  1.00  0.00     0.023 C 
ENDROOT
BRANCH   1   2
ATOM      2  C   UNL A   1      35.818  23.174  25.155  1.00  0.00     0.116 C 
BRANCH   2   3
ATOM      3  N   UNL A   1      35.371  22.638  26.421  1.00  0.00    -0.354 N 
ATOM      4  C   UNL A   1      34.178  22.106  26.813  1.00  0.00     0.243 C 
ATOM      5  O   UNL A   1      34.217  21.454  27.865  1.00  0.00    -0.273 OA
ATOM      6  H   UNL A   1      36.053  22.659  27.130  1.00  0.00     0.163 HD
BRANCH   4   7
ATOM      7  C   UNL A   1      32.888  22.094  25.941  1.00  0.00     0.187 C 
ATOM      8  C   UNL A   1      32.607  23.550  23.988  1.00  0.00     0.145 C 
ATOM      9  S   UNL A   1      32.579  21.853  23.302  1.00  0.00    -0.134 SA
ATOM     10  N   UNL A   1      32.367  23.400  25.431  1.00  0.00    -0.300 N 
ATOM     11  C   UNL A   1      33.064  21.062  24.833  1.00  0.00     0.107 C 
BRANCH   8  12
ATOM     12  C   UNL A   1      31.803  24.434  23.050  1.00  0.00     0.033 C 
ATOM     13  C   UNL A   1      30.282  24.282  23.161  1.00  0.00     0.007 C 
ENDBRANCH   8  12
BRANCH  10  14
ATOM     14  C   UNL A   1      31.841  24.171  26.432  1.00  0.00     0.319 C 
ATOM     15  O   UNL A   1      31.053  23.671  27.251  1.00  0.00    -0.249 OA
ATOM     16  N   UNL A   1      32.056  25.474  26.677  1.00  0.00    -0.334 N 
ATOM     17  H   UNL A   1      31.550  25.781  27.463  1.00  0.00     0.165 HD
BRANCH  16  18
ATOM     18  C   UNL A   1      32.816  26.521  26.109  1.00  0.00     0.096 C 
ATOM     19  C   UNL A   1      32.159  27.531  25.159  1.00  0.00    -0.007 C 
ATOM     20  C   UNL A   1      32.718  27.992  26.506  1.00  0.00    -0.007 C 
ATOM     21  C   UNL A   1      32.865  27.985  23.901  1.00  0.00     0.014 C 
ATOM     22  C   UNL A   1      30.655  27.466  24.954  1.00  0.00     0.014 C 
ATOM     23  C   UNL A   1      31.778  28.486  27.576  1.00  0.00     0.014 C 
ATOM     24  C   UNL A   1      34.035  28.759  26.519  1.00  0.00     0.014 C 
ENDBRANCH  16  18
ENDBRANCH  10  14
ENDBRANCH   4   7
ENDBRANCH   2   3
ENDBRANCH   1   2
BRANCH   1  25
ATOM     25  C   UNL A   1      37.142  20.973  25.162  1.00  0.00     0.023 C 
BRANCH  25  26
ATOM     26  C   UNL A   1      38.537  21.174  25.746  1.00  0.00     0.116 C 
BRANCH  26  27
ATOM     27  N   UNL A   1      39.375  19.983  25.698  1.00  0.00    -0.352 N 
ATOM     28  C   UNL A   1      40.701  19.870  26.048  1.00  0.00     0.251 C 
ATOM     29  H   UNL A   1      38.940  19.159  25.378  1.00  0.00     0.163 HD
ATOM     30  O   UNL A   1      41.309  18.819  25.880  1.00  0.00    -0.269 OA
BRANCH  28  31
ATOM     31  C   UNL A   1      41.398  21.059  26.577  1.00  0.00     0.039 A 
ATOM     32  C   UNL A   1      41.952  21.972  25.678  1.00  0.00     0.014 A 
ATOM     33  C   UNL A   1      41.428  21.306  27.951  1.00  0.00     0.014 A 
ATOM     34  C   UNL A   1      42.468  23.177  26.155  1.00  0.00     0.010 A 
ATOM     35  C   UNL A   1      41.875  22.537  28.416  1.00  0.00     0.010 A 
ATOM     36  C   UNL A   1      42.394  23.486  27.522  1.00  0.00    -0.014 A 
BRANCH  36  37
ATOM     37  C   UNL A   1      42.839  24.802  28.039  1.00  0.00     0.031 A 
ATOM     38  C   UNL A   1      41.829  25.867  28.360  1.00  0.00     0.074 A 
ATOM     39  C   UNL A   1      44.155  25.069  28.134  1.00  0.00     0.049 A 
ATOM     40  N   UNL A   1      42.027  27.096  28.764  1.00  0.00    -0.248 NA
ATOM     41  C   UNL A   1      40.413  25.516  28.168  1.00  0.00     0.031 C 
ATOM     42  C   UNL A   1      45.237  24.144  27.787  1.00  0.00     0.029 A 
ATOM     43  N   UNL A   1      44.808  26.207  28.536  1.00  0.00    -0.354 N 
ATOM     44  C   UNL A   1      40.765  27.671  28.848  1.00  0.00     0.074 A 
ATOM     45  C   UNL A   1      39.814  26.673  28.408  1.00  0.00     0.031 C 
ATOM     46  C   UNL A   1      46.416  24.744  28.011  1.00  0.00     0.029 A 
ATOM     47  C   UNL A   1      46.176  26.103  28.486  1.00  0.00     0.049 A 
ATOM     48  H   UNL A   1      44.340  27.021  28.834  1.00  0.00     0.167 HD
ATOM     49  C   UNL A   1      40.426  28.911  29.268  1.00  0.00     0.031 A 
ATOM     50  C   UNL A   1      47.133  27.003  28.784  1.00  0.00     0.031 A 
ATOM     51  C   UNL A   1      41.369  29.896  29.724  1.00  0.00     0.049 A 
ATOM     52  C   UNL A   1      46.734  28.363  29.280  1.00  0.00     0.074 A 
ATOM     53  C   UNL A   1      41.120  31.148  30.257  1.00  0.00     0.029 A 
ATOM     54  N   UNL A   1      42.747  29.739  29.696  1.00  0.00    -0.354 N 
ATOM     55  N   UNL A   1      45.531  28.859  29.448  1.00  0.00    -0.248 NA
ATOM     56  C   UNL A   1      47.822  29.280  29.642  1.00  0.00     0.031 C 
ATOM     57  C   UNL A   1      42.350  31.770  30.504  1.00  0.00     0.029 A 
ATOM     58  C   UNL A   1      43.362  30.883  30.174  1.00  0.00     0.049 A 
ATOM     59  H   UNL A   1      43.217  28.933  29.382  1.00  0.00     0.167 HD
ATOM     60  C   UNL A   1      45.717  30.139  29.953  1.00  0.00     0.074 A 
ATOM     61  C   UNL A   1      47.147  30.335  30.080  1.00  0.00     0.031 C 
ATOM     62  C   UNL A   1      44.786  31.066  30.284  1.00  0.00     0.031 A 
BRANCH  49  63
ATOM     63  C   UNL A   1      38.967  29.271  29.239  1.00  0.00    -0.014 A 
ATOM     64  C   UNL A   1      38.137  29.052  30.351  1.00  0.00     0.009 A 
ATOM     65  C   UNL A   1      38.415  29.845  28.083  1.00  0.00     0.009 A 
ATOM     66  C   UNL A   1      36.776  29.355  30.289  1.00  0.00     0.001 A 
ATOM     67  C   UNL A   1      37.059  30.176  28.034  1.00  0.00     0.001 A 
ATOM     68  C   UNL A   1      36.239  29.918  29.132  1.00  0.00     0.000 A 
ENDBRANCH  49  63
BRANCH  50  69
ATOM     69  C   UNL A   1      48.563  26.629  28.643  1.00  0.00    -0.014 A 
ATOM     70  C   UNL A   1      49.256  26.902  27.454  1.00  0.00     0.009 A 
ATOM     71  C   UNL A   1      49.248  26.019  29.705  1.00  0.00     0.009 A 
ATOM     72  C   UNL A   1      50.604  26.557  27.327  1.00  0.00     0.001 A 
ATOM     73  C   UNL A   1      50.601  25.697  29.583  1.00  0.00     0.001 A 
ATOM     74  C   UNL A   1      51.276  25.960  28.392  1.00  0.00     0.000 A 
ENDBRANCH  50  69
BRANCH  62  75
ATOM     75  C   UNL A   1      45.285  32.372  30.834  1.00  0.00    -0.014 A 
ATOM     76  C   UNL A   1      45.542  33.465  29.992  1.00  0.00     0.009 A 
ATOM     77  C   UNL A   1      45.454  32.524  32.219  1.00  0.00     0.009 A 
ATOM     78  C   UNL A   1      45.988  34.676  30.524  1.00  0.00     0.001 A 
ATOM     79  C   UNL A   1      45.874  33.744  32.751  1.00  0.00     0.001 A 
ATOM     80  C   UNL A   1      46.149  34.816  31.903  1.00  0.00     0.000 A 
ENDBRANCH  62  75
ENDBRANCH  36  37
ENDBRANCH  28  31
ENDBRANCH  26  27
ENDBRANCH  25  26
ENDBRANCH   1  25
TORSDOF 14
ENDMDL
MODEL 3
REMARK VINA RESULT:     -11.1      2.088      7.474
REMARK SMILES CC[C@@H]1SC[C@@H](C(=O)NCCCCNC(=O)c2ccc(-c3c4nc(c(-c5ccccc5)c5ccc([nH]5)c(-c5ccccc5)c5nc(c(-c6ccccc6)c6ccc3[nH]6)C=C5)C=C4)cc2)N1C(=O)NC1C(C)(C)C1(C)C
REMARK SMILES IDX 11 1 10 2 9 3 7 4 8 5 6 7 3 8 4 9 65 10 5 11 2 12 1 13 66 14
REMARK SMILES IDX 67 15 68 16 69 18 70 19 73 20 71 21 72 22 74 23 75 24 12 25
REMARK SMILES IDX 13 26 14 27 15 28 16 30 17 31 18 32 64 33 19 34 63 35 20 36
REMARK SMILES IDX 21 37 22 38 57 39 23 40 62 41 56 42 58 43 24 44 61 45 55 46
REMARK SMILES IDX 54 47 25 49 47 50 32 51 46 52 33 53 36 54 45 55 59 56 34 57
REMARK SMILES IDX 35 58 44 60 60 61 37 62 26 63 27 64 31 65 28 66 30 67 29 68
REMARK SMILES IDX 48 69 49 70 53 71 50 72 52 73 51 74 38 75 39 76 43 77 40 78
REMARK SMILES IDX 42 79 41 80
REMARK H PARENT 9 6 68 17 14 29 58 48 36 59
REMARK Flexibility Score: inf
ROOT
ATOM      1  C   UNL A   1      32.248  28.285  25.608  1.00  0.00     0.023 C 
ENDROOT
BRANCH   1   2
ATOM      2  C   UNL A   1      33.330  27.284  25.207  1.00  0.00     0.116 C 
BRANCH   2   3
ATOM      3  N   UNL A   1      33.859  27.548  23.887  1.00  0.00    -0.354 N 
ATOM      4  C   UNL A   1      33.490  27.102  22.653  1.00  0.00     0.243 C 
ATOM      5  O   UNL A   1      33.941  27.757  21.704  1.00  0.00    -0.273 OA
ATOM      6  H   UNL A   1      34.627  28.164  23.878  1.00  0.00     0.163 HD
BRANCH   4   7
ATOM      7  C   UNL A   1      32.413  26.006  22.396  1.00  0.00     0.187 C 
ATOM      8  C   UNL A   1      31.563  24.554  24.180  1.00  0.00     0.145 C 
ATOM      9  S   UNL A   1      30.104  25.517  23.638  1.00  0.00    -0.134 SA
ATOM     10  N   UNL A   1      32.555  24.696  23.103  1.00  0.00    -0.300 N 
ATOM     11  C   UNL A   1      31.036  26.629  22.589  1.00  0.00     0.107 C 
BRANCH   8  12
ATOM     12  C   UNL A   1      31.057  23.236  24.740  1.00  0.00     0.033 C 
ATOM     13  C   UNL A   1      30.865  23.208  26.260  1.00  0.00     0.007 C 
ENDBRANCH   8  12
BRANCH  10  14
ATOM     14  C   UNL A   1      33.606  23.963  22.622  1.00  0.00     0.319 C 
ATOM     15  O   UNL A   1      33.599  23.567  21.446  1.00  0.00    -0.249 OA
ATOM     16  N   UNL A   1      34.715  23.575  23.273  1.00  0.00    -0.334 N 
ATOM     17  H   UNL A   1      35.311  23.053  22.689  1.00  0.00     0.165 HD
BRANCH  16  18
ATOM     18  C   UNL A   1      35.254  23.715  24.571  1.00  0.00     0.096 C 
ATOM     19  C   UNL A   1      35.054  22.613  25.619  1.00  0.00    -0.007 C 
ATOM     20  C   UNL A   1      36.457  22.946  25.111  1.00  0.00    -0.007 C 
ATOM     21  C   UNL A   1      34.715  22.958  27.053  1.00  0.00     0.014 C 
ATOM     22  C   UNL A   1      34.390  21.315  25.194  1.00  0.00     0.014 C 
ATOM     23  C   UNL A   1      37.213  21.934  24.287  1.00  0.00     0.014 C 
ATOM     24  C   UNL A   1      37.389  23.736  26.022  1.00  0.00     0.014 C 
ENDBRANCH  16  18
ENDBRANCH  10  14
ENDBRANCH   4   7
ENDBRANCH   2   3
ENDBRANCH   1   2
BRANCH   1  25
ATOM     25  C   UNL A   1      32.470  28.944  26.968  1.00  0.00     0.023 C 
BRANCH  25  26
ATOM     26  C   UNL A   1      33.813  29.653  27.112  1.00  0.00     0.116 C 
BRANCH  26  27
ATOM     27  N   UNL A   1      33.775  30.822  27.981  1.00  0.00    -0.352 N 
ATOM     28  C   UNL A   1      34.753  31.268  28.840  1.00  0.00     0.251 C 
ATOM     29  H   UNL A   1      32.950  31.359  27.948  1.00  0.00     0.163 HD
ATOM     30  O   UNL A   1      34.555  32.228  29.575  1.00  0.00    -0.269 OA
BRANCH  28  31
ATOM     31  C   UNL A   1      36.031  30.531  28.901  1.00  0.00     0.039 A 
ATOM     32  C   UNL A   1      36.937  30.663  27.846  1.00  0.00     0.014 A 
ATOM     33  C   UNL A   1      36.360  29.781  30.032  1.00  0.00     0.014 A 
ATOM     34  C   UNL A   1      38.210  30.106  27.962  1.00  0.00     0.010 A 
ATOM     35  C   UNL A   1      37.652  29.291  30.177  1.00  0.00     0.010 A 
ATOM     36  C   UNL A   1      38.591  29.453  29.145  1.00  0.00    -0.014 A 
BRANCH  36  37
ATOM     37  C   UNL A   1      39.971  28.946  29.334  1.00  0.00     0.031 A 
ATOM     38  C   UNL A   1      41.034  29.845  29.898  1.00  0.00     0.074 A 
ATOM     39  C   UNL A   1      40.287  27.707  28.915  1.00  0.00     0.049 A 
ATOM     40  N   UNL A   1      42.308  29.602  30.082  1.00  0.00    -0.248 NA
ATOM     41  C   UNL A   1      40.621  31.206  30.273  1.00  0.00     0.031 C 
ATOM     42  C   UNL A   1      39.362  26.760  28.287  1.00  0.00     0.029 A 
ATOM     43  N   UNL A   1      41.483  27.034  28.939  1.00  0.00    -0.354 N 
ATOM     44  C   UNL A   1      42.849  30.786  30.566  1.00  0.00     0.074 A 
ATOM     45  C   UNL A   1      41.778  31.758  30.603  1.00  0.00     0.031 C 
ATOM     46  C   UNL A   1      40.020  25.625  28.005  1.00  0.00     0.029 A 
ATOM     47  C   UNL A   1      41.416  25.773  28.401  1.00  0.00     0.049 A 
ATOM     48  H   UNL A   1      42.311  27.420  29.307  1.00  0.00     0.167 HD
ATOM     49  C   UNL A   1      44.119  31.037  30.960  1.00  0.00     0.031 A 
ATOM     50  C   UNL A   1      42.373  24.839  28.240  1.00  0.00     0.031 A 
ATOM     51  C   UNL A   1      45.178  30.064  30.942  1.00  0.00     0.049 A 
ATOM     52  C   UNL A   1      43.768  25.127  28.715  1.00  0.00     0.074 A 
ATOM     53  C   UNL A   1      46.475  30.193  31.405  1.00  0.00     0.029 A 
ATOM     54  N   UNL A   1      45.061  28.782  30.426  1.00  0.00    -0.354 N 
ATOM     55  N   UNL A   1      44.243  26.220  29.263  1.00  0.00    -0.248 NA
ATOM     56  C   UNL A   1      44.754  24.049  28.563  1.00  0.00     0.031 C 
ATOM     57  C   UNL A   1      47.158  29.004  31.125  1.00  0.00     0.029 A 
ATOM     58  C   UNL A   1      46.271  28.118  30.534  1.00  0.00     0.049 A 
ATOM     59  H   UNL A   1      44.239  28.401  30.041  1.00  0.00     0.167 HD
ATOM     60  C   UNL A   1      45.578  25.955  29.539  1.00  0.00     0.074 A 
ATOM     61  C   UNL A   1      45.832  24.593  29.114  1.00  0.00     0.031 C 
ATOM     62  C   UNL A   1      46.509  26.767  30.097  1.00  0.00     0.031 A 
BRANCH  49  63
ATOM     63  C   UNL A   1      44.429  32.430  31.432  1.00  0.00    -0.014 A 
ATOM     64  C   UNL A   1      44.284  32.794  32.781  1.00  0.00     0.009 A 
ATOM     65  C   UNL A   1      44.878  33.392  30.514  1.00  0.00     0.009 A 
ATOM     66  C   UNL A   1      44.538  34.104  33.192  1.00  0.00     0.001 A 
ATOM     67  C   UNL A   1      45.159  34.694  30.933  1.00  0.00     0.001 A 
ATOM     68  C   UNL A   1      44.977  35.052  32.269  1.00  0.00     0.000 A 
ENDBRANCH  49  63
BRANCH  50  69
ATOM     69  C   UNL A   1      42.029  23.533  27.622  1.00  0.00    -0.014 A 
ATOM     70  C   UNL A   1      42.270  23.305  26.259  1.00  0.00     0.009 A 
ATOM     71  C   UNL A   1      41.480  22.500  28.398  1.00  0.00     0.009 A 
ATOM     72  C   UNL A   1      41.953  22.074  25.682  1.00  0.00     0.001 A 
ATOM     73  C   UNL A   1      41.188  21.262  27.823  1.00  0.00     0.001 A 
ATOM     74  C   UNL A   1      41.418  21.052  26.465  1.00  0.00     0.000 A 
ENDBRANCH  50  69
BRANCH  62  75
ATOM     75  C   UNL A   1      47.884  26.197  30.298  1.00  0.00    -0.014 A 
ATOM     76  C   UNL A   1      48.301  25.728  31.553  1.00  0.00     0.009 A 
ATOM     77  C   UNL A   1      48.757  26.084  29.204  1.00  0.00     0.009 A 
ATOM     78  C   UNL A   1      49.576  25.184  31.715  1.00  0.00     0.001 A 
ATOM     79  C   UNL A   1      50.021  25.516  29.363  1.00  0.00     0.001 A 
ATOM     80  C   UNL A   1      50.433  25.074  30.620  1.00  0.00     0.000 A 
ENDBRANCH  62  75
ENDBRANCH  36  37
ENDBRANCH  28  31
ENDBRANCH  26  27
ENDBRANCH  25  26
ENDBRANCH   1  25
TORSDOF 14
ENDMDL
