MODEL 1
REMARK VINA RESULT:     -11.2      0.000      0.000
REMARK SMILES COCCN1C(=O)CC[C@@H](C(=O)NCCCCNC(=O)c2ccc(-c3c4nc(c(-c5ccccc5)c5ccc([nH]5)c(-c5ccccc5)c5nc(c(-c6ccccc6)c6ccc3[nH]6)C=C5)C=C4)cc2)[C@H]1c1ccccc1C
REMARK SMILES IDX 15 1 14 2 13 3 11 4 12 5 10 7 5 8 6 9 69 10 7 11 8 12 9 13
REMARK SMILES IDX 4 14 3 15 2 16 1 17 70 18 71 19 75 20 72 21 74 22 76 23
REMARK SMILES IDX 73 24 16 25 17 26 18 27 19 28 20 30 21 31 22 32 68 33 23 34
REMARK SMILES IDX 67 35 24 36 25 37 26 38 61 39 27 40 66 41 60 42 62 43 28 44
REMARK SMILES IDX 65 45 59 46 58 47 29 49 51 50 36 51 50 52 37 53 40 54 49 55
REMARK SMILES IDX 63 56 38 57 39 58 48 60 64 61 41 62 30 63 31 64 35 65 32 66
REMARK SMILES IDX 34 67 33 68 52 69 53 70 57 71 54 72 56 73 55 74 42 75 43 76
REMARK SMILES IDX 47 77 44 78 46 79 45 80
REMARK H PARENT 13 6 18 29 62 48 40 59
REMARK Flexibility Score: inf
ROOT
ATOM      1  C   UNL A   1      36.336  20.685  25.029  1.00  0.00     0.023 C 
ENDROOT
BRANCH   1   2
ATOM      2  C   UNL A   1      36.241  22.107  24.484  1.00  0.00     0.116 C 
BRANCH   2   3
ATOM      3  N   UNL A   1      34.938  22.331  23.886  1.00  0.00    -0.356 N 
ATOM      4  C   UNL A   1      33.867  23.042  24.325  1.00  0.00     0.225 C 
ATOM      5  O   UNL A   1      32.866  23.027  23.609  1.00  0.00    -0.275 OA
ATOM      6  H   UNL A   1      34.808  21.893  23.014  1.00  0.00     0.163 HD
BRANCH   4   7
ATOM      7  C   UNL A   1      33.945  23.842  25.618  1.00  0.00     0.106 C 
ATOM      8  N   UNL A   1      31.654  24.950  25.835  1.00  0.00    -0.333 N 
ATOM      9  C   UNL A   1      31.179  23.934  26.667  1.00  0.00     0.223 C 
ATOM     10  C   UNL A   1      33.108  25.146  25.623  1.00  0.00     0.128 C 
ATOM     11  O   UNL A   1      30.060  23.948  27.180  1.00  0.00    -0.275 OA
ATOM     12  C   UNL A   1      32.047  22.711  26.859  1.00  0.00     0.101 C 
ATOM     13  C   UNL A   1      33.539  22.960  26.799  1.00  0.00     0.026 C 
BRANCH   8  14
ATOM     14  C   UNL A   1      30.718  26.063  25.572  1.00  0.00     0.148 C 
BRANCH  14  15
ATOM     15  C   UNL A   1      29.809  25.910  24.339  1.00  0.00     0.181 C 
BRANCH  15  16
ATOM     16  O   UNL A   1      30.067  26.837  23.284  1.00  0.00    -0.383 OA
ATOM     17  C   UNL A   1      30.287  28.166  23.738  1.00  0.00     0.194 C 
ENDBRANCH  15  16
ENDBRANCH  14  15
ENDBRANCH   8  14
BRANCH  10  18
ATOM     18  C   UNL A   1      33.472  26.163  24.526  1.00  0.00    -0.022 A 
ATOM     19  C   UNL A   1      33.357  25.800  23.166  1.00  0.00     0.006 A 
ATOM     20  C   UNL A   1      33.830  27.506  24.811  1.00  0.00    -0.046 A 
ATOM     21  C   UNL A   1      33.542  26.717  22.129  1.00  0.00     0.000 A 
ATOM     22  C   UNL A   1      33.973  28.428  23.751  1.00  0.00     0.004 A 
ATOM     23  C   UNL A   1      33.974  28.070  26.202  1.00  0.00     0.045 C 
ATOM     24  C   UNL A   1      33.830  28.039  22.423  1.00  0.00     0.000 A 
ENDBRANCH  10  18
ENDBRANCH   4   7
ENDBRANCH   2   3
ENDBRANCH   1   2
BRANCH   1  25
ATOM     25  C   UNL A   1      37.684  20.005  24.777  1.00  0.00     0.023 C 
BRANCH  25  26
ATOM     26  C   UNL A   1      38.792  20.407  25.744  1.00  0.00     0.116 C 
BRANCH  26  27
ATOM     27  N   UNL A   1      39.874  19.437  25.774  1.00  0.00    -0.352 N 
ATOM     28  C   UNL A   1      41.204  19.630  26.056  1.00  0.00     0.251 C 
ATOM     29  H   UNL A   1      39.616  18.510  25.564  1.00  0.00     0.163 HD
ATOM     30  O   UNL A   1      42.017  18.739  25.845  1.00  0.00    -0.269 OA
BRANCH  28  31
ATOM     31  C   UNL A   1      41.650  20.931  26.597  1.00  0.00     0.039 A 
ATOM     32  C   UNL A   1      42.135  21.898  25.714  1.00  0.00     0.014 A 
ATOM     33  C   UNL A   1      41.583  21.195  27.968  1.00  0.00     0.014 A 
ATOM     34  C   UNL A   1      42.495  23.155  26.202  1.00  0.00     0.010 A 
ATOM     35  C   UNL A   1      41.865  22.473  28.439  1.00  0.00     0.010 A 
ATOM     36  C   UNL A   1      42.329  23.464  27.563  1.00  0.00    -0.014 A 
BRANCH  36  37
ATOM     37  C   UNL A   1      42.632  24.821  28.082  1.00  0.00     0.031 A 
ATOM     38  C   UNL A   1      44.030  25.177  28.508  1.00  0.00     0.074 A 
ATOM     39  C   UNL A   1      41.636  25.718  28.225  1.00  0.00     0.049 A 
ATOM     40  N   UNL A   1      44.477  26.294  29.023  1.00  0.00    -0.248 NA
ATOM     41  C   UNL A   1      45.055  24.131  28.358  1.00  0.00     0.031 C 
ATOM     42  C   UNL A   1      40.230  25.484  27.890  1.00  0.00     0.029 A 
ATOM     43  N   UNL A   1      41.655  27.007  28.695  1.00  0.00    -0.354 N 
ATOM     44  C   UNL A   1      45.828  26.082  29.268  1.00  0.00     0.074 A 
ATOM     45  C   UNL A   1      46.114  24.712  28.902  1.00  0.00     0.031 C 
ATOM     46  C   UNL A   1      39.528  26.600  28.140  1.00  0.00     0.029 A 
ATOM     47  C   UNL A   1      40.422  27.612  28.693  1.00  0.00     0.049 A 
ATOM     48  H   UNL A   1      42.475  27.455  29.006  1.00  0.00     0.167 HD
ATOM     49  C   UNL A   1      46.754  26.953  29.735  1.00  0.00     0.031 A 
ATOM     50  C   UNL A   1      40.050  28.841  29.097  1.00  0.00     0.031 A 
ATOM     51  C   UNL A   1      46.467  28.314  30.104  1.00  0.00     0.049 A 
ATOM     52  C   UNL A   1      41.090  29.782  29.637  1.00  0.00     0.074 A 
ATOM     53  C   UNL A   1      47.345  29.292  30.542  1.00  0.00     0.029 A 
ATOM     54  N   UNL A   1      45.206  28.890  30.084  1.00  0.00    -0.354 N 
ATOM     55  N   UNL A   1      42.377  29.591  29.793  1.00  0.00    -0.248 NA
ATOM     56  C   UNL A   1      40.625  31.115  30.044  1.00  0.00     0.031 C 
ATOM     57  C   UNL A   1      46.605  30.439  30.846  1.00  0.00     0.029 A 
ATOM     58  C   UNL A   1      45.277  30.199  30.531  1.00  0.00     0.049 A 
ATOM     59  H   UNL A   1      44.382  28.435  29.796  1.00  0.00     0.167 HD
ATOM     60  C   UNL A   1      42.881  30.786  30.290  1.00  0.00     0.074 A 
ATOM     61  C   UNL A   1      41.763  31.702  30.390  1.00  0.00     0.031 C 
ATOM     62  C   UNL A   1      44.156  31.098  30.632  1.00  0.00     0.031 A 
BRANCH  49  63
ATOM     63  C   UNL A   1      48.164  26.449  29.884  1.00  0.00    -0.014 A 
ATOM     64  C   UNL A   1      48.603  25.854  31.079  1.00  0.00     0.009 A 
ATOM     65  C   UNL A   1      49.060  26.549  28.809  1.00  0.00     0.009 A 
ATOM     66  C   UNL A   1      49.921  25.411  31.207  1.00  0.00     0.001 A 
ATOM     67  C   UNL A   1      50.368  26.074  28.928  1.00  0.00     0.001 A 
ATOM     68  C   UNL A   1      50.801  25.517  30.131  1.00  0.00     0.000 A 
ENDBRANCH  49  63
BRANCH  50  69
ATOM     69  C   UNL A   1      38.625  29.254  29.002  1.00  0.00    -0.014 A 
ATOM     70  C   UNL A   1      37.773  29.152  30.112  1.00  0.00     0.009 A 
ATOM     71  C   UNL A   1      38.107  29.754  27.795  1.00  0.00     0.009 A 
ATOM     72  C   UNL A   1      36.427  29.512  30.008  1.00  0.00     0.001 A 
ATOM     73  C   UNL A   1      36.770  30.144  27.703  1.00  0.00     0.001 A 
ATOM     74  C   UNL A   1      35.928  30.013  28.806  1.00  0.00     0.000 A 
ENDBRANCH  50  69
BRANCH  62  75
ATOM     75  C   UNL A   1      44.416  32.499  31.112  1.00  0.00    -0.014 A 
ATOM     76  C   UNL A   1      44.370  32.826  32.476  1.00  0.00     0.009 A 
ATOM     77  C   UNL A   1      44.749  33.499  30.185  1.00  0.00     0.009 A 
ATOM     78  C   UNL A   1      44.614  34.135  32.897  1.00  0.00     0.001 A 
ATOM     79  C   UNL A   1      45.027  34.798  30.611  1.00  0.00     0.001 A 
ATOM     80  C   UNL A   1      44.949  35.118  31.965  1.00  0.00     0.000 A 
ENDBRANCH  62  75
ENDBRANCH  36  37
ENDBRANCH  28  31
ENDBRANCH  26  27
ENDBRANCH  25  26
ENDBRANCH   1  25
TORSDOF 15
ENDMDL
MODEL 2
REMARK VINA RESULT:     -11.1      0.450      5.924
REMARK SMILES COCCN1C(=O)CC[C@@H](C(=O)NCCCCNC(=O)c2ccc(-c3c4nc(c(-c5ccccc5)c5ccc([nH]5)c(-c5ccccc5)c5nc(c(-c6ccccc6)c6ccc3[nH]6)C=C5)C=C4)cc2)[C@H]1c1ccccc1C
REMARK SMILES IDX 15 1 14 2 13 3 11 4 12 5 10 7 5 8 6 9 69 10 7 11 8 12 9 13
REMARK SMILES IDX 4 14 3 15 2 16 1 17 70 18 71 19 75 20 72 21 74 22 76 23
REMARK SMILES IDX 73 24 16 25 17 26 18 27 19 28 20 30 21 31 22 32 68 33 23 34
REMARK SMILES IDX 67 35 24 36 25 37 26 38 61 39 27 40 66 41 60 42 62 43 28 44
REMARK SMILES IDX 65 45 59 46 58 47 29 49 51 50 36 51 50 52 37 53 40 54 49 55
REMARK SMILES IDX 63 56 38 57 39 58 48 60 64 61 41 62 30 63 31 64 35 65 32 66
REMARK SMILES IDX 34 67 33 68 52 69 53 70 57 71 54 72 56 73 55 74 42 75 43 76
REMARK SMILES IDX 47 77 44 78 46 79 45 80
REMARK H PARENT 13 6 18 29 62 48 40 59
REMARK Flexibility Score: inf
ROOT
ATOM      1  C   UNL A   1      36.401  20.808  25.014  1.00  0.00     0.023 C 
ENDROOT
BRANCH   1   2
ATOM      2  C   UNL A   1      36.212  22.253  24.563  1.00  0.00     0.116 C 
BRANCH   2   3
ATOM      3  N   UNL A   1      34.900  22.428  23.971  1.00  0.00    -0.356 N 
ATOM      4  C   UNL A   1      33.802  23.093  24.417  1.00  0.00     0.225 C 
ATOM      5  O   UNL A   1      32.801  23.042  23.703  1.00  0.00    -0.275 OA
ATOM      6  H   UNL A   1      34.784  21.991  23.096  1.00  0.00     0.163 HD
BRANCH   4   7
ATOM      7  C   UNL A   1      33.852  23.888  25.714  1.00  0.00     0.106 C 
ATOM      8  N   UNL A   1      31.560  25.003  25.881  1.00  0.00    -0.333 N 
ATOM      9  C   UNL A   1      31.063  23.985  26.698  1.00  0.00     0.223 C 
ATOM     10  C   UNL A   1      33.020  25.195  25.705  1.00  0.00     0.128 C 
ATOM     11  O   UNL A   1      29.932  24.001  27.184  1.00  0.00    -0.275 OA
ATOM     12  C   UNL A   1      31.922  22.758  26.905  1.00  0.00     0.101 C 
ATOM     13  C   UNL A   1      33.416  23.003  26.881  1.00  0.00     0.026 C 
BRANCH   8  14
ATOM     14  C   UNL A   1      30.635  26.119  25.600  1.00  0.00     0.148 C 
BRANCH  14  15
ATOM     15  C   UNL A   1      29.753  25.973  24.347  1.00  0.00     0.181 C 
BRANCH  15  16
ATOM     16  O   UNL A   1      30.044  26.896  23.297  1.00  0.00    -0.383 OA
ATOM     17  C   UNL A   1      30.247  28.227  23.751  1.00  0.00     0.194 C 
ENDBRANCH  15  16
ENDBRANCH  14  15
ENDBRANCH   8  14
BRANCH  10  18
ATOM     18  C   UNL A   1      33.413  26.215  24.620  1.00  0.00    -0.022 A 
ATOM     19  C   UNL A   1      33.307  25.866  23.257  1.00  0.00     0.006 A 
ATOM     20  C   UNL A   1      33.790  27.549  24.921  1.00  0.00    -0.046 A 
ATOM     21  C   UNL A   1      33.518  26.788  22.229  1.00  0.00     0.000 A 
ATOM     22  C   UNL A   1      33.961  28.477  23.870  1.00  0.00     0.004 A 
ATOM     23  C   UNL A   1      33.929  28.098  26.318  1.00  0.00     0.045 C 
ATOM     24  C   UNL A   1      33.825  28.102  22.537  1.00  0.00     0.000 A 
ENDBRANCH  10  18
ENDBRANCH   4   7
ENDBRANCH   2   3
ENDBRANCH   1   2
BRANCH   1  25
ATOM     25  C   UNL A   1      37.783  20.228  24.701  1.00  0.00     0.023 C 
BRANCH  25  26
ATOM     26  C   UNL A   1      38.860  20.556  25.730  1.00  0.00     0.116 C 
BRANCH  26  27
ATOM     27  N   UNL A   1      39.870  19.515  25.819  1.00  0.00    -0.352 N 
ATOM     28  C   UNL A   1      41.202  19.625  26.132  1.00  0.00     0.251 C 
ATOM     29  H   UNL A   1      39.554  18.602  25.629  1.00  0.00     0.163 HD
ATOM     30  O   UNL A   1      41.957  18.674  25.971  1.00  0.00    -0.269 OA
BRANCH  28  31
ATOM     31  C   UNL A   1      41.725  20.908  26.646  1.00  0.00     0.039 A 
ATOM     32  C   UNL A   1      42.236  21.840  25.741  1.00  0.00     0.014 A 
ATOM     33  C   UNL A   1      41.702  21.191  28.015  1.00  0.00     0.014 A 
ATOM     34  C   UNL A   1      42.668  23.083  26.204  1.00  0.00     0.010 A 
ATOM     35  C   UNL A   1      42.057  22.459  28.464  1.00  0.00     0.010 A 
ATOM     36  C   UNL A   1      42.549  23.416  27.565  1.00  0.00    -0.014 A 
BRANCH  36  37
ATOM     37  C   UNL A   1      42.930  24.762  28.060  1.00  0.00     0.031 A 
ATOM     38  C   UNL A   1      41.880  25.816  28.279  1.00  0.00     0.074 A 
ATOM     39  C   UNL A   1      44.230  25.056  28.259  1.00  0.00     0.049 A 
ATOM     40  N   UNL A   1      42.025  27.058  28.667  1.00  0.00    -0.248 NA
ATOM     41  C   UNL A   1      40.485  25.431  28.002  1.00  0.00     0.031 C 
ATOM     42  C   UNL A   1      45.349  24.137  28.042  1.00  0.00     0.029 A 
ATOM     43  N   UNL A   1      44.829  26.215  28.684  1.00  0.00    -0.354 N 
ATOM     44  C   UNL A   1      40.747  27.604  28.670  1.00  0.00     0.074 A 
ATOM     45  C   UNL A   1      39.848  26.578  28.187  1.00  0.00     0.031 C 
ATOM     46  C   UNL A   1      46.495  24.758  28.361  1.00  0.00     0.029 A 
ATOM     47  C   UNL A   1      46.197  26.130  28.762  1.00  0.00     0.049 A 
ATOM     48  H   UNL A   1      44.326  27.030  28.912  1.00  0.00     0.167 HD
ATOM     49  C   UNL A   1      40.351  28.840  29.058  1.00  0.00     0.031 A 
ATOM     50  C   UNL A   1      47.113  27.054  29.109  1.00  0.00     0.031 A 
ATOM     51  C   UNL A   1      41.247  29.861  29.532  1.00  0.00     0.049 A 
ATOM     52  C   UNL A   1      46.654  28.427  29.511  1.00  0.00     0.074 A 
ATOM     53  C   UNL A   1      40.940  31.130  29.995  1.00  0.00     0.029 A 
ATOM     54  N   UNL A   1      42.626  29.735  29.599  1.00  0.00    -0.354 N 
ATOM     55  N   UNL A   1      45.435  28.904  29.579  1.00  0.00    -0.248 NA
ATOM     56  C   UNL A   1      47.698  29.386  29.898  1.00  0.00     0.031 C 
ATOM     57  C   UNL A   1      42.138  31.792  30.284  1.00  0.00     0.029 A 
ATOM     58  C   UNL A   1      43.187  30.912  30.066  1.00  0.00     0.049 A 
ATOM     59  H   UNL A   1      43.132  28.929  29.350  1.00  0.00     0.167 HD
ATOM     60  C   UNL A   1      45.562  30.208  30.042  1.00  0.00     0.074 A 
ATOM     61  C   UNL A   1      46.977  30.439  30.256  1.00  0.00     0.031 C 
ATOM     62  C   UNL A   1      44.596  31.131  30.269  1.00  0.00     0.031 A 
BRANCH  49  63
ATOM     63  C   UNL A   1      38.882  29.154  28.971  1.00  0.00    -0.014 A 
ATOM     64  C   UNL A   1      38.306  29.624  27.779  1.00  0.00     0.009 A 
ATOM     65  C   UNL A   1      38.057  28.957  30.089  1.00  0.00     0.009 A 
ATOM     66  C   UNL A   1      36.945  29.931  27.722  1.00  0.00     0.001 A 
ATOM     67  C   UNL A   1      36.690  29.233  30.020  1.00  0.00     0.001 A 
ATOM     68  C   UNL A   1      36.138  29.731  28.840  1.00  0.00     0.000 A 
ENDBRANCH  49  63
BRANCH  50  69
ATOM     69  C   UNL A   1      48.559  26.708  29.097  1.00  0.00    -0.014 A 
ATOM     70  C   UNL A   1      49.329  26.885  27.937  1.00  0.00     0.009 A 
ATOM     71  C   UNL A   1      49.179  26.196  30.249  1.00  0.00     0.009 A 
ATOM     72  C   UNL A   1      50.680  26.529  27.922  1.00  0.00     0.001 A 
ATOM     73  C   UNL A   1      50.537  25.872  30.241  1.00  0.00     0.001 A 
ATOM     74  C   UNL A   1      51.284  26.028  29.074  1.00  0.00     0.000 A 
ENDBRANCH  50  69
BRANCH  62  75
ATOM     75  C   UNL A   1      45.032  32.464  30.811  1.00  0.00    -0.014 A 
ATOM     76  C   UNL A   1      45.334  33.538  29.959  1.00  0.00     0.009 A 
ATOM     77  C   UNL A   1      45.105  32.658  32.200  1.00  0.00     0.009 A 
ATOM     78  C   UNL A   1      45.737  34.767  30.487  1.00  0.00     0.001 A 
ATOM     79  C   UNL A   1      45.475  33.896  32.726  1.00  0.00     0.001 A 
ATOM     80  C   UNL A   1      45.802  34.946  31.869  1.00  0.00     0.000 A 
ENDBRANCH  62  75
ENDBRANCH  36  37
ENDBRANCH  28  31
ENDBRANCH  26  27
ENDBRANCH  25  26
ENDBRANCH   1  25
TORSDOF 15
ENDMDL
MODEL 3
REMARK VINA RESULT:     -10.8      1.453      6.518
REMARK SMILES COCCN1C(=O)CC[C@@H](C(=O)NCCCCNC(=O)c2ccc(-c3c4nc(c(-c5ccccc5)c5ccc([nH]5)c(-c5ccccc5)c5nc(c(-c6ccccc6)c6ccc3[nH]6)C=C5)C=C4)cc2)[C@H]1c1ccccc1C
REMARK SMILES IDX 15 1 14 2 13 3 11 4 12 5 10 7 5 8 6 9 69 10 7 11 8 12 9 13
REMARK SMILES IDX 4 14 3 15 2 16 1 17 70 18 71 19 75 20 72 21 74 22 76 23
REMARK SMILES IDX 73 24 16 25 17 26 18 27 19 28 20 30 21 31 22 32 68 33 23 34
REMARK SMILES IDX 67 35 24 36 25 37 26 38 61 39 27 40 66 41 60 42 62 43 28 44
REMARK SMILES IDX 65 45 59 46 58 47 29 49 51 50 36 51 50 52 37 53 40 54 49 55
REMARK SMILES IDX 63 56 38 57 39 58 48 60 64 61 41 62 30 63 31 64 35 65 32 66
REMARK SMILES IDX 34 67 33 68 52 69 53 70 57 71 54 72 56 73 55 74 42 75 43 76
REMARK SMILES IDX 47 77 44 78 46 79 45 80
REMARK H PARENT 13 6 18 29 62 48 40 59
REMARK Flexibility Score: inf
ROOT
ATOM      1  C   UNL A   1      36.991  20.185  24.634  1.00  0.00     0.023 C 
ENDROOT
BRANCH   1   2
ATOM      2  C   UNL A   1      37.239  21.671  24.871  1.00  0.00     0.116 C 
BRANCH   2   3
ATOM      3  N   UNL A   1      36.474  22.133  26.014  1.00  0.00    -0.356 N 
ATOM      4  C   UNL A   1      35.380  22.935  26.088  1.00  0.00     0.225 C 
ATOM      5  O   UNL A   1      34.958  23.186  27.217  1.00  0.00    -0.275 OA
ATOM      6  H   UNL A   1      36.803  21.810  26.884  1.00  0.00     0.163 HD
BRANCH   4   7
ATOM      7  C   UNL A   1      34.707  23.447  24.823  1.00  0.00     0.106 C 
ATOM      8  N   UNL A   1      32.239  23.665  25.442  1.00  0.00    -0.333 N 
ATOM      9  C   UNL A   1      32.376  25.023  25.740  1.00  0.00     0.223 C 
ATOM     10  C   UNL A   1      33.251  22.958  24.621  1.00  0.00     0.128 C 
ATOM     11  O   UNL A   1      31.432  25.741  26.069  1.00  0.00    -0.275 OA
ATOM     12  C   UNL A   1      33.770  25.608  25.759  1.00  0.00     0.101 C 
ATOM     13  C   UNL A   1      34.751  24.975  24.794  1.00  0.00     0.026 C 
BRANCH   8  14
ATOM     14  C   UNL A   1      30.876  23.109  25.565  1.00  0.00     0.148 C 
BRANCH  14  15
ATOM     15  C   UNL A   1      30.502  22.522  26.938  1.00  0.00     0.181 C 
BRANCH  15  16
ATOM     16  O   UNL A   1      29.310  23.057  27.515  1.00  0.00    -0.383 OA
ATOM     17  C   UNL A   1      28.238  22.126  27.568  1.00  0.00     0.194 C 
ENDBRANCH  15  16
ENDBRANCH  14  15
ENDBRANCH   8  14
BRANCH  10  18
ATOM     18  C   UNL A   1      33.076  21.430  24.552  1.00  0.00    -0.022 A 
ATOM     19  C   UNL A   1      33.371  20.637  25.682  1.00  0.00     0.006 A 
ATOM     20  C   UNL A   1      32.529  20.769  23.421  1.00  0.00    -0.046 A 
ATOM     21  C   UNL A   1      33.105  19.267  25.725  1.00  0.00     0.000 A 
ATOM     22  C   UNL A   1      32.231  19.391  23.497  1.00  0.00     0.004 A 
ATOM     23  C   UNL A   1      32.136  21.462  22.141  1.00  0.00     0.045 C 
ATOM     24  C   UNL A   1      32.515  18.647  24.638  1.00  0.00     0.000 A 
ENDBRANCH  10  18
ENDBRANCH   4   7
ENDBRANCH   2   3
ENDBRANCH   1   2
BRANCH   1  25
ATOM     25  C   UNL A   1      38.168  19.283  25.015  1.00  0.00     0.023 C 
BRANCH  25  26
ATOM     26  C   UNL A   1      39.238  19.957  25.867  1.00  0.00     0.116 C 
BRANCH  26  27
ATOM     27  N   UNL A   1      40.464  19.177  25.928  1.00  0.00    -0.352 N 
ATOM     28  C   UNL A   1      41.745  19.596  26.190  1.00  0.00     0.251 C 
ATOM     29  H   UNL A   1      40.360  18.213  25.757  1.00  0.00     0.163 HD
ATOM     30  O   UNL A   1      42.692  18.841  26.009  1.00  0.00    -0.269 OA
BRANCH  28  31
ATOM     31  C   UNL A   1      41.974  20.973  26.674  1.00  0.00     0.039 A 
ATOM     32  C   UNL A   1      42.025  21.206  28.050  1.00  0.00     0.014 A 
ATOM     33  C   UNL A   1      42.146  22.027  25.772  1.00  0.00     0.014 A 
ATOM     34  C   UNL A   1      42.310  22.488  28.520  1.00  0.00     0.010 A 
ATOM     35  C   UNL A   1      42.510  23.286  26.242  1.00  0.00     0.010 A 
ATOM     36  C   UNL A   1      42.590  23.530  27.620  1.00  0.00    -0.014 A 
BRANCH  36  37
ATOM     37  C   UNL A   1      42.972  24.880  28.106  1.00  0.00     0.031 A 
ATOM     38  C   UNL A   1      41.920  25.927  28.345  1.00  0.00     0.074 A 
ATOM     39  C   UNL A   1      44.274  25.182  28.278  1.00  0.00     0.049 A 
ATOM     40  N   UNL A   1      42.065  27.171  28.727  1.00  0.00    -0.248 NA
ATOM     41  C   UNL A   1      40.523  25.533  28.097  1.00  0.00     0.031 C 
ATOM     42  C   UNL A   1      45.395  24.270  28.040  1.00  0.00     0.029 A 
ATOM     43  N   UNL A   1      44.875  26.345  28.689  1.00  0.00    -0.354 N 
ATOM     44  C   UNL A   1      40.785  27.708  28.756  1.00  0.00     0.074 A 
ATOM     45  C   UNL A   1      39.882  26.676  28.294  1.00  0.00     0.031 C 
ATOM     46  C   UNL A   1      46.543  24.899  28.334  1.00  0.00     0.029 A 
ATOM     47  C   UNL A   1      46.245  26.269  28.739  1.00  0.00     0.049 A 
ATOM     48  H   UNL A   1      44.371  27.157  28.926  1.00  0.00     0.167 HD
ATOM     49  C   UNL A   1      40.389  28.942  29.151  1.00  0.00     0.031 A 
ATOM     50  C   UNL A   1      47.162  27.199  29.066  1.00  0.00     0.031 A 
ATOM     51  C   UNL A   1      41.288  29.970  29.605  1.00  0.00     0.049 A 
ATOM     52  C   UNL A   1      46.702  28.570  29.476  1.00  0.00     0.074 A 
ATOM     53  C   UNL A   1      40.982  31.237  30.072  1.00  0.00     0.029 A 
ATOM     54  N   UNL A   1      42.668  29.853  29.643  1.00  0.00    -0.354 N 
ATOM     55  N   UNL A   1      45.482  29.040  29.568  1.00  0.00    -0.248 NA
ATOM     56  C   UNL A   1      47.748  29.536  29.839  1.00  0.00     0.031 C 
ATOM     57  C   UNL A   1      42.181  31.908  30.335  1.00  0.00     0.029 A 
ATOM     58  C   UNL A   1      43.231  31.034  30.098  1.00  0.00     0.049 A 
ATOM     59  H   UNL A   1      43.174  29.049  29.385  1.00  0.00     0.167 HD
ATOM     60  C   UNL A   1      45.610  30.345  30.026  1.00  0.00     0.074 A 
ATOM     61  C   UNL A   1      47.027  30.585  30.211  1.00  0.00     0.031 C 
ATOM     62  C   UNL A   1      44.643  31.262  30.272  1.00  0.00     0.031 A 
BRANCH  49  63
ATOM     63  C   UNL A   1      38.917  29.247  29.093  1.00  0.00    -0.014 A 
ATOM     64  C   UNL A   1      38.096  29.099  30.224  1.00  0.00     0.009 A 
ATOM     65  C   UNL A   1      38.344  29.711  27.899  1.00  0.00     0.009 A 
ATOM     66  C   UNL A   1      36.728  29.367  30.147  1.00  0.00     0.001 A 
ATOM     67  C   UNL A   1      36.982  30.010  27.833  1.00  0.00     0.001 A 
ATOM     68  C   UNL A   1      36.173  29.826  28.954  1.00  0.00     0.000 A 
ENDBRANCH  49  63
BRANCH  50  69
ATOM     69  C   UNL A   1      48.610  26.862  29.025  1.00  0.00    -0.014 A 
ATOM     70  C   UNL A   1      49.263  26.367  30.164  1.00  0.00     0.009 A 
ATOM     71  C   UNL A   1      49.348  27.036  27.844  1.00  0.00     0.009 A 
ATOM     72  C   UNL A   1      50.630  26.082  30.129  1.00  0.00     0.001 A 
ATOM     73  C   UNL A   1      50.707  26.720  27.802  1.00  0.00     0.001 A 
ATOM     74  C   UNL A   1      51.350  26.253  28.948  1.00  0.00     0.000 A 
ENDBRANCH  50  69
BRANCH  62  75
ATOM     75  C   UNL A   1      45.081  32.599  30.802  1.00  0.00    -0.014 A 
ATOM     76  C   UNL A   1      45.227  32.829  32.179  1.00  0.00     0.009 A 
ATOM     77  C   UNL A   1      45.388  33.634  29.904  1.00  0.00     0.009 A 
ATOM     78  C   UNL A   1      45.634  34.080  32.647  1.00  0.00     0.001 A 
ATOM     79  C   UNL A   1      45.828  34.873  30.373  1.00  0.00     0.001 A 
ATOM     80  C   UNL A   1      45.941  35.099  31.743  1.00  0.00     0.000 A 
ENDBRANCH  62  75
ENDBRANCH  36  37
ENDBRANCH  28  31
ENDBRANCH  26  27
ENDBRANCH  25  26
ENDBRANCH   1  25
TORSDOF 15
ENDMDL
