MODEL 1
REMARK VINA RESULT:     -10.2      0.000      0.000
REMARK SMILES CCCC[C@@H](C)[NH2+]Cc1ccc(C(=O)NCCCCNC(=O)c2ccc(-c3c4nc(c(-c5ccccc5)c5ccc([nH]5)c(-c5ccccc5)c5nc(c(-c6ccccc6)c6ccc3[nH]6)C=C5)C=C4)cc2)cn1
REMARK SMILES IDX 13 1 14 2 15 3 12 5 9 6 10 7 72 8 11 9 71 10 8 11 7 12 5 15
REMARK SMILES IDX 6 16 4 17 3 18 2 19 1 20 16 21 17 22 18 23 19 24 20 25 21 26
REMARK SMILES IDX 22 28 23 29 24 30 70 31 25 32 69 33 26 34 27 35 28 36 63 37
REMARK SMILES IDX 29 38 68 39 62 40 64 41 30 42 67 43 61 44 60 45 31 47 53 48
REMARK SMILES IDX 38 49 52 50 39 51 42 52 51 53 65 54 40 55 41 56 50 58 66 59
REMARK SMILES IDX 43 60 32 61 33 62 37 63 34 64 36 65 35 66 54 67 55 68 59 69
REMARK SMILES IDX 56 70 58 71 57 72 44 73 45 74 49 75 46 76 48 77 47 78
REMARK H PARENT 15 4 7 13 7 14 20 27 64 46 42 57
REMARK Flexibility Score: inf
ROOT
ATOM      1  C   UNL A   1      32.903  19.477  25.055  1.00  0.00     0.252 C 
ATOM      2  O   UNL A   1      32.165  18.546  25.369  1.00  0.00    -0.269 OA
ATOM      3  N   UNL A   1      34.253  19.359  25.295  1.00  0.00    -0.352 N 
ATOM      4  H   UNL A   1      34.526  18.481  25.646  1.00  0.00     0.163 HD
ENDROOT
BRANCH   1   5
ATOM      5  C   UNL A   1      32.305  20.705  24.496  1.00  0.00     0.058 A 
ATOM      6  C   UNL A   1      31.386  23.185  23.731  1.00  0.00     0.094 A 
ATOM      7  C   UNL A   1      31.877  22.318  22.757  1.00  0.00     0.030 A 
ATOM      8  N   UNL A   1      31.230  22.809  25.029  1.00  0.00    -0.255 NA
ATOM      9  C   UNL A   1      32.323  21.053  23.146  1.00  0.00     0.017 A 
ATOM     10  C   UNL A   1      31.684  21.580  25.378  1.00  0.00     0.125 A 
BRANCH   6  11
ATOM     11  C   UNL A   1      31.166  24.651  23.416  1.00  0.00     0.318 C 
BRANCH  11  12
ATOM     12  N   UNL A   1      29.897  25.179  23.952  1.00  0.00    -0.339 N 
ATOM     13  H   UNL A   1      29.243  25.281  23.175  1.00  0.00     0.346 HD
ATOM     14  H   UNL A   1      29.586  24.513  24.659  1.00  0.00     0.346 HD
BRANCH  12  15
ATOM     15  C   UNL A   1      30.002  26.483  24.633  1.00  0.00     0.179 C 
ATOM     16  C   UNL A   1      30.891  27.478  23.875  1.00  0.00     0.075 C 
BRANCH  15  17
ATOM     17  C   UNL A   1      30.593  26.203  26.035  1.00  0.00     0.065 C 
BRANCH  17  18
ATOM     18  C   UNL A   1      31.809  27.058  26.427  1.00  0.00     0.006 C 
BRANCH  18  19
ATOM     19  C   UNL A   1      31.521  28.196  27.409  1.00  0.00    -0.003 C 
ATOM     20  C   UNL A   1      32.512  29.343  27.292  1.00  0.00     0.004 C 
ENDBRANCH  18  19
ENDBRANCH  17  18
ENDBRANCH  15  17
ENDBRANCH  12  15
ENDBRANCH  11  12
ENDBRANCH   6  11
ENDBRANCH   1   5
BRANCH   3  21
ATOM     21  C   UNL A   1      35.347  20.301  25.123  1.00  0.00     0.116 C 
BRANCH  21  22
ATOM     22  C   UNL A   1      36.691  19.628  24.850  1.00  0.00     0.023 C 
BRANCH  22  23
ATOM     23  C   UNL A   1      37.906  20.552  24.771  1.00  0.00     0.023 C 
BRANCH  23  24
ATOM     24  C   UNL A   1      38.869  20.506  25.954  1.00  0.00     0.116 C 
BRANCH  24  25
ATOM     25  N   UNL A   1      39.936  19.526  25.814  1.00  0.00    -0.352 N 
ATOM     26  C   UNL A   1      41.280  19.667  26.077  1.00  0.00     0.251 C 
ATOM     27  H   UNL A   1      39.659  18.641  25.487  1.00  0.00     0.163 HD
ATOM     28  O   UNL A   1      42.054  18.742  25.846  1.00  0.00    -0.269 OA
BRANCH  26  29
ATOM     29  C   UNL A   1      41.798  20.953  26.593  1.00  0.00     0.039 A 
ATOM     30  C   UNL A   1      42.221  21.923  25.679  1.00  0.00     0.014 A 
ATOM     31  C   UNL A   1      41.836  21.215  27.965  1.00  0.00     0.014 A 
ATOM     32  C   UNL A   1      42.598  23.187  26.136  1.00  0.00     0.010 A 
ATOM     33  C   UNL A   1      42.148  22.495  28.413  1.00  0.00     0.010 A 
ATOM     34  C   UNL A   1      42.522  23.497  27.503  1.00  0.00    -0.014 A 
BRANCH  34  35
ATOM     35  C   UNL A   1      42.808  24.867  28.001  1.00  0.00     0.031 A 
ATOM     36  C   UNL A   1      44.207  25.256  28.389  1.00  0.00     0.074 A 
ATOM     37  C   UNL A   1      41.794  25.737  28.175  1.00  0.00     0.049 A 
ATOM     38  N   UNL A   1      44.638  26.378  28.907  1.00  0.00    -0.248 NA
ATOM     39  C   UNL A   1      45.255  24.241  28.194  1.00  0.00     0.031 C 
ATOM     40  C   UNL A   1      40.385  25.470  27.880  1.00  0.00     0.029 A 
ATOM     41  N   UNL A   1      41.794  27.024  28.654  1.00  0.00    -0.354 N 
ATOM     42  C   UNL A   1      45.998  26.199  29.119  1.00  0.00     0.074 A 
ATOM     43  C   UNL A   1      46.314  24.845  28.716  1.00  0.00     0.031 C 
ATOM     44  C   UNL A   1      39.662  26.567  28.162  1.00  0.00     0.029 A 
ATOM     45  C   UNL A   1      40.548  27.598  28.689  1.00  0.00     0.049 A 
ATOM     46  H   UNL A   1      42.612  27.491  28.944  1.00  0.00     0.167 HD
ATOM     47  C   UNL A   1      46.908  27.083  29.590  1.00  0.00     0.031 A 
ATOM     48  C   UNL A   1      40.158  28.819  29.106  1.00  0.00     0.031 A 
ATOM     49  C   UNL A   1      46.601  28.433  29.978  1.00  0.00     0.049 A 
ATOM     50  C   UNL A   1      41.187  29.783  29.624  1.00  0.00     0.074 A 
ATOM     51  C   UNL A   1      47.466  29.425  30.408  1.00  0.00     0.029 A 
ATOM     52  N   UNL A   1      45.328  28.983  29.981  1.00  0.00    -0.354 N 
ATOM     53  N   UNL A   1      42.482  29.620  29.751  1.00  0.00    -0.248 NA
ATOM     54  C   UNL A   1      40.702  31.106  30.043  1.00  0.00     0.031 C 
ATOM     55  C   UNL A   1      46.709  30.562  30.714  1.00  0.00     0.029 A 
ATOM     56  C   UNL A   1      45.381  30.293  30.426  1.00  0.00     0.049 A 
ATOM     57  H   UNL A   1      44.509  28.511  29.708  1.00  0.00     0.167 HD
ATOM     58  C   UNL A   1      42.968  30.825  30.240  1.00  0.00     0.074 A 
ATOM     59  C   UNL A   1      41.833  31.715  30.372  1.00  0.00     0.031 C 
ATOM     60  C   UNL A   1      44.242  31.165  30.550  1.00  0.00     0.031 A 
BRANCH  47  61
ATOM     61  C   UNL A   1      48.330  26.611  29.715  1.00  0.00    -0.014 A 
ATOM     62  C   UNL A   1      49.255  26.811  28.678  1.00  0.00     0.009 A 
ATOM     63  C   UNL A   1      48.757  25.983  30.895  1.00  0.00     0.009 A 
ATOM     64  C   UNL A   1      50.569  26.357  28.806  1.00  0.00     0.001 A 
ATOM     65  C   UNL A   1      50.079  25.556  31.031  1.00  0.00     0.001 A 
ATOM     66  C   UNL A   1      50.981  25.734  29.983  1.00  0.00     0.000 A 
ENDBRANCH  47  61
BRANCH  48  67
ATOM     67  C   UNL A   1      38.727  29.210  29.031  1.00  0.00    -0.014 A 
ATOM     68  C   UNL A   1      37.895  29.078  30.154  1.00  0.00     0.009 A 
ATOM     69  C   UNL A   1      38.183  29.711  27.838  1.00  0.00     0.009 A 
ATOM     70  C   UNL A   1      36.542  29.414  30.077  1.00  0.00     0.001 A 
ATOM     71  C   UNL A   1      36.834  30.071  27.771  1.00  0.00     0.001 A 
ATOM     72  C   UNL A   1      36.014  29.914  28.887  1.00  0.00     0.000 A 
ENDBRANCH  48  67
BRANCH  60  73
ATOM     73  C   UNL A   1      44.482  32.568  31.031  1.00  0.00    -0.014 A 
ATOM     74  C   UNL A   1      44.830  33.594  30.139  1.00  0.00     0.009 A 
ATOM     75  C   UNL A   1      44.315  32.872  32.391  1.00  0.00     0.009 A 
ATOM     76  C   UNL A   1      45.037  34.893  30.607  1.00  0.00     0.001 A 
ATOM     77  C   UNL A   1      44.498  34.178  32.851  1.00  0.00     0.001 A 
ATOM     78  C   UNL A   1      44.867  35.184  31.960  1.00  0.00     0.000 A 
ENDBRANCH  60  73
ENDBRANCH  34  35
ENDBRANCH  26  29
ENDBRANCH  24  25
ENDBRANCH  23  24
ENDBRANCH  22  23
ENDBRANCH  21  22
ENDBRANCH   3  21
TORSDOF 17
ENDMDL
MODEL 2
REMARK VINA RESULT:      -9.9      0.358      6.081
REMARK SMILES CCCC[C@@H](C)[NH2+]Cc1ccc(C(=O)NCCCCNC(=O)c2ccc(-c3c4nc(c(-c5ccccc5)c5ccc([nH]5)c(-c5ccccc5)c5nc(c(-c6ccccc6)c6ccc3[nH]6)C=C5)C=C4)cc2)cn1
REMARK SMILES IDX 13 1 14 2 15 3 12 5 9 6 10 7 72 8 11 9 71 10 8 11 7 12 5 15
REMARK SMILES IDX 6 16 4 17 3 18 2 19 1 20 16 21 17 22 18 23 19 24 20 25 21 26
REMARK SMILES IDX 22 28 23 29 24 30 70 31 25 32 69 33 26 34 27 35 28 36 63 37
REMARK SMILES IDX 29 38 68 39 62 40 64 41 30 42 67 43 61 44 60 45 31 47 53 48
REMARK SMILES IDX 38 49 52 50 39 51 42 52 51 53 65 54 40 55 41 56 50 58 66 59
REMARK SMILES IDX 43 60 32 61 33 62 37 63 34 64 36 65 35 66 54 67 55 68 59 69
REMARK SMILES IDX 56 70 58 71 57 72 44 73 45 74 49 75 46 76 48 77 47 78
REMARK H PARENT 15 4 7 13 7 14 20 27 64 46 42 57
REMARK Flexibility Score: inf
ROOT
ATOM      1  C   UNL A   1      32.832  19.676  25.019  1.00  0.00     0.252 C 
ATOM      2  O   UNL A   1      32.129  18.699  25.268  1.00  0.00    -0.269 OA
ATOM      3  N   UNL A   1      34.172  19.621  25.321  1.00  0.00    -0.352 N 
ATOM      4  H   UNL A   1      34.475  18.748  25.660  1.00  0.00     0.163 HD
ENDROOT
BRANCH   1   5
ATOM      5  C   UNL A   1      32.196  20.889  24.466  1.00  0.00     0.058 A 
ATOM      6  C   UNL A   1      31.213  23.346  23.706  1.00  0.00     0.094 A 
ATOM      7  C   UNL A   1      31.689  22.477  22.726  1.00  0.00     0.030 A 
ATOM      8  N   UNL A   1      31.104  22.980  25.011  1.00  0.00    -0.255 NA
ATOM      9  C   UNL A   1      32.168  21.223  23.113  1.00  0.00     0.017 A 
ATOM     10  C   UNL A   1      31.589  21.763  25.358  1.00  0.00     0.125 A 
BRANCH   6  11
ATOM     11  C   UNL A   1      30.960  24.805  23.383  1.00  0.00     0.318 C 
BRANCH  11  12
ATOM     12  N   UNL A   1      29.775  25.357  24.068  1.00  0.00    -0.339 N 
ATOM     13  H   UNL A   1      29.036  25.476  23.375  1.00  0.00     0.346 HD
ATOM     14  H   UNL A   1      29.537  24.694  24.806  1.00  0.00     0.346 HD
BRANCH  12  15
ATOM     15  C   UNL A   1      29.989  26.655  24.736  1.00  0.00     0.179 C 
ATOM     16  C   UNL A   1      30.904  27.590  23.933  1.00  0.00     0.075 C 
BRANCH  15  17
ATOM     17  C   UNL A   1      30.623  26.344  26.112  1.00  0.00     0.065 C 
BRANCH  17  18
ATOM     18  C   UNL A   1      31.860  27.180  26.478  1.00  0.00     0.006 C 
BRANCH  18  19
ATOM     19  C   UNL A   1      31.593  28.385  27.383  1.00  0.00    -0.003 C 
ATOM     20  C   UNL A   1      32.694  29.431  27.315  1.00  0.00     0.004 C 
ENDBRANCH  18  19
ENDBRANCH  17  18
ENDBRANCH  15  17
ENDBRANCH  12  15
ENDBRANCH  11  12
ENDBRANCH   6  11
ENDBRANCH   1   5
BRANCH   3  21
ATOM     21  C   UNL A   1      35.222  20.623  25.231  1.00  0.00     0.116 C 
BRANCH  21  22
ATOM     22  C   UNL A   1      36.581  20.047  24.836  1.00  0.00     0.023 C 
BRANCH  22  23
ATOM     23  C   UNL A   1      37.745  21.035  24.786  1.00  0.00     0.023 C 
BRANCH  23  24
ATOM     24  C   UNL A   1      38.753  20.952  25.930  1.00  0.00     0.116 C 
BRANCH  24  25
ATOM     25  N   UNL A   1      39.759  19.915  25.763  1.00  0.00    -0.352 N 
ATOM     26  C   UNL A   1      41.103  19.959  26.055  1.00  0.00     0.251 C 
ATOM     27  H   UNL A   1      39.434  19.064  25.390  1.00  0.00     0.163 HD
ATOM     28  O   UNL A   1      41.823  18.998  25.794  1.00  0.00    -0.269 OA
BRANCH  26  29
ATOM     29  C   UNL A   1      41.691  21.184  26.638  1.00  0.00     0.039 A 
ATOM     30  C   UNL A   1      42.153  22.184  25.777  1.00  0.00     0.014 A 
ATOM     31  C   UNL A   1      41.753  21.363  28.022  1.00  0.00     0.014 A 
ATOM     32  C   UNL A   1      42.598  23.398  26.303  1.00  0.00     0.010 A 
ATOM     33  C   UNL A   1      42.133  22.598  28.541  1.00  0.00     0.010 A 
ATOM     34  C   UNL A   1      42.550  23.631  27.686  1.00  0.00    -0.014 A 
BRANCH  34  35
ATOM     35  C   UNL A   1      42.909  24.954  28.259  1.00  0.00     0.031 A 
ATOM     36  C   UNL A   1      41.850  25.997  28.480  1.00  0.00     0.074 A 
ATOM     37  C   UNL A   1      44.201  25.242  28.510  1.00  0.00     0.049 A 
ATOM     38  N   UNL A   1      41.980  27.228  28.904  1.00  0.00    -0.248 NA
ATOM     39  C   UNL A   1      40.466  25.615  28.157  1.00  0.00     0.031 C 
ATOM     40  C   UNL A   1      45.331  24.336  28.297  1.00  0.00     0.029 A 
ATOM     41  N   UNL A   1      44.783  26.389  28.992  1.00  0.00    -0.354 N 
ATOM     42  C   UNL A   1      40.703  27.774  28.879  1.00  0.00     0.074 A 
ATOM     43  C   UNL A   1      39.819  26.754  28.356  1.00  0.00     0.031 C 
ATOM     44  C   UNL A   1      46.465  24.953  28.668  1.00  0.00     0.029 A 
ATOM     45  C   UNL A   1      46.148  26.306  29.110  1.00  0.00     0.049 A 
ATOM     46  H   UNL A   1      44.268  27.195  29.230  1.00  0.00     0.167 HD
ATOM     47  C   UNL A   1      40.297  29.004  29.272  1.00  0.00     0.031 A 
ATOM     48  C   UNL A   1      47.047  27.220  29.524  1.00  0.00     0.031 A 
ATOM     49  C   UNL A   1      41.171  30.014  29.806  1.00  0.00     0.049 A 
ATOM     50  C   UNL A   1      46.572  28.578  29.955  1.00  0.00     0.074 A 
ATOM     51  C   UNL A   1      40.844  31.269  30.289  1.00  0.00     0.029 A 
ATOM     52  N   UNL A   1      42.545  29.883  29.927  1.00  0.00    -0.354 N 
ATOM     53  N   UNL A   1      45.350  29.052  29.991  1.00  0.00    -0.248 NA
ATOM     54  C   UNL A   1      47.600  29.524  30.415  1.00  0.00     0.031 C 
ATOM     55  C   UNL A   1      42.028  31.915  30.663  1.00  0.00     0.029 A 
ATOM     56  C   UNL A   1      43.084  31.043  30.458  1.00  0.00     0.049 A 
ATOM     57  H   UNL A   1      43.062  29.084  29.673  1.00  0.00     0.167 HD
ATOM     58  C   UNL A   1      45.460  30.340  30.501  1.00  0.00     0.074 A 
ATOM     59  C   UNL A   1      46.864  30.567  30.774  1.00  0.00     0.031 C 
ATOM     60  C   UNL A   1      44.483  31.252  30.725  1.00  0.00     0.031 A 
BRANCH  47  61
ATOM     61  C   UNL A   1      38.835  29.325  29.133  1.00  0.00    -0.014 A 
ATOM     62  C   UNL A   1      37.954  29.181  30.216  1.00  0.00     0.009 A 
ATOM     63  C   UNL A   1      38.339  29.806  27.911  1.00  0.00     0.009 A 
ATOM     64  C   UNL A   1      36.597  29.476  30.067  1.00  0.00     0.001 A 
ATOM     65  C   UNL A   1      36.986  30.126  27.774  1.00  0.00     0.001 A 
ATOM     66  C   UNL A   1      36.115  29.951  28.848  1.00  0.00     0.000 A 
ENDBRANCH  47  61
BRANCH  48  67
ATOM     67  C   UNL A   1      48.491  26.875  29.572  1.00  0.00    -0.014 A 
ATOM     68  C   UNL A   1      49.320  27.134  28.469  1.00  0.00     0.009 A 
ATOM     69  C   UNL A   1      49.049  26.281  30.715  1.00  0.00     0.009 A 
ATOM     70  C   UNL A   1      50.671  26.781  28.499  1.00  0.00     0.001 A 
ATOM     71  C   UNL A   1      50.406  25.952  30.752  1.00  0.00     0.001 A 
ATOM     72  C   UNL A   1      51.213  26.194  29.642  1.00  0.00     0.000 A 
ENDBRANCH  48  67
BRANCH  60  73
ATOM     73  C   UNL A   1      44.896  32.566  31.324  1.00  0.00    -0.014 A 
ATOM     74  C   UNL A   1      44.961  32.744  32.714  1.00  0.00     0.009 A 
ATOM     75  C   UNL A   1      45.262  33.627  30.482  1.00  0.00     0.009 A 
ATOM     76  C   UNL A   1      45.357  33.971  33.249  1.00  0.00     0.001 A 
ATOM     77  C   UNL A   1      45.682  34.845  31.020  1.00  0.00     0.001 A 
ATOM     78  C   UNL A   1      45.721  35.018  32.402  1.00  0.00     0.000 A 
ENDBRANCH  60  73
ENDBRANCH  34  35
ENDBRANCH  26  29
ENDBRANCH  24  25
ENDBRANCH  23  24
ENDBRANCH  22  23
ENDBRANCH  21  22
ENDBRANCH   3  21
TORSDOF 17
ENDMDL
MODEL 3
REMARK VINA RESULT:      -9.8      0.979      6.097
REMARK SMILES CCCC[C@@H](C)[NH2+]Cc1ccc(C(=O)NCCCCNC(=O)c2ccc(-c3c4nc(c(-c5ccccc5)c5ccc([nH]5)c(-c5ccccc5)c5nc(c(-c6ccccc6)c6ccc3[nH]6)C=C5)C=C4)cc2)cn1
REMARK SMILES IDX 13 1 14 2 15 3 12 5 9 6 10 7 72 8 11 9 71 10 8 11 7 12 5 15
REMARK SMILES IDX 6 16 4 17 3 18 2 19 1 20 16 21 17 22 18 23 19 24 20 25 21 26
REMARK SMILES IDX 22 28 23 29 24 30 70 31 25 32 69 33 26 34 27 35 28 36 63 37
REMARK SMILES IDX 29 38 68 39 62 40 64 41 30 42 67 43 61 44 60 45 31 47 53 48
REMARK SMILES IDX 38 49 52 50 39 51 42 52 51 53 65 54 40 55 41 56 50 58 66 59
REMARK SMILES IDX 43 60 32 61 33 62 37 63 34 64 36 65 35 66 54 67 55 68 59 69
REMARK SMILES IDX 56 70 58 71 57 72 44 73 45 74 49 75 46 76 48 77 47 78
REMARK H PARENT 15 4 7 13 7 14 20 27 64 46 42 57
REMARK Flexibility Score: inf
ROOT
ATOM      1  C   UNL A   1      32.963  19.739  25.042  1.00  0.00     0.252 C 
ATOM      2  O   UNL A   1      32.191  18.806  25.250  1.00  0.00    -0.269 OA
ATOM      3  N   UNL A   1      34.312  19.530  25.212  1.00  0.00    -0.352 N 
ATOM      4  H   UNL A   1      34.554  18.601  25.426  1.00  0.00     0.163 HD
ENDROOT
BRANCH   1   5
ATOM      5  C   UNL A   1      32.407  21.059  24.683  1.00  0.00     0.058 A 
ATOM      6  C   UNL A   1      31.162  23.329  23.745  1.00  0.00     0.094 A 
ATOM      7  C   UNL A   1      31.220  23.110  25.120  1.00  0.00     0.030 A 
ATOM      8  N   UNL A   1      31.802  22.525  22.853  1.00  0.00    -0.255 NA
ATOM      9  C   UNL A   1      31.871  21.968  25.593  1.00  0.00     0.017 A 
ATOM     10  C   UNL A   1      32.414  21.418  23.341  1.00  0.00     0.125 A 
BRANCH   6  11
ATOM     11  C   UNL A   1      30.232  24.378  23.170  1.00  0.00     0.318 C 
BRANCH  11  12
ATOM     12  N   UNL A   1      30.742  25.754  23.319  1.00  0.00    -0.339 N 
ATOM     13  H   UNL A   1      31.683  25.703  23.708  1.00  0.00     0.346 HD
ATOM     14  H   UNL A   1      30.709  26.173  22.389  1.00  0.00     0.346 HD
BRANCH  12  15
ATOM     15  C   UNL A   1      29.934  26.628  24.191  1.00  0.00     0.179 C 
ATOM     16  C   UNL A   1      29.286  27.791  23.428  1.00  0.00     0.075 C 
BRANCH  15  17
ATOM     17  C   UNL A   1      30.890  27.172  25.278  1.00  0.00     0.065 C 
BRANCH  17  18
ATOM     18  C   UNL A   1      32.389  26.955  25.015  1.00  0.00     0.006 C 
BRANCH  18  19
ATOM     19  C   UNL A   1      33.090  25.989  25.973  1.00  0.00    -0.003 C 
ATOM     20  C   UNL A   1      34.309  25.323  25.354  1.00  0.00     0.004 C 
ENDBRANCH  18  19
ENDBRANCH  17  18
ENDBRANCH  15  17
ENDBRANCH  12  15
ENDBRANCH  11  12
ENDBRANCH   6  11
ENDBRANCH   1   5
BRANCH   3  21
ATOM     21  C   UNL A   1      35.444  20.439  25.131  1.00  0.00     0.116 C 
BRANCH  21  22
ATOM     22  C   UNL A   1      36.782  19.728  24.929  1.00  0.00     0.023 C 
BRANCH  22  23
ATOM     23  C   UNL A   1      38.009  20.625  24.780  1.00  0.00     0.023 C 
BRANCH  23  24
ATOM     24  C   UNL A   1      39.005  20.608  25.937  1.00  0.00     0.116 C 
BRANCH  24  25
ATOM     25  N   UNL A   1      39.980  19.531  25.866  1.00  0.00    -0.352 N 
ATOM     26  C   UNL A   1      41.324  19.561  26.162  1.00  0.00     0.251 C 
ATOM     27  H   UNL A   1      39.632  18.661  25.565  1.00  0.00     0.163 HD
ATOM     28  O   UNL A   1      42.017  18.561  25.989  1.00  0.00    -0.269 OA
BRANCH  26  29
ATOM     29  C   UNL A   1      41.945  20.814  26.643  1.00  0.00     0.039 A 
ATOM     30  C   UNL A   1      42.440  21.723  25.702  1.00  0.00     0.014 A 
ATOM     31  C   UNL A   1      42.009  21.108  28.007  1.00  0.00     0.014 A 
ATOM     32  C   UNL A   1      42.918  22.965  26.125  1.00  0.00     0.010 A 
ATOM     33  C   UNL A   1      42.423  22.372  28.421  1.00  0.00     0.010 A 
ATOM     34  C   UNL A   1      42.872  23.316  27.483  1.00  0.00    -0.014 A 
BRANCH  34  35
ATOM     35  C   UNL A   1      43.267  24.671  27.944  1.00  0.00     0.031 A 
ATOM     36  C   UNL A   1      42.221  25.716  28.211  1.00  0.00     0.074 A 
ATOM     37  C   UNL A   1      44.574  24.984  28.049  1.00  0.00     0.049 A 
ATOM     38  N   UNL A   1      42.375  26.971  28.552  1.00  0.00    -0.248 NA
ATOM     39  C   UNL A   1      40.817  25.305  28.048  1.00  0.00     0.031 C 
ATOM     40  C   UNL A   1      45.690  24.077  27.776  1.00  0.00     0.029 A 
ATOM     41  N   UNL A   1      45.184  26.161  28.407  1.00  0.00    -0.354 N 
ATOM     42  C   UNL A   1      41.095  27.503  28.623  1.00  0.00     0.074 A 
ATOM     43  C   UNL A   1      40.177  26.449  28.247  1.00  0.00     0.031 C 
ATOM     44  C   UNL A   1      46.847  24.723  27.998  1.00  0.00     0.029 A 
ATOM     45  C   UNL A   1      46.556  26.096  28.394  1.00  0.00     0.049 A 
ATOM     46  H   UNL A   1      44.685  26.975  28.650  1.00  0.00     0.167 HD
ATOM     47  C   UNL A   1      40.713  28.750  28.985  1.00  0.00     0.031 A 
ATOM     48  C   UNL A   1      47.479  27.039  28.665  1.00  0.00     0.031 A 
ATOM     49  C   UNL A   1      41.621  29.796  29.373  1.00  0.00     0.049 A 
ATOM     50  C   UNL A   1      47.030  28.416  29.066  1.00  0.00     0.074 A 
ATOM     51  C   UNL A   1      41.326  31.074  29.817  1.00  0.00     0.029 A 
ATOM     52  N   UNL A   1      43.002  29.684  29.365  1.00  0.00    -0.354 N 
ATOM     53  N   UNL A   1      45.811  28.881  29.196  1.00  0.00    -0.248 NA
ATOM     54  C   UNL A   1      48.085  29.394  29.368  1.00  0.00     0.031 C 
ATOM     55  C   UNL A   1      42.532  31.750  30.035  1.00  0.00     0.029 A 
ATOM     56  C   UNL A   1      43.574  30.876  29.775  1.00  0.00     0.049 A 
ATOM     57  H   UNL A   1      43.502  28.876  29.106  1.00  0.00     0.167 HD
ATOM     58  C   UNL A   1      45.953  30.196  29.621  1.00  0.00     0.074 A 
ATOM     59  C   UNL A   1      47.374  30.449  29.740  1.00  0.00     0.031 C 
ATOM     60  C   UNL A   1      44.990  31.111  29.890  1.00  0.00     0.031 A 
BRANCH  47  61
ATOM     61  C   UNL A   1      39.240  29.052  28.974  1.00  0.00    -0.014 A 
ATOM     62  C   UNL A   1      38.612  29.560  27.826  1.00  0.00     0.009 A 
ATOM     63  C   UNL A   1      38.466  28.798  30.116  1.00  0.00     0.009 A 
ATOM     64  C   UNL A   1      37.245  29.844  27.835  1.00  0.00     0.001 A 
ATOM     65  C   UNL A   1      37.093  29.056  30.113  1.00  0.00     0.001 A 
ATOM     66  C   UNL A   1      36.486  29.588  28.976  1.00  0.00     0.000 A 
ENDBRANCH  47  61
BRANCH  48  67
ATOM     67  C   UNL A   1      48.925  26.710  28.589  1.00  0.00    -0.014 A 
ATOM     68  C   UNL A   1      49.609  26.247  29.724  1.00  0.00     0.009 A 
ATOM     69  C   UNL A   1      49.632  26.861  27.386  1.00  0.00     0.009 A 
ATOM     70  C   UNL A   1      50.976  25.969  29.663  1.00  0.00     0.001 A 
ATOM     71  C   UNL A   1      50.994  26.558  27.321  1.00  0.00     0.001 A 
ATOM     72  C   UNL A   1      51.667  26.120  28.461  1.00  0.00     0.000 A 
ENDBRANCH  48  67
BRANCH  60  73
ATOM     73  C   UNL A   1      45.442  32.461  30.371  1.00  0.00    -0.014 A 
ATOM     74  C   UNL A   1      45.674  33.514  29.474  1.00  0.00     0.009 A 
ATOM     75  C   UNL A   1      45.597  32.689  31.748  1.00  0.00     0.009 A 
ATOM     76  C   UNL A   1      46.082  34.763  29.945  1.00  0.00     0.001 A 
ATOM     77  C   UNL A   1      45.980  33.946  32.217  1.00  0.00     0.001 A 
ATOM     78  C   UNL A   1      46.231  34.979  31.315  1.00  0.00     0.000 A 
ENDBRANCH  60  73
ENDBRANCH  34  35
ENDBRANCH  26  29
ENDBRANCH  24  25
ENDBRANCH  23  24
ENDBRANCH  22  23
ENDBRANCH  21  22
ENDBRANCH   3  21
TORSDOF 17
ENDMDL
