MODEL 1
REMARK VINA RESULT:     -12.2      0.000      0.000
REMARK SMILES O=C(NCCCCNC(=O)[C@@H]1C[C@@H]1C(=O)N1CCN(c2ncc(C(F)(F)F)cc2Cl)CC1)c1ccc(-c2c3nc(c(-c4ccccc4)c4ccc([nH]4)c(-c4ccccc4)c4nc(c(-c5ccccc5)c5ccc2[nH]5)C=C4)C=C3)cc1
REMARK SMILES IDX 6 1 5 2 4 3 3 4 1 5 2 6 33 8 34 9 80 10 35 11 79 12 36 13
REMARK SMILES IDX 37 14 38 15 73 16 39 17 78 18 72 19 74 20 40 21 77 22 71 23
REMARK SMILES IDX 70 24 41 26 63 27 48 28 62 29 49 30 52 31 61 32 75 33 50 34
REMARK SMILES IDX 51 35 60 37 76 38 53 39 42 40 43 41 47 42 44 43 46 44 45 45
REMARK SMILES IDX 64 46 65 47 69 48 66 49 68 50 67 51 54 52 55 53 59 54 56 55
REMARK SMILES IDX 58 56 57 57 7 58 8 59 9 60 10 62 11 63 12 64 13 65 14 66
REMARK SMILES IDX 15 67 16 68 17 69 32 70 18 71 31 72 19 73 20 74 21 75 29 76
REMARK SMILES IDX 22 77 28 78 30 79 23 80 24 81 25 82 26 83 27 84
REMARK H PARENT 3 7 74 25 52 36 8 61
REMARK Flexibility Score: inf
ROOT
ATOM      1  C   UNL A   1      31.649  30.431  26.665  1.00  0.00     0.023 C 
ENDROOT
BRANCH   1   2
ATOM      2  C   UNL A   1      31.437  31.942  26.791  1.00  0.00     0.023 C 
BRANCH   2   3
ATOM      3  C   UNL A   1      32.678  32.731  27.191  1.00  0.00     0.116 C 
BRANCH   3   4
ATOM      4  N   UNL A   1      32.378  34.089  27.625  1.00  0.00    -0.352 N 
ATOM      5  O   UNL A   1      32.536  35.927  28.928  1.00  0.00    -0.269 OA
ATOM      6  C   UNL A   1      32.991  34.836  28.600  1.00  0.00     0.251 C 
ATOM      7  H   UNL A   1      31.633  34.530  27.156  1.00  0.00     0.163 HD
BRANCH   6   8
ATOM      8  C   UNL A   1      34.188  34.296  29.274  1.00  0.00     0.039 A 
ATOM      9  C   UNL A   1      35.464  34.594  28.791  1.00  0.00     0.014 A 
ATOM     10  C   UNL A   1      34.026  33.457  30.379  1.00  0.00     0.014 A 
ATOM     11  C   UNL A   1      36.566  33.935  29.318  1.00  0.00     0.010 A 
ATOM     12  C   UNL A   1      35.146  32.864  30.964  1.00  0.00     0.010 A 
ATOM     13  C   UNL A   1      36.421  33.071  30.416  1.00  0.00    -0.014 A 
BRANCH  13  14
ATOM     14  C   UNL A   1      37.625  32.437  31.004  1.00  0.00     0.031 A 
ATOM     15  C   UNL A   1      38.211  32.924  32.298  1.00  0.00     0.074 A 
ATOM     16  C   UNL A   1      38.174  31.387  30.365  1.00  0.00     0.049 A 
ATOM     17  N   UNL A   1      39.241  32.461  32.959  1.00  0.00    -0.248 NA
ATOM     18  C   UNL A   1      37.564  34.084  32.931  1.00  0.00     0.031 C 
ATOM     19  C   UNL A   1      37.690  30.821  29.101  1.00  0.00     0.029 A 
ATOM     20  N   UNL A   1      39.238  30.592  30.698  1.00  0.00    -0.354 N 
ATOM     21  C   UNL A   1      39.383  33.282  34.071  1.00  0.00     0.074 A 
ATOM     22  C   UNL A   1      38.346  34.289  33.983  1.00  0.00     0.031 C 
ATOM     23  C   UNL A   1      38.420  29.741  28.798  1.00  0.00     0.029 A 
ATOM     24  C   UNL A   1      39.463  29.576  29.804  1.00  0.00     0.049 A 
ATOM     25  H   UNL A   1      39.790  30.736  31.502  1.00  0.00     0.167 HD
ATOM     26  C   UNL A   1      40.290  33.202  35.073  1.00  0.00     0.031 A 
ATOM     27  C   UNL A   1      40.410  28.622  29.783  1.00  0.00     0.031 A 
ATOM     28  C   UNL A   1      41.324  32.201  35.153  1.00  0.00     0.049 A 
ATOM     29  C   UNL A   1      41.427  28.582  30.883  1.00  0.00     0.074 A 
ATOM     30  C   UNL A   1      42.270  32.017  36.147  1.00  0.00     0.029 A 
ATOM     31  N   UNL A   1      41.550  31.221  34.199  1.00  0.00    -0.354 N 
ATOM     32  N   UNL A   1      41.527  29.346  31.942  1.00  0.00    -0.248 NA
ATOM     33  C   UNL A   1      42.464  27.547  30.781  1.00  0.00     0.031 C 
ATOM     34  C   UNL A   1      43.105  30.960  35.765  1.00  0.00     0.029 A 
ATOM     35  C   UNL A   1      42.640  30.447  34.564  1.00  0.00     0.049 A 
ATOM     36  H   UNL A   1      41.015  31.093  33.383  1.00  0.00     0.167 HD
ATOM     37  C   UNL A   1      42.627  28.876  32.645  1.00  0.00     0.074 A 
ATOM     38  C   UNL A   1      43.148  27.748  31.899  1.00  0.00     0.031 C 
ATOM     39  C   UNL A   1      43.155  29.336  33.805  1.00  0.00     0.031 A 
BRANCH  26  40
ATOM     40  C   UNL A   1      40.231  34.256  36.146  1.00  0.00    -0.014 A 
ATOM     41  C   UNL A   1      40.934  35.465  36.028  1.00  0.00     0.009 A 
ATOM     42  C   UNL A   1      39.437  34.043  37.284  1.00  0.00     0.009 A 
ATOM     43  C   UNL A   1      40.874  36.421  37.046  1.00  0.00     0.001 A 
ATOM     44  C   UNL A   1      39.356  35.012  38.286  1.00  0.00     0.001 A 
ATOM     45  C   UNL A   1      40.084  36.195  38.172  1.00  0.00     0.000 A 
ENDBRANCH  26  40
BRANCH  27  46
ATOM     46  C   UNL A   1      40.428  27.633  28.677  1.00  0.00    -0.014 A 
ATOM     47  C   UNL A   1      39.712  26.432  28.783  1.00  0.00     0.009 A 
ATOM     48  C   UNL A   1      41.135  27.902  27.494  1.00  0.00     0.009 A 
ATOM     49  C   UNL A   1      39.712  25.515  27.730  1.00  0.00     0.001 A 
ATOM     50  C   UNL A   1      41.109  26.997  26.432  1.00  0.00     0.001 A 
ATOM     51  C   UNL A   1      40.403  25.801  26.553  1.00  0.00     0.000 A 
ENDBRANCH  27  46
BRANCH  39  52
ATOM     52  C   UNL A   1      44.344  28.597  34.350  1.00  0.00    -0.014 A 
ATOM     53  C   UNL A   1      45.655  28.988  34.030  1.00  0.00     0.009 A 
ATOM     54  C   UNL A   1      44.149  27.507  35.212  1.00  0.00     0.009 A 
ATOM     55  C   UNL A   1      46.745  28.278  34.536  1.00  0.00     0.001 A 
ATOM     56  C   UNL A   1      45.242  26.818  35.739  1.00  0.00     0.001 A 
ATOM     57  C   UNL A   1      46.538  27.197  35.393  1.00  0.00     0.000 A 
ENDBRANCH  39  52
ENDBRANCH  13  14
ENDBRANCH   6   8
ENDBRANCH   3   4
ENDBRANCH   2   3
ENDBRANCH   1   2
BRANCH   1  58
ATOM     58  C   UNL A   1      31.616  29.917  25.228  1.00  0.00     0.116 C 
BRANCH  58  59
ATOM     59  N   UNL A   1      30.986  28.616  25.171  1.00  0.00    -0.356 N 
ATOM     60  C   UNL A   1      31.178  27.602  24.276  1.00  0.00     0.223 C 
ATOM     61  H   UNL A   1      30.324  28.436  25.877  1.00  0.00     0.163 HD
ATOM     62  O   UNL A   1      30.374  26.675  24.236  1.00  0.00    -0.275 OA
BRANCH  60  63
ATOM     63  C   UNL A   1      32.341  27.659  23.342  1.00  0.00     0.091 C 
ATOM     64  C   UNL A   1      32.752  26.412  22.612  1.00  0.00     0.028 C 
ATOM     65  C   UNL A   1      33.652  26.969  23.695  1.00  0.00     0.092 C 
BRANCH  65  66
ATOM     66  C   UNL A   1      33.775  26.323  25.027  1.00  0.00     0.226 C 
ATOM     67  O   UNL A   1      33.529  26.981  26.032  1.00  0.00    -0.275 OA
ATOM     68  N   UNL A   1      34.124  24.994  25.032  1.00  0.00    -0.339 N 
ATOM     69  C   UNL A   1      33.656  24.136  26.126  1.00  0.00     0.141 C 
ATOM     70  C   UNL A   1      34.924  24.328  23.994  1.00  0.00     0.141 C 
ATOM     71  C   UNL A   1      32.928  22.893  25.564  1.00  0.00     0.139 C 
ATOM     72  C   UNL A   1      34.247  23.050  23.471  1.00  0.00     0.139 C 
ATOM     73  N   UNL A   1      33.832  22.235  24.615  1.00  0.00    -0.352 N 
BRANCH  73  74
ATOM     74  C   UNL A   1      33.868  20.864  24.532  1.00  0.00     0.147 A 
ATOM     75  N   UNL A   1      32.707  20.217  24.267  1.00  0.00    -0.237 NA
ATOM     76  C   UNL A   1      35.054  20.146  24.763  1.00  0.00     0.084 A 
ATOM     77  C   UNL A   1      32.721  18.863  24.209  1.00  0.00     0.126 A 
ATOM     78  C   UNL A   1      35.038  18.754  24.713  1.00  0.00     0.039 A 
ATOM     79  Cl  UNL A   1      36.542  20.910  25.212  1.00  0.00    -0.080 Cl
ATOM     80  C   UNL A   1      33.848  18.087  24.429  1.00  0.00     0.075 A 
BRANCH  80  81
ATOM     81  C   UNL A   1      33.760  16.596  24.365  1.00  0.00     0.417 C 
ATOM     82  F   UNL A   1      34.632  15.985  25.212  1.00  0.00    -0.166 F 
ATOM     83  F   UNL A   1      32.525  16.133  24.694  1.00  0.00    -0.166 F 
ATOM     84  F   UNL A   1      34.030  16.094  23.127  1.00  0.00    -0.166 F 
ENDBRANCH  80  81
ENDBRANCH  73  74
ENDBRANCH  65  66
ENDBRANCH  60  63
ENDBRANCH  58  59
ENDBRANCH   1  58
TORSDOF 14
ENDMDL
MODEL 2
REMARK VINA RESULT:     -11.8      1.337      5.990
REMARK SMILES O=C(NCCCCNC(=O)[C@@H]1C[C@@H]1C(=O)N1CCN(c2ncc(C(F)(F)F)cc2Cl)CC1)c1ccc(-c2c3nc(c(-c4ccccc4)c4ccc([nH]4)c(-c4ccccc4)c4nc(c(-c5ccccc5)c5ccc2[nH]5)C=C4)C=C3)cc1
REMARK SMILES IDX 6 1 5 2 4 3 3 4 1 5 2 6 33 8 34 9 80 10 35 11 79 12 36 13
REMARK SMILES IDX 37 14 38 15 73 16 39 17 78 18 72 19 74 20 40 21 77 22 71 23
REMARK SMILES IDX 70 24 41 26 63 27 48 28 62 29 49 30 52 31 61 32 75 33 50 34
REMARK SMILES IDX 51 35 60 37 76 38 53 39 42 40 43 41 47 42 44 43 46 44 45 45
REMARK SMILES IDX 64 46 65 47 69 48 66 49 68 50 67 51 54 52 55 53 59 54 56 55
REMARK SMILES IDX 58 56 57 57 7 58 8 59 9 60 10 62 11 63 12 64 13 65 14 66
REMARK SMILES IDX 15 67 16 68 17 69 32 70 18 71 31 72 19 73 20 74 21 75 29 76
REMARK SMILES IDX 22 77 28 78 30 79 23 80 24 81 25 82 26 83 27 84
REMARK H PARENT 3 7 74 25 52 36 8 61
REMARK Flexibility Score: inf
ROOT
ATOM      1  C   UNL A   1      30.637  31.553  25.056  1.00  0.00     0.023 C 
ENDROOT
BRANCH   1   2
ATOM      2  C   UNL A   1      31.047  31.708  26.523  1.00  0.00     0.023 C 
BRANCH   2   3
ATOM      3  C   UNL A   1      32.388  32.400  26.742  1.00  0.00     0.116 C 
BRANCH   3   4
ATOM      4  N   UNL A   1      32.259  33.722  27.340  1.00  0.00    -0.352 N 
ATOM      5  O   UNL A   1      32.746  35.405  28.766  1.00  0.00    -0.269 OA
ATOM      6  C   UNL A   1      33.063  34.327  28.273  1.00  0.00     0.251 C 
ATOM      7  H   UNL A   1      31.488  34.253  27.034  1.00  0.00     0.163 HD
BRANCH   6   8
ATOM      8  C   UNL A   1      34.302  33.649  28.703  1.00  0.00     0.039 A 
ATOM      9  C   UNL A   1      34.278  32.746  29.768  1.00  0.00     0.014 A 
ATOM     10  C   UNL A   1      35.501  33.948  28.053  1.00  0.00     0.014 A 
ATOM     11  C   UNL A   1      35.473  32.258  30.279  1.00  0.00     0.010 A 
ATOM     12  C   UNL A   1      36.693  33.386  28.513  1.00  0.00     0.010 A 
ATOM     13  C   UNL A   1      36.692  32.564  29.651  1.00  0.00    -0.014 A 
BRANCH  13  14
ATOM     14  C   UNL A   1      37.946  31.971  30.175  1.00  0.00     0.031 A 
ATOM     15  C   UNL A   1      38.495  30.689  29.618  1.00  0.00     0.074 A 
ATOM     16  C   UNL A   1      38.606  32.624  31.151  1.00  0.00     0.049 A 
ATOM     17  N   UNL A   1      39.593  30.055  29.945  1.00  0.00    -0.248 NA
ATOM     18  C   UNL A   1      37.712  30.029  28.562  1.00  0.00     0.031 C 
ATOM     19  C   UNL A   1      38.171  33.879  31.769  1.00  0.00     0.029 A 
ATOM     20  N   UNL A   1      39.790  32.338  31.776  1.00  0.00    -0.354 N 
ATOM     21  C   UNL A   1      39.623  28.912  29.156  1.00  0.00     0.074 A 
ATOM     22  C   UNL A   1      38.420  28.927  28.351  1.00  0.00     0.031 C 
ATOM     23  C   UNL A   1      39.102  34.283  32.643  1.00  0.00     0.029 A 
ATOM     24  C   UNL A   1      40.164  33.285  32.696  1.00  0.00     0.049 A 
ATOM     25  H   UNL A   1      40.323  31.532  31.583  1.00  0.00     0.167 HD
ATOM     26  C   UNL A   1      40.567  27.942  29.107  1.00  0.00     0.031 A 
ATOM     27  C   UNL A   1      41.235  33.342  33.508  1.00  0.00     0.031 A 
ATOM     28  C   UNL A   1      41.760  27.929  29.914  1.00  0.00     0.049 A 
ATOM     29  C   UNL A   1      42.243  32.234  33.462  1.00  0.00     0.074 A 
ATOM     30  C   UNL A   1      42.793  27.007  29.912  1.00  0.00     0.029 A 
ATOM     31  N   UNL A   1      42.075  28.880  30.873  1.00  0.00    -0.354 N 
ATOM     32  N   UNL A   1      42.272  31.176  32.688  1.00  0.00    -0.248 NA
ATOM     33  C   UNL A   1      43.365  32.327  34.403  1.00  0.00     0.031 C 
ATOM     34  C   UNL A   1      43.705  27.370  30.910  1.00  0.00     0.029 A 
ATOM     35  C   UNL A   1      43.271  28.551  31.491  1.00  0.00     0.049 A 
ATOM     36  H   UNL A   1      41.530  29.672  31.084  1.00  0.00     0.167 HD
ATOM     37  C   UNL A   1      43.424  30.486  33.036  1.00  0.00     0.074 A 
ATOM     38  C   UNL A   1      44.074  31.256  34.077  1.00  0.00     0.031 C 
ATOM     39  C   UNL A   1      43.899  29.319  32.535  1.00  0.00     0.031 A 
BRANCH  26  40
ATOM     40  C   UNL A   1      40.325  26.787  28.172  1.00  0.00    -0.014 A 
ATOM     41  C   UNL A   1      40.818  26.790  26.858  1.00  0.00     0.009 A 
ATOM     42  C   UNL A   1      39.611  25.665  28.625  1.00  0.00     0.009 A 
ATOM     43  C   UNL A   1      40.567  25.712  26.005  1.00  0.00     0.001 A 
ATOM     44  C   UNL A   1      39.387  24.577  27.779  1.00  0.00     0.001 A 
ATOM     45  C   UNL A   1      39.854  24.606  26.466  1.00  0.00     0.000 A 
ENDBRANCH  26  40
BRANCH  27  46
ATOM     46  C   UNL A   1      41.395  34.495  34.427  1.00  0.00    -0.014 A 
ATOM     47  C   UNL A   1      42.092  35.641  34.018  1.00  0.00     0.009 A 
ATOM     48  C   UNL A   1      40.821  34.468  35.709  1.00  0.00     0.009 A 
ATOM     49  C   UNL A   1      42.220  36.734  34.878  1.00  0.00     0.001 A 
ATOM     50  C   UNL A   1      40.925  35.573  36.554  1.00  0.00     0.001 A 
ATOM     51  C   UNL A   1      41.630  36.702  36.141  1.00  0.00     0.000 A 
ENDBRANCH  27  46
BRANCH  39  52
ATOM     52  C   UNL A   1      45.203  28.823  33.093  1.00  0.00    -0.014 A 
ATOM     53  C   UNL A   1      45.241  27.948  34.191  1.00  0.00     0.009 A 
ATOM     54  C   UNL A   1      46.410  29.222  32.497  1.00  0.00     0.009 A 
ATOM     55  C   UNL A   1      46.465  27.511  34.701  1.00  0.00     0.001 A 
ATOM     56  C   UNL A   1      47.630  28.760  32.992  1.00  0.00     0.001 A 
ATOM     57  C   UNL A   1      47.656  27.914  34.099  1.00  0.00     0.000 A 
ENDBRANCH  39  52
ENDBRANCH  13  14
ENDBRANCH   6   8
ENDBRANCH   3   4
ENDBRANCH   2   3
ENDBRANCH   1   2
BRANCH   1  58
ATOM     58  C   UNL A   1      30.586  30.104  24.576  1.00  0.00     0.116 C 
BRANCH  58  59
ATOM     59  N   UNL A   1      31.923  29.568  24.445  1.00  0.00    -0.356 N 
ATOM     60  C   UNL A   1      32.551  28.618  25.200  1.00  0.00     0.223 C 
ATOM     61  H   UNL A   1      32.457  29.939  23.706  1.00  0.00     0.163 HD
ATOM     62  O   UNL A   1      33.766  28.475  25.098  1.00  0.00    -0.275 OA
BRANCH  60  63
ATOM     63  C   UNL A   1      31.752  27.799  26.159  1.00  0.00     0.091 C 
ATOM     64  C   UNL A   1      32.356  26.544  26.724  1.00  0.00     0.028 C 
ATOM     65  C   UNL A   1      31.202  26.441  25.747  1.00  0.00     0.092 C 
BRANCH  65  66
ATOM     66  C   UNL A   1      31.397  25.996  24.342  1.00  0.00     0.226 C 
ATOM     67  O   UNL A   1      31.494  26.841  23.460  1.00  0.00    -0.275 OA
ATOM     68  N   UNL A   1      31.495  24.640  24.139  1.00  0.00    -0.339 N 
ATOM     69  C   UNL A   1      32.297  24.143  23.016  1.00  0.00     0.141 C 
ATOM     70  C   UNL A   1      30.874  23.613  24.986  1.00  0.00     0.141 C 
ATOM     71  C   UNL A   1      33.341  23.115  23.511  1.00  0.00     0.139 C 
ATOM     72  C   UNL A   1      31.885  22.542  25.432  1.00  0.00     0.139 C 
ATOM     73  N   UNL A   1      32.626  22.075  24.259  1.00  0.00    -0.352 N 
BRANCH  73  74
ATOM     74  C   UNL A   1      33.027  20.764  24.175  1.00  0.00     0.147 A 
ATOM     75  N   UNL A   1      32.191  19.885  23.572  1.00  0.00    -0.237 NA
ATOM     76  C   UNL A   1      34.240  20.331  24.739  1.00  0.00     0.084 A 
ATOM     77  C   UNL A   1      32.561  18.583  23.505  1.00  0.00     0.126 A 
ATOM     78  C   UNL A   1      34.590  18.984  24.670  1.00  0.00     0.039 A 
ATOM     79  Cl  UNL A   1      35.297  21.385  25.616  1.00  0.00    -0.080 Cl
ATOM     80  C   UNL A   1      33.737  18.081  24.040  1.00  0.00     0.075 A 
BRANCH  80  81
ATOM     81  C   UNL A   1      34.049  16.623  23.937  1.00  0.00     0.417 C 
ATOM     82  F   UNL A   1      32.973  15.837  24.209  1.00  0.00    -0.166 F 
ATOM     83  F   UNL A   1      34.472  16.268  22.694  1.00  0.00    -0.166 F 
ATOM     84  F   UNL A   1      35.030  16.222  24.794  1.00  0.00    -0.166 F 
ENDBRANCH  80  81
ENDBRANCH  73  74
ENDBRANCH  65  66
ENDBRANCH  60  63
ENDBRANCH  58  59
ENDBRANCH   1  58
TORSDOF 14
ENDMDL
MODEL 3
REMARK VINA RESULT:     -11.5      4.224      7.713
REMARK SMILES O=C(NCCCCNC(=O)[C@@H]1C[C@@H]1C(=O)N1CCN(c2ncc(C(F)(F)F)cc2Cl)CC1)c1ccc(-c2c3nc(c(-c4ccccc4)c4ccc([nH]4)c(-c4ccccc4)c4nc(c(-c5ccccc5)c5ccc2[nH]5)C=C4)C=C3)cc1
REMARK SMILES IDX 6 1 5 2 4 3 3 4 1 5 2 6 33 8 34 9 80 10 35 11 79 12 36 13
REMARK SMILES IDX 37 14 38 15 73 16 39 17 78 18 72 19 74 20 40 21 77 22 71 23
REMARK SMILES IDX 70 24 41 26 63 27 48 28 62 29 49 30 52 31 61 32 75 33 50 34
REMARK SMILES IDX 51 35 60 37 76 38 53 39 42 40 43 41 47 42 44 43 46 44 45 45
REMARK SMILES IDX 64 46 65 47 69 48 66 49 68 50 67 51 54 52 55 53 59 54 56 55
REMARK SMILES IDX 58 56 57 57 7 58 8 59 9 60 10 62 11 63 12 64 13 65 14 66
REMARK SMILES IDX 15 67 16 68 17 69 32 70 18 71 31 72 19 73 20 74 21 75 29 76
REMARK SMILES IDX 22 77 28 78 30 79 23 80 24 81 25 82 26 83 27 84
REMARK H PARENT 3 7 74 25 52 36 8 61
REMARK Flexibility Score: inf
ROOT
ATOM      1  C   UNL A   1      32.304  30.034  26.535  1.00  0.00     0.023 C 
ENDROOT
BRANCH   1   2
ATOM      2  C   UNL A   1      33.828  30.021  26.398  1.00  0.00     0.023 C 
BRANCH   2   3
ATOM      3  C   UNL A   1      34.576  29.518  27.627  1.00  0.00     0.116 C 
BRANCH   3   4
ATOM      4  N   UNL A   1      34.628  30.496  28.706  1.00  0.00    -0.352 N 
ATOM      5  O   UNL A   1      35.521  31.581  30.474  1.00  0.00    -0.269 OA
ATOM      6  C   UNL A   1      35.679  30.814  29.530  1.00  0.00     0.251 C 
ATOM      7  H   UNL A   1      33.795  30.997  28.865  1.00  0.00     0.163 HD
BRANCH   6   8
ATOM      8  C   UNL A   1      36.996  30.194  29.288  1.00  0.00     0.039 A 
ATOM      9  C   UNL A   1      37.719  29.638  30.346  1.00  0.00     0.014 A 
ATOM     10  C   UNL A   1      37.523  30.200  27.995  1.00  0.00     0.014 A 
ATOM     11  C   UNL A   1      39.028  29.226  30.138  1.00  0.00     0.010 A 
ATOM     12  C   UNL A   1      38.808  29.703  27.772  1.00  0.00     0.010 A 
ATOM     13  C   UNL A   1      39.583  29.245  28.848  1.00  0.00    -0.014 A 
BRANCH  13  14
ATOM     14  C   UNL A   1      40.959  28.732  28.644  1.00  0.00     0.031 A 
ATOM     15  C   UNL A   1      41.210  27.300  28.266  1.00  0.00     0.074 A 
ATOM     16  C   UNL A   1      41.990  29.588  28.776  1.00  0.00     0.049 A 
ATOM     17  N   UNL A   1      42.350  26.702  28.023  1.00  0.00    -0.248 NA
ATOM     18  C   UNL A   1      40.035  26.422  28.152  1.00  0.00     0.031 C 
ATOM     19  C   UNL A   1      41.869  31.004  29.136  1.00  0.00     0.029 A 
ATOM     20  N   UNL A   1      43.335  29.404  28.600  1.00  0.00    -0.354 N 
ATOM     21  C   UNL A   1      42.034  25.377  27.751  1.00  0.00     0.074 A 
ATOM     22  C   UNL A   1      40.598  25.252  27.882  1.00  0.00     0.031 C 
ATOM     23  C   UNL A   1      43.082  31.570  29.099  1.00  0.00     0.029 A 
ATOM     24  C   UNL A   1      44.072  30.548  28.781  1.00  0.00     0.049 A 
ATOM     25  H   UNL A   1      43.736  28.535  28.366  1.00  0.00     0.167 HD
ATOM     26  C   UNL A   1      42.865  24.360  27.419  1.00  0.00     0.031 A 
ATOM     27  C   UNL A   1      45.398  30.754  28.713  1.00  0.00     0.031 A 
ATOM     28  C   UNL A   1      44.295  24.489  27.295  1.00  0.00     0.049 A 
ATOM     29  C   UNL A   1      46.299  29.602  28.385  1.00  0.00     0.074 A 
ATOM     30  C   UNL A   1      45.219  23.524  26.930  1.00  0.00     0.029 A 
ATOM     31  N   UNL A   1      45.008  25.653  27.538  1.00  0.00    -0.354 N 
ATOM     32  N   UNL A   1      45.982  28.363  28.100  1.00  0.00    -0.248 NA
ATOM     33  C   UNL A   1      47.741  29.877  28.372  1.00  0.00     0.031 C 
ATOM     34  C   UNL A   1      46.497  24.090  27.009  1.00  0.00     0.029 A 
ATOM     35  C   UNL A   1      46.364  25.424  27.363  1.00  0.00     0.049 A 
ATOM     36  H   UNL A   1      44.610  26.514  27.797  1.00  0.00     0.167 HD
ATOM     37  C   UNL A   1      47.183  27.712  27.855  1.00  0.00     0.074 A 
ATOM     38  C   UNL A   1      48.231  28.701  28.008  1.00  0.00     0.031 C 
ATOM     39  C   UNL A   1      47.396  26.414  27.531  1.00  0.00     0.031 A 
BRANCH  26  40
ATOM     40  C   UNL A   1      42.249  23.003  27.208  1.00  0.00    -0.014 A 
ATOM     41  C   UNL A   1      41.993  22.505  25.920  1.00  0.00     0.009 A 
ATOM     42  C   UNL A   1      41.943  22.199  28.318  1.00  0.00     0.009 A 
ATOM     43  C   UNL A   1      41.407  21.248  25.751  1.00  0.00     0.001 A 
ATOM     44  C   UNL A   1      41.384  20.931  28.144  1.00  0.00     0.001 A 
ATOM     45  C   UNL A   1      41.105  20.462  26.862  1.00  0.00     0.000 A 
ENDBRANCH  26  40
BRANCH  27  46
ATOM     46  C   UNL A   1      45.942  32.112  28.964  1.00  0.00    -0.014 A 
ATOM     47  C   UNL A   1      46.091  33.025  27.910  1.00  0.00     0.009 A 
ATOM     48  C   UNL A   1      46.280  32.513  30.266  1.00  0.00     0.009 A 
ATOM     49  C   UNL A   1      46.579  34.310  28.154  1.00  0.00     0.001 A 
ATOM     50  C   UNL A   1      46.740  33.808  30.510  1.00  0.00     0.001 A 
ATOM     51  C   UNL A   1      46.896  34.703  29.454  1.00  0.00     0.000 A 
ENDBRANCH  27  46
BRANCH  39  52
ATOM     52  C   UNL A   1      48.820  25.999  27.293  1.00  0.00    -0.014 A 
ATOM     53  C   UNL A   1      49.640  25.567  28.349  1.00  0.00     0.009 A 
ATOM     54  C   UNL A   1      49.342  26.021  25.990  1.00  0.00     0.009 A 
ATOM     55  C   UNL A   1      50.965  25.199  28.107  1.00  0.00     0.001 A 
ATOM     56  C   UNL A   1      50.658  25.626  25.748  1.00  0.00     0.001 A 
ATOM     57  C   UNL A   1      51.470  25.225  26.808  1.00  0.00     0.000 A 
ENDBRANCH  39  52
ENDBRANCH  13  14
ENDBRANCH   6   8
ENDBRANCH   3   4
ENDBRANCH   2   3
ENDBRANCH   1   2
BRANCH   1  58
ATOM     58  C   UNL A   1      31.560  29.907  25.206  1.00  0.00     0.116 C 
BRANCH  58  59
ATOM     59  N   UNL A   1      30.963  28.595  25.084  1.00  0.00    -0.356 N 
ATOM     60  C   UNL A   1      31.342  27.544  24.299  1.00  0.00     0.223 C 
ATOM     61  H   UNL A   1      30.172  28.437  25.648  1.00  0.00     0.163 HD
ATOM     62  O   UNL A   1      30.568  26.603  24.140  1.00  0.00    -0.275 OA
BRANCH  60  63
ATOM     63  C   UNL A   1      32.672  27.576  23.623  1.00  0.00     0.091 C 
ATOM     64  C   UNL A   1      33.157  26.344  22.911  1.00  0.00     0.028 C 
ATOM     65  C   UNL A   1      33.846  26.786  24.185  1.00  0.00     0.092 C 
BRANCH  65  66
ATOM     66  C   UNL A   1      33.661  26.065  25.471  1.00  0.00     0.226 C 
ATOM     67  O   UNL A   1      33.191  26.668  26.429  1.00  0.00    -0.275 OA
ATOM     68  N   UNL A   1      34.004  24.733  25.480  1.00  0.00    -0.339 N 
ATOM     69  C   UNL A   1      33.299  23.821  26.387  1.00  0.00     0.141 C 
ATOM     70  C   UNL A   1      35.022  24.119  24.617  1.00  0.00     0.141 C 
ATOM     71  C   UNL A   1      32.722  22.619  25.603  1.00  0.00     0.139 C 
ATOM     72  C   UNL A   1      34.485  22.879  23.881  1.00  0.00     0.139 C 
ATOM     73  N   UNL A   1      33.822  22.006  24.850  1.00  0.00    -0.352 N 
BRANCH  73  74
ATOM     74  C   UNL A   1      33.879  20.641  24.699  1.00  0.00     0.147 A 
ATOM     75  N   UNL A   1      32.709  19.972  24.560  1.00  0.00    -0.237 NA
ATOM     76  C   UNL A   1      35.102  19.950  24.738  1.00  0.00     0.084 A 
ATOM     77  C   UNL A   1      32.747  18.623  24.437  1.00  0.00     0.126 A 
ATOM     78  C   UNL A   1      35.113  18.561  24.625  1.00  0.00     0.039 A 
ATOM     79  Cl  UNL A   1      36.618  20.738  25.022  1.00  0.00    -0.080 Cl
ATOM     80  C   UNL A   1      33.911  17.872  24.470  1.00  0.00     0.075 A 
BRANCH  80  81
ATOM     81  C   UNL A   1      33.852  16.384  24.349  1.00  0.00     0.417 C 
ATOM     82  F   UNL A   1      32.579  15.907  24.375  1.00  0.00    -0.166 F 
ATOM     83  F   UNL A   1      34.401  15.934  23.189  1.00  0.00    -0.166 F 
ATOM     84  F   UNL A   1      34.512  15.736  25.350  1.00  0.00    -0.166 F 
ENDBRANCH  80  81
ENDBRANCH  73  74
ENDBRANCH  65  66
ENDBRANCH  60  63
ENDBRANCH  58  59
ENDBRANCH   1  58
TORSDOF 14
ENDMDL
