MODEL 1
REMARK VINA RESULT:     -12.0      0.000      0.000
REMARK SMILES C[C@H](NC(=O)N1CC[C@@H](C(=O)NCCCCNC(=O)c2ccc(-c3c4nc(c(-c5ccccc5)c5ccc([nH]5)c(-c5ccccc5)c5nc(c(-c6ccccc6)c6ccc3[nH]6)C=C5)C=C4)cc2)[C@H]1C)c1ccc(Cl)cc1
REMARK SMILES IDX 14 1 13 2 12 3 10 4 11 5 9 7 6 8 7 9 68 10 8 11 69 12 4 13
REMARK SMILES IDX 3 14 5 16 2 17 1 18 70 19 71 20 76 21 72 22 75 23 73 24
REMARK SMILES IDX 74 25 15 26 16 27 17 28 18 29 19 31 20 32 21 33 67 34 22 35
REMARK SMILES IDX 66 36 23 37 24 38 25 39 60 40 26 41 65 42 59 43 61 44 27 45
REMARK SMILES IDX 64 46 58 47 57 48 28 50 50 51 35 52 49 53 36 54 39 55 48 56
REMARK SMILES IDX 62 57 37 58 38 59 47 61 63 62 40 63 29 64 30 65 34 66 31 67
REMARK SMILES IDX 33 68 32 69 51 70 52 71 56 72 53 73 55 74 54 75 41 76 42 77
REMARK SMILES IDX 46 78 43 79 45 80 44 81
REMARK H PARENT 12 6 3 15 17 30 61 49 39 60
REMARK Flexibility Score: inf
ROOT
ATOM      1  C   UNL A   1      36.957  20.333  24.962  1.00  0.00     0.023 C 
ENDROOT
BRANCH   1   2
ATOM      2  C   UNL A   1      37.297  21.820  24.890  1.00  0.00     0.116 C 
BRANCH   2   3
ATOM      3  N   UNL A   1      36.578  22.506  23.839  1.00  0.00    -0.356 N 
ATOM      4  C   UNL A   1      35.252  22.692  23.618  1.00  0.00     0.225 C 
ATOM      5  O   UNL A   1      34.952  23.349  22.615  1.00  0.00    -0.275 OA
ATOM      6  H   UNL A   1      37.158  22.917  23.158  1.00  0.00     0.163 HD
BRANCH   4   7
ATOM      7  C   UNL A   1      34.145  22.138  24.505  1.00  0.00     0.102 C 
ATOM      8  N   UNL A   1      32.383  23.301  25.608  1.00  0.00    -0.321 N 
ATOM      9  C   UNL A   1      31.759  22.260  24.813  1.00  0.00     0.122 C 
ATOM     10  C   UNL A   1      33.788  22.926  25.781  1.00  0.00     0.096 C 
ATOM     11  C   UNL A   1      32.813  21.859  23.797  1.00  0.00     0.037 C 
ATOM     12  C   UNL A   1      34.729  24.047  26.191  1.00  0.00     0.032 C 
BRANCH   8  13
ATOM     13  C   UNL A   1      31.675  23.746  26.701  1.00  0.00     0.318 C 
ATOM     14  N   UNL A   1      31.445  25.085  26.775  1.00  0.00    -0.331 N 
ATOM     15  H   UNL A   1      31.105  25.421  27.635  1.00  0.00     0.165 HD
ATOM     16  O   UNL A   1      31.215  22.999  27.559  1.00  0.00    -0.249 OA
BRANCH  14  17
ATOM     17  C   UNL A   1      31.642  26.078  25.731  1.00  0.00     0.111 C 
ATOM     18  C   UNL A   1      30.311  26.402  25.050  1.00  0.00     0.036 C 
BRANCH  17  19
ATOM     19  C   UNL A   1      32.341  27.348  26.201  1.00  0.00    -0.026 A 
ATOM     20  C   UNL A   1      31.566  28.363  26.795  1.00  0.00     0.007 A 
ATOM     21  C   UNL A   1      33.725  27.562  26.101  1.00  0.00     0.007 A 
ATOM     22  C   UNL A   1      32.136  29.553  27.249  1.00  0.00     0.021 A 
ATOM     23  C   UNL A   1      34.301  28.757  26.555  1.00  0.00     0.021 A 
ATOM     24  C   UNL A   1      33.504  29.747  27.122  1.00  0.00     0.041 A 
ATOM     25  Cl  UNL A   1      34.213  31.213  27.675  1.00  0.00    -0.084 Cl
ENDBRANCH  17  19
ENDBRANCH  14  17
ENDBRANCH   8  13
ENDBRANCH   4   7
ENDBRANCH   2   3
ENDBRANCH   1   2
BRANCH   1  26
ATOM     26  C   UNL A   1      38.134  19.367  24.993  1.00  0.00     0.023 C 
BRANCH  26  27
ATOM     27  C   UNL A   1      39.349  19.870  25.756  1.00  0.00     0.116 C 
BRANCH  27  28
ATOM     28  N   UNL A   1      40.422  18.886  25.841  1.00  0.00    -0.352 N 
ATOM     29  C   UNL A   1      41.762  19.068  26.094  1.00  0.00     0.251 C 
ATOM     30  H   UNL A   1      40.146  17.953  25.697  1.00  0.00     0.163 HD
ATOM     31  O   UNL A   1      42.536  18.125  26.005  1.00  0.00    -0.269 OA
BRANCH  29  32
ATOM     32  C   UNL A   1      42.265  20.413  26.442  1.00  0.00     0.039 A 
ATOM     33  C   UNL A   1      42.721  21.253  25.422  1.00  0.00     0.014 A 
ATOM     34  C   UNL A   1      42.258  20.855  27.766  1.00  0.00     0.014 A 
ATOM     35  C   UNL A   1      43.097  22.564  25.725  1.00  0.00     0.010 A 
ATOM     36  C   UNL A   1      42.531  22.186  28.049  1.00  0.00     0.010 A 
ATOM     37  C   UNL A   1      42.965  23.052  27.035  1.00  0.00    -0.014 A 
BRANCH  37  38
ATOM     38  C   UNL A   1      43.303  24.453  27.384  1.00  0.00     0.031 A 
ATOM     39  C   UNL A   1      44.740  24.902  27.359  1.00  0.00     0.074 A 
ATOM     40  C   UNL A   1      42.338  25.295  27.800  1.00  0.00     0.049 A 
ATOM     41  N   UNL A   1      45.255  26.049  27.720  1.00  0.00    -0.248 NA
ATOM     42  C   UNL A   1      45.737  23.915  26.907  1.00  0.00     0.031 C 
ATOM     43  C   UNL A   1      40.915  24.967  27.927  1.00  0.00     0.029 A 
ATOM     44  N   UNL A   1      42.411  26.605  28.204  1.00  0.00    -0.354 N 
ATOM     45  C   UNL A   1      46.629  25.906  27.575  1.00  0.00     0.074 A 
ATOM     46  C   UNL A   1      46.874  24.549  27.144  1.00  0.00     0.031 C 
ATOM     47  C   UNL A   1      40.248  26.054  28.346  1.00  0.00     0.029 A 
ATOM     48  C   UNL A   1      41.196  27.144  28.552  1.00  0.00     0.049 A 
ATOM     49  H   UNL A   1      43.255  27.110  28.241  1.00  0.00     0.167 HD
ATOM     50  C   UNL A   1      47.602  26.830  27.758  1.00  0.00     0.031 A 
ATOM     51  C   UNL A   1      40.884  28.379  28.986  1.00  0.00     0.031 A 
ATOM     52  C   UNL A   1      47.356  28.192  28.140  1.00  0.00     0.049 A 
ATOM     53  C   UNL A   1      41.976  29.402  29.132  1.00  0.00     0.074 A 
ATOM     54  C   UNL A   1      48.263  29.227  28.281  1.00  0.00     0.029 A 
ATOM     55  N   UNL A   1      46.103  28.712  28.428  1.00  0.00    -0.354 N 
ATOM     56  N   UNL A   1      43.264  29.269  28.923  1.00  0.00    -0.248 NA
ATOM     57  C   UNL A   1      41.568  30.748  29.554  1.00  0.00     0.031 C 
ATOM     58  C   UNL A   1      47.563  30.367  28.686  1.00  0.00     0.029 A 
ATOM     59  C   UNL A   1      46.215  30.052  28.753  1.00  0.00     0.049 A 
ATOM     60  H   UNL A   1      45.261  28.204  28.407  1.00  0.00     0.167 HD
ATOM     61  C   UNL A   1      43.815  30.522  29.157  1.00  0.00     0.074 A 
ATOM     62  C   UNL A   1      42.719  31.404  29.510  1.00  0.00     0.031 C 
ATOM     63  C   UNL A   1      45.110  30.912  29.088  1.00  0.00     0.031 A 
BRANCH  50  64
ATOM     64  C   UNL A   1      49.022  26.392  27.534  1.00  0.00    -0.014 A 
ATOM     65  C   UNL A   1      49.822  25.948  28.599  1.00  0.00     0.009 A 
ATOM     66  C   UNL A   1      49.559  26.398  26.239  1.00  0.00     0.009 A 
ATOM     67  C   UNL A   1      51.143  25.555  28.376  1.00  0.00     0.001 A 
ATOM     68  C   UNL A   1      50.871  25.976  26.014  1.00  0.00     0.001 A 
ATOM     69  C   UNL A   1      51.665  25.565  27.084  1.00  0.00     0.000 A 
ENDBRANCH  50  64
BRANCH  51  70
ATOM     70  C   UNL A   1      39.471  28.735  29.280  1.00  0.00    -0.014 A 
ATOM     71  C   UNL A   1      38.951  28.564  30.574  1.00  0.00     0.009 A 
ATOM     72  C   UNL A   1      38.631  29.232  28.272  1.00  0.00     0.009 A 
ATOM     73  C   UNL A   1      37.611  28.849  30.843  1.00  0.00     0.001 A 
ATOM     74  C   UNL A   1      37.298  29.542  28.551  1.00  0.00     0.001 A 
ATOM     75  C   UNL A   1      36.787  29.341  29.832  1.00  0.00     0.000 A 
ENDBRANCH  51  70
BRANCH  63  76
ATOM     76  C   UNL A   1      45.406  32.360  29.349  1.00  0.00    -0.014 A 
ATOM     77  C   UNL A   1      45.740  32.817  30.632  1.00  0.00     0.009 A 
ATOM     78  C   UNL A   1      45.390  33.271  28.282  1.00  0.00     0.009 A 
ATOM     79  C   UNL A   1      46.017  34.167  30.849  1.00  0.00     0.001 A 
ATOM     80  C   UNL A   1      45.693  34.616  28.496  1.00  0.00     0.001 A 
ATOM     81  C   UNL A   1      45.998  35.064  29.780  1.00  0.00     0.000 A 
ENDBRANCH  63  76
ENDBRANCH  37  38
ENDBRANCH  29  32
ENDBRANCH  27  28
ENDBRANCH  26  27
ENDBRANCH   1  26
TORSDOF 14
ENDMDL
MODEL 2
REMARK VINA RESULT:     -11.8      4.948     10.194
REMARK SMILES C[C@H](NC(=O)N1CC[C@@H](C(=O)NCCCCNC(=O)c2ccc(-c3c4nc(c(-c5ccccc5)c5ccc([nH]5)c(-c5ccccc5)c5nc(c(-c6ccccc6)c6ccc3[nH]6)C=C5)C=C4)cc2)[C@H]1C)c1ccc(Cl)cc1
REMARK SMILES IDX 14 1 13 2 12 3 10 4 11 5 9 7 6 8 7 9 68 10 8 11 69 12 4 13
REMARK SMILES IDX 3 14 5 16 2 17 1 18 70 19 71 20 76 21 72 22 75 23 73 24
REMARK SMILES IDX 74 25 15 26 16 27 17 28 18 29 19 31 20 32 21 33 67 34 22 35
REMARK SMILES IDX 66 36 23 37 24 38 25 39 60 40 26 41 65 42 59 43 61 44 27 45
REMARK SMILES IDX 64 46 58 47 57 48 28 50 50 51 35 52 49 53 36 54 39 55 48 56
REMARK SMILES IDX 62 57 37 58 38 59 47 61 63 62 40 63 29 64 30 65 34 66 31 67
REMARK SMILES IDX 33 68 32 69 51 70 52 71 56 72 53 73 55 74 54 75 41 76 42 77
REMARK SMILES IDX 46 78 43 79 45 80 44 81
REMARK H PARENT 12 6 3 15 17 30 61 49 39 60
REMARK Flexibility Score: inf
ROOT
ATOM      1  C   UNL A   1      31.469  30.833  25.987  1.00  0.00     0.023 C 
ENDROOT
BRANCH   1   2
ATOM      2  C   UNL A   1      32.472  29.958  26.735  1.00  0.00     0.116 C 
BRANCH   2   3
ATOM      3  N   UNL A   1      31.918  28.680  27.124  1.00  0.00    -0.356 N 
ATOM      4  C   UNL A   1      31.475  27.623  26.397  1.00  0.00     0.225 C 
ATOM      5  O   UNL A   1      31.062  26.652  27.040  1.00  0.00    -0.275 OA
ATOM      6  H   UNL A   1      31.848  28.552  28.098  1.00  0.00     0.163 HD
BRANCH   4   7
ATOM      7  C   UNL A   1      31.448  27.576  24.875  1.00  0.00     0.102 C 
ATOM      8  N   UNL A   1      32.403  25.962  23.406  1.00  0.00    -0.321 N 
ATOM      9  C   UNL A   1      30.998  26.058  23.059  1.00  0.00     0.122 C 
ATOM     10  C   UNL A   1      32.747  27.177  24.148  1.00  0.00     0.096 C 
ATOM     11  C   UNL A   1      30.341  26.707  24.264  1.00  0.00     0.037 C 
ATOM     12  C   UNL A   1      34.017  27.111  24.980  1.00  0.00     0.032 C 
BRANCH   8  13
ATOM     13  C   UNL A   1      33.252  25.526  22.415  1.00  0.00     0.318 C 
ATOM     14  N   UNL A   1      34.053  24.468  22.718  1.00  0.00    -0.331 N 
ATOM     15  H   UNL A   1      34.779  24.276  22.083  1.00  0.00     0.165 HD
ATOM     16  O   UNL A   1      33.278  26.008  21.287  1.00  0.00    -0.249 OA
BRANCH  14  17
ATOM     17  C   UNL A   1      33.959  23.588  23.871  1.00  0.00     0.111 C 
ATOM     18  C   UNL A   1      33.127  22.350  23.527  1.00  0.00     0.036 C 
BRANCH  17  19
ATOM     19  C   UNL A   1      35.305  23.194  24.469  1.00  0.00    -0.026 A 
ATOM     20  C   UNL A   1      35.818  23.960  25.535  1.00  0.00     0.007 A 
ATOM     21  C   UNL A   1      36.060  22.093  24.038  1.00  0.00     0.007 A 
ATOM     22  C   UNL A   1      37.043  23.660  26.132  1.00  0.00     0.021 A 
ATOM     23  C   UNL A   1      37.292  21.789  24.634  1.00  0.00     0.021 A 
ATOM     24  C   UNL A   1      37.779  22.576  25.675  1.00  0.00     0.041 A 
ATOM     25  Cl  UNL A   1      39.292  22.202  26.403  1.00  0.00    -0.084 Cl
ENDBRANCH  17  19
ENDBRANCH  14  17
ENDBRANCH   8  13
ENDBRANCH   4   7
ENDBRANCH   2   3
ENDBRANCH   1   2
BRANCH   1  26
ATOM     26  C   UNL A   1      31.264  32.243  26.523  1.00  0.00     0.023 C 
BRANCH  26  27
ATOM     27  C   UNL A   1      32.465  32.829  27.247  1.00  0.00     0.116 C 
BRANCH  27  28
ATOM     28  N   UNL A   1      32.277  34.220  27.642  1.00  0.00    -0.352 N 
ATOM     29  C   UNL A   1      32.950  34.965  28.583  1.00  0.00     0.251 C 
ATOM     30  H   UNL A   1      31.561  34.697  27.163  1.00  0.00     0.163 HD
ATOM     31  O   UNL A   1      32.565  36.093  28.862  1.00  0.00    -0.269 OA
BRANCH  29  32
ATOM     32  C   UNL A   1      34.119  34.385  29.276  1.00  0.00     0.039 A 
ATOM     33  C   UNL A   1      33.915  33.618  30.426  1.00  0.00     0.014 A 
ATOM     34  C   UNL A   1      35.408  34.572  28.775  1.00  0.00     0.014 A 
ATOM     35  C   UNL A   1      35.000  32.975  31.027  1.00  0.00     0.010 A 
ATOM     36  C   UNL A   1      36.466  33.850  29.309  1.00  0.00     0.010 A 
ATOM     37  C   UNL A   1      36.277  33.054  30.449  1.00  0.00    -0.014 A 
BRANCH  37  38
ATOM     38  C   UNL A   1      37.442  32.342  31.028  1.00  0.00     0.031 A 
ATOM     39  C   UNL A   1      38.052  32.833  32.314  1.00  0.00     0.074 A 
ATOM     40  C   UNL A   1      38.001  31.313  30.363  1.00  0.00     0.049 A 
ATOM     41  N   UNL A   1      39.125  32.415  32.933  1.00  0.00    -0.248 NA
ATOM     42  C   UNL A   1      37.389  33.974  32.970  1.00  0.00     0.031 C 
ATOM     43  C   UNL A   1      37.543  30.778  29.077  1.00  0.00     0.029 A 
ATOM     44  N   UNL A   1      39.088  30.535  30.676  1.00  0.00    -0.354 N 
ATOM     45  C   UNL A   1      39.285  33.261  34.022  1.00  0.00     0.074 A 
ATOM     46  C   UNL A   1      38.232  34.249  33.953  1.00  0.00     0.031 C 
ATOM     47  C   UNL A   1      38.323  29.741  28.729  1.00  0.00     0.029 A 
ATOM     48  C   UNL A   1      39.355  29.560  29.744  1.00  0.00     0.049 A 
ATOM     49  H   UNL A   1      39.625  30.663  31.490  1.00  0.00     0.167 HD
ATOM     50  C   UNL A   1      40.210  33.208  35.010  1.00  0.00     0.031 A 
ATOM     51  C   UNL A   1      40.322  28.625  29.717  1.00  0.00     0.031 A 
ATOM     52  C   UNL A   1      41.227  32.199  35.105  1.00  0.00     0.049 A 
ATOM     53  C   UNL A   1      41.306  28.555  30.851  1.00  0.00     0.074 A 
ATOM     54  C   UNL A   1      42.166  32.012  36.104  1.00  0.00     0.029 A 
ATOM     55  N   UNL A   1      41.427  31.196  34.170  1.00  0.00    -0.354 N 
ATOM     56  N   UNL A   1      41.400  29.322  31.911  1.00  0.00    -0.248 NA
ATOM     57  C   UNL A   1      42.304  27.479  30.795  1.00  0.00     0.031 C 
ATOM     58  C   UNL A   1      42.957  30.913  35.756  1.00  0.00     0.029 A 
ATOM     59  C   UNL A   1      42.480  30.390  34.564  1.00  0.00     0.049 A 
ATOM     60  H   UNL A   1      40.900  31.076  33.347  1.00  0.00     0.167 HD
ATOM     61  C   UNL A   1      42.445  28.801  32.662  1.00  0.00     0.074 A 
ATOM     62  C   UNL A   1      42.944  27.645  31.943  1.00  0.00     0.031 C 
ATOM     63  C   UNL A   1      42.950  29.238  33.841  1.00  0.00     0.031 A 
BRANCH  50  64
ATOM     64  C   UNL A   1      40.150  34.271  36.071  1.00  0.00    -0.014 A 
ATOM     65  C   UNL A   1      40.854  35.478  35.931  1.00  0.00     0.009 A 
ATOM     66  C   UNL A   1      39.359  34.076  37.212  1.00  0.00     0.009 A 
ATOM     67  C   UNL A   1      40.798  36.451  36.930  1.00  0.00     0.001 A 
ATOM     68  C   UNL A   1      39.280  35.062  38.197  1.00  0.00     0.001 A 
ATOM     69  C   UNL A   1      40.008  36.244  38.060  1.00  0.00     0.000 A 
ENDBRANCH  50  64
BRANCH  51  70
ATOM     70  C   UNL A   1      40.391  27.651  28.595  1.00  0.00    -0.014 A 
ATOM     71  C   UNL A   1      41.117  27.959  27.433  1.00  0.00     0.009 A 
ATOM     72  C   UNL A   1      39.722  26.420  28.671  1.00  0.00     0.009 A 
ATOM     73  C   UNL A   1      41.142  27.069  26.357  1.00  0.00     0.001 A 
ATOM     74  C   UNL A   1      39.773  25.520  27.605  1.00  0.00     0.001 A 
ATOM     75  C   UNL A   1      40.473  25.850  26.445  1.00  0.00     0.000 A 
ENDBRANCH  51  70
BRANCH  63  76
ATOM     76  C   UNL A   1      44.063  28.437  34.450  1.00  0.00    -0.014 A 
ATOM     77  C   UNL A   1      43.801  27.344  35.288  1.00  0.00     0.009 A 
ATOM     78  C   UNL A   1      45.394  28.760  34.143  1.00  0.00     0.009 A 
ATOM     79  C   UNL A   1      44.854  26.610  35.838  1.00  0.00     0.001 A 
ATOM     80  C   UNL A   1      46.443  28.008  34.672  1.00  0.00     0.001 A 
ATOM     81  C   UNL A   1      46.172  26.940  35.525  1.00  0.00     0.000 A 
ENDBRANCH  63  76
ENDBRANCH  37  38
ENDBRANCH  29  32
ENDBRANCH  27  28
ENDBRANCH  26  27
ENDBRANCH   1  26
TORSDOF 14
ENDMDL
MODEL 3
REMARK VINA RESULT:     -11.7      0.649      5.942
REMARK SMILES C[C@H](NC(=O)N1CC[C@@H](C(=O)NCCCCNC(=O)c2ccc(-c3c4nc(c(-c5ccccc5)c5ccc([nH]5)c(-c5ccccc5)c5nc(c(-c6ccccc6)c6ccc3[nH]6)C=C5)C=C4)cc2)[C@H]1C)c1ccc(Cl)cc1
REMARK SMILES IDX 14 1 13 2 12 3 10 4 11 5 9 7 6 8 7 9 68 10 8 11 69 12 4 13
REMARK SMILES IDX 3 14 5 16 2 17 1 18 70 19 71 20 76 21 72 22 75 23 73 24
REMARK SMILES IDX 74 25 15 26 16 27 17 28 18 29 19 31 20 32 21 33 67 34 22 35
REMARK SMILES IDX 66 36 23 37 24 38 25 39 60 40 26 41 65 42 59 43 61 44 27 45
REMARK SMILES IDX 64 46 58 47 57 48 28 50 50 51 35 52 49 53 36 54 39 55 48 56
REMARK SMILES IDX 62 57 37 58 38 59 47 61 63 62 40 63 29 64 30 65 34 66 31 67
REMARK SMILES IDX 33 68 32 69 51 70 52 71 56 72 53 73 55 74 54 75 41 76 42 77
REMARK SMILES IDX 46 78 43 79 45 80 44 81
REMARK H PARENT 12 6 3 15 17 30 61 49 39 60
REMARK Flexibility Score: inf
ROOT
ATOM      1  C   UNL A   1      36.771  20.506  25.021  1.00  0.00     0.023 C 
ENDROOT
BRANCH   1   2
ATOM      2  C   UNL A   1      36.677  22.024  25.146  1.00  0.00     0.116 C 
BRANCH   2   3
ATOM      3  N   UNL A   1      36.110  22.646  23.969  1.00  0.00    -0.356 N 
ATOM      4  C   UNL A   1      34.826  22.879  23.594  1.00  0.00     0.225 C 
ATOM      5  O   UNL A   1      34.669  23.455  22.512  1.00  0.00    -0.275 OA
ATOM      6  H   UNL A   1      36.779  22.961  23.319  1.00  0.00     0.163 HD
BRANCH   4   7
ATOM      7  C   UNL A   1      33.604  22.469  24.405  1.00  0.00     0.102 C 
ATOM      8  N   UNL A   1      31.920  23.843  25.380  1.00  0.00    -0.321 N 
ATOM      9  C   UNL A   1      31.234  22.872  24.548  1.00  0.00     0.122 C 
ATOM     10  C   UNL A   1      33.257  23.309  25.651  1.00  0.00     0.096 C 
ATOM     11  C   UNL A   1      32.300  22.339  23.608  1.00  0.00     0.037 C 
ATOM     12  C   UNL A   1      34.293  24.317  26.120  1.00  0.00     0.032 C 
BRANCH   8  13
ATOM     13  C   UNL A   1      31.197  24.381  26.420  1.00  0.00     0.318 C 
ATOM     14  N   UNL A   1      31.113  25.738  26.468  1.00  0.00    -0.331 N 
ATOM     15  H   UNL A   1      30.759  26.123  27.301  1.00  0.00     0.165 HD
ATOM     16  O   UNL A   1      30.601  23.702  27.251  1.00  0.00    -0.249 OA
BRANCH  14  17
ATOM     17  C   UNL A   1      31.488  26.686  25.431  1.00  0.00     0.111 C 
ATOM     18  C   UNL A   1      30.279  27.016  24.554  1.00  0.00     0.036 C 
BRANCH  17  19
ATOM     19  C   UNL A   1      32.149  27.956  25.955  1.00  0.00    -0.026 A 
ATOM     20  C   UNL A   1      33.272  27.833  26.796  1.00  0.00     0.007 A 
ATOM     21  C   UNL A   1      31.721  29.252  25.627  1.00  0.00     0.007 A 
ATOM     22  C   UNL A   1      33.929  28.950  27.312  1.00  0.00     0.021 A 
ATOM     23  C   UNL A   1      32.378  30.377  26.145  1.00  0.00     0.021 A 
ATOM     24  C   UNL A   1      33.476  30.221  26.988  1.00  0.00     0.041 A 
ATOM     25  Cl  UNL A   1      34.277  31.603  27.625  1.00  0.00    -0.084 Cl
ENDBRANCH  17  19
ENDBRANCH  14  17
ENDBRANCH   8  13
ENDBRANCH   4   7
ENDBRANCH   2   3
ENDBRANCH   1   2
BRANCH   1  26
ATOM     26  C   UNL A   1      38.144  19.934  24.694  1.00  0.00     0.023 C 
BRANCH  26  27
ATOM     27  C   UNL A   1      39.206  20.187  25.750  1.00  0.00     0.116 C 
BRANCH  27  28
ATOM     28  N   UNL A   1      40.180  19.107  25.858  1.00  0.00    -0.352 N 
ATOM     29  C   UNL A   1      41.532  19.164  26.105  1.00  0.00     0.251 C 
ATOM     30  H   UNL A   1      39.814  18.201  25.736  1.00  0.00     0.163 HD
ATOM     31  O   UNL A   1      42.211  18.148  26.038  1.00  0.00    -0.269 OA
BRANCH  29  32
ATOM     32  C   UNL A   1      42.164  20.462  26.419  1.00  0.00     0.039 A 
ATOM     33  C   UNL A   1      42.644  21.256  25.374  1.00  0.00     0.014 A 
ATOM     34  C   UNL A   1      42.256  20.907  27.740  1.00  0.00     0.014 A 
ATOM     35  C   UNL A   1      43.144  22.530  25.650  1.00  0.00     0.010 A 
ATOM     36  C   UNL A   1      42.654  22.210  28.000  1.00  0.00     0.010 A 
ATOM     37  C   UNL A   1      43.115  23.033  26.961  1.00  0.00    -0.014 A 
BRANCH  37  38
ATOM     38  C   UNL A   1      43.587  24.401  27.284  1.00  0.00     0.031 A 
ATOM     39  C   UNL A   1      42.598  25.447  27.722  1.00  0.00     0.074 A 
ATOM     40  C   UNL A   1      44.882  24.725  27.105  1.00  0.00     0.049 A 
ATOM     41  N   UNL A   1      42.789  26.720  27.957  1.00  0.00    -0.248 NA
ATOM     42  C   UNL A   1      41.198  25.014  27.878  1.00  0.00     0.031 C 
ATOM     43  C   UNL A   1      45.932  23.820  26.627  1.00  0.00     0.029 A 
ATOM     44  N   UNL A   1      45.537  25.916  27.298  1.00  0.00    -0.354 N 
ATOM     45  C   UNL A   1      41.535  27.241  28.248  1.00  0.00     0.074 A 
ATOM     46  C   UNL A   1      40.583  26.162  28.111  1.00  0.00     0.031 C 
ATOM     47  C   UNL A   1      47.101  24.479  26.596  1.00  0.00     0.029 A 
ATOM     48  C   UNL A   1      46.881  25.859  27.015  1.00  0.00     0.049 A 
ATOM     49  H   UNL A   1      45.087  26.734  27.610  1.00  0.00     0.167 HD
ATOM     50  C   UNL A   1      41.206  28.499  28.623  1.00  0.00     0.031 A 
ATOM     51  C   UNL A   1      47.827  26.813  27.088  1.00  0.00     0.031 A 
ATOM     52  C   UNL A   1      42.157  29.559  28.806  1.00  0.00     0.049 A 
ATOM     53  C   UNL A   1      47.444  28.189  27.556  1.00  0.00     0.074 A 
ATOM     54  C   UNL A   1      41.937  30.849  29.255  1.00  0.00     0.029 A 
ATOM     55  N   UNL A   1      43.517  29.443  28.563  1.00  0.00    -0.354 N 
ATOM     56  N   UNL A   1      46.263  28.648  27.895  1.00  0.00    -0.248 NA
ATOM     57  C   UNL A   1      48.529  29.174  27.671  1.00  0.00     0.031 C 
ATOM     58  C   UNL A   1      43.161  31.525  29.252  1.00  0.00     0.029 A 
ATOM     59  C   UNL A   1      44.148  30.641  28.845  1.00  0.00     0.049 A 
ATOM     60  H   UNL A   1      43.966  28.631  28.236  1.00  0.00     0.167 HD
ATOM     61  C   UNL A   1      46.468  29.962  28.293  1.00  0.00     0.074 A 
ATOM     62  C   UNL A   1      47.888  30.223  28.167  1.00  0.00     0.031 C 
ATOM     63  C   UNL A   1      45.563  30.874  28.725  1.00  0.00     0.031 A 
BRANCH  50  64
ATOM     64  C   UNL A   1      39.752  28.789  28.870  1.00  0.00    -0.014 A 
ATOM     65  C   UNL A   1      39.167  28.556  30.126  1.00  0.00     0.009 A 
ATOM     66  C   UNL A   1      38.962  29.325  27.842  1.00  0.00     0.009 A 
ATOM     67  C   UNL A   1      37.812  28.820  30.335  1.00  0.00     0.001 A 
ATOM     68  C   UNL A   1      37.615  29.615  28.063  1.00  0.00     0.001 A 
ATOM     69  C   UNL A   1      37.038  29.353  29.306  1.00  0.00     0.000 A 
ENDBRANCH  50  64
BRANCH  51  70
ATOM     70  C   UNL A   1      49.238  26.497  26.746  1.00  0.00    -0.014 A 
ATOM     71  C   UNL A   1      49.704  26.666  25.431  1.00  0.00     0.009 A 
ATOM     72  C   UNL A   1      50.123  26.012  27.721  1.00  0.00     0.009 A 
ATOM     73  C   UNL A   1      51.015  26.322  25.094  1.00  0.00     0.001 A 
ATOM     74  C   UNL A   1      51.441  25.695  27.387  1.00  0.00     0.001 A 
ATOM     75  C   UNL A   1      51.883  25.840  26.072  1.00  0.00     0.000 A 
ENDBRANCH  51  70
BRANCH  63  76
ATOM     76  C   UNL A   1      46.088  32.218  29.138  1.00  0.00    -0.014 A 
ATOM     77  C   UNL A   1      46.189  33.275  28.223  1.00  0.00     0.009 A 
ATOM     78  C   UNL A   1      46.449  32.435  30.477  1.00  0.00     0.009 A 
ATOM     79  C   UNL A   1      46.675  34.518  28.634  1.00  0.00     0.001 A 
ATOM     80  C   UNL A   1      46.908  33.686  30.891  1.00  0.00     0.001 A 
ATOM     81  C   UNL A   1      47.029  34.722  29.967  1.00  0.00     0.000 A 
ENDBRANCH  63  76
ENDBRANCH  37  38
ENDBRANCH  29  32
ENDBRANCH  27  28
ENDBRANCH  26  27
ENDBRANCH   1  26
TORSDOF 14
ENDMDL
