MODEL 1
REMARK VINA RESULT:     -12.6      0.000      0.000
REMARK SMILES O=C(NCCCCNC(=O)[C@H]1[C@H]2CC[C@H](CC2)[C@H]1C(=O)Nc1ccc(C(=O)N2CCCC2)cc1)c1ccc(-c2c3nc(c(-c4ccccc4)c4ccc([nH]4)c(-c4ccccc4)c4nc(c(-c5ccccc5)c5ccc2[nH]5)C=C4)C=C3)cc1
REMARK SMILES IDX 6 1 5 2 4 3 3 4 1 5 2 6 35 8 36 9 82 10 37 11 81 12 38 13
REMARK SMILES IDX 39 14 40 15 75 16 41 17 80 18 74 19 76 20 42 21 79 22 73 23
REMARK SMILES IDX 72 24 43 26 65 27 50 28 64 29 51 30 54 31 63 32 77 33 52 34
REMARK SMILES IDX 53 35 62 37 78 38 55 39 44 40 45 41 49 42 46 43 48 44 47 45
REMARK SMILES IDX 66 46 67 47 71 48 68 49 70 50 69 51 56 52 57 53 61 54 58 55
REMARK SMILES IDX 60 56 59 57 7 58 8 59 9 60 10 62 11 63 12 64 18 65 17 66
REMARK SMILES IDX 13 67 15 68 16 69 14 70 19 71 20 72 21 73 22 75 23 76 34 77
REMARK SMILES IDX 24 78 33 79 25 80 26 81 27 82 28 83 29 84 32 85 30 86 31 87
REMARK H PARENT 3 7 76 25 54 36 8 61 21 74
REMARK Flexibility Score: inf
ROOT
ATOM      1  C   UNL A   1      34.413  23.817  23.925  1.00  0.00     0.023 C 
ENDROOT
BRANCH   1   2
ATOM      2  C   UNL A   1      35.925  23.585  23.867  1.00  0.00     0.023 C 
BRANCH   2   3
ATOM      3  C   UNL A   1      36.658  23.784  25.188  1.00  0.00     0.116 C 
BRANCH   3   4
ATOM      4  N   UNL A   1      37.580  22.697  25.480  1.00  0.00    -0.352 N 
ATOM      5  O   UNL A   1      39.533  21.742  26.080  1.00  0.00    -0.269 OA
ATOM      6  C   UNL A   1      38.816  22.738  26.080  1.00  0.00     0.251 C 
ATOM      7  H   UNL A   1      37.275  21.803  25.207  1.00  0.00     0.163 HD
BRANCH   6   8
ATOM      8  C   UNL A   1      39.285  23.986  26.716  1.00  0.00     0.039 A 
ATOM      9  C   UNL A   1      39.019  24.234  28.064  1.00  0.00     0.014 A 
ATOM     10  C   UNL A   1      40.013  24.910  25.962  1.00  0.00     0.014 A 
ATOM     11  C   UNL A   1      39.353  25.464  28.617  1.00  0.00     0.010 A 
ATOM     12  C   UNL A   1      40.427  26.112  26.546  1.00  0.00     0.010 A 
ATOM     13  C   UNL A   1      40.075  26.410  27.871  1.00  0.00    -0.014 A 
BRANCH  13  14
ATOM     14  C   UNL A   1      40.517  27.662  28.534  1.00  0.00     0.031 A 
ATOM     15  C   UNL A   1      41.946  27.870  28.949  1.00  0.00     0.074 A 
ATOM     16  C   UNL A   1      39.610  28.641  28.721  1.00  0.00     0.049 A 
ATOM     17  N   UNL A   1      42.497  28.928  29.491  1.00  0.00    -0.248 NA
ATOM     18  C   UNL A   1      42.878  26.751  28.737  1.00  0.00     0.031 C 
ATOM     19  C   UNL A   1      38.190  28.551  28.366  1.00  0.00     0.029 A 
ATOM     20  N   UNL A   1      39.745  29.908  29.225  1.00  0.00    -0.354 N 
ATOM     21  C   UNL A   1      43.832  28.601  29.697  1.00  0.00     0.074 A 
ATOM     22  C   UNL A   1      44.004  27.238  29.244  1.00  0.00     0.031 C 
ATOM     23  C   UNL A   1      37.600  29.730  28.610  1.00  0.00     0.029 A 
ATOM     24  C   UNL A   1      38.580  30.635  29.197  1.00  0.00     0.049 A 
ATOM     25  H   UNL A   1      40.595  30.262  29.573  1.00  0.00     0.167 HD
ATOM     26  C   UNL A   1      44.820  29.370  30.213  1.00  0.00     0.031 A 
ATOM     27  C   UNL A   1      38.322  31.889  29.609  1.00  0.00     0.031 A 
ATOM     28  C   UNL A   1      44.645  30.726  30.666  1.00  0.00     0.049 A 
ATOM     29  C   UNL A   1      39.432  32.703  30.204  1.00  0.00     0.074 A 
ATOM     30  C   UNL A   1      45.595  31.594  31.180  1.00  0.00     0.029 A 
ATOM     31  N   UNL A   1      43.440  31.412  30.662  1.00  0.00    -0.354 N 
ATOM     32  N   UNL A   1      40.693  32.387  30.360  1.00  0.00    -0.248 NA
ATOM     33  C   UNL A   1      39.078  34.047  30.681  1.00  0.00     0.031 C 
ATOM     34  C   UNL A   1      44.954  32.786  31.533  1.00  0.00     0.029 A 
ATOM     35  C   UNL A   1      43.616  32.681  31.189  1.00  0.00     0.049 A 
ATOM     36  H   UNL A   1      42.585  31.050  30.334  1.00  0.00     0.167 HD
ATOM     37  C   UNL A   1      41.289  33.495  30.944  1.00  0.00     0.074 A 
ATOM     38  C   UNL A   1      40.255  34.502  31.085  1.00  0.00     0.031 C 
ATOM     39  C   UNL A   1      42.575  33.664  31.334  1.00  0.00     0.031 A 
BRANCH  26  40
ATOM     40  C   UNL A   1      46.188  28.757  30.340  1.00  0.00    -0.014 A 
ATOM     41  C   UNL A   1      46.570  28.059  31.497  1.00  0.00     0.009 A 
ATOM     42  C   UNL A   1      47.084  28.822  29.260  1.00  0.00     0.009 A 
ATOM     43  C   UNL A   1      47.830  27.461  31.578  1.00  0.00     0.001 A 
ATOM     44  C   UNL A   1      48.333  28.202  29.336  1.00  0.00     0.001 A 
ATOM     45  C   UNL A   1      48.707  27.527  30.496  1.00  0.00     0.000 A 
ENDBRANCH  26  40
BRANCH  27  46
ATOM     46  C   UNL A   1      36.947  32.437  29.491  1.00  0.00    -0.014 A 
ATOM     47  C   UNL A   1      36.020  32.277  30.532  1.00  0.00     0.009 A 
ATOM     48  C   UNL A   1      36.556  33.128  28.334  1.00  0.00     0.009 A 
ATOM     49  C   UNL A   1      34.723  32.780  30.405  1.00  0.00     0.001 A 
ATOM     50  C   UNL A   1      35.268  33.656  28.223  1.00  0.00     0.001 A 
ATOM     51  C   UNL A   1      34.350  33.473  29.255  1.00  0.00     0.000 A 
ENDBRANCH  27  46
BRANCH  39  52
ATOM     52  C   UNL A   1      42.931  34.994  31.932  1.00  0.00    -0.014 A 
ATOM     53  C   UNL A   1      43.510  36.008  31.152  1.00  0.00     0.009 A 
ATOM     54  C   UNL A   1      42.677  35.239  33.290  1.00  0.00     0.009 A 
ATOM     55  C   UNL A   1      43.862  37.229  31.731  1.00  0.00     0.001 A 
ATOM     56  C   UNL A   1      43.005  36.470  33.859  1.00  0.00     0.001 A 
ATOM     57  C   UNL A   1      43.607  37.459  33.082  1.00  0.00     0.000 A 
ENDBRANCH  39  52
ENDBRANCH  13  14
ENDBRANCH   6   8
ENDBRANCH   3   4
ENDBRANCH   2   3
ENDBRANCH   1   2
BRANCH   1  58
ATOM     58  C   UNL A   1      33.682  23.699  22.588  1.00  0.00     0.116 C 
BRANCH  58  59
ATOM     59  N   UNL A   1      32.272  23.996  22.709  1.00  0.00    -0.356 N 
ATOM     60  C   UNL A   1      31.644  25.003  23.367  1.00  0.00     0.224 C 
ATOM     61  H   UNL A   1      31.674  23.372  22.240  1.00  0.00     0.163 HD
ATOM     62  O   UNL A   1      30.431  24.857  23.538  1.00  0.00    -0.275 OA
BRANCH  60  63
ATOM     63  C   UNL A   1      32.404  26.152  24.007  1.00  0.00     0.094 C 
ATOM     64  C   UNL A   1      32.363  27.629  23.498  1.00  0.00     0.002 C 
ATOM     65  C   UNL A   1      32.399  26.145  25.550  1.00  0.00     0.094 C 
ATOM     66  C   UNL A   1      31.447  28.575  24.298  1.00  0.00     0.005 C 
ATOM     67  C   UNL A   1      33.784  28.187  23.746  1.00  0.00     0.005 C 
ATOM     68  C   UNL A   1      32.885  27.542  26.048  1.00  0.00     0.002 C 
ATOM     69  C   UNL A   1      31.813  28.597  25.782  1.00  0.00     0.005 C 
ATOM     70  C   UNL A   1      34.141  27.980  25.236  1.00  0.00     0.005 C 
BRANCH  65  71
ATOM     71  C   UNL A   1      31.279  25.527  26.445  1.00  0.00     0.228 C 
ATOM     72  O   UNL A   1      30.383  26.301  26.831  1.00  0.00    -0.274 OA
ATOM     73  N   UNL A   1      31.019  24.208  26.686  1.00  0.00    -0.326 N 
ATOM     74  H   UNL A   1      30.124  24.056  27.067  1.00  0.00     0.169 HD
BRANCH  73  75
ATOM     75  C   UNL A   1      31.743  23.028  26.511  1.00  0.00     0.041 A 
ATOM     76  C   UNL A   1      31.283  22.082  25.599  1.00  0.00     0.027 A 
ATOM     77  C   UNL A   1      32.886  22.734  27.237  1.00  0.00     0.027 A 
ATOM     78  C   UNL A   1      32.130  21.038  25.201  1.00  0.00     0.016 A 
ATOM     79  C   UNL A   1      33.742  21.700  26.843  1.00  0.00     0.016 A 
ATOM     80  C   UNL A   1      33.422  20.905  25.744  1.00  0.00     0.040 A 
BRANCH  80  81
ATOM     81  C   UNL A   1      34.413  20.108  24.940  1.00  0.00     0.253 C 
ATOM     82  O   UNL A   1      35.602  20.416  25.018  1.00  0.00    -0.269 OA
ATOM     83  N   UNL A   1      34.028  18.888  24.402  1.00  0.00    -0.339 N 
ATOM     84  C   UNL A   1      33.046  18.624  23.369  1.00  0.00     0.120 C 
ATOM     85  C   UNL A   1      34.917  17.741  24.525  1.00  0.00     0.120 C 
ATOM     86  C   UNL A   1      32.812  17.131  23.513  1.00  0.00     0.023 C 
ATOM     87  C   UNL A   1      34.217  16.602  23.784  1.00  0.00     0.023 C 
ENDBRANCH  80  81
ENDBRANCH  73  75
ENDBRANCH  65  71
ENDBRANCH  60  63
ENDBRANCH  58  59
ENDBRANCH   1  58
TORSDOF 14
ENDMDL
MODEL 2
REMARK VINA RESULT:     -12.6      2.533      8.199
REMARK SMILES O=C(NCCCCNC(=O)[C@H]1[C@H]2CC[C@H](CC2)[C@H]1C(=O)Nc1ccc(C(=O)N2CCCC2)cc1)c1ccc(-c2c3nc(c(-c4ccccc4)c4ccc([nH]4)c(-c4ccccc4)c4nc(c(-c5ccccc5)c5ccc2[nH]5)C=C4)C=C3)cc1
REMARK SMILES IDX 6 1 5 2 4 3 3 4 1 5 2 6 35 8 36 9 82 10 37 11 81 12 38 13
REMARK SMILES IDX 39 14 40 15 75 16 41 17 80 18 74 19 76 20 42 21 79 22 73 23
REMARK SMILES IDX 72 24 43 26 65 27 50 28 64 29 51 30 54 31 63 32 77 33 52 34
REMARK SMILES IDX 53 35 62 37 78 38 55 39 44 40 45 41 49 42 46 43 48 44 47 45
REMARK SMILES IDX 66 46 67 47 71 48 68 49 70 50 69 51 56 52 57 53 61 54 58 55
REMARK SMILES IDX 60 56 59 57 7 58 8 59 9 60 10 62 11 63 12 64 18 65 17 66
REMARK SMILES IDX 13 67 15 68 16 69 14 70 19 71 20 72 21 73 22 75 23 76 34 77
REMARK SMILES IDX 24 78 33 79 25 80 26 81 27 82 28 83 29 84 32 85 30 86 31 87
REMARK H PARENT 3 7 76 25 54 36 8 61 21 74
REMARK Flexibility Score: inf
ROOT
ATOM      1  C   UNL A   1      31.757  26.661  25.892  1.00  0.00     0.023 C 
ENDROOT
BRANCH   1   2
ATOM      2  C   UNL A   1      32.226  27.439  27.124  1.00  0.00     0.023 C 
BRANCH   2   3
ATOM      3  C   UNL A   1      33.536  28.196  26.947  1.00  0.00     0.116 C 
BRANCH   3   4
ATOM      4  N   UNL A   1      33.373  29.633  27.104  1.00  0.00    -0.352 N 
ATOM      5  O   UNL A   1      33.820  31.695  27.901  1.00  0.00    -0.269 OA
ATOM      6  C   UNL A   1      34.207  30.547  27.702  1.00  0.00     0.251 C 
ATOM      7  H   UNL A   1      32.544  30.005  26.727  1.00  0.00     0.163 HD
BRANCH   6   8
ATOM      8  C   UNL A   1      35.566  30.143  28.115  1.00  0.00     0.039 A 
ATOM      9  C   UNL A   1      36.630  30.222  27.215  1.00  0.00     0.014 A 
ATOM     10  C   UNL A   1      35.784  29.697  29.422  1.00  0.00     0.014 A 
ATOM     11  C   UNL A   1      37.876  29.721  27.573  1.00  0.00     0.010 A 
ATOM     12  C   UNL A   1      37.060  29.276  29.809  1.00  0.00     0.010 A 
ATOM     13  C   UNL A   1      38.110  29.258  28.879  1.00  0.00    -0.014 A 
BRANCH  13  14
ATOM     14  C   UNL A   1      39.484  28.843  29.257  1.00  0.00     0.031 A 
ATOM     15  C   UNL A   1      40.344  29.693  30.149  1.00  0.00     0.074 A 
ATOM     16  C   UNL A   1      39.935  27.652  28.817  1.00  0.00     0.049 A 
ATOM     17  N   UNL A   1      41.544  29.443  30.611  1.00  0.00    -0.248 NA
ATOM     18  C   UNL A   1      39.797  30.991  30.574  1.00  0.00     0.031 C 
ATOM     19  C   UNL A   1      39.193  26.743  27.938  1.00  0.00     0.029 A 
ATOM     20  N   UNL A   1      41.108  26.988  29.065  1.00  0.00    -0.354 N 
ATOM     21  C   UNL A   1      41.901  30.552  31.368  1.00  0.00     0.074 A 
ATOM     22  C   UNL A   1      40.802  31.488  31.285  1.00  0.00     0.031 C 
ATOM     23  C   UNL A   1      39.903  25.618  27.770  1.00  0.00     0.029 A 
ATOM     24  C   UNL A   1      41.173  25.752  28.471  1.00  0.00     0.049 A 
ATOM     25  H   UNL A   1      41.833  27.361  29.617  1.00  0.00     0.167 HD
ATOM     26  C   UNL A   1      43.040  30.765  32.070  1.00  0.00     0.031 A 
ATOM     27  C   UNL A   1      42.152  24.829  28.476  1.00  0.00     0.031 A 
ATOM     28  C   UNL A   1      44.135  29.832  32.149  1.00  0.00     0.049 A 
ATOM     29  C   UNL A   1      43.413  25.109  29.237  1.00  0.00     0.074 A 
ATOM     30  C   UNL A   1      45.320  29.950  32.857  1.00  0.00     0.029 A 
ATOM     31  N   UNL A   1      44.181  28.610  31.496  1.00  0.00    -0.354 N 
ATOM     32  N   UNL A   1      43.717  26.150  29.972  1.00  0.00    -0.248 NA
ATOM     33  C   UNL A   1      44.464  24.086  29.166  1.00  0.00     0.031 C 
ATOM     34  C   UNL A   1      46.103  28.822  32.591  1.00  0.00     0.029 A 
ATOM     35  C   UNL A   1      45.384  27.976  31.762  1.00  0.00     0.049 A 
ATOM     36  H   UNL A   1      43.465  28.246  30.926  1.00  0.00     0.167 HD
ATOM     37  C   UNL A   1      44.992  25.904  30.461  1.00  0.00     0.074 A 
ATOM     38  C   UNL A   1      45.389  24.602  29.963  1.00  0.00     0.031 C 
ATOM     39  C   UNL A   1      45.768  26.688  31.248  1.00  0.00     0.031 A 
BRANCH  26  40
ATOM     40  C   UNL A   1      43.178  32.074  32.798  1.00  0.00    -0.014 A 
ATOM     41  C   UNL A   1      43.726  33.204  32.169  1.00  0.00     0.009 A 
ATOM     42  C   UNL A   1      42.691  32.197  34.109  1.00  0.00     0.009 A 
ATOM     43  C   UNL A   1      43.806  34.422  32.849  1.00  0.00     0.001 A 
ATOM     44  C   UNL A   1      42.751  33.421  34.777  1.00  0.00     0.001 A 
ATOM     45  C   UNL A   1      43.313  34.532  34.149  1.00  0.00     0.000 A 
ENDBRANCH  26  40
BRANCH  27  46
ATOM     46  C   UNL A   1      41.980  23.566  27.715  1.00  0.00    -0.014 A 
ATOM     47  C   UNL A   1      42.436  23.458  26.393  1.00  0.00     0.009 A 
ATOM     48  C   UNL A   1      41.360  22.457  28.313  1.00  0.00     0.009 A 
ATOM     49  C   UNL A   1      42.253  22.271  25.678  1.00  0.00     0.001 A 
ATOM     50  C   UNL A   1      41.207  21.263  27.606  1.00  0.00     0.001 A 
ATOM     51  C   UNL A   1      41.646  21.175  26.286  1.00  0.00     0.000 A 
ENDBRANCH  27  46
BRANCH  39  52
ATOM     52  C   UNL A   1      47.114  26.142  31.628  1.00  0.00    -0.014 A 
ATOM     53  C   UNL A   1      47.310  25.485  32.853  1.00  0.00     0.009 A 
ATOM     54  C   UNL A   1      48.196  26.280  30.746  1.00  0.00     0.009 A 
ATOM     55  C   UNL A   1      48.575  25.011  33.203  1.00  0.00     0.001 A 
ATOM     56  C   UNL A   1      49.453  25.779  31.088  1.00  0.00     0.001 A 
ATOM     57  C   UNL A   1      49.644  25.156  32.319  1.00  0.00     0.000 A 
ENDBRANCH  39  52
ENDBRANCH  13  14
ENDBRANCH   6   8
ENDBRANCH   3   4
ENDBRANCH   2   3
ENDBRANCH   1   2
BRANCH   1  58
ATOM     58  C   UNL A   1      30.587  25.706  26.128  1.00  0.00     0.116 C 
BRANCH  58  59
ATOM     59  N   UNL A   1      30.438  24.750  25.054  1.00  0.00    -0.356 N 
ATOM     60  C   UNL A   1      31.334  23.874  24.533  1.00  0.00     0.224 C 
ATOM     61  H   UNL A   1      29.547  24.730  24.636  1.00  0.00     0.163 HD
ATOM     62  O   UNL A   1      31.028  23.379  23.445  1.00  0.00    -0.275 OA
BRANCH  60  63
ATOM     63  C   UNL A   1      32.700  23.645  25.154  1.00  0.00     0.094 C 
ATOM     64  C   UNL A   1      33.118  22.344  25.912  1.00  0.00     0.002 C 
ATOM     65  C   UNL A   1      33.886  24.138  24.298  1.00  0.00     0.094 C 
ATOM     66  C   UNL A   1      33.982  21.359  25.101  1.00  0.00     0.005 C 
ATOM     67  C   UNL A   1      34.056  22.815  27.048  1.00  0.00     0.005 C 
ATOM     68  C   UNL A   1      35.197  23.520  24.876  1.00  0.00     0.002 C 
ATOM     69  C   UNL A   1      35.252  22.024  24.570  1.00  0.00     0.005 C 
ATOM     70  C   UNL A   1      35.199  23.650  26.428  1.00  0.00     0.005 C 
BRANCH  65  71
ATOM     71  C   UNL A   1      33.889  24.248  22.741  1.00  0.00     0.228 C 
ATOM     72  O   UNL A   1      34.337  23.270  22.114  1.00  0.00    -0.274 OA
ATOM     73  N   UNL A   1      33.265  25.176  21.956  1.00  0.00    -0.326 N 
ATOM     74  H   UNL A   1      33.199  24.899  21.013  1.00  0.00     0.169 HD
BRANCH  73  75
ATOM     75  C   UNL A   1      32.703  26.430  22.197  1.00  0.00     0.041 A 
ATOM     76  C   UNL A   1      31.347  26.621  21.943  1.00  0.00     0.027 A 
ATOM     77  C   UNL A   1      33.443  27.513  22.641  1.00  0.00     0.027 A 
ATOM     78  C   UNL A   1      30.707  27.766  22.439  1.00  0.00     0.016 A 
ATOM     79  C   UNL A   1      32.814  28.656  23.146  1.00  0.00     0.016 A 
ATOM     80  C   UNL A   1      31.424  28.747  23.150  1.00  0.00     0.040 A 
BRANCH  80  81
ATOM     81  C   UNL A   1      30.623  29.650  24.048  1.00  0.00     0.253 C 
ATOM     82  O   UNL A   1      31.156  30.064  25.078  1.00  0.00    -0.269 OA
ATOM     83  N   UNL A   1      29.463  30.237  23.564  1.00  0.00    -0.339 N 
ATOM     84  C   UNL A   1      28.221  29.600  23.172  1.00  0.00     0.120 C 
ATOM     85  C   UNL A   1      29.220  31.651  23.814  1.00  0.00     0.120 C 
ATOM     86  C   UNL A   1      27.523  30.696  22.386  1.00  0.00     0.023 C 
ATOM     87  C   UNL A   1      27.850  31.944  23.201  1.00  0.00     0.023 C 
ENDBRANCH  80  81
ENDBRANCH  73  75
ENDBRANCH  65  71
ENDBRANCH  60  63
ENDBRANCH  58  59
ENDBRANCH   1  58
TORSDOF 14
ENDMDL
MODEL 3
REMARK VINA RESULT:     -12.5      0.287      5.650
REMARK SMILES O=C(NCCCCNC(=O)[C@H]1[C@H]2CC[C@H](CC2)[C@H]1C(=O)Nc1ccc(C(=O)N2CCCC2)cc1)c1ccc(-c2c3nc(c(-c4ccccc4)c4ccc([nH]4)c(-c4ccccc4)c4nc(c(-c5ccccc5)c5ccc2[nH]5)C=C4)C=C3)cc1
REMARK SMILES IDX 6 1 5 2 4 3 3 4 1 5 2 6 35 8 36 9 82 10 37 11 81 12 38 13
REMARK SMILES IDX 39 14 40 15 75 16 41 17 80 18 74 19 76 20 42 21 79 22 73 23
REMARK SMILES IDX 72 24 43 26 65 27 50 28 64 29 51 30 54 31 63 32 77 33 52 34
REMARK SMILES IDX 53 35 62 37 78 38 55 39 44 40 45 41 49 42 46 43 48 44 47 45
REMARK SMILES IDX 66 46 67 47 71 48 68 49 70 50 69 51 56 52 57 53 61 54 58 55
REMARK SMILES IDX 60 56 59 57 7 58 8 59 9 60 10 62 11 63 12 64 18 65 17 66
REMARK SMILES IDX 13 67 15 68 16 69 14 70 19 71 20 72 21 73 22 75 23 76 34 77
REMARK SMILES IDX 24 78 33 79 25 80 26 81 27 82 28 83 29 84 32 85 30 86 31 87
REMARK H PARENT 3 7 76 25 54 36 8 61 21 74
REMARK Flexibility Score: inf
ROOT
ATOM      1  C   UNL A   1      34.464  23.871  23.895  1.00  0.00     0.023 C 
ENDROOT
BRANCH   1   2
ATOM      2  C   UNL A   1      35.930  23.430  23.915  1.00  0.00     0.023 C 
BRANCH   2   3
ATOM      3  C   UNL A   1      36.672  23.719  25.213  1.00  0.00     0.116 C 
BRANCH   3   4
ATOM      4  N   UNL A   1      37.605  22.661  25.568  1.00  0.00    -0.352 N 
ATOM      5  O   UNL A   1      39.562  21.762  26.238  1.00  0.00    -0.269 OA
ATOM      6  C   UNL A   1      38.831  22.747  26.182  1.00  0.00     0.251 C 
ATOM      7  H   UNL A   1      37.316  21.751  25.333  1.00  0.00     0.163 HD
BRANCH   6   8
ATOM      8  C   UNL A   1      39.274  24.030  26.766  1.00  0.00     0.039 A 
ATOM      9  C   UNL A   1      38.961  24.348  28.089  1.00  0.00     0.014 A 
ATOM     10  C   UNL A   1      40.025  24.916  25.989  1.00  0.00     0.014 A 
ATOM     11  C   UNL A   1      39.270  25.608  28.586  1.00  0.00     0.010 A 
ATOM     12  C   UNL A   1      40.414  26.149  26.522  1.00  0.00     0.010 A 
ATOM     13  C   UNL A   1      40.016  26.516  27.816  1.00  0.00    -0.014 A 
BRANCH  13  14
ATOM     14  C   UNL A   1      40.430  27.804  28.426  1.00  0.00     0.031 A 
ATOM     15  C   UNL A   1      39.450  28.923  28.642  1.00  0.00     0.074 A 
ATOM     16  C   UNL A   1      41.709  27.939  28.828  1.00  0.00     0.049 A 
ATOM     17  N   UNL A   1      39.647  30.088  29.208  1.00  0.00    -0.248 NA
ATOM     18  C   UNL A   1      38.076  28.717  28.157  1.00  0.00     0.031 C 
ATOM     19  C   UNL A   1      42.755  26.924  28.664  1.00  0.00     0.029 A 
ATOM     20  N   UNL A   1      42.343  28.964  29.480  1.00  0.00    -0.354 N 
ATOM     21  C   UNL A   1      38.432  30.757  29.138  1.00  0.00     0.074 A 
ATOM     22  C   UNL A   1      37.508  29.880  28.453  1.00  0.00     0.031 C 
ATOM     23  C   UNL A   1      43.881  27.354  29.252  1.00  0.00     0.029 A 
ATOM     24  C   UNL A   1      43.658  28.696  29.773  1.00  0.00     0.049 A 
ATOM     25  H   UNL A   1      41.898  29.811  29.715  1.00  0.00     0.167 HD
ATOM     26  C   UNL A   1      38.117  31.989  29.606  1.00  0.00     0.031 A 
ATOM     27  C   UNL A   1      44.589  29.450  30.384  1.00  0.00     0.031 A 
ATOM     28  C   UNL A   1      39.039  32.862  30.287  1.00  0.00     0.049 A 
ATOM     29  C   UNL A   1      44.216  30.821  30.863  1.00  0.00     0.074 A 
ATOM     30  C   UNL A   1      38.804  34.118  30.820  1.00  0.00     0.029 A 
ATOM     31  N   UNL A   1      40.373  32.571  30.525  1.00  0.00    -0.354 N 
ATOM     32  N   UNL A   1      43.054  31.423  30.816  1.00  0.00    -0.248 NA
ATOM     33  C   UNL A   1      45.287  31.616  31.479  1.00  0.00     0.031 C 
ATOM     34  C   UNL A   1      40.008  34.608  31.336  1.00  0.00     0.029 A 
ATOM     35  C   UNL A   1      40.981  33.635  31.173  1.00  0.00     0.049 A 
ATOM     36  H   UNL A   1      40.823  31.733  30.270  1.00  0.00     0.167 HD
ATOM     37  C   UNL A   1      43.249  32.664  31.404  1.00  0.00     0.074 A 
ATOM     38  C   UNL A   1      44.634  32.715  31.827  1.00  0.00     0.031 C 
ATOM     39  C   UNL A   1      42.363  33.674  31.574  1.00  0.00     0.031 A 
BRANCH  26  40
ATOM     40  C   UNL A   1      36.714  32.484  29.382  1.00  0.00    -0.014 A 
ATOM     41  C   UNL A   1      35.725  32.348  30.369  1.00  0.00     0.009 A 
ATOM     42  C   UNL A   1      36.395  33.157  28.190  1.00  0.00     0.009 A 
ATOM     43  C   UNL A   1      34.441  32.853  30.157  1.00  0.00     0.001 A 
ATOM     44  C   UNL A   1      35.117  33.681  27.991  1.00  0.00     0.001 A 
ATOM     45  C   UNL A   1      34.139  33.525  28.972  1.00  0.00     0.000 A 
ENDBRANCH  26  40
BRANCH  27  46
ATOM     46  C   UNL A   1      45.968  28.927  30.553  1.00  0.00    -0.014 A 
ATOM     47  C   UNL A   1      46.328  28.213  31.706  1.00  0.00     0.009 A 
ATOM     48  C   UNL A   1      46.934  29.138  29.556  1.00  0.00     0.009 A 
ATOM     49  C   UNL A   1      47.633  27.740  31.865  1.00  0.00     0.001 A 
ATOM     50  C   UNL A   1      48.228  28.637  29.704  1.00  0.00     0.001 A 
ATOM     51  C   UNL A   1      48.579  27.947  30.863  1.00  0.00     0.000 A 
ENDBRANCH  27  46
BRANCH  39  52
ATOM     52  C   UNL A   1      42.868  34.908  32.264  1.00  0.00    -0.014 A 
ATOM     53  C   UNL A   1      42.746  35.063  33.654  1.00  0.00     0.009 A 
ATOM     54  C   UNL A   1      43.481  35.923  31.515  1.00  0.00     0.009 A 
ATOM     55  C   UNL A   1      43.195  36.230  34.275  1.00  0.00     0.001 A 
ATOM     56  C   UNL A   1      43.953  37.077  32.143  1.00  0.00     0.001 A 
ATOM     57  C   UNL A   1      43.800  37.233  33.519  1.00  0.00     0.000 A 
ENDBRANCH  39  52
ENDBRANCH  13  14
ENDBRANCH   6   8
ENDBRANCH   3   4
ENDBRANCH   2   3
ENDBRANCH   1   2
BRANCH   1  58
ATOM     58  C   UNL A   1      33.688  23.504  22.630  1.00  0.00     0.116 C 
BRANCH  58  59
ATOM     59  N   UNL A   1      32.271  23.761  22.766  1.00  0.00    -0.356 N 
ATOM     60  C   UNL A   1      31.624  24.791  23.367  1.00  0.00     0.224 C 
ATOM     61  H   UNL A   1      31.685  23.085  22.356  1.00  0.00     0.163 HD
ATOM     62  O   UNL A   1      30.421  24.616  23.579  1.00  0.00    -0.275 OA
BRANCH  60  63
ATOM     63  C   UNL A   1      32.356  26.006  23.906  1.00  0.00     0.094 C 
ATOM     64  C   UNL A   1      32.238  27.445  23.307  1.00  0.00     0.002 C 
ATOM     65  C   UNL A   1      32.403  26.099  25.445  1.00  0.00     0.094 C 
ATOM     66  C   UNL A   1      31.311  28.404  24.078  1.00  0.00     0.005 C 
ATOM     67  C   UNL A   1      33.642  28.073  23.468  1.00  0.00     0.005 C 
ATOM     68  C   UNL A   1      32.848  27.543  25.836  1.00  0.00     0.002 C 
ATOM     69  C   UNL A   1      31.725  28.536  25.543  1.00  0.00     0.005 C 
ATOM     70  C   UNL A   1      34.057  27.976  24.954  1.00  0.00     0.005 C 
BRANCH  65  71
ATOM     71  C   UNL A   1      31.340  25.497  26.417  1.00  0.00     0.228 C 
ATOM     72  O   UNL A   1      30.449  26.269  26.817  1.00  0.00    -0.274 OA
ATOM     73  N   UNL A   1      31.117  24.183  26.720  1.00  0.00    -0.326 N 
ATOM     74  H   UNL A   1      30.245  24.031  27.151  1.00  0.00     0.169 HD
BRANCH  73  75
ATOM     75  C   UNL A   1      31.855  23.010  26.555  1.00  0.00     0.041 A 
ATOM     76  C   UNL A   1      31.370  22.023  25.702  1.00  0.00     0.027 A 
ATOM     77  C   UNL A   1      33.036  22.764  27.235  1.00  0.00     0.027 A 
ATOM     78  C   UNL A   1      32.217  20.979  25.303  1.00  0.00     0.016 A 
ATOM     79  C   UNL A   1      33.892  21.730  26.839  1.00  0.00     0.016 A 
ATOM     80  C   UNL A   1      33.536  20.889  25.788  1.00  0.00     0.040 A 
BRANCH  80  81
ATOM     81  C   UNL A   1      34.502  20.079  24.968  1.00  0.00     0.253 C 
ATOM     82  O   UNL A   1      35.702  20.340  25.062  1.00  0.00    -0.269 OA
ATOM     83  N   UNL A   1      34.077  18.891  24.391  1.00  0.00    -0.339 N 
ATOM     84  C   UNL A   1      33.094  18.694  23.343  1.00  0.00     0.120 C 
ATOM     85  C   UNL A   1      34.921  17.708  24.486  1.00  0.00     0.120 C 
ATOM     86  C   UNL A   1      32.803  17.207  23.442  1.00  0.00     0.023 C 
ATOM     87  C   UNL A   1      34.185  16.619  23.707  1.00  0.00     0.023 C 
ENDBRANCH  80  81
ENDBRANCH  73  75
ENDBRANCH  65  71
ENDBRANCH  60  63
ENDBRANCH  58  59
ENDBRANCH   1  58
TORSDOF 14
ENDMDL
