MODEL 1
REMARK VINA RESULT:      -9.8      0.000      0.000
REMARK SMILES Cc1cc2c(=O)c3ccccc3oc2c(C(=O)NCCCCNC(=O)c2ccc(-c3c4nc(c(-c5ccccc5)c5ccc([nH]5)c(-c5ccccc5)c5nc(c(-c6ccccc6)c6ccc3[nH]6)C=C5)C=C4)cc2)c1C
REMARK SMILES IDX 21 1 20 2 19 3 18 4 16 5 17 6 15 8 1 9 2 10 3 11 74 12 4 13
REMARK SMILES IDX 75 14 5 15 14 16 6 17 7 18 13 19 8 20 12 21 9 22 11 23 10 24
REMARK SMILES IDX 22 25 23 26 24 27 25 29 26 30 27 31 73 32 28 33 72 34 29 35
REMARK SMILES IDX 30 36 31 37 66 38 32 39 71 40 65 41 67 42 33 43 70 44 64 45
REMARK SMILES IDX 63 46 34 48 56 49 41 50 55 51 42 52 45 53 54 54 68 55 43 56
REMARK SMILES IDX 44 57 53 59 69 60 46 61 35 62 36 63 40 64 37 65 39 66 38 67
REMARK SMILES IDX 57 68 58 69 62 70 59 71 61 72 60 73 47 74 48 75 52 76 49 77
REMARK SMILES IDX 51 78 50 79
REMARK H PARENT 18 7 23 28 67 47 45 58
REMARK Flexibility Score: inf
ROOT
ATOM      1  C   UNL A   1      34.321  36.069  33.426  1.00  0.00     0.023 C 
ENDROOT
BRANCH   1   2
ATOM      2  C   UNL A   1      34.741  34.795  34.154  1.00  0.00     0.023 C 
BRANCH   2   3
ATOM      3  C   UNL A   1      36.239  34.504  34.073  1.00  0.00     0.116 C 
BRANCH   3   4
ATOM      4  N   UNL A   1      36.569  33.214  34.659  1.00  0.00    -0.352 N 
ATOM      5  C   UNL A   1      37.128  33.113  35.916  1.00  0.00     0.255 C 
ATOM      6  O   UNL A   1      36.440  33.146  36.928  1.00  0.00    -0.269 OA
ATOM      7  H   UNL A   1      36.389  32.394  34.146  1.00  0.00     0.163 HD
BRANCH   5   8
ATOM      8  C   UNL A   1      38.570  32.745  35.966  1.00  0.00     0.086 A 
ATOM      9  C   UNL A   1      41.864  33.743  37.667  1.00  0.00     0.044 C 
ATOM     10  C   UNL A   1      40.843  33.045  36.808  1.00  0.00    -0.046 A 
ATOM     11  C   UNL A   1      41.278  32.043  35.938  1.00  0.00     0.019 A 
ATOM     12  C   UNL A   1      39.460  33.322  36.907  1.00  0.00    -0.032 A 
ATOM     13  C   UNL A   1      40.367  31.376  35.119  1.00  0.00     0.066 A 
ATOM     14  C   UNL A   1      38.974  34.173  38.047  1.00  0.00     0.045 C 
ATOM     15  C   UNL A   1      40.823  30.231  34.320  1.00  0.00     0.200 A 
ATOM     16  C   UNL A   1      39.026  31.751  35.076  1.00  0.00     0.151 A 
ATOM     17  O   UNL A   1      41.986  29.850  34.348  1.00  0.00    -0.288 OA
ATOM     18  C   UNL A   1      39.812  29.547  33.511  1.00  0.00     0.065 A 
ATOM     19  O   UNL A   1      38.132  31.183  34.193  1.00  0.00    -0.455 OA
ATOM     20  C   UNL A   1      40.136  28.390  32.796  1.00  0.00     0.016 A 
ATOM     21  C   UNL A   1      38.526  30.079  33.473  1.00  0.00     0.138 A 
ATOM     22  C   UNL A   1      39.165  27.773  32.012  1.00  0.00     0.001 A 
ATOM     23  C   UNL A   1      37.562  29.468  32.671  1.00  0.00     0.048 A 
ATOM     24  C   UNL A   1      37.881  28.318  31.941  1.00  0.00     0.004 A 
ENDBRANCH   5   8
ENDBRANCH   3   4
ENDBRANCH   2   3
ENDBRANCH   1   2
BRANCH   1  25
ATOM     25  C   UNL A   1      34.649  36.132  31.940  1.00  0.00     0.116 C 
BRANCH  25  26
ATOM     26  N   UNL A   1      33.524  35.889  31.050  1.00  0.00    -0.352 N 
ATOM     27  C   UNL A   1      33.414  34.896  30.093  1.00  0.00     0.251 C 
ATOM     28  H   UNL A   1      32.756  36.499  31.139  1.00  0.00     0.163 HD
ATOM     29  O   UNL A   1      32.427  34.801  29.383  1.00  0.00    -0.269 OA
BRANCH  27  30
ATOM     30  C   UNL A   1      34.570  33.990  29.904  1.00  0.00     0.039 A 
ATOM     31  C   UNL A   1      34.845  33.008  30.857  1.00  0.00     0.014 A 
ATOM     32  C   UNL A   1      35.469  34.249  28.867  1.00  0.00     0.014 A 
ATOM     33  C   UNL A   1      36.116  32.445  30.898  1.00  0.00     0.010 A 
ATOM     34  C   UNL A   1      36.712  33.609  28.860  1.00  0.00     0.010 A 
ATOM     35  C   UNL A   1      37.074  32.761  29.919  1.00  0.00    -0.014 A 
BRANCH  35  36
ATOM     36  C   UNL A   1      38.459  32.234  30.056  1.00  0.00     0.031 A 
ATOM     37  C   UNL A   1      39.490  32.967  30.879  1.00  0.00     0.074 A 
ATOM     38  C   UNL A   1      38.768  31.043  29.507  1.00  0.00     0.049 A 
ATOM     39  N   UNL A   1      40.733  32.634  31.125  1.00  0.00    -0.248 NA
ATOM     40  C   UNL A   1      39.080  34.235  31.505  1.00  0.00     0.031 C 
ATOM     41  C   UNL A   1      37.852  30.219  28.718  1.00  0.00     0.029 A 
ATOM     42  N   UNL A   1      39.922  30.304  29.559  1.00  0.00    -0.354 N 
ATOM     43  C   UNL A   1      41.257  33.656  31.907  1.00  0.00     0.074 A 
ATOM     44  C   UNL A   1      40.206  34.634  32.081  1.00  0.00     0.031 C 
ATOM     45  C   UNL A   1      38.452  29.058  28.424  1.00  0.00     0.029 A 
ATOM     46  C   UNL A   1      39.819  29.085  28.934  1.00  0.00     0.049 A 
ATOM     47  H   UNL A   1      40.745  30.616  30.002  1.00  0.00     0.167 HD
ATOM     48  C   UNL A   1      42.498  33.769  32.438  1.00  0.00     0.031 A 
ATOM     49  C   UNL A   1      40.721  28.100  28.774  1.00  0.00     0.031 A 
ATOM     50  C   UNL A   1      43.539  32.786  32.287  1.00  0.00     0.049 A 
ATOM     51  C   UNL A   1      42.102  28.267  29.335  1.00  0.00     0.074 A 
ATOM     52  C   UNL A   1      44.824  32.811  32.802  1.00  0.00     0.029 A 
ATOM     53  N   UNL A   1      43.414  31.603  31.577  1.00  0.00    -0.354 N 
ATOM     54  N   UNL A   1      42.584  29.252  30.053  1.00  0.00    -0.248 NA
ATOM     55  C   UNL A   1      43.067  27.194  29.057  1.00  0.00     0.031 C 
ATOM     56  C   UNL A   1      45.493  31.666  32.364  1.00  0.00     0.029 A 
ATOM     57  C   UNL A   1      44.607  30.900  31.623  1.00  0.00     0.049 A 
ATOM     58  H   UNL A   1      42.600  31.305  31.111  1.00  0.00     0.167 HD
ATOM     59  C   UNL A   1      43.906  28.919  30.313  1.00  0.00     0.074 A 
ATOM     60  C   UNL A   1      44.144  27.629  29.699  1.00  0.00     0.031 C 
ATOM     61  C   UNL A   1      44.837  29.624  30.999  1.00  0.00     0.031 A 
BRANCH  48  62
ATOM     62  C   UNL A   1      42.824  35.008  33.225  1.00  0.00    -0.014 A 
ATOM     63  C   UNL A   1      42.428  35.102  34.569  1.00  0.00     0.009 A 
ATOM     64  C   UNL A   1      43.428  36.119  32.617  1.00  0.00     0.009 A 
ATOM     65  C   UNL A   1      42.620  36.284  35.286  1.00  0.00     0.001 A 
ATOM     66  C   UNL A   1      43.642  37.293  33.343  1.00  0.00     0.001 A 
ATOM     67  C   UNL A   1      43.231  37.378  34.674  1.00  0.00     0.000 A 
ENDBRANCH  48  62
BRANCH  49  68
ATOM     68  C   UNL A   1      40.329  26.870  28.040  1.00  0.00    -0.014 A 
ATOM     69  C   UNL A   1      39.600  25.858  28.686  1.00  0.00     0.009 A 
ATOM     70  C   UNL A   1      40.738  26.673  26.713  1.00  0.00     0.009 A 
ATOM     71  C   UNL A   1      39.317  24.660  28.029  1.00  0.00     0.001 A 
ATOM     72  C   UNL A   1      40.427  25.484  26.049  1.00  0.00     0.001 A 
ATOM     73  C   UNL A   1      39.728  24.474  26.711  1.00  0.00     0.000 A 
ENDBRANCH  49  68
BRANCH  61  74
ATOM     74  C   UNL A   1      46.208  29.027  31.128  1.00  0.00    -0.014 A 
ATOM     75  C   UNL A   1      47.175  29.275  30.140  1.00  0.00     0.009 A 
ATOM     76  C   UNL A   1      46.514  28.146  32.176  1.00  0.00     0.009 A 
ATOM     77  C   UNL A   1      48.419  28.646  30.194  1.00  0.00     0.001 A 
ATOM     78  C   UNL A   1      47.768  27.536  32.240  1.00  0.00     0.001 A 
ATOM     79  C   UNL A   1      48.716  27.779  31.246  1.00  0.00     0.000 A 
ENDBRANCH  61  74
ENDBRANCH  35  36
ENDBRANCH  27  30
ENDBRANCH  25  26
ENDBRANCH   1  25
TORSDOF 11
ENDMDL
MODEL 2
REMARK VINA RESULT:      -9.7      0.429      5.931
REMARK SMILES Cc1cc2c(=O)c3ccccc3oc2c(C(=O)NCCCCNC(=O)c2ccc(-c3c4nc(c(-c5ccccc5)c5ccc([nH]5)c(-c5ccccc5)c5nc(c(-c6ccccc6)c6ccc3[nH]6)C=C5)C=C4)cc2)c1C
REMARK SMILES IDX 21 1 20 2 19 3 18 4 16 5 17 6 15 8 1 9 2 10 3 11 74 12 4 13
REMARK SMILES IDX 75 14 5 15 14 16 6 17 7 18 13 19 8 20 12 21 9 22 11 23 10 24
REMARK SMILES IDX 22 25 23 26 24 27 25 29 26 30 27 31 73 32 28 33 72 34 29 35
REMARK SMILES IDX 30 36 31 37 66 38 32 39 71 40 65 41 67 42 33 43 70 44 64 45
REMARK SMILES IDX 63 46 34 48 56 49 41 50 55 51 42 52 45 53 54 54 68 55 43 56
REMARK SMILES IDX 44 57 53 59 69 60 46 61 35 62 36 63 40 64 37 65 39 66 38 67
REMARK SMILES IDX 57 68 58 69 62 70 59 71 61 72 60 73 47 74 48 75 52 76 49 77
REMARK SMILES IDX 51 78 50 79
REMARK H PARENT 18 7 23 28 67 47 45 58
REMARK Flexibility Score: inf
ROOT
ATOM      1  C   UNL A   1      33.885  35.617  33.052  1.00  0.00     0.023 C 
ENDROOT
BRANCH   1   2
ATOM      2  C   UNL A   1      34.420  34.318  33.649  1.00  0.00     0.023 C 
BRANCH   2   3
ATOM      3  C   UNL A   1      35.912  34.358  33.972  1.00  0.00     0.116 C 
BRANCH   3   4
ATOM      4  N   UNL A   1      36.342  33.160  34.678  1.00  0.00    -0.352 N 
ATOM      5  C   UNL A   1      36.954  33.228  35.913  1.00  0.00     0.255 C 
ATOM      6  O   UNL A   1      36.304  33.334  36.944  1.00  0.00    -0.269 OA
ATOM      7  H   UNL A   1      36.193  32.280  34.264  1.00  0.00     0.163 HD
BRANCH   5   8
ATOM      8  C   UNL A   1      38.416  32.949  35.937  1.00  0.00     0.086 A 
ATOM      9  C   UNL A   1      41.687  34.216  37.499  1.00  0.00     0.044 C 
ATOM     10  C   UNL A   1      40.688  33.421  36.700  1.00  0.00    -0.046 A 
ATOM     11  C   UNL A   1      41.160  32.408  35.862  1.00  0.00     0.019 A 
ATOM     12  C   UNL A   1      39.295  33.619  36.826  1.00  0.00    -0.032 A 
ATOM     13  C   UNL A   1      40.270  31.652  35.099  1.00  0.00     0.066 A 
ATOM     14  C   UNL A   1      38.787  34.490  37.942  1.00  0.00     0.045 C 
ATOM     15  C   UNL A   1      40.774  30.501  34.337  1.00  0.00     0.200 A 
ATOM     16  C   UNL A   1      38.908  31.945  35.079  1.00  0.00     0.151 A 
ATOM     17  O   UNL A   1      41.958  30.191  34.349  1.00  0.00    -0.288 OA
ATOM     18  C   UNL A   1      39.785  29.723  33.588  1.00  0.00     0.065 A 
ATOM     19  O   UNL A   1      38.028  31.285  34.247  1.00  0.00    -0.455 OA
ATOM     20  C   UNL A   1      40.160  28.556  32.915  1.00  0.00     0.016 A 
ATOM     21  C   UNL A   1      38.469  30.176  33.564  1.00  0.00     0.138 A 
ATOM     22  C   UNL A   1      39.208  27.848  32.186  1.00  0.00     0.001 A 
ATOM     23  C   UNL A   1      37.523  29.473  32.817  1.00  0.00     0.048 A 
ATOM     24  C   UNL A   1      37.892  28.312  32.129  1.00  0.00     0.004 A 
ENDBRANCH   5   8
ENDBRANCH   3   4
ENDBRANCH   2   3
ENDBRANCH   1   2
BRANCH   1  25
ATOM     25  C   UNL A   1      34.303  35.919  31.619  1.00  0.00     0.116 C 
BRANCH  25  26
ATOM     26  N   UNL A   1      33.287  35.657  30.612  1.00  0.00    -0.352 N 
ATOM     27  C   UNL A   1      33.304  34.669  29.643  1.00  0.00     0.251 C 
ATOM     28  H   UNL A   1      32.500  36.248  30.621  1.00  0.00     0.163 HD
ATOM     29  O   UNL A   1      32.401  34.557  28.831  1.00  0.00    -0.269 OA
BRANCH  27  30
ATOM     30  C   UNL A   1      34.495  33.791  29.575  1.00  0.00     0.039 A 
ATOM     31  C   UNL A   1      34.669  32.782  30.523  1.00  0.00     0.014 A 
ATOM     32  C   UNL A   1      35.513  34.103  28.671  1.00  0.00     0.014 A 
ATOM     33  C   UNL A   1      35.936  32.241  30.709  1.00  0.00     0.010 A 
ATOM     34  C   UNL A   1      36.761  33.487  28.803  1.00  0.00     0.010 A 
ATOM     35  C   UNL A   1      37.004  32.609  29.872  1.00  0.00    -0.014 A 
BRANCH  35  36
ATOM     36  C   UNL A   1      38.372  32.103  30.169  1.00  0.00     0.031 A 
ATOM     37  C   UNL A   1      38.849  30.786  29.606  1.00  0.00     0.074 A 
ATOM     38  C   UNL A   1      39.220  32.871  30.878  1.00  0.00     0.049 A 
ATOM     39  N   UNL A   1      40.018  30.210  29.742  1.00  0.00    -0.248 NA
ATOM     40  C   UNL A   1      37.898  30.014  28.788  1.00  0.00     0.031 C 
ATOM     41  C   UNL A   1      38.893  34.179  31.447  1.00  0.00     0.029 A 
ATOM     42  N   UNL A   1      40.538  32.683  31.208  1.00  0.00    -0.354 N 
ATOM     43  C   UNL A   1      39.934  29.005  29.055  1.00  0.00     0.074 A 
ATOM     44  C   UNL A   1      38.595  28.919  28.516  1.00  0.00     0.031 C 
ATOM     45  C   UNL A   1      39.997  34.708  31.991  1.00  0.00     0.029 A 
ATOM     46  C   UNL A   1      41.090  33.747  31.879  1.00  0.00     0.049 A 
ATOM     47  H   UNL A   1      41.040  31.865  30.987  1.00  0.00     0.167 HD
ATOM     48  C   UNL A   1      40.888  28.059  28.881  1.00  0.00     0.031 A 
ATOM     49  C   UNL A   1      42.332  33.933  32.363  1.00  0.00     0.031 A 
ATOM     50  C   UNL A   1      42.229  28.152  29.395  1.00  0.00     0.049 A 
ATOM     51  C   UNL A   1      43.358  32.852  32.194  1.00  0.00     0.074 A 
ATOM     52  C   UNL A   1      43.267  27.246  29.256  1.00  0.00     0.029 A 
ATOM     53  N   UNL A   1      42.721  29.213  30.137  1.00  0.00    -0.354 N 
ATOM     54  N   UNL A   1      43.252  31.709  31.560  1.00  0.00    -0.248 NA
ATOM     55  C   UNL A   1      44.670  33.078  32.817  1.00  0.00     0.031 C 
ATOM     56  C   UNL A   1      44.372  27.735  29.955  1.00  0.00     0.029 A 
ATOM     57  C   UNL A   1      44.041  28.973  30.482  1.00  0.00     0.049 A 
ATOM     58  H   UNL A   1      42.210  30.018  30.382  1.00  0.00     0.167 HD
ATOM     59  C   UNL A   1      44.481  31.081  31.704  1.00  0.00     0.074 A 
ATOM     60  C   UNL A   1      45.326  31.979  32.464  1.00  0.00     0.031 C 
ATOM     61  C   UNL A   1      44.869  29.867  31.248  1.00  0.00     0.031 A 
BRANCH  48  62
ATOM     62  C   UNL A   1      40.524  26.816  28.116  1.00  0.00    -0.014 A 
ATOM     63  C   UNL A   1      40.930  26.679  26.779  1.00  0.00     0.009 A 
ATOM     64  C   UNL A   1      39.698  25.830  28.678  1.00  0.00     0.009 A 
ATOM     65  C   UNL A   1      40.511  25.588  26.016  1.00  0.00     0.001 A 
ATOM     66  C   UNL A   1      39.299  24.726  27.920  1.00  0.00     0.001 A 
ATOM     67  C   UNL A   1      39.699  24.610  26.588  1.00  0.00     0.000 A 
ENDBRANCH  48  62
BRANCH  49  68
ATOM     68  C   UNL A   1      42.656  35.204  33.058  1.00  0.00    -0.014 A 
ATOM     69  C   UNL A   1      42.156  35.458  34.346  1.00  0.00     0.009 A 
ATOM     70  C   UNL A   1      43.407  36.197  32.412  1.00  0.00     0.009 A 
ATOM     71  C   UNL A   1      42.374  36.692  34.960  1.00  0.00     0.001 A 
ATOM     72  C   UNL A   1      43.648  37.420  33.043  1.00  0.00     0.001 A 
ATOM     73  C   UNL A   1      43.122  37.671  34.310  1.00  0.00     0.000 A 
ENDBRANCH  49  68
BRANCH  61  74
ATOM     74  C   UNL A   1      46.269  29.423  31.554  1.00  0.00    -0.014 A 
ATOM     75  C   UNL A   1      46.542  28.741  32.751  1.00  0.00     0.009 A 
ATOM     76  C   UNL A   1      47.333  29.758  30.703  1.00  0.00     0.009 A 
ATOM     77  C   UNL A   1      47.853  28.412  33.096  1.00  0.00     0.001 A 
ATOM     78  C   UNL A   1      48.642  29.406  31.038  1.00  0.00     0.001 A 
ATOM     79  C   UNL A   1      48.902  28.742  32.238  1.00  0.00     0.000 A 
ENDBRANCH  61  74
ENDBRANCH  35  36
ENDBRANCH  27  30
ENDBRANCH  25  26
ENDBRANCH   1  25
TORSDOF 11
ENDMDL
MODEL 3
REMARK VINA RESULT:      -9.6      5.018     11.306
REMARK SMILES Cc1cc2c(=O)c3ccccc3oc2c(C(=O)NCCCCNC(=O)c2ccc(-c3c4nc(c(-c5ccccc5)c5ccc([nH]5)c(-c5ccccc5)c5nc(c(-c6ccccc6)c6ccc3[nH]6)C=C5)C=C4)cc2)c1C
REMARK SMILES IDX 21 1 20 2 19 3 18 4 16 5 17 6 15 8 1 9 2 10 3 11 74 12 4 13
REMARK SMILES IDX 75 14 5 15 14 16 6 17 7 18 13 19 8 20 12 21 9 22 11 23 10 24
REMARK SMILES IDX 22 25 23 26 24 27 25 29 26 30 27 31 73 32 28 33 72 34 29 35
REMARK SMILES IDX 30 36 31 37 66 38 32 39 71 40 65 41 67 42 33 43 70 44 64 45
REMARK SMILES IDX 63 46 34 48 56 49 41 50 55 51 42 52 45 53 54 54 68 55 43 56
REMARK SMILES IDX 44 57 53 59 69 60 46 61 35 62 36 63 40 64 37 65 39 66 38 67
REMARK SMILES IDX 57 68 58 69 62 70 59 71 61 72 60 73 47 74 48 75 52 76 49 77
REMARK SMILES IDX 51 78 50 79
REMARK H PARENT 18 7 23 28 67 47 45 58
REMARK Flexibility Score: inf
ROOT
ATOM      1  C   UNL A   1      37.668  21.251  25.014  1.00  0.00     0.023 C 
ENDROOT
BRANCH   1   2
ATOM      2  C   UNL A   1      37.184  22.640  24.604  1.00  0.00     0.023 C 
BRANCH   2   3
ATOM      3  C   UNL A   1      37.331  23.692  25.702  1.00  0.00     0.116 C 
BRANCH   3   4
ATOM      4  N   UNL A   1      36.038  24.209  26.127  1.00  0.00    -0.352 N 
ATOM      5  C   UNL A   1      34.931  23.393  26.232  1.00  0.00     0.255 C 
ATOM      6  O   UNL A   1      34.734  22.708  27.227  1.00  0.00    -0.269 OA
ATOM      7  H   UNL A   1      35.953  25.166  26.343  1.00  0.00     0.163 HD
BRANCH   5   8
ATOM      8  C   UNL A   1      33.892  23.556  25.179  1.00  0.00     0.086 A 
ATOM      9  C   UNL A   1      32.152  21.621  22.356  1.00  0.00     0.044 C 
ATOM     10  C   UNL A   1      32.556  22.706  23.319  1.00  0.00    -0.046 A 
ATOM     11  C   UNL A   1      31.986  23.973  23.173  1.00  0.00     0.019 A 
ATOM     12  C   UNL A   1      33.431  22.463  24.402  1.00  0.00    -0.032 A 
ATOM     13  C   UNL A   1      32.338  25.008  24.039  1.00  0.00     0.066 A 
ATOM     14  C   UNL A   1      33.796  21.042  24.731  1.00  0.00     0.045 C 
ATOM     15  C   UNL A   1      31.622  26.289  23.957  1.00  0.00     0.200 A 
ATOM     16  C   UNL A   1      33.327  24.836  25.005  1.00  0.00     0.151 A 
ATOM     17  O   UNL A   1      30.728  26.474  23.142  1.00  0.00    -0.288 OA
ATOM     18  C   UNL A   1      32.009  27.322  24.919  1.00  0.00     0.065 A 
ATOM     19  O   UNL A   1      33.770  25.876  25.796  1.00  0.00    -0.455 OA
ATOM     20  C   UNL A   1      31.315  28.535  24.977  1.00  0.00     0.016 A 
ATOM     21  C   UNL A   1      33.081  27.066  25.769  1.00  0.00     0.138 A 
ATOM     22  C   UNL A   1      31.719  29.514  25.882  1.00  0.00     0.001 A 
ATOM     23  C   UNL A   1      33.494  28.058  26.660  1.00  0.00     0.048 A 
ATOM     24  C   UNL A   1      32.815  29.279  26.715  1.00  0.00     0.004 A 
ENDBRANCH   5   8
ENDBRANCH   3   4
ENDBRANCH   2   3
ENDBRANCH   1   2
BRANCH   1  25
ATOM     25  C   UNL A   1      38.966  21.200  25.809  1.00  0.00     0.116 C 
BRANCH  25  26
ATOM     26  N   UNL A   1      39.721  19.964  25.677  1.00  0.00    -0.352 N 
ATOM     27  C   UNL A   1      41.040  19.747  26.036  1.00  0.00     0.251 C 
ATOM     28  H   UNL A   1      39.241  19.197  25.288  1.00  0.00     0.163 HD
ATOM     29  O   UNL A   1      41.580  18.668  25.857  1.00  0.00    -0.269 OA
BRANCH  27  30
ATOM     30  C   UNL A   1      41.803  20.892  26.583  1.00  0.00     0.039 A 
ATOM     31  C   UNL A   1      41.922  21.051  27.965  1.00  0.00     0.014 A 
ATOM     32  C   UNL A   1      42.237  21.892  25.710  1.00  0.00     0.014 A 
ATOM     33  C   UNL A   1      42.270  22.297  28.474  1.00  0.00     0.010 A 
ATOM     34  C   UNL A   1      42.676  23.113  26.230  1.00  0.00     0.010 A 
ATOM     35  C   UNL A   1      42.621  23.352  27.613  1.00  0.00    -0.014 A 
BRANCH  35  36
ATOM     36  C   UNL A   1      42.876  24.703  28.181  1.00  0.00     0.031 A 
ATOM     37  C   UNL A   1      44.281  25.167  28.479  1.00  0.00     0.074 A 
ATOM     38  C   UNL A   1      41.844  25.552  28.351  1.00  0.00     0.049 A 
ATOM     39  N   UNL A   1      44.683  26.322  28.949  1.00  0.00    -0.248 NA
ATOM     40  C   UNL A   1      45.376  24.218  28.219  1.00  0.00     0.031 C 
ATOM     41  C   UNL A   1      40.443  25.238  28.067  1.00  0.00     0.029 A 
ATOM     42  N   UNL A   1      41.816  26.860  28.765  1.00  0.00    -0.354 N 
ATOM     43  C   UNL A   1      46.064  26.229  29.066  1.00  0.00     0.074 A 
ATOM     44  C   UNL A   1      46.435  24.899  28.636  1.00  0.00     0.031 C 
ATOM     45  C   UNL A   1      39.703  26.342  28.244  1.00  0.00     0.029 A 
ATOM     46  C   UNL A   1      40.562  27.418  28.727  1.00  0.00     0.049 A 
ATOM     47  H   UNL A   1      42.618  27.350  29.061  1.00  0.00     0.167 HD
ATOM     48  C   UNL A   1      46.945  27.168  29.487  1.00  0.00     0.031 A 
ATOM     49  C   UNL A   1      40.140  28.654  29.053  1.00  0.00     0.031 A 
ATOM     50  C   UNL A   1      46.582  28.501  29.893  1.00  0.00     0.049 A 
ATOM     51  C   UNL A   1      41.129  29.662  29.556  1.00  0.00     0.074 A 
ATOM     52  C   UNL A   1      47.412  29.524  30.320  1.00  0.00     0.029 A 
ATOM     53  N   UNL A   1      45.290  28.998  29.913  1.00  0.00    -0.354 N 
ATOM     54  N   UNL A   1      42.429  29.547  29.680  1.00  0.00    -0.248 NA
ATOM     55  C   UNL A   1      40.595  30.966  29.975  1.00  0.00     0.031 C 
ATOM     56  C   UNL A   1      46.617  30.624  30.648  1.00  0.00     0.029 A 
ATOM     57  C   UNL A   1      45.297  30.306  30.369  1.00  0.00     0.049 A 
ATOM     58  H   UNL A   1      44.486  28.497  29.644  1.00  0.00     0.167 HD
ATOM     59  C   UNL A   1      42.869  30.761  30.188  1.00  0.00     0.074 A 
ATOM     60  C   UNL A   1      41.703  31.608  30.327  1.00  0.00     0.031 C 
ATOM     61  C   UNL A   1      44.130  31.135  30.514  1.00  0.00     0.031 A 
BRANCH  48  62
ATOM     62  C   UNL A   1      48.401  26.796  29.554  1.00  0.00    -0.014 A 
ATOM     63  C   UNL A   1      49.235  27.049  28.452  1.00  0.00     0.009 A 
ATOM     64  C   UNL A   1      48.927  26.108  30.657  1.00  0.00     0.009 A 
ATOM     65  C   UNL A   1      50.560  26.612  28.447  1.00  0.00     0.001 A 
ATOM     66  C   UNL A   1      50.262  25.693  30.661  1.00  0.00     0.001 A 
ATOM     67  C   UNL A   1      51.074  25.938  29.553  1.00  0.00     0.000 A 
ENDBRANCH  48  62
BRANCH  49  68
ATOM     68  C   UNL A   1      38.700  28.987  28.912  1.00  0.00    -0.014 A 
ATOM     69  C   UNL A   1      38.192  29.440  27.682  1.00  0.00     0.009 A 
ATOM     70  C   UNL A   1      37.842  28.921  30.019  1.00  0.00     0.009 A 
ATOM     71  C   UNL A   1      36.862  29.850  27.574  1.00  0.00     0.001 A 
ATOM     72  C   UNL A   1      36.504  29.304  29.898  1.00  0.00     0.001 A 
ATOM     73  C   UNL A   1      36.019  29.780  28.679  1.00  0.00     0.000 A 
ENDBRANCH  49  68
BRANCH  61  74
ATOM     74  C   UNL A   1      44.327  32.521  31.055  1.00  0.00    -0.014 A 
ATOM     75  C   UNL A   1      44.553  33.591  30.174  1.00  0.00     0.009 A 
ATOM     76  C   UNL A   1      44.382  32.753  32.438  1.00  0.00     0.009 A 
ATOM     77  C   UNL A   1      44.838  34.864  30.665  1.00  0.00     0.001 A 
ATOM     78  C   UNL A   1      44.644  34.034  32.927  1.00  0.00     0.001 A 
ATOM     79  C   UNL A   1      44.881  35.086  32.041  1.00  0.00     0.000 A 
ENDBRANCH  61  74
ENDBRANCH  35  36
ENDBRANCH  27  30
ENDBRANCH  25  26
ENDBRANCH   1  25
TORSDOF 11
ENDMDL
