MODEL 1
REMARK VINA RESULT:     -10.9      0.000      0.000
REMARK SMILES C[C@@H](C(=O)NCCCCNC(=O)c1ccc(-c2c3nc(c(-c4ccccc4)c4ccc([nH]4)c(-c4ccccc4)c4nc(c(-c5ccccc5)c5ccc2[nH]5)C=C4)C=C3)cc1)c1ccc(C[C@H]2CCC[C@H]2O)cc1
REMARK SMILES IDX 6 1 5 2 3 3 4 4 2 6 1 7 61 8 62 9 73 10 63 11 72 12 64 13
REMARK SMILES IDX 65 14 66 15 67 16 70 17 68 18 69 19 71 20 7 22 8 23 9 24
REMARK SMILES IDX 10 25 11 26 12 28 13 29 14 30 60 31 15 32 59 33 16 34 17 35
REMARK SMILES IDX 18 36 53 37 19 38 58 39 52 40 54 41 20 42 57 43 51 44 50 45
REMARK SMILES IDX 21 47 43 48 28 49 42 50 29 51 32 52 41 53 55 54 30 55 31 56
REMARK SMILES IDX 40 58 56 59 33 60 22 61 23 62 27 63 24 64 26 65 25 66 44 67
REMARK SMILES IDX 45 68 49 69 46 70 48 71 47 72 34 73 35 74 39 75 36 76 38 77
REMARK SMILES IDX 37 78
REMARK H PARENT 5 5 71 21 10 27 54 46 32 57
REMARK Flexibility Score: inf
ROOT
ATOM      1  C   UNL A   1      33.384  28.896  27.526  1.00  0.00     0.116 C 
ENDROOT
BRANCH   1   2
ATOM      2  N   UNL A   1      33.971  27.959  26.593  1.00  0.00    -0.356 N 
ATOM      3  C   UNL A   1      33.442  26.829  26.038  1.00  0.00     0.227 C 
ATOM      4  O   UNL A   1      34.214  26.135  25.374  1.00  0.00    -0.274 OA
ATOM      5  H   UNL A   1      34.893  28.168  26.315  1.00  0.00     0.163 HD
BRANCH   3   6
ATOM      6  C   UNL A   1      31.941  26.500  26.218  1.00  0.00     0.105 C 
ATOM      7  C   UNL A   1      31.719  24.987  26.343  1.00  0.00     0.023 C 
BRANCH   6   8
ATOM      8  C   UNL A   1      31.104  27.125  25.100  1.00  0.00    -0.036 A 
ATOM      9  C   UNL A   1      31.412  28.372  24.539  1.00  0.00     0.005 A 
ATOM     10  C   UNL A   1      29.946  26.469  24.651  1.00  0.00     0.005 A 
ATOM     11  C   UNL A   1      30.567  28.966  23.605  1.00  0.00     0.004 A 
ATOM     12  C   UNL A   1      29.076  27.088  23.748  1.00  0.00     0.004 A 
ATOM     13  C   UNL A   1      29.355  28.368  23.259  1.00  0.00    -0.048 A 
BRANCH  13  14
ATOM     14  C   UNL A   1      28.349  29.136  22.443  1.00  0.00     0.041 C 
BRANCH  14  15
ATOM     15  C   UNL A   1      28.667  30.616  22.155  1.00  0.00     0.022 C 
ATOM     16  C   UNL A   1      28.088  31.185  20.849  1.00  0.00     0.007 C 
ATOM     17  C   UNL A   1      28.322  31.675  23.218  1.00  0.00     0.117 C 
ATOM     18  C   UNL A   1      27.917  32.690  21.080  1.00  0.00     0.003 C 
ATOM     19  C   UNL A   1      28.518  32.980  22.453  1.00  0.00     0.032 C 
BRANCH  17  20
ATOM     20  O   UNL A   1      26.991  31.645  23.700  1.00  0.00    -0.393 OA
ATOM     21  H   UNL A   1      26.875  32.334  24.372  1.00  0.00     0.210 HD
ENDBRANCH  17  20
ENDBRANCH  14  15
ENDBRANCH  13  14
ENDBRANCH   6   8
ENDBRANCH   3   6
ENDBRANCH   1   2
BRANCH   1  22
ATOM     22  C   UNL A   1      33.617  30.337  27.070  1.00  0.00     0.023 C 
BRANCH  22  23
ATOM     23  C   UNL A   1      32.447  31.288  27.332  1.00  0.00     0.023 C 
BRANCH  23  24
ATOM     24  C   UNL A   1      32.510  32.611  26.581  1.00  0.00     0.116 C 
BRANCH  24  25
ATOM     25  N   UNL A   1      32.272  33.763  27.436  1.00  0.00    -0.352 N 
ATOM     26  C   UNL A   1      33.019  34.222  28.493  1.00  0.00     0.251 C 
ATOM     27  H   UNL A   1      31.464  34.286  27.228  1.00  0.00     0.163 HD
ATOM     28  O   UNL A   1      32.610  35.142  29.188  1.00  0.00    -0.269 OA
BRANCH  26  29
ATOM     29  C   UNL A   1      34.306  33.567  28.810  1.00  0.00     0.039 A 
ATOM     30  C   UNL A   1      35.404  33.809  27.983  1.00  0.00     0.014 A 
ATOM     31  C   UNL A   1      34.432  32.741  29.930  1.00  0.00     0.014 A 
ATOM     32  C   UNL A   1      36.649  33.274  28.316  1.00  0.00     0.010 A 
ATOM     33  C   UNL A   1      35.688  32.270  30.301  1.00  0.00     0.010 A 
ATOM     34  C   UNL A   1      36.808  32.532  29.497  1.00  0.00    -0.014 A 
BRANCH  34  35
ATOM     35  C   UNL A   1      38.138  32.027  29.915  1.00  0.00     0.031 A 
ATOM     36  C   UNL A   1      38.640  30.704  29.408  1.00  0.00     0.074 A 
ATOM     37  C   UNL A   1      38.866  32.727  30.807  1.00  0.00     0.049 A 
ATOM     38  N   UNL A   1      39.747  30.072  29.706  1.00  0.00    -0.248 NA
ATOM     39  C   UNL A   1      37.773  29.985  28.460  1.00  0.00     0.031 C 
ATOM     40  C   UNL A   1      38.472  34.003  31.410  1.00  0.00     0.029 A 
ATOM     41  N   UNL A   1      40.089  32.459  31.369  1.00  0.00    -0.354 N 
ATOM     42  C   UNL A   1      39.698  28.876  29.001  1.00  0.00     0.074 A 
ATOM     43  C   UNL A   1      38.435  28.850  28.297  1.00  0.00     0.031 C 
ATOM     44  C   UNL A   1      39.446  34.418  32.236  1.00  0.00     0.029 A 
ATOM     45  C   UNL A   1      40.512  33.422  32.253  1.00  0.00     0.049 A 
ATOM     46  H   UNL A   1      40.613  31.653  31.159  1.00  0.00     0.167 HD
ATOM     47  C   UNL A   1      40.630  27.896  28.930  1.00  0.00     0.031 A 
ATOM     48  C   UNL A   1      41.630  33.492  32.999  1.00  0.00     0.031 A 
ATOM     49  C   UNL A   1      41.892  27.928  29.618  1.00  0.00     0.049 A 
ATOM     50  C   UNL A   1      42.646  32.388  32.906  1.00  0.00     0.074 A 
ATOM     51  C   UNL A   1      42.929  27.013  29.560  1.00  0.00     0.029 A 
ATOM     52  N   UNL A   1      42.288  28.927  30.495  1.00  0.00    -0.354 N 
ATOM     53  N   UNL A   1      42.618  31.299  32.178  1.00  0.00    -0.248 NA
ATOM     54  C   UNL A   1      43.854  32.533  33.732  1.00  0.00     0.031 C 
ATOM     55  C   UNL A   1      43.932  27.433  30.440  1.00  0.00     0.029 A 
ATOM     56  C   UNL A   1      43.543  28.638  31.003  1.00  0.00     0.049 A 
ATOM     57  H   UNL A   1      41.755  29.723  30.721  1.00  0.00     0.167 HD
ATOM     58  C   UNL A   1      43.814  30.641  32.436  1.00  0.00     0.074 A 
ATOM     59  C   UNL A   1      44.550  31.462  33.375  1.00  0.00     0.031 C 
ATOM     60  C   UNL A   1      44.262  29.463  31.938  1.00  0.00     0.031 A 
BRANCH  47  61
ATOM     61  C   UNL A   1      40.310  26.699  28.079  1.00  0.00    -0.014 A 
ATOM     62  C   UNL A   1      40.771  26.601  26.756  1.00  0.00     0.009 A 
ATOM     63  C   UNL A   1      39.568  25.637  28.619  1.00  0.00     0.009 A 
ATOM     64  C   UNL A   1      40.461  25.482  25.980  1.00  0.00     0.001 A 
ATOM     65  C   UNL A   1      39.285  24.506  27.851  1.00  0.00     0.001 A 
ATOM     66  C   UNL A   1      39.723  24.435  26.529  1.00  0.00     0.000 A 
ENDBRANCH  47  61
BRANCH  48  67
ATOM     67  C   UNL A   1      41.857  34.660  33.889  1.00  0.00    -0.014 A 
ATOM     68  C   UNL A   1      42.495  35.811  33.403  1.00  0.00     0.009 A 
ATOM     69  C   UNL A   1      41.439  34.630  35.229  1.00  0.00     0.009 A 
ATOM     70  C   UNL A   1      42.734  36.899  34.247  1.00  0.00     0.001 A 
ATOM     71  C   UNL A   1      41.655  35.729  36.063  1.00  0.00     0.001 A 
ATOM     72  C   UNL A   1      42.309  36.858  35.574  1.00  0.00     0.000 A 
ENDBRANCH  48  67
BRANCH  60  73
ATOM     73  C   UNL A   1      45.626  29.007  32.374  1.00  0.00    -0.014 A 
ATOM     74  C   UNL A   1      45.797  28.188  33.500  1.00  0.00     0.009 A 
ATOM     75  C   UNL A   1      46.752  29.370  31.618  1.00  0.00     0.009 A 
ATOM     76  C   UNL A   1      47.073  27.769  33.880  1.00  0.00     0.001 A 
ATOM     77  C   UNL A   1      48.023  28.925  31.983  1.00  0.00     0.001 A 
ATOM     78  C   UNL A   1      48.184  28.132  33.118  1.00  0.00     0.000 A 
ENDBRANCH  60  73
ENDBRANCH  34  35
ENDBRANCH  26  29
ENDBRANCH  24  25
ENDBRANCH  23  24
ENDBRANCH  22  23
ENDBRANCH   1  22
TORSDOF 15
ENDMDL
MODEL 2
REMARK VINA RESULT:     -10.8      3.339      8.489
REMARK SMILES C[C@@H](C(=O)NCCCCNC(=O)c1ccc(-c2c3nc(c(-c4ccccc4)c4ccc([nH]4)c(-c4ccccc4)c4nc(c(-c5ccccc5)c5ccc2[nH]5)C=C4)C=C3)cc1)c1ccc(C[C@H]2CCC[C@H]2O)cc1
REMARK SMILES IDX 6 1 5 2 3 3 4 4 2 6 1 7 61 8 62 9 73 10 63 11 72 12 64 13
REMARK SMILES IDX 65 14 66 15 67 16 70 17 68 18 69 19 71 20 7 22 8 23 9 24
REMARK SMILES IDX 10 25 11 26 12 28 13 29 14 30 60 31 15 32 59 33 16 34 17 35
REMARK SMILES IDX 18 36 53 37 19 38 58 39 52 40 54 41 20 42 57 43 51 44 50 45
REMARK SMILES IDX 21 47 43 48 28 49 42 50 29 51 32 52 41 53 55 54 30 55 31 56
REMARK SMILES IDX 40 58 56 59 33 60 22 61 23 62 27 63 24 64 26 65 25 66 44 67
REMARK SMILES IDX 45 68 49 69 46 70 48 71 47 72 34 73 35 74 39 75 36 76 38 77
REMARK SMILES IDX 37 78
REMARK H PARENT 5 5 71 21 10 27 54 46 32 57
REMARK Flexibility Score: inf
ROOT
ATOM      1  C   UNL A   1      37.983  23.665  26.046  1.00  0.00     0.116 C 
ENDROOT
BRANCH   1   2
ATOM      2  N   UNL A   1      37.723  23.479  24.635  1.00  0.00    -0.356 N 
ATOM      3  C   UNL A   1      36.561  23.160  23.993  1.00  0.00     0.227 C 
ATOM      4  O   UNL A   1      36.652  22.928  22.786  1.00  0.00    -0.274 OA
ATOM      5  H   UNL A   1      38.504  23.604  24.047  1.00  0.00     0.163 HD
BRANCH   3   6
ATOM      6  C   UNL A   1      35.221  23.146  24.765  1.00  0.00     0.105 C 
ATOM      7  C   UNL A   1      34.379  21.920  24.389  1.00  0.00     0.023 C 
BRANCH   6   8
ATOM      8  C   UNL A   1      34.463  24.461  24.572  1.00  0.00    -0.036 A 
ATOM      9  C   UNL A   1      34.092  24.935  23.307  1.00  0.00     0.005 A 
ATOM     10  C   UNL A   1      34.175  25.265  25.688  1.00  0.00     0.005 A 
ATOM     11  C   UNL A   1      33.505  26.189  23.155  1.00  0.00     0.004 A 
ATOM     12  C   UNL A   1      33.628  26.542  25.528  1.00  0.00     0.004 A 
ATOM     13  C   UNL A   1      33.339  27.035  24.251  1.00  0.00    -0.048 A 
BRANCH  13  14
ATOM     14  C   UNL A   1      32.934  28.470  24.035  1.00  0.00     0.041 C 
BRANCH  14  15
ATOM     15  C   UNL A   1      31.424  28.757  23.908  1.00  0.00     0.022 C 
ATOM     16  C   UNL A   1      30.910  29.992  24.664  1.00  0.00     0.007 C 
ATOM     17  C   UNL A   1      30.804  28.883  22.505  1.00  0.00     0.117 C 
ATOM     18  C   UNL A   1      29.668  30.470  23.904  1.00  0.00     0.003 C 
ATOM     19  C   UNL A   1      29.415  29.435  22.812  1.00  0.00     0.032 C 
BRANCH  17  20
ATOM     20  O   UNL A   1      31.451  29.789  21.630  1.00  0.00    -0.393 OA
ATOM     21  H   UNL A   1      32.120  30.290  22.121  1.00  0.00     0.210 HD
ENDBRANCH  17  20
ENDBRANCH  14  15
ENDBRANCH  13  14
ENDBRANCH   6   8
ENDBRANCH   3   6
ENDBRANCH   1   2
BRANCH   1  22
ATOM     22  C   UNL A   1      39.200  22.851  26.487  1.00  0.00     0.023 C 
BRANCH  22  23
ATOM     23  C   UNL A   1      39.339  21.487  25.808  1.00  0.00     0.023 C 
BRANCH  23  24
ATOM     24  C   UNL A   1      39.988  20.404  26.659  1.00  0.00     0.116 C 
BRANCH  24  25
ATOM     25  N   UNL A   1      41.155  19.808  26.028  1.00  0.00    -0.352 N 
ATOM     26  C   UNL A   1      42.394  20.359  25.808  1.00  0.00     0.251 C 
ATOM     27  H   UNL A   1      41.041  18.881  25.715  1.00  0.00     0.163 HD
ATOM     28  O   UNL A   1      43.232  19.757  25.150  1.00  0.00    -0.269 OA
BRANCH  26  29
ATOM     29  C   UNL A   1      42.693  21.705  26.340  1.00  0.00     0.039 A 
ATOM     30  C   UNL A   1      42.894  22.754  25.440  1.00  0.00     0.014 A 
ATOM     31  C   UNL A   1      42.751  21.934  27.717  1.00  0.00     0.014 A 
ATOM     32  C   UNL A   1      43.087  24.049  25.923  1.00  0.00     0.010 A 
ATOM     33  C   UNL A   1      42.870  23.235  28.195  1.00  0.00     0.010 A 
ATOM     34  C   UNL A   1      43.039  24.304  27.303  1.00  0.00    -0.014 A 
BRANCH  34  35
ATOM     35  C   UNL A   1      43.156  25.685  27.834  1.00  0.00     0.031 A 
ATOM     36  C   UNL A   1      44.499  26.235  28.223  1.00  0.00     0.074 A 
ATOM     37  C   UNL A   1      42.043  26.418  28.030  1.00  0.00     0.049 A 
ATOM     38  N   UNL A   1      44.792  27.393  28.758  1.00  0.00    -0.248 NA
ATOM     39  C   UNL A   1      45.662  25.360  28.006  1.00  0.00     0.031 C 
ATOM     40  C   UNL A   1      40.675  25.983  27.735  1.00  0.00     0.029 A 
ATOM     41  N   UNL A   1      41.886  27.685  28.534  1.00  0.00    -0.354 N 
ATOM     42  C   UNL A   1      46.167  27.377  28.960  1.00  0.00     0.074 A 
ATOM     43  C   UNL A   1      46.643  26.079  28.532  1.00  0.00     0.031 C 
ATOM     44  C   UNL A   1      39.824  26.976  28.039  1.00  0.00     0.029 A 
ATOM     45  C   UNL A   1      40.578  28.099  28.586  1.00  0.00     0.049 A 
ATOM     46  H   UNL A   1      42.640  28.244  28.830  1.00  0.00     0.167 HD
ATOM     47  C   UNL A   1      46.965  28.360  29.439  1.00  0.00     0.031 A 
ATOM     48  C   UNL A   1      40.043  29.252  29.031  1.00  0.00     0.031 A 
ATOM     49  C   UNL A   1      46.494  29.655  29.851  1.00  0.00     0.049 A 
ATOM     50  C   UNL A   1      40.950  30.326  29.563  1.00  0.00     0.074 A 
ATOM     51  C   UNL A   1      47.233  30.740  30.291  1.00  0.00     0.029 A 
ATOM     52  N   UNL A   1      45.162  30.039  29.877  1.00  0.00    -0.354 N 
ATOM     53  N   UNL A   1      42.255  30.322  29.679  1.00  0.00    -0.248 NA
ATOM     54  C   UNL A   1      40.307  31.568  30.016  1.00  0.00     0.031 C 
ATOM     55  C   UNL A   1      46.343  31.764  30.631  1.00  0.00     0.029 A 
ATOM     56  C   UNL A   1      45.055  31.336  30.349  1.00  0.00     0.049 A 
ATOM     57  H   UNL A   1      44.406  29.474  29.600  1.00  0.00     0.167 HD
ATOM     58  C   UNL A   1      42.593  31.568  30.192  1.00  0.00     0.074 A 
ATOM     59  C   UNL A   1      41.356  32.306  30.349  1.00  0.00     0.031 C 
ATOM     60  C   UNL A   1      43.818  32.056  30.502  1.00  0.00     0.031 A 
BRANCH  47  61
ATOM     61  C   UNL A   1      48.434  28.065  29.551  1.00  0.00    -0.014 A 
ATOM     62  C   UNL A   1      48.992  27.581  30.745  1.00  0.00     0.009 A 
ATOM     63  C   UNL A   1      49.268  28.240  28.435  1.00  0.00     0.009 A 
ATOM     64  C   UNL A   1      50.360  27.316  30.831  1.00  0.00     0.001 A 
ATOM     65  C   UNL A   1      50.631  27.946  28.515  1.00  0.00     0.001 A 
ATOM     66  C   UNL A   1      51.176  27.494  29.715  1.00  0.00     0.000 A 
ENDBRANCH  47  61
BRANCH  48  67
ATOM     67  C   UNL A   1      38.572  29.459  28.975  1.00  0.00    -0.014 A 
ATOM     68  C   UNL A   1      37.963  29.920  27.799  1.00  0.00     0.009 A 
ATOM     69  C   UNL A   1      37.771  29.198  30.098  1.00  0.00     0.009 A 
ATOM     70  C   UNL A   1      36.584  30.142  27.755  1.00  0.00     0.001 A 
ATOM     71  C   UNL A   1      36.389  29.394  30.043  1.00  0.00     0.001 A 
ATOM     72  C   UNL A   1      35.799  29.873  28.876  1.00  0.00     0.000 A 
ENDBRANCH  48  67
BRANCH  60  73
ATOM     73  C   UNL A   1      43.885  33.468  31.013  1.00  0.00    -0.014 A 
ATOM     74  C   UNL A   1      43.841  33.750  32.387  1.00  0.00     0.009 A 
ATOM     75  C   UNL A   1      44.038  34.528  30.105  1.00  0.00     0.009 A 
ATOM     76  C   UNL A   1      43.916  35.069  32.839  1.00  0.00     0.001 A 
ATOM     77  C   UNL A   1      44.141  35.842  30.561  1.00  0.00     0.001 A 
ATOM     78  C   UNL A   1      44.072  36.113  31.926  1.00  0.00     0.000 A 
ENDBRANCH  60  73
ENDBRANCH  34  35
ENDBRANCH  26  29
ENDBRANCH  24  25
ENDBRANCH  23  24
ENDBRANCH  22  23
ENDBRANCH   1  22
TORSDOF 15
ENDMDL
MODEL 3
REMARK VINA RESULT:     -10.8      0.383      5.989
REMARK SMILES C[C@@H](C(=O)NCCCCNC(=O)c1ccc(-c2c3nc(c(-c4ccccc4)c4ccc([nH]4)c(-c4ccccc4)c4nc(c(-c5ccccc5)c5ccc2[nH]5)C=C4)C=C3)cc1)c1ccc(C[C@H]2CCC[C@H]2O)cc1
REMARK SMILES IDX 6 1 5 2 3 3 4 4 2 6 1 7 61 8 62 9 73 10 63 11 72 12 64 13
REMARK SMILES IDX 65 14 66 15 67 16 70 17 68 18 69 19 71 20 7 22 8 23 9 24
REMARK SMILES IDX 10 25 11 26 12 28 13 29 14 30 60 31 15 32 59 33 16 34 17 35
REMARK SMILES IDX 18 36 53 37 19 38 58 39 52 40 54 41 20 42 57 43 51 44 50 45
REMARK SMILES IDX 21 47 43 48 28 49 42 50 29 51 32 52 41 53 55 54 30 55 31 56
REMARK SMILES IDX 40 58 56 59 33 60 22 61 23 62 27 63 24 64 26 65 25 66 44 67
REMARK SMILES IDX 45 68 49 69 46 70 48 71 47 72 34 73 35 74 39 75 36 76 38 77
REMARK SMILES IDX 37 78
REMARK H PARENT 5 5 71 21 10 27 54 46 32 57
REMARK Flexibility Score: inf
ROOT
ATOM      1  C   UNL A   1      33.178  28.776  27.624  1.00  0.00     0.116 C 
ENDROOT
BRANCH   1   2
ATOM      2  N   UNL A   1      33.812  27.871  26.690  1.00  0.00    -0.356 N 
ATOM      3  C   UNL A   1      33.326  26.740  26.101  1.00  0.00     0.227 C 
ATOM      4  O   UNL A   1      34.132  26.077  25.445  1.00  0.00    -0.274 OA
ATOM      5  H   UNL A   1      34.735  28.109  26.440  1.00  0.00     0.163 HD
BRANCH   3   6
ATOM      6  C   UNL A   1      31.830  26.370  26.236  1.00  0.00     0.105 C 
ATOM      7  C   UNL A   1      31.642  24.850  26.324  1.00  0.00     0.023 C 
BRANCH   6   8
ATOM      8  C   UNL A   1      31.005  26.999  25.112  1.00  0.00    -0.036 A 
ATOM      9  C   UNL A   1      31.335  28.235  24.540  1.00  0.00     0.005 A 
ATOM     10  C   UNL A   1      29.837  26.358  24.667  1.00  0.00     0.005 A 
ATOM     11  C   UNL A   1      30.502  28.835  23.599  1.00  0.00     0.004 A 
ATOM     12  C   UNL A   1      28.979  26.984  23.757  1.00  0.00     0.004 A 
ATOM     13  C   UNL A   1      29.280  28.255  23.257  1.00  0.00    -0.048 A 
BRANCH  13  14
ATOM     14  C   UNL A   1      28.288  29.032  22.432  1.00  0.00     0.041 C 
BRANCH  14  15
ATOM     15  C   UNL A   1      28.640  30.499  22.116  1.00  0.00     0.022 C 
ATOM     16  C   UNL A   1      28.039  31.069  20.821  1.00  0.00     0.007 C 
ATOM     17  C   UNL A   1      28.357  31.579  23.175  1.00  0.00     0.117 C 
ATOM     18  C   UNL A   1      27.919  32.581  21.037  1.00  0.00     0.003 C 
ATOM     19  C   UNL A   1      28.568  32.869  22.388  1.00  0.00     0.032 C 
BRANCH  17  20
ATOM     20  O   UNL A   1      27.040  31.594  23.696  1.00  0.00    -0.393 OA
ATOM     21  H   UNL A   1      26.724  30.684  23.803  1.00  0.00     0.210 HD
ENDBRANCH  17  20
ENDBRANCH  14  15
ENDBRANCH  13  14
ENDBRANCH   6   8
ENDBRANCH   3   6
ENDBRANCH   1   2
BRANCH   1  22
ATOM     22  C   UNL A   1      33.708  30.200  27.447  1.00  0.00     0.023 C 
BRANCH  22  23
ATOM     23  C   UNL A   1      32.633  31.289  27.469  1.00  0.00     0.023 C 
BRANCH  23  24
ATOM     24  C   UNL A   1      33.048  32.617  26.850  1.00  0.00     0.116 C 
BRANCH  24  25
ATOM     25  N   UNL A   1      32.602  33.768  27.619  1.00  0.00    -0.352 N 
ATOM     26  C   UNL A   1      33.182  34.347  28.721  1.00  0.00     0.251 C 
ATOM     27  H   UNL A   1      31.768  34.190  27.307  1.00  0.00     0.163 HD
ATOM     28  O   UNL A   1      32.609  35.243  29.326  1.00  0.00    -0.269 OA
BRANCH  26  29
ATOM     29  C   UNL A   1      34.492  33.851  29.195  1.00  0.00     0.039 A 
ATOM     30  C   UNL A   1      34.529  33.020  30.317  1.00  0.00     0.014 A 
ATOM     31  C   UNL A   1      35.670  34.185  28.522  1.00  0.00     0.014 A 
ATOM     32  C   UNL A   1      35.744  32.468  30.726  1.00  0.00     0.010 A 
ATOM     33  C   UNL A   1      36.867  33.576  28.886  1.00  0.00     0.010 A 
ATOM     34  C   UNL A   1      36.916  32.713  29.991  1.00  0.00    -0.014 A 
BRANCH  34  35
ATOM     35  C   UNL A   1      38.201  32.068  30.356  1.00  0.00     0.031 A 
ATOM     36  C   UNL A   1      39.156  32.759  31.288  1.00  0.00     0.074 A 
ATOM     37  C   UNL A   1      38.538  30.891  29.794  1.00  0.00     0.049 A 
ATOM     38  N   UNL A   1      40.348  32.382  31.675  1.00  0.00    -0.248 NA
ATOM     39  C   UNL A   1      38.727  34.056  31.835  1.00  0.00     0.031 C 
ATOM     40  C   UNL A   1      37.719  30.139  28.840  1.00  0.00     0.029 A 
ATOM     41  N   UNL A   1      39.667  30.124  29.938  1.00  0.00    -0.354 N 
ATOM     42  C   UNL A   1      40.818  33.402  32.494  1.00  0.00     0.074 A 
ATOM     43  C   UNL A   1      39.803  34.433  32.510  1.00  0.00     0.031 C 
ATOM     44  C   UNL A   1      38.361  29.008  28.506  1.00  0.00     0.029 A 
ATOM     45  C   UNL A   1      39.650  28.973  29.188  1.00  0.00     0.049 A 
ATOM     46  H   UNL A   1      40.417  30.375  30.524  1.00  0.00     0.167 HD
ATOM     47  C   UNL A   1      41.980  33.467  33.185  1.00  0.00     0.031 A 
ATOM     48  C   UNL A   1      40.573  28.002  29.059  1.00  0.00     0.031 A 
ATOM     49  C   UNL A   1      42.982  32.436  33.181  1.00  0.00     0.049 A 
ATOM     50  C   UNL A   1      41.857  28.099  29.833  1.00  0.00     0.074 A 
ATOM     51  C   UNL A   1      44.165  32.380  33.898  1.00  0.00     0.029 A 
ATOM     52  N   UNL A   1      42.923  31.280  32.417  1.00  0.00    -0.354 N 
ATOM     53  N   UNL A   1      42.254  29.036  30.659  1.00  0.00    -0.248 NA
ATOM     54  C   UNL A   1      42.816  26.998  29.663  1.00  0.00     0.031 C 
ATOM     55  C   UNL A   1      44.844  31.214  33.530  1.00  0.00     0.029 A 
ATOM     56  C   UNL A   1      44.058  30.517  32.627  1.00  0.00     0.049 A 
ATOM     57  H   UNL A   1      42.182  31.038  31.816  1.00  0.00     0.167 HD
ATOM     58  C   UNL A   1      43.495  28.625  31.129  1.00  0.00     0.074 A 
ATOM     59  C   UNL A   1      43.777  27.347  30.506  1.00  0.00     0.031 C 
ATOM     60  C   UNL A   1      44.326  29.249  31.999  1.00  0.00     0.031 A 
BRANCH  47  61
ATOM     61  C   UNL A   1      42.231  34.704  34.001  1.00  0.00    -0.014 A 
ATOM     62  C   UNL A   1      42.844  35.835  33.439  1.00  0.00     0.009 A 
ATOM     63  C   UNL A   1      41.818  34.751  35.342  1.00  0.00     0.009 A 
ATOM     64  C   UNL A   1      43.072  36.975  34.214  1.00  0.00     0.001 A 
ATOM     65  C   UNL A   1      42.020  35.902  36.106  1.00  0.00     0.001 A 
ATOM     66  C   UNL A   1      42.656  37.008  35.544  1.00  0.00     0.000 A 
ENDBRANCH  47  61
BRANCH  48  67
ATOM     67  C   UNL A   1      40.308  26.839  28.171  1.00  0.00    -0.014 A 
ATOM     68  C   UNL A   1      40.805  26.819  26.859  1.00  0.00     0.009 A 
ATOM     69  C   UNL A   1      39.558  25.746  28.631  1.00  0.00     0.009 A 
ATOM     70  C   UNL A   1      40.533  25.739  26.016  1.00  0.00     0.001 A 
ATOM     71  C   UNL A   1      39.312  24.655  27.794  1.00  0.00     0.001 A 
ATOM     72  C   UNL A   1      39.791  24.656  26.486  1.00  0.00     0.000 A 
ENDBRANCH  48  67
BRANCH  60  73
ATOM     73  C   UNL A   1      45.604  28.544  32.355  1.00  0.00    -0.014 A 
ATOM     74  C   UNL A   1      45.661  27.628  33.416  1.00  0.00     0.009 A 
ATOM     75  C   UNL A   1      46.757  28.770  31.586  1.00  0.00     0.009 A 
ATOM     76  C   UNL A   1      46.858  26.976  33.721  1.00  0.00     0.001 A 
ATOM     77  C   UNL A   1      47.944  28.096  31.875  1.00  0.00     0.001 A 
ATOM     78  C   UNL A   1      47.996  27.206  32.947  1.00  0.00     0.000 A 
ENDBRANCH  60  73
ENDBRANCH  34  35
ENDBRANCH  26  29
ENDBRANCH  24  25
ENDBRANCH  23  24
ENDBRANCH  22  23
ENDBRANCH   1  22
TORSDOF 15
ENDMDL
