MODEL 1
REMARK VINA RESULT:     -11.3      0.000      0.000
REMARK SMILES Cc1nc(SCc2cccc(Cl)c2)[nH]c(=O)c1CC(=O)NCCCCNC(=O)c1ccc(-c2c3nc(c(-c4ccccc4)c4ccc([nH]4)c(-c4ccccc4)c4nc(c(-c5ccccc5)c5ccc2[nH]5)C=C4)C=C3)cc1
REMARK SMILES IDX 22 1 21 2 19 3 20 4 18 6 17 7 1 8 2 9 3 10 4 11 15 12 14 13
REMARK SMILES IDX 16 14 5 16 6 17 7 18 8 19 13 20 9 21 11 22 10 23 12 24 23 25
REMARK SMILES IDX 24 26 25 27 26 28 27 29 28 31 29 32 30 33 76 34 31 35 75 36
REMARK SMILES IDX 32 37 33 38 34 39 69 40 35 41 74 42 68 43 70 44 36 45 73 46
REMARK SMILES IDX 67 47 66 48 37 50 59 51 44 52 58 53 45 54 48 55 57 56 71 57
REMARK SMILES IDX 46 58 47 59 56 61 72 62 49 63 38 64 39 65 43 66 40 67 42 68
REMARK SMILES IDX 41 69 60 70 61 71 65 72 62 73 64 74 63 75 50 76 51 77 55 78
REMARK SMILES IDX 52 79 54 80 53 81
REMARK H PARENT 21 5 14 15 26 30 70 49 48 60
REMARK Flexibility Score: inf
ROOT
ATOM      1  C   UNL A   1      33.023  28.641  25.345  1.00  0.00     0.116 C 
ENDROOT
BRANCH   1   2
ATOM      2  N   UNL A   1      33.812  28.652  24.130  1.00  0.00    -0.356 N 
ATOM      3  C   UNL A   1      33.502  28.248  22.864  1.00  0.00     0.224 C 
ATOM      4  O   UNL A   1      34.347  28.437  21.986  1.00  0.00    -0.275 OA
ATOM      5  H   UNL A   1      34.724  29.010  24.235  1.00  0.00     0.163 HD
BRANCH   3   6
ATOM      6  C   UNL A   1      32.118  27.697  22.519  1.00  0.00     0.143 C 
BRANCH   6   7
ATOM      7  C   UNL A   1      31.968  26.211  22.659  1.00  0.00     0.048 A 
ATOM      8  C   UNL A   1      30.496  26.302  24.693  1.00  0.00     0.067 C 
ATOM      9  C   UNL A   1      31.270  25.572  23.620  1.00  0.00     0.049 A 
ATOM     10  N   UNL A   1      31.284  24.208  23.792  1.00  0.00    -0.229 NA
ATOM     11  C   UNL A   1      32.064  23.517  23.036  1.00  0.00     0.168 A 
ATOM     12  C   UNL A   1      32.692  25.359  21.679  1.00  0.00     0.255 A 
ATOM     13  N   UNL A   1      32.756  24.034  21.995  1.00  0.00    -0.301 N 
ATOM     14  O   UNL A   1      33.213  25.809  20.673  1.00  0.00    -0.269 OA
ATOM     15  H   UNL A   1      33.322  23.439  21.451  1.00  0.00     0.172 HD
BRANCH  11  16
ATOM     16  S   UNL A   1      32.350  21.822  23.266  1.00  0.00    -0.083 SA
BRANCH  16  17
ATOM     17  C   UNL A   1      33.142  21.799  24.901  1.00  0.00     0.113 C 
BRANCH  17  18
ATOM     18  C   UNL A   1      34.646  21.972  24.878  1.00  0.00    -0.036 A 
ATOM     19  C   UNL A   1      35.224  23.247  24.794  1.00  0.00     0.005 A 
ATOM     20  C   UNL A   1      35.504  20.862  24.891  1.00  0.00     0.025 A 
ATOM     21  C   UNL A   1      36.614  23.401  24.730  1.00  0.00     0.002 A 
ATOM     22  C   UNL A   1      36.889  21.017  24.846  1.00  0.00     0.041 A 
ATOM     23  C   UNL A   1      37.449  22.285  24.765  1.00  0.00     0.020 A 
ATOM     24  Cl  UNL A   1      37.898  19.622  24.887  1.00  0.00    -0.084 Cl
ENDBRANCH  17  18
ENDBRANCH  16  17
ENDBRANCH  11  16
ENDBRANCH   6   7
ENDBRANCH   3   6
ENDBRANCH   1   2
BRANCH   1  25
ATOM     25  C   UNL A   1      32.028  29.800  25.382  1.00  0.00     0.023 C 
BRANCH  25  26
ATOM     26  C   UNL A   1      31.892  30.478  26.746  1.00  0.00     0.023 C 
BRANCH  26  27
ATOM     27  C   UNL A   1      33.006  31.455  27.107  1.00  0.00     0.116 C 
BRANCH  27  28
ATOM     28  N   UNL A   1      32.530  32.796  27.415  1.00  0.00    -0.352 N 
ATOM     29  C   UNL A   1      33.111  33.758  28.208  1.00  0.00     0.251 C 
ATOM     30  H   UNL A   1      31.674  33.048  26.998  1.00  0.00     0.163 HD
ATOM     31  O   UNL A   1      32.516  34.800  28.463  1.00  0.00    -0.269 OA
BRANCH  29  32
ATOM     32  C   UNL A   1      34.444  33.506  28.797  1.00  0.00     0.039 A 
ATOM     33  C   UNL A   1      34.525  32.811  30.006  1.00  0.00     0.014 A 
ATOM     34  C   UNL A   1      35.607  33.899  28.131  1.00  0.00     0.014 A 
ATOM     35  C   UNL A   1      35.774  32.422  30.496  1.00  0.00     0.010 A 
ATOM     36  C   UNL A   1      36.845  33.445  28.580  1.00  0.00     0.010 A 
ATOM     37  C   UNL A   1      36.940  32.689  29.758  1.00  0.00    -0.014 A 
BRANCH  37  38
ATOM     38  C   UNL A   1      38.259  32.147  30.177  1.00  0.00     0.031 A 
ATOM     39  C   UNL A   1      38.743  30.828  29.644  1.00  0.00     0.074 A 
ATOM     40  C   UNL A   1      38.983  32.803  31.106  1.00  0.00     0.049 A 
ATOM     41  N   UNL A   1      39.825  30.160  29.957  1.00  0.00    -0.248 NA
ATOM     42  C   UNL A   1      37.891  30.159  28.649  1.00  0.00     0.031 C 
ATOM     43  C   UNL A   1      38.606  34.070  31.738  1.00  0.00     0.029 A 
ATOM     44  N   UNL A   1      40.184  32.487  31.691  1.00  0.00    -0.354 N 
ATOM     45  C   UNL A   1      39.773  28.988  29.213  1.00  0.00     0.074 A 
ATOM     46  C   UNL A   1      38.532  29.014  28.469  1.00  0.00     0.031 C 
ATOM     47  C   UNL A   1      39.567  34.433  32.604  1.00  0.00     0.029 A 
ATOM     48  C   UNL A   1      40.603  33.406  32.624  1.00  0.00     0.049 A 
ATOM     49  H   UNL A   1      40.699  31.680  31.463  1.00  0.00     0.167 HD
ATOM     50  C   UNL A   1      40.681  27.986  29.144  1.00  0.00     0.031 A 
ATOM     51  C   UNL A   1      41.689  33.417  33.420  1.00  0.00     0.031 A 
ATOM     52  C   UNL A   1      41.919  27.962  29.876  1.00  0.00     0.049 A 
ATOM     53  C   UNL A   1      42.672  32.281  33.338  1.00  0.00     0.074 A 
ATOM     54  C   UNL A   1      42.935  27.023  29.818  1.00  0.00     0.029 A 
ATOM     55  N   UNL A   1      42.308  28.915  30.804  1.00  0.00    -0.354 N 
ATOM     56  N   UNL A   1      42.646  31.220  32.569  1.00  0.00    -0.248 NA
ATOM     57  C   UNL A   1      43.838  32.350  34.230  1.00  0.00     0.031 C 
ATOM     58  C   UNL A   1      43.911  27.377  30.755  1.00  0.00     0.029 A 
ATOM     59  C   UNL A   1      43.532  28.568  31.351  1.00  0.00     0.049 A 
ATOM     60  H   UNL A   1      41.790  29.718  31.040  1.00  0.00     0.167 HD
ATOM     61  C   UNL A   1      43.801  30.509  32.867  1.00  0.00     0.074 A 
ATOM     62  C   UNL A   1      44.514  31.268  33.873  1.00  0.00     0.031 C 
ATOM     63  C   UNL A   1      44.231  29.331  32.352  1.00  0.00     0.031 A 
BRANCH  50  64
ATOM     64  C   UNL A   1      40.364  26.822  28.248  1.00  0.00    -0.014 A 
ATOM     65  C   UNL A   1      39.543  25.769  28.684  1.00  0.00     0.009 A 
ATOM     66  C   UNL A   1      40.857  26.798  26.933  1.00  0.00     0.009 A 
ATOM     67  C   UNL A   1      39.253  24.700  27.833  1.00  0.00     0.001 A 
ATOM     68  C   UNL A   1      40.540  25.743  26.076  1.00  0.00     0.001 A 
ATOM     69  C   UNL A   1      39.747  24.690  26.530  1.00  0.00     0.000 A 
ENDBRANCH  50  64
BRANCH  51  70
ATOM     70  C   UNL A   1      41.910  34.540  34.368  1.00  0.00    -0.014 A 
ATOM     71  C   UNL A   1      41.496  34.436  35.705  1.00  0.00     0.009 A 
ATOM     72  C   UNL A   1      42.524  35.727  33.940  1.00  0.00     0.009 A 
ATOM     73  C   UNL A   1      41.667  35.507  36.585  1.00  0.00     0.001 A 
ATOM     74  C   UNL A   1      42.722  36.785  34.829  1.00  0.00     0.001 A 
ATOM     75  C   UNL A   1      42.284  36.679  36.148  1.00  0.00     0.000 A 
ENDBRANCH  51  70
BRANCH  63  76
ATOM     76  C   UNL A   1      45.550  28.803  32.844  1.00  0.00    -0.014 A 
ATOM     77  C   UNL A   1      45.619  27.902  33.918  1.00  0.00     0.009 A 
ATOM     78  C   UNL A   1      46.734  29.174  32.189  1.00  0.00     0.009 A 
ATOM     79  C   UNL A   1      46.852  27.405  34.344  1.00  0.00     0.001 A 
ATOM     80  C   UNL A   1      47.963  28.654  32.598  1.00  0.00     0.001 A 
ATOM     81  C   UNL A   1      48.022  27.777  33.679  1.00  0.00     0.000 A 
ENDBRANCH  63  76
ENDBRANCH  37  38
ENDBRANCH  29  32
ENDBRANCH  27  28
ENDBRANCH  26  27
ENDBRANCH  25  26
ENDBRANCH   1  25
TORSDOF 15
ENDMDL
MODEL 2
REMARK VINA RESULT:     -11.2      1.503      6.155
REMARK SMILES Cc1nc(SCc2cccc(Cl)c2)[nH]c(=O)c1CC(=O)NCCCCNC(=O)c1ccc(-c2c3nc(c(-c4ccccc4)c4ccc([nH]4)c(-c4ccccc4)c4nc(c(-c5ccccc5)c5ccc2[nH]5)C=C4)C=C3)cc1
REMARK SMILES IDX 22 1 21 2 19 3 20 4 18 6 17 7 1 8 2 9 3 10 4 11 15 12 14 13
REMARK SMILES IDX 16 14 5 16 6 17 7 18 8 19 13 20 9 21 11 22 10 23 12 24 23 25
REMARK SMILES IDX 24 26 25 27 26 28 27 29 28 31 29 32 30 33 76 34 31 35 75 36
REMARK SMILES IDX 32 37 33 38 34 39 69 40 35 41 74 42 68 43 70 44 36 45 73 46
REMARK SMILES IDX 67 47 66 48 37 50 59 51 44 52 58 53 45 54 48 55 57 56 71 57
REMARK SMILES IDX 46 58 47 59 56 61 72 62 49 63 38 64 39 65 43 66 40 67 42 68
REMARK SMILES IDX 41 69 60 70 61 71 65 72 62 73 64 74 63 75 50 76 51 77 55 78
REMARK SMILES IDX 52 79 54 80 53 81
REMARK H PARENT 21 5 14 15 26 30 70 49 48 60
REMARK Flexibility Score: inf
ROOT
ATOM      1  C   UNL A   1      31.689  29.870  25.039  1.00  0.00     0.116 C 
ENDROOT
BRANCH   1   2
ATOM      2  N   UNL A   1      32.917  29.645  24.303  1.00  0.00    -0.356 N 
ATOM      3  C   UNL A   1      33.228  28.711  23.357  1.00  0.00     0.224 C 
ATOM      4  O   UNL A   1      34.340  28.787  22.830  1.00  0.00    -0.275 OA
ATOM      5  H   UNL A   1      33.647  30.268  24.520  1.00  0.00     0.163 HD
BRANCH   3   6
ATOM      6  C   UNL A   1      32.199  27.686  22.880  1.00  0.00     0.143 C 
BRANCH   6   7
ATOM      7  C   UNL A   1      32.479  26.266  23.277  1.00  0.00     0.048 A 
ATOM      8  C   UNL A   1      31.323  26.402  25.503  1.00  0.00     0.067 C 
ATOM      9  C   UNL A   1      32.115  25.682  24.438  1.00  0.00     0.049 A 
ATOM     10  N   UNL A   1      32.522  24.424  24.817  1.00  0.00    -0.229 NA
ATOM     11  C   UNL A   1      33.352  23.807  24.052  1.00  0.00     0.168 A 
ATOM     12  C   UNL A   1      33.270  25.437  22.329  1.00  0.00     0.255 A 
ATOM     13  N   UNL A   1      33.732  24.258  22.834  1.00  0.00    -0.301 N 
ATOM     14  O   UNL A   1      33.510  25.790  21.188  1.00  0.00    -0.269 OA
ATOM     15  H   UNL A   1      34.360  23.722  22.298  1.00  0.00     0.172 HD
BRANCH  11  16
ATOM     16  S   UNL A   1      34.115  22.314  24.490  1.00  0.00    -0.083 SA
BRANCH  16  17
ATOM     17  C   UNL A   1      32.692  21.189  24.602  1.00  0.00     0.113 C 
BRANCH  17  18
ATOM     18  C   UNL A   1      32.940  19.799  24.056  1.00  0.00    -0.036 A 
ATOM     19  C   UNL A   1      32.205  19.311  22.966  1.00  0.00     0.005 A 
ATOM     20  C   UNL A   1      33.876  18.941  24.654  1.00  0.00     0.025 A 
ATOM     21  C   UNL A   1      32.406  18.009  22.491  1.00  0.00     0.002 A 
ATOM     22  C   UNL A   1      34.089  17.651  24.168  1.00  0.00     0.041 A 
ATOM     23  C   UNL A   1      33.356  17.180  23.087  1.00  0.00     0.020 A 
ATOM     24  Cl  UNL A   1      35.265  16.645  24.925  1.00  0.00    -0.084 Cl
ENDBRANCH  17  18
ENDBRANCH  16  17
ENDBRANCH  11  16
ENDBRANCH   6   7
ENDBRANCH   3   6
ENDBRANCH   1   2
BRANCH   1  25
ATOM     25  C   UNL A   1      31.967  30.289  26.482  1.00  0.00     0.023 C 
BRANCH  25  26
ATOM     26  C   UNL A   1      31.693  31.763  26.779  1.00  0.00     0.023 C 
BRANCH  26  27
ATOM     27  C   UNL A   1      32.872  32.549  27.345  1.00  0.00     0.116 C 
BRANCH  27  28
ATOM     28  N   UNL A   1      32.550  33.931  27.671  1.00  0.00    -0.352 N 
ATOM     29  C   UNL A   1      33.176  34.778  28.556  1.00  0.00     0.251 C 
ATOM     30  H   UNL A   1      31.779  34.311  27.191  1.00  0.00     0.163 HD
ATOM     31  O   UNL A   1      32.703  35.883  28.804  1.00  0.00    -0.269 OA
BRANCH  29  32
ATOM     32  C   UNL A   1      34.402  34.328  29.249  1.00  0.00     0.039 A 
ATOM     33  C   UNL A   1      34.281  33.684  30.482  1.00  0.00     0.014 A 
ATOM     34  C   UNL A   1      35.658  34.485  28.657  1.00  0.00     0.014 A 
ATOM     35  C   UNL A   1      35.407  33.109  31.075  1.00  0.00     0.010 A 
ATOM     36  C   UNL A   1      36.765  33.846  29.211  1.00  0.00     0.010 A 
ATOM     37  C   UNL A   1      36.648  33.138  30.417  1.00  0.00    -0.014 A 
BRANCH  37  38
ATOM     38  C   UNL A   1      37.822  32.397  30.948  1.00  0.00     0.031 A 
ATOM     39  C   UNL A   1      38.598  32.940  32.115  1.00  0.00     0.074 A 
ATOM     40  C   UNL A   1      38.242  31.279  30.323  1.00  0.00     0.049 A 
ATOM     41  N   UNL A   1      39.694  32.477  32.662  1.00  0.00    -0.248 NA
ATOM     42  C   UNL A   1      38.093  34.175  32.733  1.00  0.00     0.031 C 
ATOM     43  C   UNL A   1      37.606  30.671  29.152  1.00  0.00     0.029 A 
ATOM     44  N   UNL A   1      39.314  30.460  30.579  1.00  0.00    -0.354 N 
ATOM     45  C   UNL A   1      40.018  33.373  33.673  1.00  0.00     0.074 A 
ATOM     46  C   UNL A   1      39.030  34.429  33.634  1.00  0.00     0.031 C 
ATOM     47  C   UNL A   1      38.286  29.565  28.806  1.00  0.00     0.029 A 
ATOM     48  C   UNL A   1      39.429  29.411  29.699  1.00  0.00     0.049 A 
ATOM     49  H   UNL A   1      39.939  30.609  31.324  1.00  0.00     0.167 HD
ATOM     50  C   UNL A   1      41.037  33.315  34.563  1.00  0.00     0.031 A 
ATOM     51  C   UNL A   1      40.358  28.440  29.607  1.00  0.00     0.031 A 
ATOM     52  C   UNL A   1      42.016  32.261  34.608  1.00  0.00     0.049 A 
ATOM     53  C   UNL A   1      41.492  28.411  30.595  1.00  0.00     0.074 A 
ATOM     54  C   UNL A   1      43.045  32.080  35.518  1.00  0.00     0.029 A 
ATOM     55  N   UNL A   1      42.092  31.214  33.704  1.00  0.00    -0.354 N 
ATOM     56  N   UNL A   1      41.736  29.222  31.595  1.00  0.00    -0.248 NA
ATOM     57  C   UNL A   1      42.473  27.328  30.444  1.00  0.00     0.031 C 
ATOM     58  C   UNL A   1      43.779  30.956  35.127  1.00  0.00     0.029 A 
ATOM     59  C   UNL A   1      43.172  30.403  34.013  1.00  0.00     0.049 A 
ATOM     60  H   UNL A   1      41.472  31.070  32.953  1.00  0.00     0.167 HD
ATOM     61  C   UNL A   1      42.884  28.733  32.206  1.00  0.00     0.074 A 
ATOM     62  C   UNL A   1      43.275  27.545  31.476  1.00  0.00     0.031 C 
ATOM     63  C   UNL A   1      43.552  29.225  33.278  1.00  0.00     0.031 A 
BRANCH  50  64
ATOM     64  C   UNL A   1      41.153  34.434  35.560  1.00  0.00    -0.014 A 
ATOM     65  C   UNL A   1      40.538  34.355  36.819  1.00  0.00     0.009 A 
ATOM     66  C   UNL A   1      41.925  35.566  35.251  1.00  0.00     0.009 A 
ATOM     67  C   UNL A   1      40.665  35.402  37.735  1.00  0.00     0.001 A 
ATOM     68  C   UNL A   1      42.075  36.597  36.181  1.00  0.00     0.001 A 
ATOM     69  C   UNL A   1      41.436  36.518  37.417  1.00  0.00     0.000 A 
ENDBRANCH  50  64
BRANCH  51  70
ATOM     70  C   UNL A   1      40.261  27.412  28.537  1.00  0.00    -0.014 A 
ATOM     71  C   UNL A   1      40.855  27.628  27.284  1.00  0.00     0.009 A 
ATOM     72  C   UNL A   1      39.564  26.214  28.759  1.00  0.00     0.009 A 
ATOM     73  C   UNL A   1      40.729  26.679  26.268  1.00  0.00     0.001 A 
ATOM     74  C   UNL A   1      39.467  25.253  27.751  1.00  0.00     0.001 A 
ATOM     75  C   UNL A   1      40.039  25.490  26.502  1.00  0.00     0.000 A 
ENDBRANCH  51  70
BRANCH  63  76
ATOM     76  C   UNL A   1      44.760  28.464  33.746  1.00  0.00    -0.014 A 
ATOM     77  C   UNL A   1      46.051  28.809  33.316  1.00  0.00     0.009 A 
ATOM     78  C   UNL A   1      44.608  27.421  34.672  1.00  0.00     0.009 A 
ATOM     79  C   UNL A   1      47.163  28.104  33.782  1.00  0.00     0.001 A 
ATOM     80  C   UNL A   1      45.723  26.737  35.159  1.00  0.00     0.001 A 
ATOM     81  C   UNL A   1      46.998  27.074  34.708  1.00  0.00     0.000 A 
ENDBRANCH  63  76
ENDBRANCH  37  38
ENDBRANCH  29  32
ENDBRANCH  27  28
ENDBRANCH  26  27
ENDBRANCH  25  26
ENDBRANCH   1  25
TORSDOF 15
ENDMDL
MODEL 3
REMARK VINA RESULT:     -11.1      0.617      5.934
REMARK SMILES Cc1nc(SCc2cccc(Cl)c2)[nH]c(=O)c1CC(=O)NCCCCNC(=O)c1ccc(-c2c3nc(c(-c4ccccc4)c4ccc([nH]4)c(-c4ccccc4)c4nc(c(-c5ccccc5)c5ccc2[nH]5)C=C4)C=C3)cc1
REMARK SMILES IDX 22 1 21 2 19 3 20 4 18 6 17 7 1 8 2 9 3 10 4 11 15 12 14 13
REMARK SMILES IDX 16 14 5 16 6 17 7 18 8 19 13 20 9 21 11 22 10 23 12 24 23 25
REMARK SMILES IDX 24 26 25 27 26 28 27 29 28 31 29 32 30 33 76 34 31 35 75 36
REMARK SMILES IDX 32 37 33 38 34 39 69 40 35 41 74 42 68 43 70 44 36 45 73 46
REMARK SMILES IDX 67 47 66 48 37 50 59 51 44 52 58 53 45 54 48 55 57 56 71 57
REMARK SMILES IDX 46 58 47 59 56 61 72 62 49 63 38 64 39 65 43 66 40 67 42 68
REMARK SMILES IDX 41 69 60 70 61 71 65 72 62 73 64 74 63 75 50 76 51 77 55 78
REMARK SMILES IDX 52 79 54 80 53 81
REMARK H PARENT 21 5 14 15 26 30 70 49 48 60
REMARK Flexibility Score: inf
ROOT
ATOM      1  C   UNL A   1      32.636  29.172  25.731  1.00  0.00     0.116 C 
ENDROOT
BRANCH   1   2
ATOM      2  N   UNL A   1      33.610  29.147  24.658  1.00  0.00    -0.356 N 
ATOM      3  C   UNL A   1      33.509  28.694  23.375  1.00  0.00     0.224 C 
ATOM      4  O   UNL A   1      34.483  28.859  22.637  1.00  0.00    -0.275 OA
ATOM      5  H   UNL A   1      34.491  29.518  24.895  1.00  0.00     0.163 HD
BRANCH   3   6
ATOM      6  C   UNL A   1      32.201  28.117  22.834  1.00  0.00     0.143 C 
BRANCH   6   7
ATOM      7  C   UNL A   1      32.050  26.630  22.977  1.00  0.00     0.048 A 
ATOM      8  C   UNL A   1      30.284  26.735  24.762  1.00  0.00     0.067 C 
ATOM      9  C   UNL A   1      31.221  25.998  23.833  1.00  0.00     0.049 A 
ATOM     10  N   UNL A   1      31.225  24.637  24.031  1.00  0.00    -0.229 NA
ATOM     11  C   UNL A   1      32.119  23.945  23.416  1.00  0.00     0.168 A 
ATOM     12  C   UNL A   1      32.925  25.773  22.135  1.00  0.00     0.255 A 
ATOM     13  N   UNL A   1      32.956  24.455  22.483  1.00  0.00    -0.301 N 
ATOM     14  O   UNL A   1      33.587  26.213  21.212  1.00  0.00    -0.269 OA
ATOM     15  H   UNL A   1      33.605  23.859  22.043  1.00  0.00     0.172 HD
BRANCH  11  16
ATOM     16  S   UNL A   1      32.388  22.260  23.719  1.00  0.00    -0.083 SA
BRANCH  16  17
ATOM     17  C   UNL A   1      33.171  22.299  25.358  1.00  0.00     0.113 C 
BRANCH  17  18
ATOM     18  C   UNL A   1      34.684  22.367  25.335  1.00  0.00    -0.036 A 
ATOM     19  C   UNL A   1      35.352  23.591  25.487  1.00  0.00     0.005 A 
ATOM     20  C   UNL A   1      35.459  21.218  25.112  1.00  0.00     0.025 A 
ATOM     21  C   UNL A   1      36.750  23.656  25.421  1.00  0.00     0.002 A 
ATOM     22  C   UNL A   1      36.851  21.282  25.066  1.00  0.00     0.041 A 
ATOM     23  C   UNL A   1      37.502  22.499  25.220  1.00  0.00     0.020 A 
ATOM     24  Cl  UNL A   1      37.756  19.839  24.812  1.00  0.00    -0.084 Cl
ENDBRANCH  17  18
ENDBRANCH  16  17
ENDBRANCH  11  16
ENDBRANCH   6   7
ENDBRANCH   3   6
ENDBRANCH   1   2
BRANCH   1  25
ATOM     25  C   UNL A   1      31.767  30.427  25.674  1.00  0.00     0.023 C 
BRANCH  25  26
ATOM     26  C   UNL A   1      31.734  31.236  26.971  1.00  0.00     0.023 C 
BRANCH  26  27
ATOM     27  C   UNL A   1      32.941  32.137  27.214  1.00  0.00     0.116 C 
BRANCH  27  28
ATOM     28  N   UNL A   1      32.588  33.509  27.549  1.00  0.00    -0.352 N 
ATOM     29  C   UNL A   1      33.206  34.371  28.425  1.00  0.00     0.251 C 
ATOM     30  H   UNL A   1      31.798  33.869  27.084  1.00  0.00     0.163 HD
ATOM     31  O   UNL A   1      32.708  35.461  28.685  1.00  0.00    -0.269 OA
BRANCH  29  32
ATOM     32  C   UNL A   1      34.457  33.952  29.094  1.00  0.00     0.039 A 
ATOM     33  C   UNL A   1      34.373  33.214  30.277  1.00  0.00     0.014 A 
ATOM     34  C   UNL A   1      35.702  34.234  28.526  1.00  0.00     0.014 A 
ATOM     35  C   UNL A   1      35.532  32.673  30.836  1.00  0.00     0.010 A 
ATOM     36  C   UNL A   1      36.846  33.630  29.042  1.00  0.00     0.010 A 
ATOM     37  C   UNL A   1      36.771  32.830  30.193  1.00  0.00    -0.014 A 
BRANCH  37  38
ATOM     38  C   UNL A   1      37.989  32.132  30.680  1.00  0.00     0.031 A 
ATOM     39  C   UNL A   1      38.831  32.739  31.767  1.00  0.00     0.074 A 
ATOM     40  C   UNL A   1      38.386  30.991  30.081  1.00  0.00     0.049 A 
ATOM     41  N   UNL A   1      39.967  32.317  32.262  1.00  0.00    -0.248 NA
ATOM     42  C   UNL A   1      38.347  33.995  32.359  1.00  0.00     0.031 C 
ATOM     43  C   UNL A   1      37.685  30.319  28.983  1.00  0.00     0.029 A 
ATOM     44  N   UNL A   1      39.486  30.199  30.303  1.00  0.00    -0.354 N 
ATOM     45  C   UNL A   1      40.342  33.264  33.207  1.00  0.00     0.074 A 
ATOM     46  C   UNL A   1      39.336  34.304  33.184  1.00  0.00     0.031 C 
ATOM     47  C   UNL A   1      38.360  29.208  28.645  1.00  0.00     0.029 A 
ATOM     48  C   UNL A   1      39.561  29.111  29.467  1.00  0.00     0.049 A 
ATOM     49  H   UNL A   1      40.156  30.392  30.998  1.00  0.00     0.167 HD
ATOM     50  C   UNL A   1      41.417  33.262  34.029  1.00  0.00     0.031 A 
ATOM     51  C   UNL A   1      40.498  28.150  29.359  1.00  0.00     0.031 A 
ATOM     52  C   UNL A   1      42.414  32.224  34.059  1.00  0.00     0.049 A 
ATOM     53  C   UNL A   1      41.694  28.182  30.271  1.00  0.00     0.074 A 
ATOM     54  C   UNL A   1      43.502  32.100  34.907  1.00  0.00     0.029 A 
ATOM     55  N   UNL A   1      42.448  31.137  33.201  1.00  0.00    -0.354 N 
ATOM     56  N   UNL A   1      41.989  29.043  31.214  1.00  0.00    -0.248 NA
ATOM     57  C   UNL A   1      42.681  27.107  30.106  1.00  0.00     0.031 C 
ATOM     58  C   UNL A   1      44.228  30.969  34.521  1.00  0.00     0.029 A 
ATOM     59  C   UNL A   1      43.559  30.356  33.475  1.00  0.00     0.049 A 
ATOM     60  H   UNL A   1      41.784  30.949  32.500  1.00  0.00     0.167 HD
ATOM     61  C   UNL A   1      43.182  28.598  31.771  1.00  0.00     0.074 A 
ATOM     62  C   UNL A   1      43.545  27.384  31.072  1.00  0.00     0.031 C 
ATOM     63  C   UNL A   1      43.910  29.150  32.773  1.00  0.00     0.031 A 
BRANCH  50  64
ATOM     64  C   UNL A   1      41.579  34.428  34.964  1.00  0.00    -0.014 A 
ATOM     65  C   UNL A   1      42.292  35.575  34.581  1.00  0.00     0.009 A 
ATOM     66  C   UNL A   1      40.972  34.397  36.230  1.00  0.00     0.009 A 
ATOM     67  C   UNL A   1      42.424  36.653  35.461  1.00  0.00     0.001 A 
ATOM     68  C   UNL A   1      41.080  35.488  37.095  1.00  0.00     0.001 A 
ATOM     69  C   UNL A   1      41.814  36.610  36.713  1.00  0.00     0.000 A 
ENDBRANCH  50  64
BRANCH  51  70
ATOM     70  C   UNL A   1      40.349  27.071  28.347  1.00  0.00    -0.014 A 
ATOM     71  C   UNL A   1      40.901  27.215  27.065  1.00  0.00     0.009 A 
ATOM     72  C   UNL A   1      39.644  25.896  28.653  1.00  0.00     0.009 A 
ATOM     73  C   UNL A   1      40.725  26.219  26.102  1.00  0.00     0.001 A 
ATOM     74  C   UNL A   1      39.497  24.888  27.699  1.00  0.00     0.001 A 
ATOM     75  C   UNL A   1      40.028  25.054  26.421  1.00  0.00     0.000 A 
ENDBRANCH  51  70
BRANCH  63  76
ATOM     76  C   UNL A   1      45.159  28.428  33.195  1.00  0.00    -0.014 A 
ATOM     77  C   UNL A   1      46.400  28.710  32.603  1.00  0.00     0.009 A 
ATOM     78  C   UNL A   1      45.100  27.490  34.237  1.00  0.00     0.009 A 
ATOM     79  C   UNL A   1      47.552  28.045  33.027  1.00  0.00     0.001 A 
ATOM     80  C   UNL A   1      46.257  26.848  34.680  1.00  0.00     0.001 A 
ATOM     81  C   UNL A   1      47.480  27.120  34.069  1.00  0.00     0.000 A 
ENDBRANCH  63  76
ENDBRANCH  37  38
ENDBRANCH  29  32
ENDBRANCH  27  28
ENDBRANCH  26  27
ENDBRANCH  25  26
ENDBRANCH   1  25
TORSDOF 15
ENDMDL
