MODEL 1
REMARK VINA RESULT:     -11.7      0.000      0.000
REMARK SMILES CC[NH+]1CC[NH+]([C@@H]2CC(=O)N(c3ccc(C(=O)NCCCCNC(=O)c4ccc(-c5c6nc(c(-c7ccccc7)c7ccc([nH]7)c(-c7ccccc7)c7nc(c(-c8ccccc8)c8ccc5[nH]8)C=C7)C=C6)cc4)cc3)C2=O)CC1
REMARK SMILES IDX 20 1 19 2 18 3 16 4 17 5 15 7 12 8 13 9 75 10 14 11 74 12
REMARK SMILES IDX 11 13 7 14 8 15 76 16 9 17 77 18 10 19 6 20 3 21 4 22 79 23
REMARK SMILES IDX 5 25 78 26 2 28 1 29 21 30 22 31 23 32 24 33 25 35 26 36
REMARK SMILES IDX 27 37 73 38 28 39 72 40 29 41 30 42 31 43 66 44 32 45 71 46
REMARK SMILES IDX 65 47 67 48 33 49 70 50 64 51 63 52 34 54 56 55 41 56 55 57
REMARK SMILES IDX 42 58 45 59 54 60 68 61 43 62 44 63 53 65 69 66 46 67 35 68
REMARK SMILES IDX 36 69 40 70 37 71 39 72 38 73 57 74 58 75 62 76 59 77 61 78
REMARK SMILES IDX 60 79 47 80 48 81 52 82 49 83 51 84 50 85
REMARK H PARENT 18 6 3 24 6 27 23 34 67 53 45 64
REMARK Flexibility Score: inf
ROOT
ATOM      1  C   UNL A   1      37.073  21.125  24.680  1.00  0.00     0.023 C 
ENDROOT
BRANCH   1   2
ATOM      2  C   UNL A   1      36.068  21.388  25.805  1.00  0.00     0.116 C 
BRANCH   2   3
ATOM      3  N   UNL A   1      34.899  20.546  25.659  1.00  0.00    -0.352 N 
ATOM      4  C   UNL A   1      33.576  20.846  25.448  1.00  0.00     0.251 C 
ATOM      5  O   UNL A   1      32.797  19.900  25.324  1.00  0.00    -0.269 OA
ATOM      6  H   UNL A   1      35.087  19.582  25.722  1.00  0.00     0.163 HD
BRANCH   4   7
ATOM      7  C   UNL A   1      33.051  22.240  25.330  1.00  0.00     0.039 A 
ATOM      8  C   UNL A   1      32.112  24.870  24.941  1.00  0.00     0.052 A 
ATOM      9  C   UNL A   1      32.417  24.063  23.841  1.00  0.00     0.027 A 
ATOM     10  C   UNL A   1      32.245  24.355  26.223  1.00  0.00     0.027 A 
ATOM     11  C   UNL A   1      32.913  22.768  24.038  1.00  0.00     0.016 A 
ATOM     12  C   UNL A   1      32.659  23.038  26.406  1.00  0.00     0.016 A 
BRANCH   8  13
ATOM     13  N   UNL A   1      31.656  26.186  24.772  1.00  0.00    -0.245 N 
ATOM     14  C   UNL A   1      30.253  27.999  24.299  1.00  0.00     0.285 C 
ATOM     15  C   UNL A   1      31.635  28.519  24.666  1.00  0.00     0.176 C 
ATOM     16  C   UNL A   1      30.346  26.494  24.507  1.00  0.00     0.292 C 
ATOM     17  C   UNL A   1      32.446  27.293  24.937  1.00  0.00     0.240 C 
ATOM     18  O   UNL A   1      29.397  25.722  24.460  1.00  0.00    -0.267 OA
ATOM     19  O   UNL A   1      33.634  27.335  25.234  1.00  0.00    -0.274 OA
BRANCH  14  20
ATOM     20  N   UNL A   1      29.702  28.299  22.971  1.00  0.00    -0.315 N 
ATOM     21  N   UNL A   1      28.244  30.840  22.303  1.00  0.00    -0.326 N 
ATOM     22  C   UNL A   1      27.587  29.742  23.023  1.00  0.00     0.324 C 
ATOM     23  C   UNL A   1      29.705  30.779  22.400  1.00  0.00     0.324 C 
ATOM     24  H   UNL A   1      27.969  31.684  22.804  1.00  0.00     0.348 HD
ATOM     25  C   UNL A   1      28.239  28.343  22.900  1.00  0.00     0.325 C 
ATOM     26  C   UNL A   1      30.328  29.385  22.208  1.00  0.00     0.325 C 
ATOM     27  H   UNL A   1      29.994  27.459  22.472  1.00  0.00     0.349 HD
BRANCH  21  28
ATOM     28  C   UNL A   1      27.735  31.094  20.954  1.00  0.00     0.259 C 
ATOM     29  C   UNL A   1      28.101  32.408  20.278  1.00  0.00     0.071 C 
ENDBRANCH  21  28
ENDBRANCH  14  20
ENDBRANCH   8  13
ENDBRANCH   4   7
ENDBRANCH   2   3
ENDBRANCH   1   2
BRANCH   1  30
ATOM     30  C   UNL A   1      38.002  19.940  24.926  1.00  0.00     0.023 C 
BRANCH  30  31
ATOM     31  C   UNL A   1      39.189  20.249  25.824  1.00  0.00     0.116 C 
BRANCH  31  32
ATOM     32  N   UNL A   1      40.203  19.205  25.824  1.00  0.00    -0.352 N 
ATOM     33  C   UNL A   1      41.535  19.329  26.132  1.00  0.00     0.251 C 
ATOM     34  H   UNL A   1      39.898  18.303  25.574  1.00  0.00     0.163 HD
ATOM     35  O   UNL A   1      42.304  18.383  25.999  1.00  0.00    -0.269 OA
BRANCH  33  36
ATOM     36  C   UNL A   1      42.036  20.643  26.577  1.00  0.00     0.039 A 
ATOM     37  C   UNL A   1      42.450  21.564  25.614  1.00  0.00     0.014 A 
ATOM     38  C   UNL A   1      42.026  20.982  27.933  1.00  0.00     0.014 A 
ATOM     39  C   UNL A   1      42.793  22.857  26.008  1.00  0.00     0.010 A 
ATOM     40  C   UNL A   1      42.301  22.288  28.314  1.00  0.00     0.010 A 
ATOM     41  C   UNL A   1      42.686  23.238  27.355  1.00  0.00    -0.014 A 
BRANCH  41  42
ATOM     42  C   UNL A   1      42.978  24.624  27.785  1.00  0.00     0.031 A 
ATOM     43  C   UNL A   1      44.399  25.049  28.024  1.00  0.00     0.074 A 
ATOM     44  C   UNL A   1      41.963  25.477  28.022  1.00  0.00     0.049 A 
ATOM     45  N   UNL A   1      44.853  26.195  28.464  1.00  0.00    -0.248 NA
ATOM     46  C   UNL A   1      45.444  24.049  27.758  1.00  0.00     0.031 C 
ATOM     47  C   UNL A   1      40.539  25.168  27.865  1.00  0.00     0.029 A 
ATOM     48  N   UNL A   1      41.976  26.779  28.452  1.00  0.00    -0.354 N 
ATOM     49  C   UNL A   1      46.230  26.047  28.541  1.00  0.00     0.074 A 
ATOM     50  C   UNL A   1      46.537  24.689  28.149  1.00  0.00     0.031 C 
ATOM     51  C   UNL A   1      39.818  26.260  28.170  1.00  0.00     0.029 A 
ATOM     52  C   UNL A   1      40.724  27.330  28.575  1.00  0.00     0.049 A 
ATOM     53  H   UNL A   1      42.804  27.272  28.652  1.00  0.00     0.167 HD
ATOM     54  C   UNL A   1      47.163  26.966  28.888  1.00  0.00     0.031 A 
ATOM     55  C   UNL A   1      40.350  28.561  28.972  1.00  0.00     0.031 A 
ATOM     56  C   UNL A   1      46.862  28.321  29.262  1.00  0.00     0.049 A 
ATOM     57  C   UNL A   1      41.404  29.560  29.355  1.00  0.00     0.074 A 
ATOM     58  C   UNL A   1      47.739  29.342  29.583  1.00  0.00     0.029 A 
ATOM     59  N   UNL A   1      45.583  28.844  29.359  1.00  0.00    -0.354 N 
ATOM     60  N   UNL A   1      42.708  29.422  29.367  1.00  0.00    -0.248 NA
ATOM     61  C   UNL A   1      40.935  30.890  29.769  1.00  0.00     0.031 C 
ATOM     62  C   UNL A   1      46.988  30.475  29.909  1.00  0.00     0.029 A 
ATOM     63  C   UNL A   1      45.645  30.171  29.748  1.00  0.00     0.049 A 
ATOM     64  H   UNL A   1      44.752  28.347  29.178  1.00  0.00     0.167 HD
ATOM     65  C   UNL A   1      43.214  30.653  29.762  1.00  0.00     0.074 A 
ATOM     66  C   UNL A   1      42.079  31.529  29.967  1.00  0.00     0.031 C 
ATOM     67  C   UNL A   1      44.505  31.026  29.939  1.00  0.00     0.031 A 
BRANCH  54  68
ATOM     68  C   UNL A   1      48.599  26.529  28.875  1.00  0.00    -0.014 A 
ATOM     69  C   UNL A   1      49.203  25.998  30.026  1.00  0.00     0.009 A 
ATOM     70  C   UNL A   1      49.349  26.619  27.692  1.00  0.00     0.009 A 
ATOM     71  C   UNL A   1      50.539  25.595  30.001  1.00  0.00     0.001 A 
ATOM     72  C   UNL A   1      50.677  26.191  27.664  1.00  0.00     0.001 A 
ATOM     73  C   UNL A   1      51.273  25.687  28.819  1.00  0.00     0.000 A 
ENDBRANCH  54  68
BRANCH  55  74
ATOM     74  C   UNL A   1      38.912  28.929  29.013  1.00  0.00    -0.014 A 
ATOM     75  C   UNL A   1      38.277  29.436  27.867  1.00  0.00     0.009 A 
ATOM     76  C   UNL A   1      38.171  28.795  30.197  1.00  0.00     0.009 A 
ATOM     77  C   UNL A   1      36.939  29.829  27.916  1.00  0.00     0.001 A 
ATOM     78  C   UNL A   1      36.825  29.166  30.234  1.00  0.00     0.001 A 
ATOM     79  C   UNL A   1      36.213  29.691  29.098  1.00  0.00     0.000 A 
ENDBRANCH  55  74
BRANCH  67  80
ATOM     80  C   UNL A   1      44.755  32.450  30.340  1.00  0.00    -0.014 A 
ATOM     81  C   UNL A   1      44.855  32.819  31.690  1.00  0.00     0.009 A 
ATOM     82  C   UNL A   1      44.934  33.428  29.349  1.00  0.00     0.009 A 
ATOM     83  C   UNL A   1      45.098  34.148  32.040  1.00  0.00     0.001 A 
ATOM     84  C   UNL A   1      45.202  34.751  29.701  1.00  0.00     0.001 A 
ATOM     85  C   UNL A   1      45.276  35.111  31.047  1.00  0.00     0.000 A 
ENDBRANCH  67  80
ENDBRANCH  41  42
ENDBRANCH  33  36
ENDBRANCH  31  32
ENDBRANCH  30  31
ENDBRANCH   1  30
TORSDOF 14
ENDMDL
MODEL 2
REMARK VINA RESULT:     -11.6      1.834      2.702
REMARK SMILES CC[NH+]1CC[NH+]([C@@H]2CC(=O)N(c3ccc(C(=O)NCCCCNC(=O)c4ccc(-c5c6nc(c(-c7ccccc7)c7ccc([nH]7)c(-c7ccccc7)c7nc(c(-c8ccccc8)c8ccc5[nH]8)C=C7)C=C6)cc4)cc3)C2=O)CC1
REMARK SMILES IDX 20 1 19 2 18 3 16 4 17 5 15 7 12 8 13 9 75 10 14 11 74 12
REMARK SMILES IDX 11 13 7 14 8 15 76 16 9 17 77 18 10 19 6 20 3 21 4 22 79 23
REMARK SMILES IDX 5 25 78 26 2 28 1 29 21 30 22 31 23 32 24 33 25 35 26 36
REMARK SMILES IDX 27 37 73 38 28 39 72 40 29 41 30 42 31 43 66 44 32 45 71 46
REMARK SMILES IDX 65 47 67 48 33 49 70 50 64 51 63 52 34 54 56 55 41 56 55 57
REMARK SMILES IDX 42 58 45 59 54 60 68 61 43 62 44 63 53 65 69 66 46 67 35 68
REMARK SMILES IDX 36 69 40 70 37 71 39 72 38 73 57 74 58 75 62 76 59 77 61 78
REMARK SMILES IDX 60 79 47 80 48 81 52 82 49 83 51 84 50 85
REMARK H PARENT 18 6 3 24 6 27 23 34 67 53 45 64
REMARK Flexibility Score: inf
ROOT
ATOM      1  C   UNL A   1      37.003  19.323  24.945  1.00  0.00     0.023 C 
ENDROOT
BRANCH   1   2
ATOM      2  C   UNL A   1      35.814  20.279  25.084  1.00  0.00     0.116 C 
BRANCH   2   3
ATOM      3  N   UNL A   1      34.574  19.544  25.222  1.00  0.00    -0.352 N 
ATOM      4  C   UNL A   1      33.269  19.959  25.319  1.00  0.00     0.251 C 
ATOM      5  O   UNL A   1      32.404  19.087  25.389  1.00  0.00    -0.269 OA
ATOM      6  H   UNL A   1      34.688  18.566  25.252  1.00  0.00     0.163 HD
BRANCH   4   7
ATOM      7  C   UNL A   1      32.855  21.395  25.307  1.00  0.00     0.039 A 
ATOM      8  C   UNL A   1      32.022  24.082  25.122  1.00  0.00     0.052 A 
ATOM      9  C   UNL A   1      31.607  23.150  24.166  1.00  0.00     0.027 A 
ATOM     10  C   UNL A   1      32.819  23.666  26.179  1.00  0.00     0.027 A 
ATOM     11  C   UNL A   1      32.048  21.823  24.243  1.00  0.00     0.016 A 
ATOM     12  C   UNL A   1      33.183  22.327  26.294  1.00  0.00     0.016 A 
BRANCH   8  13
ATOM     13  N   UNL A   1      31.631  25.428  25.043  1.00  0.00    -0.245 N 
ATOM     14  C   UNL A   1      31.568  27.682  24.413  1.00  0.00     0.285 C 
ATOM     15  C   UNL A   1      30.491  27.424  25.457  1.00  0.00     0.176 C 
ATOM     16  C   UNL A   1      32.167  26.309  24.138  1.00  0.00     0.292 C 
ATOM     17  C   UNL A   1      30.623  25.973  25.793  1.00  0.00     0.240 C 
ATOM     18  O   UNL A   1      32.968  26.062  23.247  1.00  0.00    -0.267 OA
ATOM     19  O   UNL A   1      29.925  25.421  26.635  1.00  0.00    -0.274 OA
BRANCH  14  20
ATOM     20  N   UNL A   1      32.630  28.654  24.702  1.00  0.00    -0.315 N 
ATOM     21  N   UNL A   1      33.167  29.778  27.435  1.00  0.00    -0.326 N 
ATOM     22  C   UNL A   1      32.067  30.278  26.601  1.00  0.00     0.324 C 
ATOM     23  C   UNL A   1      33.607  28.438  27.041  1.00  0.00     0.324 C 
ATOM     24  H   UNL A   1      32.764  29.674  28.366  1.00  0.00     0.348 HD
ATOM     25  C   UNL A   1      32.162  29.990  25.083  1.00  0.00     0.325 C 
ATOM     26  C   UNL A   1      33.756  28.203  25.528  1.00  0.00     0.325 C 
ATOM     27  H   UNL A   1      33.038  28.742  23.770  1.00  0.00     0.349 HD
BRANCH  21  28
ATOM     28  C   UNL A   1      34.255  30.730  27.667  1.00  0.00     0.259 C 
ATOM     29  C   UNL A   1      33.915  32.083  28.280  1.00  0.00     0.071 C 
ENDBRANCH  21  28
ENDBRANCH  14  20
ENDBRANCH   8  13
ENDBRANCH   4   7
ENDBRANCH   2   3
ENDBRANCH   1   2
BRANCH   1  30
ATOM     30  C   UNL A   1      38.341  20.010  24.693  1.00  0.00     0.023 C 
BRANCH  30  31
ATOM     31  C   UNL A   1      39.268  20.038  25.896  1.00  0.00     0.116 C 
BRANCH  31  32
ATOM     32  N   UNL A   1      40.241  18.956  25.904  1.00  0.00    -0.352 N 
ATOM     33  C   UNL A   1      41.592  19.043  26.133  1.00  0.00     0.251 C 
ATOM     34  H   UNL A   1      39.889  18.054  25.723  1.00  0.00     0.163 HD
ATOM     35  O   UNL A   1      42.317  18.060  26.016  1.00  0.00    -0.269 OA
BRANCH  33  36
ATOM     36  C   UNL A   1      42.166  20.358  26.475  1.00  0.00     0.039 A 
ATOM     37  C   UNL A   1      42.609  21.184  25.441  1.00  0.00     0.014 A 
ATOM     38  C   UNL A   1      42.195  20.795  27.802  1.00  0.00     0.014 A 
ATOM     39  C   UNL A   1      43.023  22.483  25.734  1.00  0.00     0.010 A 
ATOM     40  C   UNL A   1      42.541  22.109  28.083  1.00  0.00     0.010 A 
ATOM     41  C   UNL A   1      42.957  22.966  27.051  1.00  0.00    -0.014 A 
BRANCH  41  42
ATOM     42  C   UNL A   1      43.325  24.364  27.375  1.00  0.00     0.031 A 
ATOM     43  C   UNL A   1      44.759  24.800  27.279  1.00  0.00     0.074 A 
ATOM     44  C   UNL A   1      42.381  25.217  27.815  1.00  0.00     0.049 A 
ATOM     45  N   UNL A   1      45.290  25.958  27.580  1.00  0.00    -0.248 NA
ATOM     46  C   UNL A   1      45.728  23.798  26.806  1.00  0.00     0.031 C 
ATOM     47  C   UNL A   1      40.961  24.899  27.990  1.00  0.00     0.029 A 
ATOM     48  N   UNL A   1      42.479  26.529  28.203  1.00  0.00    -0.354 N 
ATOM     49  C   UNL A   1      46.651  25.818  27.349  1.00  0.00     0.074 A 
ATOM     50  C   UNL A   1      46.874  24.452  26.928  1.00  0.00     0.031 C 
ATOM     51  C   UNL A   1      40.317  25.994  28.425  1.00  0.00     0.029 A 
ATOM     52  C   UNL A   1      41.281  27.077  28.592  1.00  0.00     0.049 A 
ATOM     53  H   UNL A   1      43.325  27.030  28.202  1.00  0.00     0.167 HD
ATOM     54  C   UNL A   1      47.628  26.748  27.457  1.00  0.00     0.031 A 
ATOM     55  C   UNL A   1      40.994  28.315  29.037  1.00  0.00     0.031 A 
ATOM     56  C   UNL A   1      47.406  28.110  27.860  1.00  0.00     0.049 A 
ATOM     57  C   UNL A   1      42.098  29.328  29.152  1.00  0.00     0.074 A 
ATOM     58  C   UNL A   1      48.324  29.142  27.953  1.00  0.00     0.029 A 
ATOM     59  N   UNL A   1      46.177  28.630  28.231  1.00  0.00    -0.354 N 
ATOM     60  N   UNL A   1      43.373  29.195  28.872  1.00  0.00    -0.248 NA
ATOM     61  C   UNL A   1      41.721  30.665  29.631  1.00  0.00     0.031 C 
ATOM     62  C   UNL A   1      47.654  30.279  28.415  1.00  0.00     0.029 A 
ATOM     63  C   UNL A   1      46.313  29.966  28.567  1.00  0.00     0.049 A 
ATOM     64  H   UNL A   1      45.332  28.125  28.252  1.00  0.00     0.167 HD
ATOM     65  C   UNL A   1      43.943  30.438  29.117  1.00  0.00     0.074 A 
ATOM     66  C   UNL A   1      42.874  31.313  29.553  1.00  0.00     0.031 C 
ATOM     67  C   UNL A   1      45.236  30.820  28.992  1.00  0.00     0.031 A 
BRANCH  54  68
ATOM     68  C   UNL A   1      49.029  26.317  27.131  1.00  0.00    -0.014 A 
ATOM     69  C   UNL A   1      49.520  26.391  25.817  1.00  0.00     0.009 A 
ATOM     70  C   UNL A   1      49.879  25.863  28.150  1.00  0.00     0.009 A 
ATOM     71  C   UNL A   1      50.824  25.988  25.526  1.00  0.00     0.001 A 
ATOM     72  C   UNL A   1      51.190  25.485  27.861  1.00  0.00     0.001 A 
ATOM     73  C   UNL A   1      51.660  25.540  26.549  1.00  0.00     0.000 A 
ENDBRANCH  54  68
BRANCH  55  74
ATOM     74  C   UNL A   1      39.599  28.677  29.392  1.00  0.00    -0.014 A 
ATOM     75  C   UNL A   1      39.129  28.492  30.702  1.00  0.00     0.009 A 
ATOM     76  C   UNL A   1      38.723  29.190  28.423  1.00  0.00     0.009 A 
ATOM     77  C   UNL A   1      37.804  28.784  31.027  1.00  0.00     0.001 A 
ATOM     78  C   UNL A   1      37.404  29.507  28.758  1.00  0.00     0.001 A 
ATOM     79  C   UNL A   1      36.943  29.294  30.056  1.00  0.00     0.000 A 
ENDBRANCH  55  74
BRANCH  67  80
ATOM     80  C   UNL A   1      45.557  32.254  29.294  1.00  0.00    -0.014 A 
ATOM     81  C   UNL A   1      45.473  33.243  28.303  1.00  0.00     0.009 A 
ATOM     82  C   UNL A   1      45.909  32.626  30.602  1.00  0.00     0.009 A 
ATOM     83  C   UNL A   1      45.767  34.573  28.609  1.00  0.00     0.001 A 
ATOM     84  C   UNL A   1      46.177  33.959  30.910  1.00  0.00     0.001 A 
ATOM     85  C   UNL A   1      46.113  34.930  29.912  1.00  0.00     0.000 A 
ENDBRANCH  67  80
ENDBRANCH  41  42
ENDBRANCH  33  36
ENDBRANCH  31  32
ENDBRANCH  30  31
ENDBRANCH   1  30
TORSDOF 14
ENDMDL
MODEL 3
REMARK VINA RESULT:     -11.5      4.275     10.242
REMARK SMILES CC[NH+]1CC[NH+]([C@@H]2CC(=O)N(c3ccc(C(=O)NCCCCNC(=O)c4ccc(-c5c6nc(c(-c7ccccc7)c7ccc([nH]7)c(-c7ccccc7)c7nc(c(-c8ccccc8)c8ccc5[nH]8)C=C7)C=C6)cc4)cc3)C2=O)CC1
REMARK SMILES IDX 20 1 19 2 18 3 16 4 17 5 15 7 12 8 13 9 75 10 14 11 74 12
REMARK SMILES IDX 11 13 7 14 8 15 76 16 9 17 77 18 10 19 6 20 3 21 4 22 79 23
REMARK SMILES IDX 5 25 78 26 2 28 1 29 21 30 22 31 23 32 24 33 25 35 26 36
REMARK SMILES IDX 27 37 73 38 28 39 72 40 29 41 30 42 31 43 66 44 32 45 71 46
REMARK SMILES IDX 65 47 67 48 33 49 70 50 64 51 63 52 34 54 56 55 41 56 55 57
REMARK SMILES IDX 42 58 45 59 54 60 68 61 43 62 44 63 53 65 69 66 46 67 35 68
REMARK SMILES IDX 36 69 40 70 37 71 39 72 38 73 57 74 58 75 62 76 59 77 61 78
REMARK SMILES IDX 60 79 47 80 48 81 52 82 49 83 51 84 50 85
REMARK H PARENT 18 6 3 24 6 27 23 34 67 53 45 64
REMARK Flexibility Score: inf
ROOT
ATOM      1  C   UNL A   1      31.631  30.688  26.782  1.00  0.00     0.023 C 
ENDROOT
BRANCH   1   2
ATOM      2  C   UNL A   1      32.144  30.164  25.437  1.00  0.00     0.116 C 
BRANCH   2   3
ATOM      3  N   UNL A   1      31.058  30.031  24.489  1.00  0.00    -0.352 N 
ATOM      4  C   UNL A   1      30.580  28.950  23.790  1.00  0.00     0.251 C 
ATOM      5  O   UNL A   1      29.599  29.133  23.070  1.00  0.00    -0.269 OA
ATOM      6  H   UNL A   1      30.573  30.869  24.312  1.00  0.00     0.163 HD
BRANCH   4   7
ATOM      7  C   UNL A   1      31.164  27.577  23.889  1.00  0.00     0.039 A 
ATOM      8  C   UNL A   1      32.420  25.058  24.043  1.00  0.00     0.052 A 
ATOM      9  C   UNL A   1      33.183  26.228  24.099  1.00  0.00     0.027 A 
ATOM     10  C   UNL A   1      31.038  25.148  23.942  1.00  0.00     0.027 A 
ATOM     11  C   UNL A   1      32.559  27.477  23.991  1.00  0.00     0.016 A 
ATOM     12  C   UNL A   1      30.420  26.396  23.920  1.00  0.00     0.016 A 
BRANCH   8  13
ATOM     13  N   UNL A   1      33.025  23.793  24.104  1.00  0.00    -0.245 N 
ATOM     14  C   UNL A   1      33.884  21.789  24.956  1.00  0.00     0.285 C 
ATOM     15  C   UNL A   1      34.112  21.831  23.452  1.00  0.00     0.176 C 
ATOM     16  C   UNL A   1      33.080  23.046  25.254  1.00  0.00     0.292 C 
ATOM     17  C   UNL A   1      33.541  23.142  23.015  1.00  0.00     0.240 C 
ATOM     18  O   UNL A   1      32.566  23.309  26.334  1.00  0.00    -0.267 OA
ATOM     19  O   UNL A   1      33.579  23.527  21.853  1.00  0.00    -0.274 OA
BRANCH  14  20
ATOM     20  N   UNL A   1      35.041  21.697  25.855  1.00  0.00    -0.315 N 
ATOM     21  N   UNL A   1      37.803  22.626  25.123  1.00  0.00    -0.326 N 
ATOM     22  C   UNL A   1      37.272  21.342  24.649  1.00  0.00     0.324 C 
ATOM     23  C   UNL A   1      36.745  23.558  25.522  1.00  0.00     0.324 C 
ATOM     24  H   UNL A   1      38.246  23.044  24.306  1.00  0.00     0.348 HD
ATOM     25  C   UNL A   1      36.079  20.750  25.439  1.00  0.00     0.325 C 
ATOM     26  C   UNL A   1      35.607  22.954  26.362  1.00  0.00     0.325 C 
ATOM     27  H   UNL A   1      34.588  21.293  26.675  1.00  0.00     0.349 HD
BRANCH  21  28
ATOM     28  C   UNL A   1      38.915  22.529  26.070  1.00  0.00     0.259 C 
ATOM     29  C   UNL A   1      39.732  21.244  26.099  1.00  0.00     0.071 C 
ENDBRANCH  21  28
ENDBRANCH  14  20
ENDBRANCH   8  13
ENDBRANCH   4   7
ENDBRANCH   2   3
ENDBRANCH   1   2
BRANCH   1  30
ATOM     30  C   UNL A   1      31.427  32.199  26.836  1.00  0.00     0.023 C 
BRANCH  30  31
ATOM     31  C   UNL A   1      32.622  32.974  27.367  1.00  0.00     0.116 C 
BRANCH  31  32
ATOM     32  N   UNL A   1      32.305  34.347  27.732  1.00  0.00    -0.352 N 
ATOM     33  C   UNL A   1      32.952  35.144  28.644  1.00  0.00     0.251 C 
ATOM     34  H   UNL A   1      31.537  34.754  27.270  1.00  0.00     0.163 HD
ATOM     35  O   UNL A   1      32.522  36.257  28.927  1.00  0.00    -0.269 OA
BRANCH  33  36
ATOM     36  C   UNL A   1      34.151  34.612  29.319  1.00  0.00     0.039 A 
ATOM     37  C   UNL A   1      34.001  33.991  30.560  1.00  0.00     0.014 A 
ATOM     38  C   UNL A   1      35.399  34.664  28.692  1.00  0.00     0.014 A 
ATOM     39  C   UNL A   1      35.098  33.360  31.146  1.00  0.00     0.010 A 
ATOM     40  C   UNL A   1      36.472  33.977  29.243  1.00  0.00     0.010 A 
ATOM     41  C   UNL A   1      36.331  33.318  30.475  1.00  0.00    -0.014 A 
BRANCH  41  42
ATOM     42  C   UNL A   1      37.490  32.594  31.045  1.00  0.00     0.031 A 
ATOM     43  C   UNL A   1      38.106  33.064  32.332  1.00  0.00     0.074 A 
ATOM     44  C   UNL A   1      38.025  31.557  30.373  1.00  0.00     0.049 A 
ATOM     45  N   UNL A   1      39.160  32.606  32.957  1.00  0.00    -0.248 NA
ATOM     46  C   UNL A   1      37.468  34.216  32.990  1.00  0.00     0.031 C 
ATOM     47  C   UNL A   1      37.541  31.032  29.093  1.00  0.00     0.029 A 
ATOM     48  N   UNL A   1      39.101  30.761  30.674  1.00  0.00    -0.354 N 
ATOM     49  C   UNL A   1      39.320  33.421  34.068  1.00  0.00     0.074 A 
ATOM     50  C   UNL A   1      38.286  34.430  34.011  1.00  0.00     0.031 C 
ATOM     51  C   UNL A   1      38.303  29.985  28.733  1.00  0.00     0.029 A 
ATOM     52  C   UNL A   1      39.345  29.788  29.735  1.00  0.00     0.049 A 
ATOM     53  H   UNL A   1      39.646  30.876  31.485  1.00  0.00     0.167 HD
ATOM     54  C   UNL A   1      40.234  33.326  35.063  1.00  0.00     0.031 A 
ATOM     55  C   UNL A   1      40.305  28.846  29.688  1.00  0.00     0.031 A 
ATOM     56  C   UNL A   1      41.253  32.314  35.130  1.00  0.00     0.049 A 
ATOM     57  C   UNL A   1      41.309  28.765  30.803  1.00  0.00     0.074 A 
ATOM     58  C   UNL A   1      42.196  32.105  36.122  1.00  0.00     0.029 A 
ATOM     59  N   UNL A   1      41.457  31.338  34.169  1.00  0.00    -0.354 N 
ATOM     60  N   UNL A   1      41.411  29.508  31.879  1.00  0.00    -0.248 NA
ATOM     61  C   UNL A   1      42.325  27.707  30.701  1.00  0.00     0.031 C 
ATOM     62  C   UNL A   1      42.994  31.021  35.742  1.00  0.00     0.029 A 
ATOM     63  C   UNL A   1      42.519  30.530  34.535  1.00  0.00     0.049 A 
ATOM     64  H   UNL A   1      40.925  31.234  33.346  1.00  0.00     0.167 HD
ATOM     65  C   UNL A   1      42.483  28.991  32.594  1.00  0.00     0.074 A 
ATOM     66  C   UNL A   1      42.990  27.864  31.838  1.00  0.00     0.031 C 
ATOM     67  C   UNL A   1      43.002  29.411  33.772  1.00  0.00     0.031 A 
BRANCH  54  68
ATOM     68  C   UNL A   1      40.168  34.349  36.159  1.00  0.00    -0.014 A 
ATOM     69  C   UNL A   1      40.869  35.562  36.060  1.00  0.00     0.009 A 
ATOM     70  C   UNL A   1      39.371  34.115  37.290  1.00  0.00     0.009 A 
ATOM     71  C   UNL A   1      40.799  36.505  37.086  1.00  0.00     0.001 A 
ATOM     72  C   UNL A   1      39.282  35.071  38.302  1.00  0.00     0.001 A 
ATOM     73  C   UNL A   1      40.002  36.262  38.204  1.00  0.00     0.000 A 
ENDBRANCH  54  68
BRANCH  55  74
ATOM     74  C   UNL A   1      40.356  27.886  28.556  1.00  0.00    -0.014 A 
ATOM     75  C   UNL A   1      39.704  26.646  28.649  1.00  0.00     0.009 A 
ATOM     76  C   UNL A   1      41.070  28.193  27.388  1.00  0.00     0.009 A 
ATOM     77  C   UNL A   1      39.791  25.721  27.607  1.00  0.00     0.001 A 
ATOM     78  C   UNL A   1      41.133  27.276  26.337  1.00  0.00     0.001 A 
ATOM     79  C   UNL A   1      40.503  26.038  26.450  1.00  0.00     0.000 A 
ENDBRANCH  55  74
BRANCH  67  80
ATOM     80  C   UNL A   1      44.152  28.626  34.331  1.00  0.00    -0.014 A 
ATOM     81  C   UNL A   1      45.480  28.982  34.051  1.00  0.00     0.009 A 
ATOM     82  C   UNL A   1      43.901  27.538  35.183  1.00  0.00     0.009 A 
ATOM     83  C   UNL A   1      46.535  28.243  34.589  1.00  0.00     0.001 A 
ATOM     84  C   UNL A   1      44.958  26.818  35.739  1.00  0.00     0.001 A 
ATOM     85  C   UNL A   1      46.274  27.166  35.436  1.00  0.00     0.000 A 
ENDBRANCH  67  80
ENDBRANCH  41  42
ENDBRANCH  33  36
ENDBRANCH  31  32
ENDBRANCH  30  31
ENDBRANCH   1  30
TORSDOF 14
ENDMDL
