MODEL 1
REMARK VINA RESULT:      -9.5      0.000      0.000
REMARK SMILES C=CCN(CC(=O)NCCCCNC(=O)c1ccc(-c2c3nc(c(-c4ccccc4)c4ccc([nH]4)c(-c4ccccc4)c4nc(c(-c5ccccc5)c5ccc2[nH]5)C=C4)C=C3)cc1)C(=O)CSc1cccs1
REMARK SMILES IDX 9 1 8 2 6 3 7 4 5 6 4 7 3 8 2 9 1 10 64 11 65 12 66 13 67 14
REMARK SMILES IDX 68 15 69 16 72 17 70 18 71 19 10 20 11 21 12 22 13 23 14 24
REMARK SMILES IDX 15 26 16 27 17 28 63 29 18 30 62 31 19 32 20 33 21 34 56 35
REMARK SMILES IDX 22 36 61 37 55 38 57 39 23 40 60 41 54 42 53 43 24 45 46 46
REMARK SMILES IDX 31 47 45 48 32 49 35 50 44 51 58 52 33 53 34 54 43 56 59 57
REMARK SMILES IDX 36 58 25 59 26 60 30 61 27 62 29 63 28 64 47 65 48 66 52 67
REMARK SMILES IDX 49 68 51 69 50 70 37 71 38 72 42 73 39 74 41 75 40 76
REMARK H PARENT 8 5 13 25 57 44 35 55
REMARK Flexibility Score: inf
ROOT
ATOM      1  C   UNL A   1      36.253  22.225  24.911  1.00  0.00     0.116 C 
ENDROOT
BRANCH   1   2
ATOM      2  N   UNL A   1      35.687  22.683  23.662  1.00  0.00    -0.355 N 
ATOM      3  C   UNL A   1      34.573  23.438  23.442  1.00  0.00     0.239 C 
ATOM      4  O   UNL A   1      34.367  23.822  22.288  1.00  0.00    -0.273 OA
ATOM      5  H   UNL A   1      36.178  22.412  22.854  1.00  0.00     0.163 HD
BRANCH   3   6
ATOM      6  C   UNL A   1      33.649  23.863  24.594  1.00  0.00     0.219 C 
BRANCH   6   7
ATOM      7  N   UNL A   1      32.709  22.829  25.048  1.00  0.00    -0.329 N 
BRANCH   7   8
ATOM      8  C   UNL A   1      32.273  22.871  26.442  1.00  0.00     0.147 C 
BRANCH   8   9
ATOM      9  C   UNL A   1      33.442  22.806  27.377  1.00  0.00    -0.014 C 
ATOM     10  C   UNL A   1      34.037  21.654  27.720  1.00  0.00     0.006 C 
ENDBRANCH   8   9
ENDBRANCH   7   8
BRANCH   7  11
ATOM     11  C   UNL A   1      32.221  21.799  24.244  1.00  0.00     0.233 C 
ATOM     12  O   UNL A   1      31.669  22.058  23.166  1.00  0.00    -0.274 OA
BRANCH  11  13
ATOM     13  C   UNL A   1      32.224  20.351  24.719  1.00  0.00     0.175 C 
BRANCH  13  14
ATOM     14  S   UNL A   1      32.465  19.093  23.449  1.00  0.00    -0.105 SA
BRANCH  14  15
ATOM     15  C   UNL A   1      33.261  17.749  24.243  1.00  0.00     0.060 A 
ATOM     16  C   UNL A   1      34.579  17.407  24.010  1.00  0.00     0.027 A 
ATOM     17  S   UNL A   1      32.568  16.758  25.448  1.00  0.00    -0.137 S 
ATOM     18  C   UNL A   1      35.007  16.300  24.799  1.00  0.00     0.013 A 
ATOM     19  C   UNL A   1      34.001  15.840  25.617  1.00  0.00     0.066 A 
ENDBRANCH  14  15
ENDBRANCH  13  14
ENDBRANCH  11  13
ENDBRANCH   7  11
ENDBRANCH   6   7
ENDBRANCH   3   6
ENDBRANCH   1   2
BRANCH   1  20
ATOM     20  C   UNL A   1      36.348  20.702  24.981  1.00  0.00     0.023 C 
BRANCH  20  21
ATOM     21  C   UNL A   1      37.737  20.129  24.694  1.00  0.00     0.023 C 
BRANCH  21  22
ATOM     22  C   UNL A   1      38.773  20.342  25.791  1.00  0.00     0.116 C 
BRANCH  22  23
ATOM     23  N   UNL A   1      39.835  19.348  25.786  1.00  0.00    -0.352 N 
ATOM     24  C   UNL A   1      41.158  19.505  26.121  1.00  0.00     0.251 C 
ATOM     25  H   UNL A   1      39.570  18.442  25.506  1.00  0.00     0.163 HD
ATOM     26  O   UNL A   1      41.950  18.579  25.965  1.00  0.00    -0.269 OA
BRANCH  24  27
ATOM     27  C   UNL A   1      41.635  20.808  26.631  1.00  0.00     0.039 A 
ATOM     28  C   UNL A   1      42.160  21.733  25.726  1.00  0.00     0.014 A 
ATOM     29  C   UNL A   1      41.538  21.125  27.988  1.00  0.00     0.014 A 
ATOM     30  C   UNL A   1      42.524  23.004  26.172  1.00  0.00     0.010 A 
ATOM     31  C   UNL A   1      41.836  22.416  28.418  1.00  0.00     0.010 A 
ATOM     32  C   UNL A   1      42.329  23.369  27.515  1.00  0.00    -0.014 A 
BRANCH  32  33
ATOM     33  C   UNL A   1      42.636  24.741  27.992  1.00  0.00     0.031 A 
ATOM     34  C   UNL A   1      44.051  25.122  28.334  1.00  0.00     0.074 A 
ATOM     35  C   UNL A   1      41.637  25.628  28.170  1.00  0.00     0.049 A 
ATOM     36  N   UNL A   1      44.506  26.245  28.829  1.00  0.00    -0.248 NA
ATOM     37  C   UNL A   1      45.087  24.100  28.110  1.00  0.00     0.031 C 
ATOM     38  C   UNL A   1      40.219  25.378  27.901  1.00  0.00     0.029 A 
ATOM     39  N   UNL A   1      41.664  26.924  28.622  1.00  0.00    -0.354 N 
ATOM     40  C   UNL A   1      45.876  26.062  28.979  1.00  0.00     0.074 A 
ATOM     41  C   UNL A   1      46.169  24.704  28.577  1.00  0.00     0.031 C 
ATOM     42  C   UNL A   1      39.518  26.492  28.168  1.00  0.00     0.029 A 
ATOM     43  C   UNL A   1      40.426  27.519  28.665  1.00  0.00     0.049 A 
ATOM     44  H   UNL A   1      42.493  27.383  28.892  1.00  0.00     0.167 HD
ATOM     45  C   UNL A   1      46.810  26.951  29.391  1.00  0.00     0.031 A 
ATOM     46  C   UNL A   1      40.064  28.753  29.065  1.00  0.00     0.031 A 
ATOM     47  C   UNL A   1      46.525  28.304  29.786  1.00  0.00     0.049 A 
ATOM     48  C   UNL A   1      41.120  29.706  29.554  1.00  0.00     0.074 A 
ATOM     49  C   UNL A   1      47.409  29.287  30.196  1.00  0.00     0.029 A 
ATOM     50  N   UNL A   1      45.259  28.866  29.814  1.00  0.00    -0.354 N 
ATOM     51  N   UNL A   1      42.416  29.532  29.645  1.00  0.00    -0.248 NA
ATOM     52  C   UNL A   1      40.661  31.034  29.988  1.00  0.00     0.031 C 
ATOM     53  C   UNL A   1      46.672  30.434  30.510  1.00  0.00     0.029 A 
ATOM     54  C   UNL A   1      45.337  30.180  30.245  1.00  0.00     0.049 A 
ATOM     55  H   UNL A   1      44.428  28.401  29.566  1.00  0.00     0.167 HD
ATOM     56  C   UNL A   1      42.929  30.737  30.109  1.00  0.00     0.074 A 
ATOM     57  C   UNL A   1      41.807  31.638  30.266  1.00  0.00     0.031 C 
ATOM     58  C   UNL A   1      44.214  31.068  30.380  1.00  0.00     0.031 A 
BRANCH  45  59
ATOM     59  C   UNL A   1      48.240  26.488  29.424  1.00  0.00    -0.014 A 
ATOM     60  C   UNL A   1      48.775  25.883  30.572  1.00  0.00     0.009 A 
ATOM     61  C   UNL A   1      49.045  26.609  28.281  1.00  0.00     0.009 A 
ATOM     62  C   UNL A   1      50.096  25.435  30.585  1.00  0.00     0.001 A 
ATOM     63  C   UNL A   1      50.358  26.135  28.289  1.00  0.00     0.001 A 
ATOM     64  C   UNL A   1      50.885  25.555  29.442  1.00  0.00     0.000 A 
ENDBRANCH  45  59
BRANCH  46  65
ATOM     65  C   UNL A   1      38.640  29.176  29.017  1.00  0.00    -0.014 A 
ATOM     66  C   UNL A   1      38.122  29.801  27.872  1.00  0.00     0.009 A 
ATOM     67  C   UNL A   1      37.803  29.003  30.131  1.00  0.00     0.009 A 
ATOM     68  C   UNL A   1      36.810  30.280  27.857  1.00  0.00     0.001 A 
ATOM     69  C   UNL A   1      36.482  29.454  30.101  1.00  0.00     0.001 A 
ATOM     70  C   UNL A   1      35.991  30.105  28.971  1.00  0.00     0.000 A 
ENDBRANCH  46  65
BRANCH  58  71
ATOM     71  C   UNL A   1      44.481  32.479  30.822  1.00  0.00    -0.014 A 
ATOM     72  C   UNL A   1      44.725  33.503  29.895  1.00  0.00     0.009 A 
ATOM     73  C   UNL A   1      44.455  32.790  32.190  1.00  0.00     0.009 A 
ATOM     74  C   UNL A   1      44.971  34.806  30.333  1.00  0.00     0.001 A 
ATOM     75  C   UNL A   1      44.673  34.098  32.624  1.00  0.00     0.001 A 
ATOM     76  C   UNL A   1      44.941  35.102  31.695  1.00  0.00     0.000 A 
ENDBRANCH  58  71
ENDBRANCH  32  33
ENDBRANCH  24  27
ENDBRANCH  22  23
ENDBRANCH  21  22
ENDBRANCH  20  21
ENDBRANCH   1  20
TORSDOF 18
ENDMDL
MODEL 2
REMARK VINA RESULT:      -9.3      2.497      7.111
REMARK SMILES C=CCN(CC(=O)NCCCCNC(=O)c1ccc(-c2c3nc(c(-c4ccccc4)c4ccc([nH]4)c(-c4ccccc4)c4nc(c(-c5ccccc5)c5ccc2[nH]5)C=C4)C=C3)cc1)C(=O)CSc1cccs1
REMARK SMILES IDX 9 1 8 2 6 3 7 4 5 6 4 7 3 8 2 9 1 10 64 11 65 12 66 13 67 14
REMARK SMILES IDX 68 15 69 16 72 17 70 18 71 19 10 20 11 21 12 22 13 23 14 24
REMARK SMILES IDX 15 26 16 27 17 28 63 29 18 30 62 31 19 32 20 33 21 34 56 35
REMARK SMILES IDX 22 36 61 37 55 38 57 39 23 40 60 41 54 42 53 43 24 45 46 46
REMARK SMILES IDX 31 47 45 48 32 49 35 50 44 51 58 52 33 53 34 54 43 56 59 57
REMARK SMILES IDX 36 58 25 59 26 60 30 61 27 62 29 63 28 64 47 65 48 66 52 67
REMARK SMILES IDX 49 68 51 69 50 70 37 71 38 72 42 73 39 74 41 75 40 76
REMARK H PARENT 8 5 13 25 57 44 35 55
REMARK Flexibility Score: inf
ROOT
ATOM      1  C   UNL A   1      35.486  20.692  25.072  1.00  0.00     0.116 C 
ENDROOT
BRANCH   1   2
ATOM      2  N   UNL A   1      35.052  21.088  26.393  1.00  0.00    -0.355 N 
ATOM      3  C   UNL A   1      33.841  21.565  26.799  1.00  0.00     0.239 C 
ATOM      4  O   UNL A   1      33.664  21.704  28.012  1.00  0.00    -0.273 OA
ATOM      5  H   UNL A   1      35.729  21.000  27.102  1.00  0.00     0.163 HD
BRANCH   3   6
ATOM      6  C   UNL A   1      32.710  21.846  25.798  1.00  0.00     0.219 C 
BRANCH   6   7
ATOM      7  N   UNL A   1      32.503  23.267  25.480  1.00  0.00    -0.329 N 
BRANCH   7   8
ATOM      8  C   UNL A   1      33.373  23.871  24.473  1.00  0.00     0.147 C 
BRANCH   8   9
ATOM      9  C   UNL A   1      34.371  24.794  25.103  1.00  0.00    -0.014 C 
ATOM     10  C   UNL A   1      35.636  24.431  25.362  1.00  0.00     0.006 C 
ENDBRANCH   8   9
ENDBRANCH   7   8
BRANCH   7  11
ATOM     11  C   UNL A   1      31.548  24.080  26.088  1.00  0.00     0.233 C 
ATOM     12  O   UNL A   1      31.202  23.867  27.258  1.00  0.00    -0.274 OA
BRANCH  11  13
ATOM     13  C   UNL A   1      30.804  25.155  25.305  1.00  0.00     0.175 C 
BRANCH  13  14
ATOM     14  S   UNL A   1      31.149  26.864  25.766  1.00  0.00    -0.105 SA
BRANCH  14  15
ATOM     15  C   UNL A   1      32.100  27.537  24.457  1.00  0.00     0.060 A 
ATOM     16  C   UNL A   1      33.059  28.514  24.644  1.00  0.00     0.027 A 
ATOM     17  S   UNL A   1      32.039  27.033  22.827  1.00  0.00    -0.137 S 
ATOM     18  C   UNL A   1      33.719  28.873  23.434  1.00  0.00     0.013 A 
ATOM     19  C   UNL A   1      33.247  28.151  22.363  1.00  0.00     0.066 A 
ENDBRANCH  14  15
ENDBRANCH  13  14
ENDBRANCH  11  13
ENDBRANCH   7  11
ENDBRANCH   6   7
ENDBRANCH   3   6
ENDBRANCH   1   2
BRANCH   1  20
ATOM     20  C   UNL A   1      36.939  21.074  24.800  1.00  0.00     0.023 C 
BRANCH  20  21
ATOM     21  C   UNL A   1      37.946  19.932  24.951  1.00  0.00     0.023 C 
BRANCH  21  22
ATOM     22  C   UNL A   1      39.207  20.270  25.737  1.00  0.00     0.116 C 
BRANCH  22  23
ATOM     23  N   UNL A   1      40.153  19.168  25.817  1.00  0.00    -0.352 N 
ATOM     24  C   UNL A   1      41.493  19.208  26.113  1.00  0.00     0.251 C 
ATOM     25  H   UNL A   1      39.782  18.274  25.636  1.00  0.00     0.163 HD
ATOM     26  O   UNL A   1      42.174  18.189  26.041  1.00  0.00    -0.269 OA
BRANCH  24  27
ATOM     27  C   UNL A   1      42.124  20.495  26.479  1.00  0.00     0.039 A 
ATOM     28  C   UNL A   1      42.719  21.261  25.474  1.00  0.00     0.014 A 
ATOM     29  C   UNL A   1      42.104  20.954  27.798  1.00  0.00     0.014 A 
ATOM     30  C   UNL A   1      43.232  22.522  25.781  1.00  0.00     0.010 A 
ATOM     31  C   UNL A   1      42.554  22.239  28.088  1.00  0.00     0.010 A 
ATOM     32  C   UNL A   1      43.119  23.038  27.083  1.00  0.00    -0.014 A 
BRANCH  32  33
ATOM     33  C   UNL A   1      43.588  24.408  27.413  1.00  0.00     0.031 A 
ATOM     34  C   UNL A   1      42.601  25.462  27.835  1.00  0.00     0.074 A 
ATOM     35  C   UNL A   1      44.893  24.718  27.281  1.00  0.00     0.049 A 
ATOM     36  N   UNL A   1      42.808  26.727  28.097  1.00  0.00    -0.248 NA
ATOM     37  C   UNL A   1      41.194  25.044  27.959  1.00  0.00     0.031 C 
ATOM     38  C   UNL A   1      45.949  23.797  26.856  1.00  0.00     0.029 A 
ATOM     39  N   UNL A   1      45.553  25.903  27.492  1.00  0.00    -0.354 N 
ATOM     40  C   UNL A   1      41.561  27.256  28.410  1.00  0.00     0.074 A 
ATOM     41  C   UNL A   1      40.597  26.189  28.252  1.00  0.00     0.031 C 
ATOM     42  C   UNL A   1      47.126  24.444  26.864  1.00  0.00     0.029 A 
ATOM     43  C   UNL A   1      46.905  25.832  27.253  1.00  0.00     0.049 A 
ATOM     44  H   UNL A   1      45.101  26.727  27.786  1.00  0.00     0.167 HD
ATOM     45  C   UNL A   1      41.249  28.508  28.817  1.00  0.00     0.031 A 
ATOM     46  C   UNL A   1      47.857  26.780  27.332  1.00  0.00     0.031 A 
ATOM     47  C   UNL A   1      42.204  29.570  28.982  1.00  0.00     0.049 A 
ATOM     48  C   UNL A   1      47.473  28.174  27.750  1.00  0.00     0.074 A 
ATOM     49  C   UNL A   1      41.985  30.867  29.413  1.00  0.00     0.029 A 
ATOM     50  N   UNL A   1      43.561  29.456  28.729  1.00  0.00    -0.354 N 
ATOM     51  N   UNL A   1      46.297  28.643  28.088  1.00  0.00    -0.248 NA
ATOM     52  C   UNL A   1      48.555  29.168  27.807  1.00  0.00     0.031 C 
ATOM     53  C   UNL A   1      43.206  31.549  29.384  1.00  0.00     0.029 A 
ATOM     54  C   UNL A   1      44.191  30.662  28.984  1.00  0.00     0.049 A 
ATOM     55  H   UNL A   1      44.011  28.638  28.414  1.00  0.00     0.167 HD
ATOM     56  C   UNL A   1      46.504  29.973  28.432  1.00  0.00     0.074 A 
ATOM     57  C   UNL A   1      47.920  30.231  28.277  1.00  0.00     0.031 C 
ATOM     58  C   UNL A   1      45.603  30.898  28.841  1.00  0.00     0.031 A 
BRANCH  45  59
ATOM     59  C   UNL A   1      39.806  28.797  29.125  1.00  0.00    -0.014 A 
ATOM     60  C   UNL A   1      38.946  29.305  28.139  1.00  0.00     0.009 A 
ATOM     61  C   UNL A   1      39.288  28.510  30.397  1.00  0.00     0.009 A 
ATOM     62  C   UNL A   1      37.602  29.546  28.428  1.00  0.00     0.001 A 
ATOM     63  C   UNL A   1      37.937  28.728  30.675  1.00  0.00     0.001 A 
ATOM     64  C   UNL A   1      37.098  29.252  29.694  1.00  0.00     0.000 A 
ENDBRANCH  45  59
BRANCH  46  65
ATOM     65  C   UNL A   1      49.274  26.458  27.020  1.00  0.00    -0.014 A 
ATOM     66  C   UNL A   1      50.142  26.014  28.031  1.00  0.00     0.009 A 
ATOM     67  C   UNL A   1      49.781  26.637  25.724  1.00  0.00     0.009 A 
ATOM     68  C   UNL A   1      51.495  25.797  27.760  1.00  0.00     0.001 A 
ATOM     69  C   UNL A   1      51.128  26.387  25.448  1.00  0.00     0.001 A 
ATOM     70  C   UNL A   1      51.986  25.982  26.469  1.00  0.00     0.000 A 
ENDBRANCH  46  65
BRANCH  58  71
ATOM     71  C   UNL A   1      46.130  32.258  29.202  1.00  0.00    -0.014 A 
ATOM     72  C   UNL A   1      46.574  32.551  30.500  1.00  0.00     0.009 A 
ATOM     73  C   UNL A   1      46.212  33.250  28.213  1.00  0.00     0.009 A 
ATOM     74  C   UNL A   1      47.058  33.824  30.808  1.00  0.00     0.001 A 
ATOM     75  C   UNL A   1      46.723  34.513  28.517  1.00  0.00     0.001 A 
ATOM     76  C   UNL A   1      47.136  34.801  29.816  1.00  0.00     0.000 A 
ENDBRANCH  58  71
ENDBRANCH  32  33
ENDBRANCH  24  27
ENDBRANCH  22  23
ENDBRANCH  21  22
ENDBRANCH  20  21
ENDBRANCH   1  20
TORSDOF 18
ENDMDL
MODEL 3
REMARK VINA RESULT:      -9.2      4.211      9.099
REMARK SMILES C=CCN(CC(=O)NCCCCNC(=O)c1ccc(-c2c3nc(c(-c4ccccc4)c4ccc([nH]4)c(-c4ccccc4)c4nc(c(-c5ccccc5)c5ccc2[nH]5)C=C4)C=C3)cc1)C(=O)CSc1cccs1
REMARK SMILES IDX 9 1 8 2 6 3 7 4 5 6 4 7 3 8 2 9 1 10 64 11 65 12 66 13 67 14
REMARK SMILES IDX 68 15 69 16 72 17 70 18 71 19 10 20 11 21 12 22 13 23 14 24
REMARK SMILES IDX 15 26 16 27 17 28 63 29 18 30 62 31 19 32 20 33 21 34 56 35
REMARK SMILES IDX 22 36 61 37 55 38 57 39 23 40 60 41 54 42 53 43 24 45 46 46
REMARK SMILES IDX 31 47 45 48 32 49 35 50 44 51 58 52 33 53 34 54 43 56 59 57
REMARK SMILES IDX 36 58 25 59 26 60 30 61 27 62 29 63 28 64 47 65 48 66 52 67
REMARK SMILES IDX 49 68 51 69 50 70 37 71 38 72 42 73 39 74 41 75 40 76
REMARK H PARENT 8 5 13 25 57 44 35 55
REMARK Flexibility Score: inf
ROOT
ATOM      1  C   UNL A   1      31.396  27.893  26.330  1.00  0.00     0.116 C 
ENDROOT
BRANCH   1   2
ATOM      2  N   UNL A   1      31.379  26.598  26.974  1.00  0.00    -0.355 N 
ATOM      3  C   UNL A   1      31.449  25.355  26.419  1.00  0.00     0.239 C 
ATOM      4  O   UNL A   1      31.558  24.396  27.187  1.00  0.00    -0.273 OA
ATOM      5  H   UNL A   1      31.308  26.617  27.955  1.00  0.00     0.163 HD
BRANCH   3   6
ATOM      6  C   UNL A   1      31.472  25.154  24.895  1.00  0.00     0.219 C 
BRANCH   6   7
ATOM      7  N   UNL A   1      32.723  25.555  24.236  1.00  0.00    -0.329 N 
BRANCH   7   8
ATOM      8  C   UNL A   1      33.946  25.544  25.036  1.00  0.00     0.147 C 
BRANCH   8   9
ATOM      9  C   UNL A   1      34.500  24.157  25.160  1.00  0.00    -0.014 C 
ATOM     10  C   UNL A   1      35.642  23.774  24.569  1.00  0.00     0.006 C 
ENDBRANCH   8   9
ENDBRANCH   7   8
BRANCH   7  11
ATOM     11  C   UNL A   1      32.818  25.964  22.907  1.00  0.00     0.233 C 
ATOM     12  O   UNL A   1      33.864  25.777  22.269  1.00  0.00    -0.274 OA
BRANCH  11  13
ATOM     13  C   UNL A   1      31.708  26.769  22.242  1.00  0.00     0.175 C 
BRANCH  13  14
ATOM     14  S   UNL A   1      31.621  28.519  22.671  1.00  0.00    -0.105 SA
BRANCH  14  15
ATOM     15  C   UNL A   1      29.918  28.931  22.685  1.00  0.00     0.060 A 
ATOM     16  C   UNL A   1      28.938  28.080  23.160  1.00  0.00     0.027 A 
ATOM     17  S   UNL A   1      29.257  30.431  22.210  1.00  0.00    -0.137 S 
ATOM     18  C   UNL A   1      27.636  28.654  23.097  1.00  0.00     0.013 A 
ATOM     19  C   UNL A   1      27.666  29.929  22.583  1.00  0.00     0.066 A 
ENDBRANCH  14  15
ENDBRANCH  13  14
ENDBRANCH  11  13
ENDBRANCH   7  11
ENDBRANCH   6   7
ENDBRANCH   3   6
ENDBRANCH   1   2
BRANCH   1  20
ATOM     20  C   UNL A   1      32.014  28.973  27.215  1.00  0.00     0.023 C 
BRANCH  20  21
ATOM     21  C   UNL A   1      31.648  30.408  26.833  1.00  0.00     0.023 C 
BRANCH  21  22
ATOM     22  C   UNL A   1      32.792  31.414  26.892  1.00  0.00     0.116 C 
BRANCH  22  23
ATOM     23  N   UNL A   1      32.373  32.745  27.302  1.00  0.00    -0.352 N 
ATOM     24  C   UNL A   1      33.027  33.637  28.116  1.00  0.00     0.251 C 
ATOM     25  H   UNL A   1      31.505  33.046  26.948  1.00  0.00     0.163 HD
ATOM     26  O   UNL A   1      32.484  34.688  28.444  1.00  0.00    -0.269 OA
BRANCH  24  27
ATOM     27  C   UNL A   1      34.373  33.308  28.630  1.00  0.00     0.039 A 
ATOM     28  C   UNL A   1      34.481  32.620  29.841  1.00  0.00     0.014 A 
ATOM     29  C   UNL A   1      35.519  33.651  27.910  1.00  0.00     0.014 A 
ATOM     30  C   UNL A   1      35.736  32.213  30.295  1.00  0.00     0.010 A 
ATOM     31  C   UNL A   1      36.763  33.185  28.329  1.00  0.00     0.010 A 
ATOM     32  C   UNL A   1      36.884  32.459  29.523  1.00  0.00    -0.014 A 
BRANCH  32  33
ATOM     33  C   UNL A   1      38.219  31.967  29.949  1.00  0.00     0.031 A 
ATOM     34  C   UNL A   1      38.720  30.632  29.468  1.00  0.00     0.074 A 
ATOM     35  C   UNL A   1      38.957  32.695  30.810  1.00  0.00     0.049 A 
ATOM     36  N   UNL A   1      39.824  30.004  29.783  1.00  0.00    -0.248 NA
ATOM     37  C   UNL A   1      37.858  29.899  28.526  1.00  0.00     0.031 C 
ATOM     38  C   UNL A   1      38.577  33.993  31.373  1.00  0.00     0.029 A 
ATOM     39  N   UNL A   1      40.187  32.442  31.366  1.00  0.00    -0.354 N 
ATOM     40  C   UNL A   1      39.786  28.803  29.084  1.00  0.00     0.074 A 
ATOM     41  C   UNL A   1      38.527  28.766  28.374  1.00  0.00     0.031 C 
ATOM     42  C   UNL A   1      39.563  34.433  32.170  1.00  0.00     0.029 A 
ATOM     43  C   UNL A   1      40.625  33.434  32.210  1.00  0.00     0.049 A 
ATOM     44  H   UNL A   1      40.705  31.626  31.178  1.00  0.00     0.167 HD
ATOM     45  C   UNL A   1      40.724  27.830  29.019  1.00  0.00     0.031 A 
ATOM     46  C   UNL A   1      41.754  33.525  32.938  1.00  0.00     0.031 A 
ATOM     47  C   UNL A   1      41.981  27.865  29.718  1.00  0.00     0.049 A 
ATOM     48  C   UNL A   1      42.762  32.409  32.875  1.00  0.00     0.074 A 
ATOM     49  C   UNL A   1      43.006  26.936  29.695  1.00  0.00     0.029 A 
ATOM     50  N   UNL A   1      42.385  28.887  30.561  1.00  0.00    -0.354 N 
ATOM     51  N   UNL A   1      42.730  31.303  32.172  1.00  0.00    -0.248 NA
ATOM     52  C   UNL A   1      43.969  32.562  33.701  1.00  0.00     0.031 C 
ATOM     53  C   UNL A   1      44.016  27.378  30.556  1.00  0.00     0.029 A 
ATOM     54  C   UNL A   1      43.640  28.606  31.073  1.00  0.00     0.049 A 
ATOM     55  H   UNL A   1      41.858  29.693  30.766  1.00  0.00     0.167 HD
ATOM     56  C   UNL A   1      43.925  30.649  32.442  1.00  0.00     0.074 A 
ATOM     57  C   UNL A   1      44.666  31.488  33.361  1.00  0.00     0.031 C 
ATOM     58  C   UNL A   1      44.371  29.459  31.972  1.00  0.00     0.031 A 
BRANCH  45  59
ATOM     59  C   UNL A   1      40.430  26.642  28.146  1.00  0.00    -0.014 A 
ATOM     60  C   UNL A   1      39.628  25.588  28.611  1.00  0.00     0.009 A 
ATOM     61  C   UNL A   1      40.915  26.598  26.830  1.00  0.00     0.009 A 
ATOM     62  C   UNL A   1      39.340  24.500  27.785  1.00  0.00     0.001 A 
ATOM     63  C   UNL A   1      40.603  25.521  25.998  1.00  0.00     0.001 A 
ATOM     64  C   UNL A   1      39.823  24.471  26.477  1.00  0.00     0.000 A 
ENDBRANCH  45  59
BRANCH  46  65
ATOM     65  C   UNL A   1      42.012  34.716  33.789  1.00  0.00    -0.014 A 
ATOM     66  C   UNL A   1      41.564  34.750  35.119  1.00  0.00     0.009 A 
ATOM     67  C   UNL A   1      42.664  35.844  33.266  1.00  0.00     0.009 A 
ATOM     68  C   UNL A   1      41.725  35.901  35.894  1.00  0.00     0.001 A 
ATOM     69  C   UNL A   1      42.853  36.982  34.053  1.00  0.00     0.001 A 
ATOM     70  C   UNL A   1      42.371  37.016  35.360  1.00  0.00     0.000 A 
ENDBRANCH  46  65
BRANCH  58  71
ATOM     71  C   UNL A   1      45.742  29.022  32.399  1.00  0.00    -0.014 A 
ATOM     72  C   UNL A   1      45.939  28.253  33.556  1.00  0.00     0.009 A 
ATOM     73  C   UNL A   1      46.852  29.358  31.608  1.00  0.00     0.009 A 
ATOM     74  C   UNL A   1      47.225  27.860  33.931  1.00  0.00     0.001 A 
ATOM     75  C   UNL A   1      48.133  28.939  31.969  1.00  0.00     0.001 A 
ATOM     76  C   UNL A   1      48.319  28.199  33.135  1.00  0.00     0.000 A 
ENDBRANCH  58  71
ENDBRANCH  32  33
ENDBRANCH  24  27
ENDBRANCH  22  23
ENDBRANCH  21  22
ENDBRANCH  20  21
ENDBRANCH   1  20
TORSDOF 18
ENDMDL
