MODEL 1
REMARK VINA RESULT:     -12.7      0.000      0.000
REMARK SMILES O=C(CCc1cn(-c2ccc(Br)cc2)nc1-c1ccccc1)NCCCCNC(=O)c1ccc(-c2c3nc(c(-c4ccccc4)c4ccc([nH]4)c(-c4ccccc4)c4nc(c(-c5ccccc5)c5ccc2[nH]5)C=C4)C=C3)cc1
REMARK SMILES IDX 25 1 24 2 23 3 1 4 2 5 3 7 4 8 5 9 6 10 16 11 7 12 15 13
REMARK SMILES IDX 17 14 18 15 22 16 19 17 21 18 20 19 8 20 9 21 14 22 10 23
REMARK SMILES IDX 13 24 11 25 12 26 26 27 27 28 28 29 29 30 30 32 31 33 32 34
REMARK SMILES IDX 78 35 33 36 77 37 34 38 35 39 36 40 71 41 37 42 76 43 70 44
REMARK SMILES IDX 72 45 38 46 75 47 69 48 68 49 39 51 61 52 46 53 60 54 47 55
REMARK SMILES IDX 50 56 59 57 73 58 48 59 49 60 58 62 74 63 51 64 40 65 41 66
REMARK SMILES IDX 45 67 42 68 44 69 43 70 62 71 63 72 67 73 64 74 66 75 65 76
REMARK SMILES IDX 52 77 53 78 57 79 54 80 56 81 55 82
REMARK H PARENT 23 6 28 31 72 50 50 61
REMARK Flexibility Score: inf
ROOT
ATOM      1  C   UNL A   1      36.489  32.153  28.206  1.00  0.00     0.023 C 
ENDROOT
BRANCH   1   2
ATOM      2  C   UNL A   1      35.610  31.017  28.765  1.00  0.00     0.116 C 
BRANCH   2   3
ATOM      3  N   UNL A   1      34.240  30.985  28.278  1.00  0.00    -0.356 N 
ATOM      4  O   UNL A   1      34.509  29.126  26.988  1.00  0.00    -0.275 OA
ATOM      5  C   UNL A   1      33.774  30.020  27.410  1.00  0.00     0.220 C 
ATOM      6  H   UNL A   1      33.616  31.683  28.582  1.00  0.00     0.163 HD
BRANCH   5   7
ATOM      7  C   UNL A   1      32.346  30.133  26.870  1.00  0.00     0.105 C 
BRANCH   7   8
ATOM      8  C   UNL A   1      32.077  30.095  25.375  1.00  0.00     0.049 C 
BRANCH   8   9
ATOM      9  C   UNL A   1      31.294  28.943  24.847  1.00  0.00    -0.001 A 
ATOM     10  C   UNL A   1      31.413  27.657  25.312  1.00  0.00     0.119 A 
ATOM     11  C   UNL A   1      30.278  28.863  23.848  1.00  0.00     0.096 A 
ATOM     12  N   UNL A   1      30.556  26.869  24.590  1.00  0.00    -0.240 N 
ATOM     13  N   UNL A   1      29.826  27.603  23.715  1.00  0.00    -0.168 NA
BRANCH  11  14
ATOM     14  C   UNL A   1      29.640  30.000  23.192  1.00  0.00     0.002 A 
ATOM     15  C   UNL A   1      29.348  29.873  21.832  1.00  0.00     0.010 A 
ATOM     16  C   UNL A   1      29.146  31.103  23.878  1.00  0.00     0.010 A 
ATOM     17  C   UNL A   1      28.541  30.779  21.154  1.00  0.00     0.001 A 
ATOM     18  C   UNL A   1      28.343  32.035  23.200  1.00  0.00     0.001 A 
ATOM     19  C   UNL A   1      28.029  31.865  21.848  1.00  0.00     0.000 A 
ENDBRANCH  11  14
BRANCH  12  20
ATOM     20  C   UNL A   1      30.548  25.451  24.631  1.00  0.00     0.065 A 
ATOM     21  C   UNL A   1      30.666  24.803  25.872  1.00  0.00     0.029 A 
ATOM     22  C   UNL A   1      30.651  24.721  23.444  1.00  0.00     0.029 A 
ATOM     23  C   UNL A   1      31.108  23.490  25.924  1.00  0.00     0.018 A 
ATOM     24  C   UNL A   1      31.106  23.401  23.504  1.00  0.00     0.018 A 
ATOM     25  C   UNL A   1      31.403  22.826  24.742  1.00  0.00     0.018 A 
ATOM     26  Br  UNL A   1      32.351  21.204  24.855  1.00  0.00    -0.051 Br
ENDBRANCH  12  20
ENDBRANCH   8   9
ENDBRANCH   7   8
ENDBRANCH   5   7
ENDBRANCH   2   3
ENDBRANCH   1   2
BRANCH   1  27
ATOM     27  C   UNL A   1      36.706  33.454  29.007  1.00  0.00     0.023 C 
BRANCH  27  28
ATOM     28  C   UNL A   1      38.125  33.985  29.126  1.00  0.00     0.116 C 
BRANCH  28  29
ATOM     29  N   UNL A   1      38.501  34.245  30.511  1.00  0.00    -0.352 N 
ATOM     30  C   UNL A   1      38.963  33.347  31.443  1.00  0.00     0.251 C 
ATOM     31  H   UNL A   1      38.413  35.177  30.816  1.00  0.00     0.163 HD
ATOM     32  O   UNL A   1      38.819  33.574  32.651  1.00  0.00    -0.269 OA
BRANCH  30  33
ATOM     33  C   UNL A   1      39.624  32.105  31.007  1.00  0.00     0.039 A 
ATOM     34  C   UNL A   1      40.967  32.099  30.616  1.00  0.00     0.014 A 
ATOM     35  C   UNL A   1      38.888  30.926  30.975  1.00  0.00     0.014 A 
ATOM     36  C   UNL A   1      41.574  30.895  30.253  1.00  0.00     0.010 A 
ATOM     37  C   UNL A   1      39.526  29.723  30.756  1.00  0.00     0.010 A 
ATOM     38  C   UNL A   1      40.859  29.691  30.338  1.00  0.00    -0.014 A 
BRANCH  38  39
ATOM     39  C   UNL A   1      41.516  28.397  30.065  1.00  0.00     0.031 A 
ATOM     40  C   UNL A   1      42.331  27.784  31.172  1.00  0.00     0.074 A 
ATOM     41  C   UNL A   1      41.230  27.662  28.962  1.00  0.00     0.049 A 
ATOM     42  N   UNL A   1      43.465  27.162  31.085  1.00  0.00    -0.248 NA
ATOM     43  C   UNL A   1      41.830  27.882  32.553  1.00  0.00     0.031 C 
ATOM     44  C   UNL A   1      40.260  27.967  27.900  1.00  0.00     0.029 A 
ATOM     45  N   UNL A   1      41.634  26.396  28.637  1.00  0.00    -0.354 N 
ATOM     46  C   UNL A   1      43.775  26.690  32.366  1.00  0.00     0.074 A 
ATOM     47  C   UNL A   1      42.746  27.194  33.236  1.00  0.00     0.031 C 
ATOM     48  C   UNL A   1      39.939  26.834  27.242  1.00  0.00     0.029 A 
ATOM     49  C   UNL A   1      40.816  25.774  27.699  1.00  0.00     0.049 A 
ATOM     50  H   UNL A   1      42.427  25.966  29.029  1.00  0.00     0.167 HD
ATOM     51  C   UNL A   1      44.813  25.832  32.600  1.00  0.00     0.031 A 
ATOM     52  C   UNL A   1      40.818  24.471  27.334  1.00  0.00     0.031 A 
ATOM     53  C   UNL A   1      45.776  25.889  31.533  1.00  0.00     0.049 A 
ATOM     54  C   UNL A   1      42.143  23.913  27.671  1.00  0.00     0.074 A 
ATOM     55  C   UNL A   1      46.612  26.874  31.050  1.00  0.00     0.029 A 
ATOM     56  N   UNL A   1      45.741  24.909  30.573  1.00  0.00    -0.354 N 
ATOM     57  N   UNL A   1      43.251  24.288  27.103  1.00  0.00    -0.248 NA
ATOM     58  C   UNL A   1      42.302  23.148  28.892  1.00  0.00     0.031 C 
ATOM     59  C   UNL A   1      46.676  26.651  29.646  1.00  0.00     0.029 A 
ATOM     60  C   UNL A   1      45.919  25.513  29.356  1.00  0.00     0.049 A 
ATOM     61  H   UNL A   1      45.611  23.946  30.730  1.00  0.00     0.167 HD
ATOM     62  C   UNL A   1      44.198  24.224  28.112  1.00  0.00     0.074 A 
ATOM     63  C   UNL A   1      43.595  23.375  29.133  1.00  0.00     0.031 C 
ATOM     64  C   UNL A   1      45.249  25.096  28.141  1.00  0.00     0.031 A 
BRANCH  51  65
ATOM     65  C   UNL A   1      44.832  24.725  33.639  1.00  0.00    -0.014 A 
ATOM     66  C   UNL A   1      46.064  24.388  34.242  1.00  0.00     0.009 A 
ATOM     67  C   UNL A   1      43.779  23.823  33.855  1.00  0.00     0.009 A 
ATOM     68  C   UNL A   1      46.269  23.155  34.875  1.00  0.00     0.001 A 
ATOM     69  C   UNL A   1      43.975  22.593  34.503  1.00  0.00     0.001 A 
ATOM     70  C   UNL A   1      45.230  22.240  34.974  1.00  0.00     0.000 A 
ENDBRANCH  51  65
BRANCH  52  71
ATOM     71  C   UNL A   1      39.688  23.631  26.881  1.00  0.00    -0.014 A 
ATOM     72  C   UNL A   1      38.446  24.211  26.582  1.00  0.00     0.009 A 
ATOM     73  C   UNL A   1      39.888  22.290  26.501  1.00  0.00     0.009 A 
ATOM     74  C   UNL A   1      37.458  23.493  25.896  1.00  0.00     0.001 A 
ATOM     75  C   UNL A   1      38.898  21.566  25.828  1.00  0.00     0.001 A 
ATOM     76  C   UNL A   1      37.688  22.175  25.511  1.00  0.00     0.000 A 
ENDBRANCH  52  71
BRANCH  64  77
ATOM     77  C   UNL A   1      45.538  25.908  26.897  1.00  0.00    -0.014 A 
ATOM     78  C   UNL A   1      44.930  27.147  26.629  1.00  0.00     0.009 A 
ATOM     79  C   UNL A   1      46.562  25.479  26.038  1.00  0.00     0.009 A 
ATOM     80  C   UNL A   1      45.302  27.909  25.518  1.00  0.00     0.001 A 
ATOM     81  C   UNL A   1      46.958  26.256  24.947  1.00  0.00     0.001 A 
ATOM     82  C   UNL A   1      46.321  27.466  24.680  1.00  0.00     0.000 A 
ENDBRANCH  64  77
ENDBRANCH  38  39
ENDBRANCH  30  33
ENDBRANCH  28  29
ENDBRANCH  27  28
ENDBRANCH   1  27
TORSDOF 15
ENDMDL
MODEL 2
REMARK VINA RESULT:     -12.5      3.603      9.896
REMARK SMILES O=C(CCc1cn(-c2ccc(Br)cc2)nc1-c1ccccc1)NCCCCNC(=O)c1ccc(-c2c3nc(c(-c4ccccc4)c4ccc([nH]4)c(-c4ccccc4)c4nc(c(-c5ccccc5)c5ccc2[nH]5)C=C4)C=C3)cc1
REMARK SMILES IDX 25 1 24 2 23 3 1 4 2 5 3 7 4 8 5 9 6 10 16 11 7 12 15 13
REMARK SMILES IDX 17 14 18 15 22 16 19 17 21 18 20 19 8 20 9 21 14 22 10 23
REMARK SMILES IDX 13 24 11 25 12 26 26 27 27 28 28 29 29 30 30 32 31 33 32 34
REMARK SMILES IDX 78 35 33 36 77 37 34 38 35 39 36 40 71 41 37 42 76 43 70 44
REMARK SMILES IDX 72 45 38 46 75 47 69 48 68 49 39 51 61 52 46 53 60 54 47 55
REMARK SMILES IDX 50 56 59 57 73 58 48 59 49 60 58 62 74 63 51 64 40 65 41 66
REMARK SMILES IDX 45 67 42 68 44 69 43 70 62 71 63 72 67 73 64 74 66 75 65 76
REMARK SMILES IDX 52 77 53 78 57 79 54 80 56 81 55 82
REMARK H PARENT 23 6 28 31 72 50 50 61
REMARK Flexibility Score: inf
ROOT
ATOM      1  C   UNL A   1      41.708  22.561  27.043  1.00  0.00     0.023 C 
ENDROOT
BRANCH   1   2
ATOM      2  C   UNL A   1      40.188  22.620  27.289  1.00  0.00     0.116 C 
BRANCH   2   3
ATOM      3  N   UNL A   1      39.368  21.891  26.336  1.00  0.00    -0.356 N 
ATOM      4  O   UNL A   1      37.880  23.581  25.987  1.00  0.00    -0.275 OA
ATOM      5  C   UNL A   1      38.252  22.434  25.735  1.00  0.00     0.220 C 
ATOM      6  H   UNL A   1      39.621  20.968  26.107  1.00  0.00     0.163 HD
BRANCH   5   7
ATOM      7  C   UNL A   1      37.392  21.551  24.828  1.00  0.00     0.105 C 
BRANCH   7   8
ATOM      8  C   UNL A   1      36.186  20.811  25.382  1.00  0.00     0.049 C 
BRANCH   8   9
ATOM      9  C   UNL A   1      34.879  21.016  24.696  1.00  0.00    -0.001 A 
ATOM     10  C   UNL A   1      34.511  22.187  24.082  1.00  0.00     0.119 A 
ATOM     11  C   UNL A   1      33.777  20.138  24.468  1.00  0.00     0.096 A 
ATOM     12  N   UNL A   1      33.249  22.016  23.576  1.00  0.00    -0.240 N 
ATOM     13  N   UNL A   1      32.804  20.750  23.772  1.00  0.00    -0.168 NA
BRANCH  11  14
ATOM     14  C   UNL A   1      33.761  18.705  24.748  1.00  0.00     0.002 A 
ATOM     15  C   UNL A   1      32.640  18.195  25.406  1.00  0.00     0.010 A 
ATOM     16  C   UNL A   1      34.695  17.812  24.235  1.00  0.00     0.010 A 
ATOM     17  C   UNL A   1      32.399  16.830  25.521  1.00  0.00     0.001 A 
ATOM     18  C   UNL A   1      34.471  16.432  24.360  1.00  0.00     0.001 A 
ATOM     19  C   UNL A   1      33.320  15.943  24.986  1.00  0.00     0.000 A 
ENDBRANCH  11  14
BRANCH  12  20
ATOM     20  C   UNL A   1      32.446  23.065  23.060  1.00  0.00     0.065 A 
ATOM     21  C   UNL A   1      33.016  23.986  22.166  1.00  0.00     0.029 A 
ATOM     22  C   UNL A   1      31.184  23.307  23.609  1.00  0.00     0.029 A 
ATOM     23  C   UNL A   1      32.438  25.236  22.002  1.00  0.00     0.018 A 
ATOM     24  C   UNL A   1      30.612  24.572  23.447  1.00  0.00     0.018 A 
ATOM     25  C   UNL A   1      31.284  25.548  22.707  1.00  0.00     0.018 A 
ATOM     26  Br  UNL A   1      30.745  27.350  22.762  1.00  0.00    -0.051 Br
ENDBRANCH  12  20
ENDBRANCH   8   9
ENDBRANCH   7   8
ENDBRANCH   5   7
ENDBRANCH   2   3
ENDBRANCH   1   2
BRANCH   1  27
ATOM     27  C   UNL A   1      42.671  22.072  28.145  1.00  0.00     0.023 C 
BRANCH  27  28
ATOM     28  C   UNL A   1      42.936  23.001  29.318  1.00  0.00     0.116 C 
BRANCH  28  29
ATOM     29  N   UNL A   1      44.321  23.455  29.359  1.00  0.00    -0.352 N 
ATOM     30  C   UNL A   1      44.797  24.729  29.157  1.00  0.00     0.251 C 
ATOM     31  H   UNL A   1      44.997  22.768  29.554  1.00  0.00     0.163 HD
ATOM     32  O   UNL A   1      45.962  24.905  28.778  1.00  0.00    -0.269 OA
BRANCH  30  33
ATOM     33  C   UNL A   1      43.920  25.890  29.384  1.00  0.00     0.039 A 
ATOM     34  C   UNL A   1      43.928  26.576  30.602  1.00  0.00     0.014 A 
ATOM     35  C   UNL A   1      43.063  26.294  28.366  1.00  0.00     0.014 A 
ATOM     36  C   UNL A   1      43.117  27.701  30.766  1.00  0.00     0.010 A 
ATOM     37  C   UNL A   1      42.374  27.484  28.480  1.00  0.00     0.010 A 
ATOM     38  C   UNL A   1      42.344  28.175  29.695  1.00  0.00    -0.014 A 
BRANCH  38  39
ATOM     39  C   UNL A   1      41.567  29.424  29.813  1.00  0.00     0.031 A 
ATOM     40  C   UNL A   1      42.294  30.721  29.577  1.00  0.00     0.074 A 
ATOM     41  C   UNL A   1      40.214  29.426  29.902  1.00  0.00     0.049 A 
ATOM     42  N   UNL A   1      42.168  31.840  30.219  1.00  0.00    -0.248 NA
ATOM     43  C   UNL A   1      43.296  30.781  28.501  1.00  0.00     0.031 C 
ATOM     44  C   UNL A   1      39.305  28.270  29.877  1.00  0.00     0.029 A 
ATOM     45  N   UNL A   1      39.345  30.482  29.873  1.00  0.00    -0.354 N 
ATOM     46  C   UNL A   1      42.980  32.780  29.570  1.00  0.00     0.074 A 
ATOM     47  C   UNL A   1      43.676  32.059  28.538  1.00  0.00     0.031 C 
ATOM     48  C   UNL A   1      38.065  28.676  29.541  1.00  0.00     0.029 A 
ATOM     49  C   UNL A   1      38.047  30.126  29.524  1.00  0.00     0.049 A 
ATOM     50  H   UNL A   1      39.613  31.406  30.079  1.00  0.00     0.167 HD
ATOM     51  C   UNL A   1      42.945  34.112  29.873  1.00  0.00     0.031 A 
ATOM     52  C   UNL A   1      37.021  30.949  29.202  1.00  0.00     0.031 A 
ATOM     53  C   UNL A   1      42.396  34.326  31.185  1.00  0.00     0.049 A 
ATOM     54  C   UNL A   1      37.312  32.275  29.782  1.00  0.00     0.074 A 
ATOM     55  C   UNL A   1      42.798  33.979  32.458  1.00  0.00     0.029 A 
ATOM     56  N   UNL A   1      41.081  34.704  31.286  1.00  0.00    -0.354 N 
ATOM     57  N   UNL A   1      37.371  32.508  31.060  1.00  0.00    -0.248 NA
ATOM     58  C   UNL A   1      37.871  33.313  28.937  1.00  0.00     0.031 C 
ATOM     59  C   UNL A   1      41.592  33.732  33.174  1.00  0.00     0.029 A 
ATOM     60  C   UNL A   1      40.521  33.992  32.315  1.00  0.00     0.049 A 
ATOM     61  H   UNL A   1      40.622  35.366  30.722  1.00  0.00     0.167 HD
ATOM     62  C   UNL A   1      38.369  33.460  31.194  1.00  0.00     0.074 A 
ATOM     63  C   UNL A   1      38.525  34.025  29.858  1.00  0.00     0.031 C 
ATOM     64  C   UNL A   1      39.162  33.491  32.306  1.00  0.00     0.031 A 
BRANCH  51  65
ATOM     65  C   UNL A   1      43.130  35.251  28.886  1.00  0.00    -0.014 A 
ATOM     66  C   UNL A   1      43.552  36.506  29.378  1.00  0.00     0.009 A 
ATOM     67  C   UNL A   1      42.659  35.239  27.565  1.00  0.00     0.009 A 
ATOM     68  C   UNL A   1      43.357  37.691  28.654  1.00  0.00     0.001 A 
ATOM     69  C   UNL A   1      42.478  36.421  26.829  1.00  0.00     0.001 A 
ATOM     70  C   UNL A   1      42.786  37.651  27.390  1.00  0.00     0.000 A 
ENDBRANCH  51  65
BRANCH  52  71
ATOM     71  C   UNL A   1      35.895  30.712  28.274  1.00  0.00    -0.014 A 
ATOM     72  C   UNL A   1      35.798  29.502  27.568  1.00  0.00     0.009 A 
ATOM     73  C   UNL A   1      34.776  31.566  28.257  1.00  0.00     0.009 A 
ATOM     74  C   UNL A   1      34.617  29.144  26.906  1.00  0.00     0.001 A 
ATOM     75  C   UNL A   1      33.600  31.216  27.585  1.00  0.00     0.001 A 
ATOM     76  C   UNL A   1      33.515  29.996  26.923  1.00  0.00     0.000 A 
ENDBRANCH  52  71
BRANCH  64  77
ATOM     77  C   UNL A   1      38.729  32.690  33.514  1.00  0.00    -0.014 A 
ATOM     78  C   UNL A   1      39.036  31.329  33.684  1.00  0.00     0.009 A 
ATOM     79  C   UNL A   1      38.115  33.363  34.582  1.00  0.00     0.009 A 
ATOM     80  C   UNL A   1      38.703  30.653  34.862  1.00  0.00     0.001 A 
ATOM     81  C   UNL A   1      37.812  32.698  35.773  1.00  0.00     0.001 A 
ATOM     82  C   UNL A   1      38.096  31.341  35.909  1.00  0.00     0.000 A 
ENDBRANCH  64  77
ENDBRANCH  38  39
ENDBRANCH  30  33
ENDBRANCH  28  29
ENDBRANCH  27  28
ENDBRANCH   1  27
TORSDOF 15
ENDMDL
MODEL 3
REMARK VINA RESULT:     -12.4      1.742      3.563
REMARK SMILES O=C(CCc1cn(-c2ccc(Br)cc2)nc1-c1ccccc1)NCCCCNC(=O)c1ccc(-c2c3nc(c(-c4ccccc4)c4ccc([nH]4)c(-c4ccccc4)c4nc(c(-c5ccccc5)c5ccc2[nH]5)C=C4)C=C3)cc1
REMARK SMILES IDX 25 1 24 2 23 3 1 4 2 5 3 7 4 8 5 9 6 10 16 11 7 12 15 13
REMARK SMILES IDX 17 14 18 15 22 16 19 17 21 18 20 19 8 20 9 21 14 22 10 23
REMARK SMILES IDX 13 24 11 25 12 26 26 27 27 28 28 29 29 30 30 32 31 33 32 34
REMARK SMILES IDX 78 35 33 36 77 37 34 38 35 39 36 40 71 41 37 42 76 43 70 44
REMARK SMILES IDX 72 45 38 46 75 47 69 48 68 49 39 51 61 52 46 53 60 54 47 55
REMARK SMILES IDX 50 56 59 57 73 58 48 59 49 60 58 62 74 63 51 64 40 65 41 66
REMARK SMILES IDX 45 67 42 68 44 69 43 70 62 71 63 72 67 73 64 74 66 75 65 76
REMARK SMILES IDX 52 77 53 78 57 79 54 80 56 81 55 82
REMARK H PARENT 23 6 28 31 72 50 50 61
REMARK Flexibility Score: inf
ROOT
ATOM      1  C   UNL A   1      36.017  33.543  29.956  1.00  0.00     0.023 C 
ENDROOT
BRANCH   1   2
ATOM      2  C   UNL A   1      35.020  32.400  30.231  1.00  0.00     0.116 C 
BRANCH   2   3
ATOM      3  N   UNL A   1      34.292  31.908  29.072  1.00  0.00    -0.356 N 
ATOM      4  O   UNL A   1      35.582  30.054  28.773  1.00  0.00    -0.275 OA
ATOM      5  C   UNL A   1      34.627  30.745  28.414  1.00  0.00     0.220 C 
ATOM      6  H   UNL A   1      33.525  32.429  28.743  1.00  0.00     0.163 HD
BRANCH   5   7
ATOM      7  C   UNL A   1      33.867  30.366  27.140  1.00  0.00     0.105 C 
BRANCH   7   8
ATOM      8  C   UNL A   1      33.432  28.932  26.894  1.00  0.00     0.049 C 
BRANCH   8   9
ATOM      9  C   UNL A   1      32.405  28.697  25.840  1.00  0.00    -0.001 A 
ATOM     10  C   UNL A   1      31.691  29.696  25.228  1.00  0.00     0.119 A 
ATOM     11  C   UNL A   1      31.952  27.501  25.204  1.00  0.00     0.096 A 
ATOM     12  N   UNL A   1      30.837  29.112  24.330  1.00  0.00    -0.240 N 
ATOM     13  N   UNL A   1      31.015  27.769  24.278  1.00  0.00    -0.168 NA
BRANCH  11  14
ATOM     14  C   UNL A   1      32.550  26.178  25.358  1.00  0.00     0.002 A 
ATOM     15  C   UNL A   1      33.780  25.956  24.734  1.00  0.00     0.010 A 
ATOM     16  C   UNL A   1      32.063  25.212  26.230  1.00  0.00     0.010 A 
ATOM     17  C   UNL A   1      34.555  24.832  24.993  1.00  0.00     0.001 A 
ATOM     18  C   UNL A   1      32.829  24.064  26.487  1.00  0.00     0.001 A 
ATOM     19  C   UNL A   1      34.077  23.882  25.883  1.00  0.00     0.000 A 
ENDBRANCH  11  14
BRANCH  12  20
ATOM     20  C   UNL A   1      29.790  29.796  23.661  1.00  0.00     0.065 A 
ATOM     21  C   UNL A   1      29.181  29.194  22.549  1.00  0.00     0.029 A 
ATOM     22  C   UNL A   1      29.530  31.136  23.965  1.00  0.00     0.029 A 
ATOM     23  C   UNL A   1      28.506  29.977  21.624  1.00  0.00     0.018 A 
ATOM     24  C   UNL A   1      28.858  31.920  23.024  1.00  0.00     0.018 A 
ATOM     25  C   UNL A   1      28.421  31.346  21.828  1.00  0.00     0.018 A 
ATOM     26  Br  UNL A   1      27.845  32.417  20.392  1.00  0.00    -0.051 Br
ENDBRANCH  12  20
ENDBRANCH   8   9
ENDBRANCH   7   8
ENDBRANCH   5   7
ENDBRANCH   2   3
ENDBRANCH   1   2
BRANCH   1  27
ATOM     27  C   UNL A   1      37.130  33.385  28.898  1.00  0.00     0.023 C 
BRANCH  27  28
ATOM     28  C   UNL A   1      38.413  34.176  29.095  1.00  0.00     0.116 C 
BRANCH  28  29
ATOM     29  N   UNL A   1      38.694  34.426  30.504  1.00  0.00    -0.352 N 
ATOM     30  C   UNL A   1      39.077  33.517  31.461  1.00  0.00     0.251 C 
ATOM     31  H   UNL A   1      38.599  35.358  30.806  1.00  0.00     0.163 HD
ATOM     32  O   UNL A   1      38.852  33.742  32.658  1.00  0.00    -0.269 OA
BRANCH  30  33
ATOM     33  C   UNL A   1      39.750  32.268  31.067  1.00  0.00     0.039 A 
ATOM     34  C   UNL A   1      41.097  32.258  30.695  1.00  0.00     0.014 A 
ATOM     35  C   UNL A   1      39.019  31.086  31.055  1.00  0.00     0.014 A 
ATOM     36  C   UNL A   1      41.715  31.048  30.371  1.00  0.00     0.010 A 
ATOM     37  C   UNL A   1      39.665  29.880  30.876  1.00  0.00     0.010 A 
ATOM     38  C   UNL A   1      41.004  29.843  30.478  1.00  0.00    -0.014 A 
BRANCH  38  39
ATOM     39  C   UNL A   1      41.670  28.546  30.248  1.00  0.00     0.031 A 
ATOM     40  C   UNL A   1      42.446  27.950  31.391  1.00  0.00     0.074 A 
ATOM     41  C   UNL A   1      41.422  27.793  29.147  1.00  0.00     0.049 A 
ATOM     42  N   UNL A   1      43.582  27.328  31.352  1.00  0.00    -0.248 NA
ATOM     43  C   UNL A   1      41.898  28.069  32.752  1.00  0.00     0.031 C 
ATOM     44  C   UNL A   1      40.489  28.082  28.047  1.00  0.00     0.029 A 
ATOM     45  N   UNL A   1      41.837  26.524  28.855  1.00  0.00    -0.354 N 
ATOM     46  C   UNL A   1      43.848  26.875  32.651  1.00  0.00     0.074 A 
ATOM     47  C   UNL A   1      42.790  27.392  33.477  1.00  0.00     0.031 C 
ATOM     48  C   UNL A   1      40.191  26.939  27.396  1.00  0.00     0.029 A 
ATOM     49  C   UNL A   1      41.052  25.887  27.899  1.00  0.00     0.049 A 
ATOM     50  H   UNL A   1      42.616  26.099  29.281  1.00  0.00     0.167 HD
ATOM     51  C   UNL A   1      44.877  26.022  32.933  1.00  0.00     0.031 A 
ATOM     52  C   UNL A   1      41.066  24.578  27.554  1.00  0.00     0.031 A 
ATOM     53  C   UNL A   1      45.877  26.063  31.900  1.00  0.00     0.049 A 
ATOM     54  C   UNL A   1      42.379  24.026  27.945  1.00  0.00     0.074 A 
ATOM     55  C   UNL A   1      46.729  27.041  31.430  1.00  0.00     0.029 A 
ATOM     56  N   UNL A   1      45.875  25.068  30.954  1.00  0.00    -0.354 N 
ATOM     57  N   UNL A   1      43.506  24.393  27.410  1.00  0.00    -0.248 NA
ATOM     58  C   UNL A   1      42.496  23.280  29.182  1.00  0.00     0.031 C 
ATOM     59  C   UNL A   1      46.841  26.796  30.033  1.00  0.00     0.029 A 
ATOM     60  C   UNL A   1      46.095  25.654  29.734  1.00  0.00     0.049 A 
ATOM     61  H   UNL A   1      45.740  24.108  31.121  1.00  0.00     0.167 HD
ATOM     62  C   UNL A   1      44.418  24.345  28.452  1.00  0.00     0.074 A 
ATOM     63  C   UNL A   1      43.780  23.511  29.464  1.00  0.00     0.031 C 
ATOM     64  C   UNL A   1      45.467  25.218  28.504  1.00  0.00     0.031 A 
BRANCH  51  65
ATOM     65  C   UNL A   1      44.861  24.931  33.989  1.00  0.00    -0.014 A 
ATOM     66  C   UNL A   1      46.085  24.545  34.579  1.00  0.00     0.009 A 
ATOM     67  C   UNL A   1      43.770  24.082  34.235  1.00  0.00     0.009 A 
ATOM     68  C   UNL A   1      46.242  23.313  35.228  1.00  0.00     0.001 A 
ATOM     69  C   UNL A   1      43.918  22.855  34.899  1.00  0.00     0.001 A 
ATOM     70  C   UNL A   1      45.163  22.450  35.357  1.00  0.00     0.000 A 
ENDBRANCH  51  65
BRANCH  52  71
ATOM     71  C   UNL A   1      39.953  23.730  27.075  1.00  0.00    -0.014 A 
ATOM     72  C   UNL A   1      38.697  24.294  26.800  1.00  0.00     0.009 A 
ATOM     73  C   UNL A   1      40.180  22.408  26.648  1.00  0.00     0.009 A 
ATOM     74  C   UNL A   1      37.723  23.579  26.093  1.00  0.00     0.001 A 
ATOM     75  C   UNL A   1      39.202  21.688  25.953  1.00  0.00     0.001 A 
ATOM     76  C   UNL A   1      37.979  22.281  25.661  1.00  0.00     0.000 A 
ENDBRANCH  52  71
BRANCH  64  77
ATOM     77  C   UNL A   1      45.799  26.011  27.259  1.00  0.00    -0.014 A 
ATOM     78  C   UNL A   1      46.611  25.513  26.224  1.00  0.00     0.009 A 
ATOM     79  C   UNL A   1      45.157  27.242  27.055  1.00  0.00     0.009 A 
ATOM     80  C   UNL A   1      46.808  26.240  25.046  1.00  0.00     0.001 A 
ATOM     81  C   UNL A   1      45.327  27.954  25.865  1.00  0.00     0.001 A 
ATOM     82  C   UNL A   1      46.161  27.459  24.865  1.00  0.00     0.000 A 
ENDBRANCH  64  77
ENDBRANCH  38  39
ENDBRANCH  30  33
ENDBRANCH  28  29
ENDBRANCH  27  28
ENDBRANCH   1  27
TORSDOF 15
ENDMDL
