MODEL 1
REMARK VINA RESULT:     -11.1      0.000      0.000
REMARK SMILES C[C@@H]1[C@@H](C(=O)NCCCCNC(=O)c2ccc(-c3c4nc(c(-c5ccccc5)c5ccc([nH]5)c(-c5ccccc5)c5nc(c(-c6ccccc6)c6ccc3[nH]6)C=C5)C=C4)cc2)CCN1C(=O)[C@@H](C)OCc1ccccc1
REMARK SMILES IDX 7 1 6 2 4 3 5 4 3 6 1 7 2 8 64 9 62 10 63 11 65 12 66 13
REMARK SMILES IDX 67 14 68 15 69 16 70 17 71 18 72 19 76 20 73 21 75 22 74 23
REMARK SMILES IDX 8 24 9 25 10 26 11 27 12 28 13 30 14 31 15 32 61 33 16 34
REMARK SMILES IDX 60 35 17 36 18 37 19 38 54 39 20 40 59 41 53 42 55 43 21 44
REMARK SMILES IDX 58 45 52 46 51 47 22 49 44 50 29 51 43 52 30 53 33 54 42 55
REMARK SMILES IDX 56 56 31 57 32 58 41 60 57 61 34 62 23 63 24 64 28 65 25 66
REMARK SMILES IDX 27 67 26 68 45 69 46 70 50 71 47 72 49 73 48 74 35 75 36 76
REMARK SMILES IDX 40 77 37 78 39 79 38 80
REMARK H PARENT 6 5 11 29 55 48 33 59
REMARK Flexibility Score: inf
ROOT
ATOM      1  C   UNL A   1      32.326  29.873  27.203  1.00  0.00     0.116 C 
ENDROOT
BRANCH   1   2
ATOM      2  N   UNL A   1      31.756  28.549  27.352  1.00  0.00    -0.356 N 
ATOM      3  C   UNL A   1      32.207  27.372  26.819  1.00  0.00     0.225 C 
ATOM      4  O   UNL A   1      31.626  26.335  27.124  1.00  0.00    -0.275 OA
ATOM      5  H   UNL A   1      30.944  28.489  27.905  1.00  0.00     0.163 HD
BRANCH   3   6
ATOM      6  C   UNL A   1      33.376  27.427  25.847  1.00  0.00     0.102 C 
ATOM      7  C   UNL A   1      34.151  28.512  23.730  1.00  0.00     0.032 C 
ATOM      8  C   UNL A   1      32.965  27.820  24.421  1.00  0.00     0.094 C 
ATOM      9  N   UNL A   1      32.671  26.560  23.759  1.00  0.00    -0.337 N 
ATOM     10  C   UNL A   1      34.033  26.058  25.642  1.00  0.00     0.037 C 
ATOM     11  C   UNL A   1      33.279  25.448  24.468  1.00  0.00     0.121 C 
BRANCH   9  12
ATOM     12  C   UNL A   1      31.886  26.308  22.655  1.00  0.00     0.251 C 
ATOM     13  O   UNL A   1      32.347  25.605  21.742  1.00  0.00    -0.272 OA
BRANCH  12  14
ATOM     14  C   UNL A   1      30.367  26.726  22.590  1.00  0.00     0.204 C 
ATOM     15  C   UNL A   1      29.581  26.009  23.691  1.00  0.00     0.049 C 
BRANCH  14  16
ATOM     16  O   UNL A   1      29.820  27.970  22.196  1.00  0.00    -0.364 OA
BRANCH  16  17
ATOM     17  C   UNL A   1      29.081  28.798  23.078  1.00  0.00     0.196 C 
BRANCH  17  18
ATOM     18  C   UNL A   1      28.828  30.215  22.625  1.00  0.00    -0.022 A 
ATOM     19  C   UNL A   1      28.462  30.492  21.303  1.00  0.00     0.006 A 
ATOM     20  C   UNL A   1      28.959  31.284  23.526  1.00  0.00     0.006 A 
ATOM     21  C   UNL A   1      28.134  31.794  20.920  1.00  0.00     0.000 A 
ATOM     22  C   UNL A   1      28.619  32.582  23.146  1.00  0.00     0.000 A 
ATOM     23  C   UNL A   1      28.192  32.833  21.847  1.00  0.00     0.000 A 
ENDBRANCH  17  18
ENDBRANCH  16  17
ENDBRANCH  14  16
ENDBRANCH  12  14
ENDBRANCH   9  12
ENDBRANCH   3   6
ENDBRANCH   1   2
BRANCH   1  24
ATOM     24  C   UNL A   1      31.578  30.740  26.198  1.00  0.00     0.023 C 
BRANCH  24  25
ATOM     25  C   UNL A   1      31.438  32.213  26.579  1.00  0.00     0.023 C 
BRANCH  25  26
ATOM     26  C   UNL A   1      32.659  32.841  27.239  1.00  0.00     0.116 C 
BRANCH  26  27
ATOM     27  N   UNL A   1      32.408  34.179  27.753  1.00  0.00    -0.352 N 
ATOM     28  C   UNL A   1      33.083  34.893  28.715  1.00  0.00     0.251 C 
ATOM     29  H   UNL A   1      31.639  34.644  27.350  1.00  0.00     0.163 HD
ATOM     30  O   UNL A   1      32.650  35.970  29.101  1.00  0.00    -0.269 OA
BRANCH  28  31
ATOM     31  C   UNL A   1      34.315  34.334  29.310  1.00  0.00     0.039 A 
ATOM     32  C   UNL A   1      34.218  33.611  30.502  1.00  0.00     0.014 A 
ATOM     33  C   UNL A   1      35.551  34.498  28.683  1.00  0.00     0.014 A 
ATOM     34  C   UNL A   1      35.352  32.987  31.024  1.00  0.00     0.010 A 
ATOM     35  C   UNL A   1      36.659  33.805  29.157  1.00  0.00     0.010 A 
ATOM     36  C   UNL A   1      36.573  33.046  30.333  1.00  0.00    -0.014 A 
BRANCH  36  37
ATOM     37  C   UNL A   1      37.776  32.332  30.828  1.00  0.00     0.031 A 
ATOM     38  C   UNL A   1      38.551  32.884  31.993  1.00  0.00     0.074 A 
ATOM     39  C   UNL A   1      38.215  31.230  30.189  1.00  0.00     0.049 A 
ATOM     40  N   UNL A   1      39.667  32.452  32.523  1.00  0.00    -0.248 NA
ATOM     41  C   UNL A   1      38.016  34.101  32.626  1.00  0.00     0.031 C 
ATOM     42  C   UNL A   1      37.579  30.613  29.021  1.00  0.00     0.029 A 
ATOM     43  N   UNL A   1      39.306  30.434  30.430  1.00  0.00    -0.354 N 
ATOM     44  C   UNL A   1      39.978  33.355  33.531  1.00  0.00     0.074 A 
ATOM     45  C   UNL A   1      38.965  34.386  33.505  1.00  0.00     0.031 C 
ATOM     46  C   UNL A   1      38.275  29.520  28.668  1.00  0.00     0.029 A 
ATOM     47  C   UNL A   1      39.425  29.381  29.556  1.00  0.00     0.049 A 
ATOM     48  H   UNL A   1      39.945  30.602  31.161  1.00  0.00     0.167 HD
ATOM     49  C   UNL A   1      41.003  33.321  34.415  1.00  0.00     0.031 A 
ATOM     50  C   UNL A   1      40.357  28.413  29.478  1.00  0.00     0.031 A 
ATOM     51  C   UNL A   1      42.002  32.287  34.455  1.00  0.00     0.049 A 
ATOM     52  C   UNL A   1      41.485  28.395  30.471  1.00  0.00     0.074 A 
ATOM     53  C   UNL A   1      43.049  32.134  35.347  1.00  0.00     0.029 A 
ATOM     54  N   UNL A   1      42.074  31.229  33.563  1.00  0.00    -0.354 N 
ATOM     55  N   UNL A   1      41.732  29.222  31.456  1.00  0.00    -0.248 NA
ATOM     56  C   UNL A   1      42.457  27.299  30.346  1.00  0.00     0.031 C 
ATOM     57  C   UNL A   1      43.781  31.004  34.967  1.00  0.00     0.029 A 
ATOM     58  C   UNL A   1      43.158  30.425  33.874  1.00  0.00     0.049 A 
ATOM     59  H   UNL A   1      41.448  31.072  32.820  1.00  0.00     0.167 HD
ATOM     60  C   UNL A   1      42.864  28.730  32.090  1.00  0.00     0.074 A 
ATOM     61  C   UNL A   1      43.251  27.526  31.383  1.00  0.00     0.031 C 
ATOM     62  C   UNL A   1      43.525  29.228  33.164  1.00  0.00     0.031 A 
BRANCH  49  63
ATOM     63  C   UNL A   1      41.090  34.445  35.410  1.00  0.00    -0.014 A 
ATOM     64  C   UNL A   1      40.381  34.402  36.622  1.00  0.00     0.009 A 
ATOM     65  C   UNL A   1      41.904  35.556  35.140  1.00  0.00     0.009 A 
ATOM     66  C   UNL A   1      40.450  35.466  37.522  1.00  0.00     0.001 A 
ATOM     67  C   UNL A   1      41.996  36.606  36.055  1.00  0.00     0.001 A 
ATOM     68  C   UNL A   1      41.260  36.566  37.239  1.00  0.00     0.000 A 
ENDBRANCH  49  63
BRANCH  50  69
ATOM     69  C   UNL A   1      40.248  27.358  28.436  1.00  0.00    -0.014 A 
ATOM     70  C   UNL A   1      39.533  26.178  28.694  1.00  0.00     0.009 A 
ATOM     71  C   UNL A   1      40.861  27.519  27.184  1.00  0.00     0.009 A 
ATOM     72  C   UNL A   1      39.455  25.171  27.730  1.00  0.00     0.001 A 
ATOM     73  C   UNL A   1      40.759  26.522  26.211  1.00  0.00     0.001 A 
ATOM     74  C   UNL A   1      40.064  25.345  26.488  1.00  0.00     0.000 A 
ENDBRANCH  50  69
BRANCH  62  75
ATOM     75  C   UNL A   1      44.704  28.446  33.669  1.00  0.00    -0.014 A 
ATOM     76  C   UNL A   1      46.006  28.712  33.219  1.00  0.00     0.009 A 
ATOM     77  C   UNL A   1      44.509  27.454  34.642  1.00  0.00     0.009 A 
ATOM     78  C   UNL A   1      47.085  27.976  33.711  1.00  0.00     0.001 A 
ATOM     79  C   UNL A   1      45.593  26.739  35.153  1.00  0.00     0.001 A 
ATOM     80  C   UNL A   1      46.879  26.995  34.680  1.00  0.00     0.000 A 
ENDBRANCH  62  75
ENDBRANCH  36  37
ENDBRANCH  28  31
ENDBRANCH  26  27
ENDBRANCH  25  26
ENDBRANCH  24  25
ENDBRANCH   1  24
TORSDOF 16
ENDMDL
MODEL 2
REMARK VINA RESULT:     -11.1      3.673      6.323
REMARK SMILES C[C@@H]1[C@@H](C(=O)NCCCCNC(=O)c2ccc(-c3c4nc(c(-c5ccccc5)c5ccc([nH]5)c(-c5ccccc5)c5nc(c(-c6ccccc6)c6ccc3[nH]6)C=C5)C=C4)cc2)CCN1C(=O)[C@@H](C)OCc1ccccc1
REMARK SMILES IDX 7 1 6 2 4 3 5 4 3 6 1 7 2 8 64 9 62 10 63 11 65 12 66 13
REMARK SMILES IDX 67 14 68 15 69 16 70 17 71 18 72 19 76 20 73 21 75 22 74 23
REMARK SMILES IDX 8 24 9 25 10 26 11 27 12 28 13 30 14 31 15 32 61 33 16 34
REMARK SMILES IDX 60 35 17 36 18 37 19 38 54 39 20 40 59 41 53 42 55 43 21 44
REMARK SMILES IDX 58 45 52 46 51 47 22 49 44 50 29 51 43 52 30 53 33 54 42 55
REMARK SMILES IDX 56 56 31 57 32 58 41 60 57 61 34 62 23 63 24 64 28 65 25 66
REMARK SMILES IDX 27 67 26 68 45 69 46 70 50 71 47 72 49 73 48 74 35 75 36 76
REMARK SMILES IDX 40 77 37 78 39 79 38 80
REMARK H PARENT 6 5 11 29 55 48 33 59
REMARK Flexibility Score: inf
ROOT
ATOM      1  C   UNL A   1      32.032  28.264  23.752  1.00  0.00     0.116 C 
ENDROOT
BRANCH   1   2
ATOM      2  N   UNL A   1      32.782  27.658  22.670  1.00  0.00    -0.356 N 
ATOM      3  C   UNL A   1      33.123  26.341  22.515  1.00  0.00     0.225 C 
ATOM      4  O   UNL A   1      33.700  26.007  21.485  1.00  0.00    -0.275 OA
ATOM      5  H   UNL A   1      33.084  28.267  21.960  1.00  0.00     0.163 HD
BRANCH   3   6
ATOM      6  C   UNL A   1      32.800  25.379  23.649  1.00  0.00     0.102 C 
ATOM      7  C   UNL A   1      33.681  24.500  25.820  1.00  0.00     0.032 C 
ATOM      8  C   UNL A   1      34.048  24.845  24.368  1.00  0.00     0.094 C 
ATOM      9  N   UNL A   1      34.402  23.635  23.645  1.00  0.00    -0.337 N 
ATOM     10  C   UNL A   1      32.121  24.097  23.156  1.00  0.00     0.037 C 
ATOM     11  C   UNL A   1      33.274  23.143  22.873  1.00  0.00     0.121 C 
BRANCH   9  12
ATOM     12  C   UNL A   1      35.612  22.982  23.560  1.00  0.00     0.251 C 
ATOM     13  O   UNL A   1      36.284  23.101  22.524  1.00  0.00    -0.272 OA
BRANCH  12  14
ATOM     14  C   UNL A   1      36.255  22.240  24.794  1.00  0.00     0.204 C 
ATOM     15  C   UNL A   1      37.184  23.193  25.550  1.00  0.00     0.049 C 
BRANCH  14  16
ATOM     16  O   UNL A   1      35.685  21.221  25.594  1.00  0.00    -0.364 OA
BRANCH  16  17
ATOM     17  C   UNL A   1      34.314  20.869  25.528  1.00  0.00     0.196 C 
BRANCH  17  18
ATOM     18  C   UNL A   1      33.963  19.668  24.684  1.00  0.00    -0.022 A 
ATOM     19  C   UNL A   1      34.836  18.580  24.586  1.00  0.00     0.006 A 
ATOM     20  C   UNL A   1      32.749  19.624  23.979  1.00  0.00     0.006 A 
ATOM     21  C   UNL A   1      34.459  17.433  23.884  1.00  0.00     0.000 A 
ATOM     22  C   UNL A   1      32.367  18.475  23.289  1.00  0.00     0.000 A 
ATOM     23  C   UNL A   1      33.217  17.374  23.254  1.00  0.00     0.000 A 
ENDBRANCH  17  18
ENDBRANCH  16  17
ENDBRANCH  14  16
ENDBRANCH  12  14
ENDBRANCH   9  12
ENDBRANCH   3   6
ENDBRANCH   1   2
BRANCH   1  24
ATOM     24  C   UNL A   1      32.894  29.108  24.682  1.00  0.00     0.023 C 
BRANCH  24  25
ATOM     25  C   UNL A   1      34.047  28.369  25.359  1.00  0.00     0.023 C 
BRANCH  25  26
ATOM     26  C   UNL A   1      34.070  28.441  26.881  1.00  0.00     0.116 C 
BRANCH  26  27
ATOM     27  N   UNL A   1      33.747  29.762  27.398  1.00  0.00    -0.352 N 
ATOM     28  C   UNL A   1      34.512  30.626  28.147  1.00  0.00     0.251 C 
ATOM     29  H   UNL A   1      32.843  30.088  27.179  1.00  0.00     0.163 HD
ATOM     30  O   UNL A   1      34.023  31.655  28.592  1.00  0.00    -0.269 OA
BRANCH  28  31
ATOM     31  C   UNL A   1      35.919  30.284  28.444  1.00  0.00     0.039 A 
ATOM     32  C   UNL A   1      36.218  29.664  29.660  1.00  0.00     0.014 A 
ATOM     33  C   UNL A   1      36.930  30.549  27.520  1.00  0.00     0.014 A 
ATOM     34  C   UNL A   1      37.523  29.240  29.915  1.00  0.00     0.010 A 
ATOM     35  C   UNL A   1      38.209  30.049  27.738  1.00  0.00     0.010 A 
ATOM     36  C   UNL A   1      38.520  29.392  28.938  1.00  0.00    -0.014 A 
BRANCH  36  37
ATOM     37  C   UNL A   1      39.899  28.886  29.154  1.00  0.00     0.031 A 
ATOM     38  C   UNL A   1      40.943  29.786  29.755  1.00  0.00     0.074 A 
ATOM     39  C   UNL A   1      40.230  27.645  28.747  1.00  0.00     0.049 A 
ATOM     40  N   UNL A   1      42.217  29.557  29.952  1.00  0.00    -0.248 NA
ATOM     41  C   UNL A   1      40.505  31.132  30.158  1.00  0.00     0.031 C 
ATOM     42  C   UNL A   1      39.322  26.686  28.113  1.00  0.00     0.029 A 
ATOM     43  N   UNL A   1      41.429  26.980  28.801  1.00  0.00    -0.354 N 
ATOM     44  C   UNL A   1      42.733  30.734  30.477  1.00  0.00     0.074 A 
ATOM     45  C   UNL A   1      41.650  31.691  30.519  1.00  0.00     0.031 C 
ATOM     46  C   UNL A   1      39.989  25.547  27.866  1.00  0.00     0.029 A 
ATOM     47  C   UNL A   1      41.378  25.709  28.285  1.00  0.00     0.049 A 
ATOM     48  H   UNL A   1      42.250  27.377  29.175  1.00  0.00     0.167 HD
ATOM     49  C   UNL A   1      43.991  30.992  30.907  1.00  0.00     0.031 A 
ATOM     50  C   UNL A   1      42.343  24.777  28.161  1.00  0.00     0.031 A 
ATOM     51  C   UNL A   1      45.066  30.037  30.885  1.00  0.00     0.049 A 
ATOM     52  C   UNL A   1      43.731  25.086  28.647  1.00  0.00     0.074 A 
ATOM     53  C   UNL A   1      46.361  30.184  31.348  1.00  0.00     0.029 A 
ATOM     54  N   UNL A   1      44.966  28.754  30.370  1.00  0.00    -0.354 N 
ATOM     55  N   UNL A   1      44.189  26.184  29.196  1.00  0.00    -0.248 NA
ATOM     56  C   UNL A   1      44.732  24.020  28.504  1.00  0.00     0.031 C 
ATOM     57  C   UNL A   1      47.058  29.003  31.075  1.00  0.00     0.029 A 
ATOM     58  C   UNL A   1      46.182  28.103  30.491  1.00  0.00     0.049 A 
ATOM     59  H   UNL A   1      44.151  28.364  29.978  1.00  0.00     0.167 HD
ATOM     60  C   UNL A   1      45.520  25.930  29.498  1.00  0.00     0.074 A 
ATOM     61  C   UNL A   1      45.793  24.571  29.078  1.00  0.00     0.031 C 
ATOM     62  C   UNL A   1      46.435  26.748  30.073  1.00  0.00     0.031 A 
BRANCH  49  63
ATOM     63  C   UNL A   1      44.266  32.372  31.438  1.00  0.00    -0.014 A 
ATOM     64  C   UNL A   1      44.095  32.677  32.798  1.00  0.00     0.009 A 
ATOM     65  C   UNL A   1      44.717  33.378  30.569  1.00  0.00     0.009 A 
ATOM     66  C   UNL A   1      44.327  33.971  33.269  1.00  0.00     0.001 A 
ATOM     67  C   UNL A   1      44.978  34.663  31.047  1.00  0.00     0.001 A 
ATOM     68  C   UNL A   1      44.771  34.962  32.394  1.00  0.00     0.000 A 
ENDBRANCH  49  63
BRANCH  50  69
ATOM     69  C   UNL A   1      42.023  23.448  27.577  1.00  0.00    -0.014 A 
ATOM     70  C   UNL A   1      41.325  22.492  28.332  1.00  0.00     0.009 A 
ATOM     71  C   UNL A   1      42.417  23.125  26.270  1.00  0.00     0.009 A 
ATOM     72  C   UNL A   1      41.050  21.231  27.799  1.00  0.00     0.001 A 
ATOM     73  C   UNL A   1      42.117  21.872  25.729  1.00  0.00     0.001 A 
ATOM     74  C   UNL A   1      41.443  20.923  26.497  1.00  0.00     0.000 A 
ENDBRANCH  50  69
BRANCH  62  75
ATOM     75  C   UNL A   1      47.802  26.180  30.327  1.00  0.00    -0.014 A 
ATOM     76  C   UNL A   1      48.171  25.697  31.592  1.00  0.00     0.009 A 
ATOM     77  C   UNL A   1      48.719  26.088  29.268  1.00  0.00     0.009 A 
ATOM     78  C   UNL A   1      49.445  25.166  31.798  1.00  0.00     0.001 A 
ATOM     79  C   UNL A   1      49.981  25.529  29.471  1.00  0.00     0.001 A 
ATOM     80  C   UNL A   1      50.347  25.078  30.738  1.00  0.00     0.000 A 
ENDBRANCH  62  75
ENDBRANCH  36  37
ENDBRANCH  28  31
ENDBRANCH  26  27
ENDBRANCH  25  26
ENDBRANCH  24  25
ENDBRANCH   1  24
TORSDOF 16
ENDMDL
MODEL 3
REMARK VINA RESULT:     -11.0      2.441      4.582
REMARK SMILES C[C@@H]1[C@@H](C(=O)NCCCCNC(=O)c2ccc(-c3c4nc(c(-c5ccccc5)c5ccc([nH]5)c(-c5ccccc5)c5nc(c(-c6ccccc6)c6ccc3[nH]6)C=C5)C=C4)cc2)CCN1C(=O)[C@@H](C)OCc1ccccc1
REMARK SMILES IDX 7 1 6 2 4 3 5 4 3 6 1 7 2 8 64 9 62 10 63 11 65 12 66 13
REMARK SMILES IDX 67 14 68 15 69 16 70 17 71 18 72 19 76 20 73 21 75 22 74 23
REMARK SMILES IDX 8 24 9 25 10 26 11 27 12 28 13 30 14 31 15 32 61 33 16 34
REMARK SMILES IDX 60 35 17 36 18 37 19 38 54 39 20 40 59 41 53 42 55 43 21 44
REMARK SMILES IDX 58 45 52 46 51 47 22 49 44 50 29 51 43 52 30 53 33 54 42 55
REMARK SMILES IDX 56 56 31 57 32 58 41 60 57 61 34 62 23 63 24 64 28 65 25 66
REMARK SMILES IDX 27 67 26 68 45 69 46 70 50 71 47 72 49 73 48 74 35 75 36 76
REMARK SMILES IDX 40 77 37 78 39 79 38 80
REMARK H PARENT 6 5 11 29 55 48 33 59
REMARK Flexibility Score: inf
ROOT
ATOM      1  C   UNL A   1      32.692  30.121  26.243  1.00  0.00     0.116 C 
ENDROOT
BRANCH   1   2
ATOM      2  N   UNL A   1      32.295  29.296  27.367  1.00  0.00    -0.356 N 
ATOM      3  C   UNL A   1      31.834  28.007  27.345  1.00  0.00     0.225 C 
ATOM      4  O   UNL A   1      31.618  27.449  28.416  1.00  0.00    -0.275 OA
ATOM      5  H   UNL A   1      32.364  29.715  28.255  1.00  0.00     0.163 HD
BRANCH   3   6
ATOM      6  C   UNL A   1      31.578  27.361  25.991  1.00  0.00     0.102 C 
ATOM      7  C   UNL A   1      29.943  25.930  24.750  1.00  0.00     0.032 C 
ATOM      8  C   UNL A   1      30.705  26.100  26.074  1.00  0.00     0.094 C 
ATOM      9  N   UNL A   1      31.647  25.008  26.249  1.00  0.00    -0.337 N 
ATOM     10  C   UNL A   1      32.862  26.838  25.340  1.00  0.00     0.037 C 
ATOM     11  C   UNL A   1      32.982  25.404  25.836  1.00  0.00     0.121 C 
BRANCH   9  12
ATOM     12  C   UNL A   1      31.451  23.752  26.782  1.00  0.00     0.251 C 
ATOM     13  O   UNL A   1      30.337  23.469  27.249  1.00  0.00    -0.272 OA
BRANCH  12  14
ATOM     14  C   UNL A   1      32.528  22.608  26.656  1.00  0.00     0.204 C 
ATOM     15  C   UNL A   1      33.243  22.415  27.995  1.00  0.00     0.049 C 
BRANCH  14  16
ATOM     16  O   UNL A   1      32.481  21.449  25.845  1.00  0.00    -0.364 OA
BRANCH  16  17
ATOM     17  C   UNL A   1      33.349  21.247  24.743  1.00  0.00     0.196 C 
BRANCH  17  18
ATOM     18  C   UNL A   1      33.446  19.840  24.206  1.00  0.00    -0.022 A 
ATOM     19  C   UNL A   1      34.465  18.979  24.628  1.00  0.00     0.006 A 
ATOM     20  C   UNL A   1      32.512  19.370  23.268  1.00  0.00     0.006 A 
ATOM     21  C   UNL A   1      34.488  17.649  24.202  1.00  0.00     0.000 A 
ATOM     22  C   UNL A   1      32.527  18.039  22.853  1.00  0.00     0.000 A 
ATOM     23  C   UNL A   1      33.507  17.175  23.332  1.00  0.00     0.000 A 
ENDBRANCH  17  18
ENDBRANCH  16  17
ENDBRANCH  14  16
ENDBRANCH  12  14
ENDBRANCH   9  12
ENDBRANCH   3   6
ENDBRANCH   1   2
BRANCH   1  24
ATOM     24  C   UNL A   1      31.566  31.000  25.714  1.00  0.00     0.023 C 
BRANCH  24  25
ATOM     25  C   UNL A   1      31.284  32.264  26.525  1.00  0.00     0.023 C 
BRANCH  25  26
ATOM     26  C   UNL A   1      32.487  32.870  27.238  1.00  0.00     0.116 C 
BRANCH  26  27
ATOM     27  N   UNL A   1      32.278  34.254  27.638  1.00  0.00    -0.352 N 
ATOM     28  C   UNL A   1      32.953  35.013  28.565  1.00  0.00     0.251 C 
ATOM     29  H   UNL A   1      31.543  34.717  27.174  1.00  0.00     0.163 HD
ATOM     30  O   UNL A   1      32.555  36.133  28.851  1.00  0.00    -0.269 OA
BRANCH  28  31
ATOM     31  C   UNL A   1      34.139  34.452  29.244  1.00  0.00     0.039 A 
ATOM     32  C   UNL A   1      33.967  33.788  30.461  1.00  0.00     0.014 A 
ATOM     33  C   UNL A   1      35.408  34.556  28.671  1.00  0.00     0.014 A 
ATOM     34  C   UNL A   1      35.059  33.162  31.066  1.00  0.00     0.010 A 
ATOM     35  C   UNL A   1      36.474  33.859  29.228  1.00  0.00     0.010 A 
ATOM     36  C   UNL A   1      36.312  33.158  30.433  1.00  0.00    -0.014 A 
BRANCH  36  37
ATOM     37  C   UNL A   1      37.471  32.438  31.017  1.00  0.00     0.031 A 
ATOM     38  C   UNL A   1      38.092  32.929  32.296  1.00  0.00     0.074 A 
ATOM     39  C   UNL A   1      38.010  31.391  30.365  1.00  0.00     0.049 A 
ATOM     40  N   UNL A   1      39.152  32.487  32.923  1.00  0.00    -0.248 NA
ATOM     41  C   UNL A   1      37.454  34.090  32.939  1.00  0.00     0.031 C 
ATOM     42  C   UNL A   1      37.530  30.839  29.095  1.00  0.00     0.029 A 
ATOM     43  N   UNL A   1      39.090  30.604  30.680  1.00  0.00    -0.354 N 
ATOM     44  C   UNL A   1      39.320  33.328  34.015  1.00  0.00     0.074 A 
ATOM     45  C   UNL A   1      38.287  34.337  33.938  1.00  0.00     0.031 C 
ATOM     46  C   UNL A   1      38.292  29.787  28.757  1.00  0.00     0.029 A 
ATOM     47  C   UNL A   1      39.337  29.614  29.761  1.00  0.00     0.049 A 
ATOM     48  H   UNL A   1      39.636  30.736  31.489  1.00  0.00     0.167 HD
ATOM     49  C   UNL A   1      40.239  33.257  35.008  1.00  0.00     0.031 A 
ATOM     50  C   UNL A   1      40.300  28.672  29.730  1.00  0.00     0.031 A 
ATOM     51  C   UNL A   1      41.256  32.245  35.099  1.00  0.00     0.049 A 
ATOM     52  C   UNL A   1      41.307  28.613  30.843  1.00  0.00     0.074 A 
ATOM     53  C   UNL A   1      42.198  32.055  36.093  1.00  0.00     0.029 A 
ATOM     54  N   UNL A   1      41.459  31.250  34.156  1.00  0.00    -0.354 N 
ATOM     55  N   UNL A   1      41.417  29.379  31.901  1.00  0.00    -0.248 NA
ATOM     56  C   UNL A   1      42.318  27.549  30.763  1.00  0.00     0.031 C 
ATOM     57  C   UNL A   1      43.001  30.968  35.731  1.00  0.00     0.029 A 
ATOM     58  C   UNL A   1      42.523  30.450  34.538  1.00  0.00     0.049 A 
ATOM     59  H   UNL A   1      40.927  31.129  33.337  1.00  0.00     0.167 HD
ATOM     60  C   UNL A   1      42.483  28.870  32.629  1.00  0.00     0.074 A 
ATOM     61  C   UNL A   1      42.982  27.723  31.897  1.00  0.00     0.031 C 
ATOM     62  C   UNL A   1      43.003  29.310  33.801  1.00  0.00     0.031 A 
BRANCH  49  63
ATOM     63  C   UNL A   1      40.180  34.315  36.076  1.00  0.00    -0.014 A 
ATOM     64  C   UNL A   1      39.343  34.174  37.195  1.00  0.00     0.009 A 
ATOM     65  C   UNL A   1      40.982  35.461  35.969  1.00  0.00     0.009 A 
ATOM     66  C   UNL A   1      39.278  35.178  38.163  1.00  0.00     0.001 A 
ATOM     67  C   UNL A   1      40.939  36.451  36.953  1.00  0.00     0.001 A 
ATOM     68  C   UNL A   1      40.078  36.314  38.042  1.00  0.00     0.000 A 
ENDBRANCH  49  63
BRANCH  50  69
ATOM     69  C   UNL A   1      40.340  27.686  28.618  1.00  0.00    -0.014 A 
ATOM     70  C   UNL A   1      39.657  26.466  28.728  1.00  0.00     0.009 A 
ATOM     71  C   UNL A   1      41.064  27.955  27.447  1.00  0.00     0.009 A 
ATOM     72  C   UNL A   1      39.719  25.523  27.700  1.00  0.00     0.001 A 
ATOM     73  C   UNL A   1      41.102  27.022  26.407  1.00  0.00     0.001 A 
ATOM     74  C   UNL A   1      40.437  25.804  26.538  1.00  0.00     0.000 A 
ENDBRANCH  50  69
BRANCH  62  75
ATOM     75  C   UNL A   1      44.138  28.521  34.388  1.00  0.00    -0.014 A 
ATOM     76  C   UNL A   1      45.475  28.848  34.115  1.00  0.00     0.009 A 
ATOM     77  C   UNL A   1      43.862  27.459  35.264  1.00  0.00     0.009 A 
ATOM     78  C   UNL A   1      46.512  28.104  34.681  1.00  0.00     0.001 A 
ATOM     79  C   UNL A   1      44.901  26.736  35.851  1.00  0.00     0.001 A 
ATOM     80  C   UNL A   1      46.224  27.053  35.551  1.00  0.00     0.000 A 
ENDBRANCH  62  75
ENDBRANCH  36  37
ENDBRANCH  28  31
ENDBRANCH  26  27
ENDBRANCH  25  26
ENDBRANCH  24  25
ENDBRANCH   1  24
TORSDOF 16
ENDMDL
