MODEL 1
REMARK VINA RESULT:     -12.1      0.000      0.000
REMARK SMILES Cc1ccc(S(=O)(=O)Nc2ccccn2)cc1C(=O)NCCCCNC(=O)c1ccc(-c2c3nc(c(-c4ccccc4)c4ccc([nH]4)c(-c4ccccc4)c4nc(c(-c5ccccc5)c5ccc2[nH]5)C=C4)C=C3)cc1
REMARK SMILES IDX 22 1 21 2 20 3 18 4 19 5 17 7 1 8 2 9 3 10 4 11 16 12 5 13
REMARK SMILES IDX 6 14 7 15 8 16 9 17 10 19 11 20 15 21 12 22 14 23 13 24
REMARK SMILES IDX 23 25 24 26 25 27 26 28 27 30 28 31 29 32 75 33 30 34 74 35
REMARK SMILES IDX 31 36 32 37 33 38 68 39 34 40 73 41 67 42 69 43 35 44 72 45
REMARK SMILES IDX 66 46 65 47 36 49 58 50 43 51 57 52 44 53 47 54 56 55 70 56
REMARK SMILES IDX 45 57 46 58 55 60 71 61 48 62 37 63 38 64 42 65 39 66 41 67
REMARK SMILES IDX 40 68 59 69 60 70 64 71 61 72 63 73 62 74 49 75 50 76 54 77
REMARK SMILES IDX 51 78 53 79 52 80
REMARK H PARENT 20 6 9 18 25 29 69 48 47 59
REMARK Flexibility Score: inf
ROOT
ATOM      1  C   UNL A   1      37.829  21.743  25.222  1.00  0.00     0.023 C 
ENDROOT
BRANCH   1   2
ATOM      2  C   UNL A   1      36.322  21.935  25.444  1.00  0.00     0.116 C 
BRANCH   2   3
ATOM      3  N   UNL A   1      35.634  22.290  24.226  1.00  0.00    -0.352 N 
ATOM      4  C   UNL A   1      34.841  23.300  23.764  1.00  0.00     0.251 C 
ATOM      5  O   UNL A   1      34.605  23.172  22.553  1.00  0.00    -0.269 OA
ATOM      6  H   UNL A   1      35.780  21.610  23.528  1.00  0.00     0.163 HD
BRANCH   4   7
ATOM      7  C   UNL A   1      34.217  24.487  24.479  1.00  0.00     0.044 A 
ATOM      8  C   UNL A   1      33.122  23.488  26.624  1.00  0.00     0.045 C 
ATOM      9  C   UNL A   1      33.490  24.591  25.687  1.00  0.00    -0.038 A 
ATOM     10  C   UNL A   1      32.940  25.843  26.067  1.00  0.00     0.005 A 
ATOM     11  C   UNL A   1      32.948  26.939  25.219  1.00  0.00     0.022 A 
ATOM     12  C   UNL A   1      34.287  25.670  23.682  1.00  0.00     0.036 A 
ATOM     13  C   UNL A   1      33.571  26.831  23.988  1.00  0.00     0.088 A 
BRANCH  13  14
ATOM     14  S   UNL A   1      33.184  28.118  22.813  1.00  0.00     0.263 S 
ATOM     15  O   UNL A   1      32.969  29.313  23.608  1.00  0.00    -0.201 OA
ATOM     16  O   UNL A   1      34.221  28.072  21.817  1.00  0.00    -0.201 OA
BRANCH  14  17
ATOM     17  N   UNL A   1      31.779  27.764  22.024  1.00  0.00    -0.263 N 
ATOM     18  H   UNL A   1      31.856  27.353  21.133  1.00  0.00     0.182 HD
BRANCH  17  19
ATOM     19  C   UNL A   1      30.489  27.995  22.511  1.00  0.00     0.139 A 
ATOM     20  C   UNL A   1      29.769  27.163  23.352  1.00  0.00     0.048 A 
ATOM     21  N   UNL A   1      30.010  29.133  21.980  1.00  0.00    -0.239 NA
ATOM     22  C   UNL A   1      28.429  27.476  23.573  1.00  0.00     0.005 A 
ATOM     23  C   UNL A   1      28.715  29.418  22.225  1.00  0.00     0.113 A 
ATOM     24  C   UNL A   1      27.886  28.617  22.992  1.00  0.00     0.020 A 
ENDBRANCH  17  19
ENDBRANCH  14  17
ENDBRANCH  13  14
ENDBRANCH   4   7
ENDBRANCH   2   3
ENDBRANCH   1   2
BRANCH   1  25
ATOM     25  C   UNL A   1      38.745  22.710  25.968  1.00  0.00     0.023 C 
BRANCH  25  26
ATOM     26  C   UNL A   1      39.776  22.036  26.857  1.00  0.00     0.116 C 
BRANCH  26  27
ATOM     27  N   UNL A   1      40.555  20.978  26.224  1.00  0.00    -0.352 N 
ATOM     28  C   UNL A   1      41.932  20.856  26.101  1.00  0.00     0.251 C 
ATOM     29  H   UNL A   1      40.030  20.246  25.828  1.00  0.00     0.163 HD
ATOM     30  O   UNL A   1      42.408  19.925  25.457  1.00  0.00    -0.269 OA
BRANCH  28  31
ATOM     31  C   UNL A   1      42.829  21.745  26.887  1.00  0.00     0.039 A 
ATOM     32  C   UNL A   1      42.690  21.718  28.280  1.00  0.00     0.014 A 
ATOM     33  C   UNL A   1      43.511  22.791  26.278  1.00  0.00     0.014 A 
ATOM     34  C   UNL A   1      42.923  22.881  29.005  1.00  0.00     0.010 A 
ATOM     35  C   UNL A   1      43.604  23.984  26.962  1.00  0.00     0.010 A 
ATOM     36  C   UNL A   1      43.223  24.046  28.305  1.00  0.00    -0.014 A 
BRANCH  36  37
ATOM     37  C   UNL A   1      43.001  25.381  28.844  1.00  0.00     0.031 A 
ATOM     38  C   UNL A   1      41.848  26.182  28.396  1.00  0.00     0.074 A 
ATOM     39  C   UNL A   1      43.816  25.853  29.814  1.00  0.00     0.049 A 
ATOM     40  N   UNL A   1      41.779  27.467  28.479  1.00  0.00    -0.248 NA
ATOM     41  C   UNL A   1      40.689  25.586  27.742  1.00  0.00     0.031 C 
ATOM     42  C   UNL A   1      43.602  27.009  30.681  1.00  0.00     0.029 A 
ATOM     43  N   UNL A   1      45.116  25.478  30.102  1.00  0.00    -0.354 N 
ATOM     44  C   UNL A   1      40.478  27.824  28.212  1.00  0.00     0.074 A 
ATOM     45  C   UNL A   1      39.879  26.641  27.640  1.00  0.00     0.031 C 
ATOM     46  C   UNL A   1      44.779  27.386  31.208  1.00  0.00     0.029 A 
ATOM     47  C   UNL A   1      45.817  26.585  30.578  1.00  0.00     0.049 A 
ATOM     48  H   UNL A   1      45.487  24.572  29.989  1.00  0.00     0.167 HD
ATOM     49  C   UNL A   1      40.013  29.024  28.660  1.00  0.00     0.031 A 
ATOM     50  C   UNL A   1      46.874  27.105  29.882  1.00  0.00     0.031 A 
ATOM     51  C   UNL A   1      41.091  29.843  29.218  1.00  0.00     0.049 A 
ATOM     52  C   UNL A   1      46.624  28.509  29.358  1.00  0.00     0.074 A 
ATOM     53  C   UNL A   1      41.476  30.145  30.514  1.00  0.00     0.029 A 
ATOM     54  N   UNL A   1      42.143  30.237  28.395  1.00  0.00    -0.354 N 
ATOM     55  N   UNL A   1      45.445  29.063  29.289  1.00  0.00    -0.248 NA
ATOM     56  C   UNL A   1      47.673  29.382  28.832  1.00  0.00     0.031 C 
ATOM     57  C   UNL A   1      42.810  30.635  30.473  1.00  0.00     0.029 A 
ATOM     58  C   UNL A   1      43.218  30.665  29.151  1.00  0.00     0.049 A 
ATOM     59  H   UNL A   1      42.124  30.213  27.412  1.00  0.00     0.167 HD
ATOM     60  C   UNL A   1      45.546  30.305  28.723  1.00  0.00     0.074 A 
ATOM     61  C   UNL A   1      46.965  30.466  28.466  1.00  0.00     0.031 C 
ATOM     62  C   UNL A   1      44.452  31.089  28.500  1.00  0.00     0.031 A 
BRANCH  49  63
ATOM     63  C   UNL A   1      38.542  29.319  28.878  1.00  0.00    -0.014 A 
ATOM     64  C   UNL A   1      37.814  29.986  27.874  1.00  0.00     0.009 A 
ATOM     65  C   UNL A   1      37.834  29.058  30.063  1.00  0.00     0.009 A 
ATOM     66  C   UNL A   1      36.504  30.445  28.080  1.00  0.00     0.001 A 
ATOM     67  C   UNL A   1      36.534  29.534  30.288  1.00  0.00     0.001 A 
ATOM     68  C   UNL A   1      35.872  30.241  29.299  1.00  0.00     0.000 A 
ENDBRANCH  49  63
BRANCH  50  69
ATOM     69  C   UNL A   1      47.689  26.074  29.179  1.00  0.00    -0.014 A 
ATOM     70  C   UNL A   1      47.392  25.799  27.829  1.00  0.00     0.009 A 
ATOM     71  C   UNL A   1      48.932  25.668  29.686  1.00  0.00     0.009 A 
ATOM     72  C   UNL A   1      48.358  25.251  26.980  1.00  0.00     0.001 A 
ATOM     73  C   UNL A   1      49.892  25.108  28.833  1.00  0.00     0.001 A 
ATOM     74  C   UNL A   1      49.619  24.936  27.476  1.00  0.00     0.000 A 
ENDBRANCH  50  69
BRANCH  62  75
ATOM     75  C   UNL A   1      44.429  32.363  27.695  1.00  0.00    -0.014 A 
ATOM     76  C   UNL A   1      44.803  33.618  28.193  1.00  0.00     0.009 A 
ATOM     77  C   UNL A   1      44.155  32.286  26.310  1.00  0.00     0.009 A 
ATOM     78  C   UNL A   1      44.859  34.744  27.360  1.00  0.00     0.001 A 
ATOM     79  C   UNL A   1      44.254  33.396  25.468  1.00  0.00     0.001 A 
ATOM     80  C   UNL A   1      44.597  34.631  25.997  1.00  0.00     0.000 A 
ENDBRANCH  62  75
ENDBRANCH  36  37
ENDBRANCH  28  31
ENDBRANCH  26  27
ENDBRANCH  25  26
ENDBRANCH   1  25
TORSDOF 14
ENDMDL
MODEL 2
REMARK VINA RESULT:     -12.1      1.517      2.165
REMARK SMILES Cc1ccc(S(=O)(=O)Nc2ccccn2)cc1C(=O)NCCCCNC(=O)c1ccc(-c2c3nc(c(-c4ccccc4)c4ccc([nH]4)c(-c4ccccc4)c4nc(c(-c5ccccc5)c5ccc2[nH]5)C=C4)C=C3)cc1
REMARK SMILES IDX 22 1 21 2 20 3 18 4 19 5 17 7 1 8 2 9 3 10 4 11 16 12 5 13
REMARK SMILES IDX 6 14 7 15 8 16 9 17 10 19 11 20 15 21 12 22 14 23 13 24
REMARK SMILES IDX 23 25 24 26 25 27 26 28 27 30 28 31 29 32 75 33 30 34 74 35
REMARK SMILES IDX 31 36 32 37 33 38 68 39 34 40 73 41 67 42 69 43 35 44 72 45
REMARK SMILES IDX 66 46 65 47 36 49 58 50 43 51 57 52 44 53 47 54 56 55 70 56
REMARK SMILES IDX 45 57 46 58 55 60 71 61 48 62 37 63 38 64 42 65 39 66 41 67
REMARK SMILES IDX 40 68 59 69 60 70 64 71 61 72 63 73 62 74 49 75 50 76 54 77
REMARK SMILES IDX 51 78 53 79 52 80
REMARK H PARENT 20 6 9 18 25 29 69 48 47 59
REMARK Flexibility Score: inf
ROOT
ATOM      1  C   UNL A   1      37.514  22.930  25.973  1.00  0.00     0.023 C 
ENDROOT
BRANCH   1   2
ATOM      2  C   UNL A   1      36.766  21.614  25.713  1.00  0.00     0.116 C 
BRANCH   2   3
ATOM      3  N   UNL A   1      35.560  21.510  26.500  1.00  0.00    -0.352 N 
ATOM      4  C   UNL A   1      34.229  21.286  26.295  1.00  0.00     0.251 C 
ATOM      5  O   UNL A   1      33.620  21.175  27.370  1.00  0.00    -0.269 OA
ATOM      6  H   UNL A   1      35.753  21.636  27.457  1.00  0.00     0.163 HD
BRANCH   4   7
ATOM      7  C   UNL A   1      33.419  21.179  25.014  1.00  0.00     0.044 A 
ATOM      8  C   UNL A   1      33.038  18.624  24.664  1.00  0.00     0.045 C 
ATOM      9  C   UNL A   1      32.903  20.068  24.309  1.00  0.00    -0.038 A 
ATOM     10  C   UNL A   1      32.249  20.271  23.065  1.00  0.00     0.005 A 
ATOM     11  C   UNL A   1      32.237  21.503  22.432  1.00  0.00     0.022 A 
ATOM     12  C   UNL A   1      33.295  22.448  24.369  1.00  0.00     0.036 A 
ATOM     13  C   UNL A   1      32.823  22.588  23.061  1.00  0.00     0.088 A 
BRANCH  13  14
ATOM     14  S   UNL A   1      33.130  24.008  22.024  1.00  0.00     0.263 S 
ATOM     15  O   UNL A   1      34.141  24.781  22.720  1.00  0.00    -0.201 OA
ATOM     16  O   UNL A   1      33.376  23.491  20.704  1.00  0.00    -0.201 OA
BRANCH  14  17
ATOM     17  N   UNL A   1      31.767  24.930  21.906  1.00  0.00    -0.263 N 
ATOM     18  H   UNL A   1      31.142  24.717  21.176  1.00  0.00     0.182 HD
BRANCH  17  19
ATOM     19  C   UNL A   1      31.421  25.987  22.754  1.00  0.00     0.139 A 
ATOM     20  C   UNL A   1      30.709  25.889  23.937  1.00  0.00     0.048 A 
ATOM     21  N   UNL A   1      31.828  27.146  22.208  1.00  0.00    -0.239 NA
ATOM     22  C   UNL A   1      30.300  27.077  24.542  1.00  0.00     0.005 A 
ATOM     23  C   UNL A   1      31.431  28.278  22.824  1.00  0.00     0.113 A 
ATOM     24  C   UNL A   1      30.657  28.295  23.972  1.00  0.00     0.020 A 
ENDBRANCH  17  19
ENDBRANCH  14  17
ENDBRANCH  13  14
ENDBRANCH   4   7
ENDBRANCH   2   3
ENDBRANCH   1   2
BRANCH   1  25
ATOM     25  C   UNL A   1      39.029  22.887  25.787  1.00  0.00     0.023 C 
BRANCH  25  26
ATOM     26  C   UNL A   1      39.754  21.975  26.761  1.00  0.00     0.116 C 
BRANCH  26  27
ATOM     27  N   UNL A   1      40.551  20.915  26.155  1.00  0.00    -0.352 N 
ATOM     28  C   UNL A   1      41.931  20.787  26.086  1.00  0.00     0.251 C 
ATOM     29  H   UNL A   1      40.038  20.188  25.736  1.00  0.00     0.163 HD
ATOM     30  O   UNL A   1      42.427  19.856  25.458  1.00  0.00    -0.269 OA
BRANCH  28  31
ATOM     31  C   UNL A   1      42.801  21.668  26.911  1.00  0.00     0.039 A 
ATOM     32  C   UNL A   1      42.592  21.653  28.296  1.00  0.00     0.014 A 
ATOM     33  C   UNL A   1      43.529  22.699  26.331  1.00  0.00     0.014 A 
ATOM     34  C   UNL A   1      42.806  22.817  29.024  1.00  0.00     0.010 A 
ATOM     35  C   UNL A   1      43.607  23.895  27.011  1.00  0.00     0.010 A 
ATOM     36  C   UNL A   1      43.159  23.972  28.332  1.00  0.00    -0.014 A 
BRANCH  36  37
ATOM     37  C   UNL A   1      42.931  25.314  28.851  1.00  0.00     0.031 A 
ATOM     38  C   UNL A   1      41.772  26.102  28.394  1.00  0.00     0.074 A 
ATOM     39  C   UNL A   1      43.745  25.806  29.812  1.00  0.00     0.049 A 
ATOM     40  N   UNL A   1      41.696  27.388  28.456  1.00  0.00    -0.248 NA
ATOM     41  C   UNL A   1      40.615  25.489  27.751  1.00  0.00     0.031 C 
ATOM     42  C   UNL A   1      43.526  26.974  30.661  1.00  0.00     0.029 A 
ATOM     43  N   UNL A   1      45.048  25.443  30.102  1.00  0.00    -0.354 N 
ATOM     44  C   UNL A   1      40.393  27.733  28.186  1.00  0.00     0.074 A 
ATOM     45  C   UNL A   1      39.799  26.539  27.634  1.00  0.00     0.031 C 
ATOM     46  C   UNL A   1      44.703  27.366  31.180  1.00  0.00     0.029 A 
ATOM     47  C   UNL A   1      45.744  26.561  30.559  1.00  0.00     0.049 A 
ATOM     48  H   UNL A   1      45.424  24.537  30.003  1.00  0.00     0.167 HD
ATOM     49  C   UNL A   1      39.922  28.937  28.617  1.00  0.00     0.031 A 
ATOM     50  C   UNL A   1      46.796  27.076  29.853  1.00  0.00     0.031 A 
ATOM     51  C   UNL A   1      40.997  29.771  29.160  1.00  0.00     0.049 A 
ATOM     52  C   UNL A   1      46.538  28.470  29.308  1.00  0.00     0.074 A 
ATOM     53  C   UNL A   1      41.383  30.096  30.450  1.00  0.00     0.029 A 
ATOM     54  N   UNL A   1      42.045  30.158  28.329  1.00  0.00    -0.354 N 
ATOM     55  N   UNL A   1      45.355  29.016  29.233  1.00  0.00    -0.248 NA
ATOM     56  C   UNL A   1      47.580  29.340  28.766  1.00  0.00     0.031 C 
ATOM     57  C   UNL A   1      42.714  30.592  30.398  1.00  0.00     0.029 A 
ATOM     58  C   UNL A   1      43.119  30.603  29.075  1.00  0.00     0.049 A 
ATOM     59  H   UNL A   1      42.024  30.118  27.345  1.00  0.00     0.167 HD
ATOM     60  C   UNL A   1      45.449  30.250  28.648  1.00  0.00     0.074 A 
ATOM     61  C   UNL A   1      46.866  30.415  28.385  1.00  0.00     0.031 C 
ATOM     62  C   UNL A   1      44.349  31.024  28.414  1.00  0.00     0.031 A 
BRANCH  49  63
ATOM     63  C   UNL A   1      38.450  29.228  28.833  1.00  0.00    -0.014 A 
ATOM     64  C   UNL A   1      37.670  29.692  27.757  1.00  0.00     0.009 A 
ATOM     65  C   UNL A   1      37.787  29.158  30.071  1.00  0.00     0.009 A 
ATOM     66  C   UNL A   1      36.354  30.145  27.927  1.00  0.00     0.001 A 
ATOM     67  C   UNL A   1      36.481  29.633  30.257  1.00  0.00     0.001 A 
ATOM     68  C   UNL A   1      35.767  30.140  29.185  1.00  0.00     0.000 A 
ENDBRANCH  49  63
BRANCH  50  69
ATOM     69  C   UNL A   1      47.616  26.038  29.164  1.00  0.00    -0.014 A 
ATOM     70  C   UNL A   1      47.282  25.701  27.837  1.00  0.00     0.009 A 
ATOM     71  C   UNL A   1      48.885  25.685  29.645  1.00  0.00     0.009 A 
ATOM     72  C   UNL A   1      48.234  25.144  26.978  1.00  0.00     0.001 A 
ATOM     73  C   UNL A   1      49.832  25.116  28.782  1.00  0.00     0.001 A 
ATOM     74  C   UNL A   1      49.518  24.882  27.443  1.00  0.00     0.000 A 
ENDBRANCH  50  69
BRANCH  62  75
ATOM     75  C   UNL A   1      44.317  32.285  27.589  1.00  0.00    -0.014 A 
ATOM     76  C   UNL A   1      44.458  32.320  26.196  1.00  0.00     0.009 A 
ATOM     77  C   UNL A   1      43.982  33.503  28.224  1.00  0.00     0.009 A 
ATOM     78  C   UNL A   1      44.313  33.517  25.480  1.00  0.00     0.001 A 
ATOM     79  C   UNL A   1      43.791  34.688  27.510  1.00  0.00     0.001 A 
ATOM     80  C   UNL A   1      43.968  34.696  26.134  1.00  0.00     0.000 A 
ENDBRANCH  62  75
ENDBRANCH  36  37
ENDBRANCH  28  31
ENDBRANCH  26  27
ENDBRANCH  25  26
ENDBRANCH   1  25
TORSDOF 14
ENDMDL
MODEL 3
REMARK VINA RESULT:     -11.9      2.862      4.411
REMARK SMILES Cc1ccc(S(=O)(=O)Nc2ccccn2)cc1C(=O)NCCCCNC(=O)c1ccc(-c2c3nc(c(-c4ccccc4)c4ccc([nH]4)c(-c4ccccc4)c4nc(c(-c5ccccc5)c5ccc2[nH]5)C=C4)C=C3)cc1
REMARK SMILES IDX 22 1 21 2 20 3 18 4 19 5 17 7 1 8 2 9 3 10 4 11 16 12 5 13
REMARK SMILES IDX 6 14 7 15 8 16 9 17 10 19 11 20 15 21 12 22 14 23 13 24
REMARK SMILES IDX 23 25 24 26 25 27 26 28 27 30 28 31 29 32 75 33 30 34 74 35
REMARK SMILES IDX 31 36 32 37 33 38 68 39 34 40 73 41 67 42 69 43 35 44 72 45
REMARK SMILES IDX 66 46 65 47 36 49 58 50 43 51 57 52 44 53 47 54 56 55 70 56
REMARK SMILES IDX 45 57 46 58 55 60 71 61 48 62 37 63 38 64 42 65 39 66 41 67
REMARK SMILES IDX 40 68 59 69 60 70 64 71 61 72 63 73 62 74 49 75 50 76 54 77
REMARK SMILES IDX 51 78 53 79 52 80
REMARK H PARENT 20 6 9 18 25 29 69 48 47 59
REMARK Flexibility Score: inf
ROOT
ATOM      1  C   UNL A   1      37.699  21.047  25.427  1.00  0.00     0.023 C 
ENDROOT
BRANCH   1   2
ATOM      2  C   UNL A   1      36.664  22.170  25.587  1.00  0.00     0.116 C 
BRANCH   2   3
ATOM      3  N   UNL A   1      35.532  21.757  26.382  1.00  0.00    -0.352 N 
ATOM      4  C   UNL A   1      34.246  21.345  26.182  1.00  0.00     0.251 C 
ATOM      5  O   UNL A   1      33.718  20.984  27.245  1.00  0.00    -0.269 OA
ATOM      6  H   UNL A   1      35.750  21.778  27.342  1.00  0.00     0.163 HD
BRANCH   4   7
ATOM      7  C   UNL A   1      33.401  21.285  24.921  1.00  0.00     0.044 A 
ATOM      8  C   UNL A   1      33.002  18.745  24.492  1.00  0.00     0.045 C 
ATOM      9  C   UNL A   1      32.862  20.201  24.192  1.00  0.00    -0.038 A 
ATOM     10  C   UNL A   1      32.175  20.449  22.975  1.00  0.00     0.005 A 
ATOM     11  C   UNL A   1      32.149  21.702  22.386  1.00  0.00     0.022 A 
ATOM     12  C   UNL A   1      33.263  22.576  24.325  1.00  0.00     0.036 A 
ATOM     13  C   UNL A   1      32.756  22.763  23.036  1.00  0.00     0.088 A 
BRANCH  13  14
ATOM     14  S   UNL A   1      33.038  24.218  22.041  1.00  0.00     0.263 S 
ATOM     15  O   UNL A   1      34.045  24.982  22.754  1.00  0.00    -0.201 OA
ATOM     16  O   UNL A   1      33.281  23.746  20.705  1.00  0.00    -0.201 OA
BRANCH  14  17
ATOM     17  N   UNL A   1      31.663  25.127  21.961  1.00  0.00    -0.263 N 
ATOM     18  H   UNL A   1      30.968  24.835  21.329  1.00  0.00     0.182 HD
BRANCH  17  19
ATOM     19  C   UNL A   1      31.399  26.275  22.714  1.00  0.00     0.139 A 
ATOM     20  C   UNL A   1      31.390  26.365  24.096  1.00  0.00     0.048 A 
ATOM     21  N   UNL A   1      31.081  27.286  21.887  1.00  0.00    -0.239 NA
ATOM     22  C   UNL A   1      30.917  27.549  24.660  1.00  0.00     0.005 A 
ATOM     23  C   UNL A   1      30.643  28.424  22.462  1.00  0.00     0.113 A 
ATOM     24  C   UNL A   1      30.526  28.596  23.831  1.00  0.00     0.020 A 
ENDBRANCH  17  19
ENDBRANCH  14  17
ENDBRANCH  13  14
ENDBRANCH   4   7
ENDBRANCH   2   3
ENDBRANCH   1   2
BRANCH   1  25
ATOM     25  C   UNL A   1      39.135  21.398  25.808  1.00  0.00     0.023 C 
BRANCH  25  26
ATOM     26  C   UNL A   1      39.284  22.728  26.527  1.00  0.00     0.116 C 
BRANCH  26  27
ATOM     27  N   UNL A   1      40.638  23.065  26.952  1.00  0.00    -0.352 N 
ATOM     28  C   UNL A   1      41.198  24.312  27.188  1.00  0.00     0.251 C 
ATOM     29  H   UNL A   1      41.239  22.298  27.091  1.00  0.00     0.163 HD
ATOM     30  O   UNL A   1      42.390  24.403  27.464  1.00  0.00    -0.269 OA
BRANCH  28  31
ATOM     31  C   UNL A   1      40.325  25.513  27.277  1.00  0.00     0.039 A 
ATOM     32  C   UNL A   1      40.670  26.611  26.479  1.00  0.00     0.014 A 
ATOM     33  C   UNL A   1      39.436  25.674  28.332  1.00  0.00     0.014 A 
ATOM     34  C   UNL A   1      40.405  27.894  26.945  1.00  0.00     0.010 A 
ATOM     35  C   UNL A   1      39.299  26.935  28.871  1.00  0.00     0.010 A 
ATOM     36  C   UNL A   1      39.864  28.034  28.219  1.00  0.00    -0.014 A 
BRANCH  36  37
ATOM     37  C   UNL A   1      39.997  29.248  29.014  1.00  0.00     0.031 A 
ATOM     38  C   UNL A   1      38.941  30.275  28.988  1.00  0.00     0.074 A 
ATOM     39  C   UNL A   1      41.062  29.394  29.835  1.00  0.00     0.049 A 
ATOM     40  N   UNL A   1      39.121  31.512  29.301  1.00  0.00    -0.248 NA
ATOM     41  C   UNL A   1      37.586  29.991  28.529  1.00  0.00     0.031 C 
ATOM     42  C   UNL A   1      41.237  30.366  30.911  1.00  0.00     0.029 A 
ATOM     43  N   UNL A   1      42.305  28.793  29.746  1.00  0.00    -0.354 N 
ATOM     44  C   UNL A   1      37.879  32.092  29.407  1.00  0.00     0.074 A 
ATOM     45  C   UNL A   1      36.975  31.146  28.797  1.00  0.00     0.031 C 
ATOM     46  C   UNL A   1      42.545  30.461  31.207  1.00  0.00     0.029 A 
ATOM     47  C   UNL A   1      43.274  29.671  30.227  1.00  0.00     0.049 A 
ATOM     48  H   UNL A   1      42.477  27.887  29.398  1.00  0.00     0.167 HD
ATOM     49  C   UNL A   1      37.737  33.227  30.148  1.00  0.00     0.031 A 
ATOM     50  C   UNL A   1      44.245  30.173  29.404  1.00  0.00     0.031 A 
ATOM     51  C   UNL A   1      39.034  33.758  30.572  1.00  0.00     0.049 A 
ATOM     52  C   UNL A   1      44.151  31.674  29.199  1.00  0.00     0.074 A 
ATOM     53  C   UNL A   1      39.720  33.732  31.776  1.00  0.00     0.029 A 
ATOM     54  N   UNL A   1      39.952  34.163  29.607  1.00  0.00    -0.354 N 
ATOM     55  N   UNL A   1      43.101  32.388  29.499  1.00  0.00    -0.248 NA
ATOM     56  C   UNL A   1      45.212  32.484  28.600  1.00  0.00     0.031 C 
ATOM     57  C   UNL A   1      41.083  34.031  31.510  1.00  0.00     0.029 A 
ATOM     58  C   UNL A   1      41.216  34.275  30.155  1.00  0.00     0.049 A 
ATOM     59  H   UNL A   1      39.732  34.344  28.665  1.00  0.00     0.167 HD
ATOM     60  C   UNL A   1      43.308  33.693  29.145  1.00  0.00     0.074 A 
ATOM     61  C   UNL A   1      44.652  33.707  28.598  1.00  0.00     0.031 C 
ATOM     62  C   UNL A   1      42.349  34.650  29.317  1.00  0.00     0.031 A 
BRANCH  49  63
ATOM     63  C   UNL A   1      36.417  33.671  30.747  1.00  0.00    -0.014 A 
ATOM     64  C   UNL A   1      35.348  34.009  29.894  1.00  0.00     0.009 A 
ATOM     65  C   UNL A   1      36.179  33.867  32.118  1.00  0.00     0.009 A 
ATOM     66  C   UNL A   1      34.166  34.593  30.373  1.00  0.00     0.001 A 
ATOM     67  C   UNL A   1      35.011  34.473  32.604  1.00  0.00     0.001 A 
ATOM     68  C   UNL A   1      34.007  34.850  31.727  1.00  0.00     0.000 A 
ENDBRANCH  49  63
BRANCH  50  69
ATOM     69  C   UNL A   1      44.704  29.205  28.367  1.00  0.00    -0.014 A 
ATOM     70  C   UNL A   1      45.480  28.105  28.783  1.00  0.00     0.009 A 
ATOM     71  C   UNL A   1      44.091  29.153  27.107  1.00  0.00     0.009 A 
ATOM     72  C   UNL A   1      45.535  26.936  28.018  1.00  0.00     0.001 A 
ATOM     73  C   UNL A   1      44.159  27.983  26.338  1.00  0.00     0.001 A 
ATOM     74  C   UNL A   1      44.847  26.865  26.811  1.00  0.00     0.000 A 
ENDBRANCH  50  69
BRANCH  62  75
ATOM     75  C   UNL A   1      42.394  36.053  28.768  1.00  0.00    -0.014 A 
ATOM     76  C   UNL A   1      43.016  37.132  29.410  1.00  0.00     0.009 A 
ATOM     77  C   UNL A   1      41.912  36.285  27.459  1.00  0.00     0.009 A 
ATOM     78  C   UNL A   1      43.112  38.387  28.793  1.00  0.00     0.001 A 
ATOM     79  C   UNL A   1      42.047  37.521  26.824  1.00  0.00     0.001 A 
ATOM     80  C   UNL A   1      42.640  38.578  27.498  1.00  0.00     0.000 A 
ENDBRANCH  62  75
ENDBRANCH  36  37
ENDBRANCH  28  31
ENDBRANCH  26  27
ENDBRANCH  25  26
ENDBRANCH   1  25
TORSDOF 14
ENDMDL
