MODEL 1
REMARK VINA RESULT:     -12.0      0.000      0.000
REMARK SMILES Cc1ccc(Nc2c(Cl)cc(Cl)cc2Cl)c(CC(=O)NCCCCNC(=O)c2ccc(-c3c4nc(c(-c5ccccc5)c5ccc([nH]5)c(-c5ccccc5)c5nc(c(-c6ccccc6)c6ccc3[nH]6)C=C5)C=C4)cc2)c1
REMARK SMILES IDX 22 1 21 2 20 3 18 4 19 5 17 7 16 8 1 9 2 10 3 11 76 12 4 13
REMARK SMILES IDX 5 14 6 15 7 17 8 18 14 19 9 20 10 21 13 22 15 23 11 24 12 25
REMARK SMILES IDX 23 26 24 27 25 28 26 29 27 31 28 32 29 33 75 34 30 35 74 36
REMARK SMILES IDX 31 37 32 38 33 39 68 40 34 41 73 42 67 43 69 44 35 45 72 46
REMARK SMILES IDX 66 47 65 48 36 50 58 51 43 52 57 53 44 54 47 55 56 56 70 57
REMARK SMILES IDX 45 58 46 59 55 61 71 62 48 63 37 64 38 65 42 66 39 67 41 68
REMARK SMILES IDX 40 69 59 70 60 71 64 72 61 73 63 74 62 75 49 76 50 77 54 78
REMARK SMILES IDX 51 79 53 80 52 81
REMARK H PARENT 20 6 6 16 25 30 69 49 47 60
REMARK Flexibility Score: inf
ROOT
ATOM      1  C   UNL A   1      31.791  30.194  26.244  1.00  0.00     0.023 C 
ENDROOT
BRANCH   1   2
ATOM      2  C   UNL A   1      32.553  28.899  25.915  1.00  0.00     0.116 C 
BRANCH   2   3
ATOM      3  N   UNL A   1      31.911  27.702  26.428  1.00  0.00    -0.356 N 
ATOM      4  C   UNL A   1      32.301  26.398  26.352  1.00  0.00     0.224 C 
ATOM      5  O   UNL A   1      31.526  25.530  26.763  1.00  0.00    -0.275 OA
ATOM      6  H   UNL A   1      31.063  27.856  26.904  1.00  0.00     0.163 HD
BRANCH   4   7
ATOM      7  C   UNL A   1      33.639  26.005  25.753  1.00  0.00     0.137 C 
BRANCH   7   8
ATOM      8  C   UNL A   1      33.610  24.665  25.053  1.00  0.00    -0.015 A 
ATOM      9  C   UNL A   1      34.200  21.045  26.134  1.00  0.00     0.044 C 
ATOM     10  C   UNL A   1      33.917  22.247  25.285  1.00  0.00    -0.051 A 
ATOM     11  C   UNL A   1      33.838  22.125  23.900  1.00  0.00     0.005 A 
ATOM     12  C   UNL A   1      33.769  23.513  25.855  1.00  0.00     0.009 A 
ATOM     13  C   UNL A   1      33.621  23.252  23.101  1.00  0.00     0.026 A 
ATOM     14  C   UNL A   1      33.510  24.540  23.649  1.00  0.00     0.042 A 
BRANCH  14  15
ATOM     15  N   UNL A   1      33.269  25.666  22.828  1.00  0.00    -0.353 N 
ATOM     16  H   UNL A   1      33.927  25.814  22.111  1.00  0.00     0.167 HD
BRANCH  15  17
ATOM     17  C   UNL A   1      32.215  26.611  22.889  1.00  0.00     0.076 A 
ATOM     18  C   UNL A   1      30.867  26.246  23.080  1.00  0.00     0.067 A 
ATOM     19  C   UNL A   1      32.495  27.978  22.671  1.00  0.00     0.067 A 
ATOM     20  Cl  UNL A   1      30.398  24.625  23.471  1.00  0.00    -0.082 Cl
ATOM     21  C   UNL A   1      29.845  27.200  23.023  1.00  0.00     0.043 A 
ATOM     22  C   UNL A   1      31.477  28.934  22.622  1.00  0.00     0.043 A 
ATOM     23  Cl  UNL A   1      34.119  28.527  22.416  1.00  0.00    -0.082 Cl
ATOM     24  C   UNL A   1      30.156  28.535  22.787  1.00  0.00     0.044 A 
ATOM     25  Cl  UNL A   1      28.896  29.703  22.700  1.00  0.00    -0.084 Cl
ENDBRANCH  15  17
ENDBRANCH  14  15
ENDBRANCH   7   8
ENDBRANCH   4   7
ENDBRANCH   2   3
ENDBRANCH   1   2
BRANCH   1  26
ATOM     26  C   UNL A   1      32.544  31.214  27.099  1.00  0.00     0.023 C 
BRANCH  26  27
ATOM     27  C   UNL A   1      33.851  30.691  27.669  1.00  0.00     0.116 C 
BRANCH  27  28
ATOM     28  N   UNL A   1      34.618  31.668  28.434  1.00  0.00    -0.352 N 
ATOM     29  C   UNL A   1      35.844  31.521  29.063  1.00  0.00     0.251 C 
ATOM     30  H   UNL A   1      34.206  32.558  28.514  1.00  0.00     0.163 HD
ATOM     31  O   UNL A   1      36.319  32.438  29.715  1.00  0.00    -0.269 OA
BRANCH  29  32
ATOM     32  C   UNL A   1      36.644  30.294  28.813  1.00  0.00     0.039 A 
ATOM     33  C   UNL A   1      36.808  29.406  29.882  1.00  0.00     0.014 A 
ATOM     34  C   UNL A   1      37.418  30.160  27.664  1.00  0.00     0.014 A 
ATOM     35  C   UNL A   1      37.930  28.587  29.915  1.00  0.00     0.010 A 
ATOM     36  C   UNL A   1      38.587  29.429  27.740  1.00  0.00     0.010 A 
ATOM     37  C   UNL A   1      38.881  28.714  28.904  1.00  0.00    -0.014 A 
BRANCH  37  38
ATOM     38  C   UNL A   1      40.262  28.277  29.062  1.00  0.00     0.031 A 
ATOM     39  C   UNL A   1      40.692  26.951  28.595  1.00  0.00     0.074 A 
ATOM     40  C   UNL A   1      41.168  29.121  29.605  1.00  0.00     0.049 A 
ATOM     41  N   UNL A   1      41.766  26.365  29.005  1.00  0.00    -0.248 NA
ATOM     42  C   UNL A   1      39.894  26.123  27.693  1.00  0.00     0.031 C 
ATOM     43  C   UNL A   1      42.625  29.004  29.596  1.00  0.00     0.029 A 
ATOM     44  N   UNL A   1      40.912  30.151  30.513  1.00  0.00    -0.354 N 
ATOM     45  C   UNL A   1      41.966  25.275  28.200  1.00  0.00     0.074 A 
ATOM     46  C   UNL A   1      40.709  25.078  27.520  1.00  0.00     0.031 C 
ATOM     47  C   UNL A   1      43.123  29.721  30.616  1.00  0.00     0.029 A 
ATOM     48  C   UNL A   1      41.998  30.188  31.408  1.00  0.00     0.049 A 
ATOM     49  H   UNL A   1      40.122  30.738  30.524  1.00  0.00     0.167 HD
ATOM     50  C   UNL A   1      43.222  24.763  28.089  1.00  0.00     0.031 A 
ATOM     51  C   UNL A   1      41.815  29.924  32.735  1.00  0.00     0.031 A 
ATOM     52  C   UNL A   1      44.125  25.287  29.119  1.00  0.00     0.049 A 
ATOM     53  C   UNL A   1      42.570  28.713  33.253  1.00  0.00     0.074 A 
ATOM     54  C   UNL A   1      45.243  26.103  29.120  1.00  0.00     0.029 A 
ATOM     55  N   UNL A   1      43.758  25.145  30.451  1.00  0.00    -0.354 N 
ATOM     56  N   UNL A   1      43.282  27.903  32.518  1.00  0.00    -0.248 NA
ATOM     57  C   UNL A   1      42.483  28.262  34.641  1.00  0.00     0.031 C 
ATOM     58  C   UNL A   1      45.530  26.463  30.472  1.00  0.00     0.029 A 
ATOM     59  C   UNL A   1      44.606  25.840  31.290  1.00  0.00     0.049 A 
ATOM     60  H   UNL A   1      42.989  24.614  30.760  1.00  0.00     0.167 HD
ATOM     61  C   UNL A   1      43.685  26.828  33.270  1.00  0.00     0.074 A 
ATOM     62  C   UNL A   1      43.158  27.101  34.594  1.00  0.00     0.031 C 
ATOM     63  C   UNL A   1      44.370  25.776  32.728  1.00  0.00     0.031 A 
BRANCH  50  64
ATOM     64  C   UNL A   1      43.685  23.920  26.919  1.00  0.00    -0.014 A 
ATOM     65  C   UNL A   1      44.306  24.540  25.819  1.00  0.00     0.009 A 
ATOM     66  C   UNL A   1      43.441  22.541  26.778  1.00  0.00     0.009 A 
ATOM     67  C   UNL A   1      44.640  23.831  24.654  1.00  0.00     0.001 A 
ATOM     68  C   UNL A   1      43.798  21.818  25.632  1.00  0.00     0.001 A 
ATOM     69  C   UNL A   1      44.388  22.467  24.562  1.00  0.00     0.000 A 
ENDBRANCH  50  64
BRANCH  51  70
ATOM     70  C   UNL A   1      40.488  30.372  33.248  1.00  0.00    -0.014 A 
ATOM     71  C   UNL A   1      40.260  31.755  33.402  1.00  0.00     0.009 A 
ATOM     72  C   UNL A   1      39.384  29.510  33.249  1.00  0.00     0.009 A 
ATOM     73  C   UNL A   1      38.960  32.268  33.438  1.00  0.00     0.001 A 
ATOM     74  C   UNL A   1      38.084  30.026  33.303  1.00  0.00     0.001 A 
ATOM     75  C   UNL A   1      37.871  31.404  33.360  1.00  0.00     0.000 A 
ENDBRANCH  51  70
BRANCH  63  76
ATOM     76  C   UNL A   1      44.829  24.540  33.475  1.00  0.00    -0.014 A 
ATOM     77  C   UNL A   1      46.151  24.298  33.871  1.00  0.00     0.009 A 
ATOM     78  C   UNL A   1      43.903  23.502  33.732  1.00  0.00     0.009 A 
ATOM     79  C   UNL A   1      46.506  23.132  34.566  1.00  0.00     0.001 A 
ATOM     80  C   UNL A   1      44.256  22.327  34.402  1.00  0.00     0.001 A 
ATOM     81  C   UNL A   1      45.558  22.150  34.837  1.00  0.00     0.000 A 
ENDBRANCH  63  76
ENDBRANCH  37  38
ENDBRANCH  29  32
ENDBRANCH  27  28
ENDBRANCH  26  27
ENDBRANCH   1  26
TORSDOF 14
ENDMDL
MODEL 2
REMARK VINA RESULT:     -12.0      3.216      7.967
REMARK SMILES Cc1ccc(Nc2c(Cl)cc(Cl)cc2Cl)c(CC(=O)NCCCCNC(=O)c2ccc(-c3c4nc(c(-c5ccccc5)c5ccc([nH]5)c(-c5ccccc5)c5nc(c(-c6ccccc6)c6ccc3[nH]6)C=C5)C=C4)cc2)c1
REMARK SMILES IDX 22 1 21 2 20 3 18 4 19 5 17 7 16 8 1 9 2 10 3 11 76 12 4 13
REMARK SMILES IDX 5 14 6 15 7 17 8 18 14 19 9 20 10 21 13 22 15 23 11 24 12 25
REMARK SMILES IDX 23 26 24 27 25 28 26 29 27 31 28 32 29 33 75 34 30 35 74 36
REMARK SMILES IDX 31 37 32 38 33 39 68 40 34 41 73 42 67 43 69 44 35 45 72 46
REMARK SMILES IDX 66 47 65 48 36 50 58 51 43 52 57 53 44 54 47 55 56 56 70 57
REMARK SMILES IDX 45 58 46 59 55 61 71 62 48 63 37 64 38 65 42 66 39 67 41 68
REMARK SMILES IDX 40 69 59 70 60 71 64 72 61 73 63 74 62 75 49 76 50 77 54 78
REMARK SMILES IDX 51 79 53 80 52 81
REMARK H PARENT 20 6 6 16 25 30 69 49 47 60
REMARK Flexibility Score: inf
ROOT
ATOM      1  C   UNL A   1      38.104  21.507  25.373  1.00  0.00     0.023 C 
ENDROOT
BRANCH   1   2
ATOM      2  C   UNL A   1      36.719  22.174  25.435  1.00  0.00     0.116 C 
BRANCH   2   3
ATOM      3  N   UNL A   1      35.851  21.612  26.455  1.00  0.00    -0.356 N 
ATOM      4  C   UNL A   1      34.586  21.968  26.821  1.00  0.00     0.224 C 
ATOM      5  O   UNL A   1      34.086  21.418  27.806  1.00  0.00    -0.275 OA
ATOM      6  H   UNL A   1      36.234  20.859  26.960  1.00  0.00     0.163 HD
BRANCH   4   7
ATOM      7  C   UNL A   1      33.813  23.033  26.065  1.00  0.00     0.137 C 
BRANCH   7   8
ATOM      8  C   UNL A   1      33.102  22.500  24.841  1.00  0.00    -0.015 A 
ATOM      9  C   UNL A   1      32.397  19.013  23.439  1.00  0.00     0.044 C 
ATOM     10  C   UNL A   1      32.451  20.504  23.581  1.00  0.00    -0.051 A 
ATOM     11  C   UNL A   1      32.043  21.325  22.532  1.00  0.00     0.005 A 
ATOM     12  C   UNL A   1      32.947  21.100  24.742  1.00  0.00     0.009 A 
ATOM     13  C   UNL A   1      32.137  22.715  22.643  1.00  0.00     0.026 A 
ATOM     14  C   UNL A   1      32.670  23.335  23.786  1.00  0.00     0.042 A 
BRANCH  14  15
ATOM     15  N   UNL A   1      32.737  24.744  23.890  1.00  0.00    -0.353 N 
ATOM     16  H   UNL A   1      33.627  25.109  24.100  1.00  0.00     0.167 HD
BRANCH  15  17
ATOM     17  C   UNL A   1      31.708  25.704  23.736  1.00  0.00     0.076 A 
ATOM     18  C   UNL A   1      30.560  25.738  24.554  1.00  0.00     0.067 A 
ATOM     19  C   UNL A   1      31.774  26.627  22.670  1.00  0.00     0.067 A 
ATOM     20  Cl  UNL A   1      30.404  24.741  25.963  1.00  0.00    -0.082 Cl
ATOM     21  C   UNL A   1      29.515  26.632  24.298  1.00  0.00     0.043 A 
ATOM     22  C   UNL A   1      30.735  27.527  22.416  1.00  0.00     0.043 A 
ATOM     23  Cl  UNL A   1      33.137  26.659  21.600  1.00  0.00    -0.082 Cl
ATOM     24  C   UNL A   1      29.606  27.515  23.226  1.00  0.00     0.044 A 
ATOM     25  Cl  UNL A   1      28.312  28.601  22.903  1.00  0.00    -0.084 Cl
ENDBRANCH  15  17
ENDBRANCH  14  15
ENDBRANCH   7   8
ENDBRANCH   4   7
ENDBRANCH   2   3
ENDBRANCH   1   2
BRANCH   1  26
ATOM     26  C   UNL A   1      39.221  22.214  26.142  1.00  0.00     0.023 C 
BRANCH  26  27
ATOM     27  C   UNL A   1      40.089  21.276  26.964  1.00  0.00     0.116 C 
BRANCH  27  28
ATOM     28  N   UNL A   1      41.033  20.481  26.188  1.00  0.00    -0.352 N 
ATOM     29  C   UNL A   1      42.396  20.663  26.014  1.00  0.00     0.251 C 
ATOM     30  H   UNL A   1      40.648  19.704  25.722  1.00  0.00     0.163 HD
ATOM     31  O   UNL A   1      43.029  19.925  25.275  1.00  0.00    -0.269 OA
BRANCH  29  32
ATOM     32  C   UNL A   1      43.105  21.667  26.849  1.00  0.00     0.039 A 
ATOM     33  C   UNL A   1      42.844  21.656  28.224  1.00  0.00     0.014 A 
ATOM     34  C   UNL A   1      43.784  22.736  26.271  1.00  0.00     0.014 A 
ATOM     35  C   UNL A   1      42.998  22.831  28.950  1.00  0.00     0.010 A 
ATOM     36  C   UNL A   1      43.838  23.931  26.962  1.00  0.00     0.010 A 
ATOM     37  C   UNL A   1      43.361  23.993  28.273  1.00  0.00    -0.014 A 
BRANCH  37  38
ATOM     38  C   UNL A   1      43.108  25.326  28.805  1.00  0.00     0.031 A 
ATOM     39  C   UNL A   1      41.951  26.112  28.352  1.00  0.00     0.074 A 
ATOM     40  C   UNL A   1      43.923  25.826  29.761  1.00  0.00     0.049 A 
ATOM     41  N   UNL A   1      41.859  27.391  28.495  1.00  0.00    -0.248 NA
ATOM     42  C   UNL A   1      40.835  25.535  27.606  1.00  0.00     0.031 C 
ATOM     43  C   UNL A   1      43.697  26.988  30.619  1.00  0.00     0.029 A 
ATOM     44  N   UNL A   1      45.266  25.504  29.966  1.00  0.00    -0.354 N 
ATOM     45  C   UNL A   1      40.575  27.744  28.176  1.00  0.00     0.074 A 
ATOM     46  C   UNL A   1      40.035  26.599  27.483  1.00  0.00     0.031 C 
ATOM     47  C   UNL A   1      44.884  27.440  31.054  1.00  0.00     0.029 A 
ATOM     48  C   UNL A   1      45.916  26.688  30.363  1.00  0.00     0.049 A 
ATOM     49  H   UNL A   1      45.679  24.617  29.854  1.00  0.00     0.167 HD
ATOM     50  C   UNL A   1      40.070  28.905  28.674  1.00  0.00     0.031 A 
ATOM     51  C   UNL A   1      46.895  27.237  29.587  1.00  0.00     0.031 A 
ATOM     52  C   UNL A   1      41.117  29.766  29.235  1.00  0.00     0.049 A 
ATOM     53  C   UNL A   1      46.587  28.629  29.064  1.00  0.00     0.074 A 
ATOM     54  C   UNL A   1      41.443  30.213  30.504  1.00  0.00     0.029 A 
ATOM     55  N   UNL A   1      42.187  30.119  28.422  1.00  0.00    -0.354 N 
ATOM     56  N   UNL A   1      45.459  29.261  29.237  1.00  0.00    -0.248 NA
ATOM     57  C   UNL A   1      47.506  29.370  28.201  1.00  0.00     0.031 C 
ATOM     58  C   UNL A   1      42.734  30.823  30.442  1.00  0.00     0.029 A 
ATOM     59  C   UNL A   1      43.174  30.772  29.133  1.00  0.00     0.049 A 
ATOM     60  H   UNL A   1      42.236  29.926  27.458  1.00  0.00     0.167 HD
ATOM     61  C   UNL A   1      45.456  30.416  28.495  1.00  0.00     0.074 A 
ATOM     62  C   UNL A   1      46.762  30.438  27.863  1.00  0.00     0.031 C 
ATOM     63  C   UNL A   1      44.360  31.230  28.418  1.00  0.00     0.031 A 
BRANCH  50  64
ATOM     64  C   UNL A   1      38.588  29.182  28.824  1.00  0.00    -0.014 A 
ATOM     65  C   UNL A   1      37.864  29.696  27.733  1.00  0.00     0.009 A 
ATOM     66  C   UNL A   1      37.871  29.074  30.030  1.00  0.00     0.009 A 
ATOM     67  C   UNL A   1      36.522  30.093  27.849  1.00  0.00     0.001 A 
ATOM     68  C   UNL A   1      36.523  29.437  30.148  1.00  0.00     0.001 A 
ATOM     69  C   UNL A   1      35.850  29.960  29.058  1.00  0.00     0.000 A 
ENDBRANCH  50  64
BRANCH  51  70
ATOM     70  C   UNL A   1      47.707  26.222  28.855  1.00  0.00    -0.014 A 
ATOM     71  C   UNL A   1      47.442  26.010  27.486  1.00  0.00     0.009 A 
ATOM     72  C   UNL A   1      48.912  25.742  29.383  1.00  0.00     0.009 A 
ATOM     73  C   UNL A   1      48.406  25.441  26.649  1.00  0.00     0.001 A 
ATOM     74  C   UNL A   1      49.868  25.156  28.545  1.00  0.00     0.001 A 
ATOM     75  C   UNL A   1      49.631  25.040  27.175  1.00  0.00     0.000 A 
ENDBRANCH  51  70
BRANCH  63  76
ATOM     76  C   UNL A   1      44.259  32.504  27.605  1.00  0.00    -0.014 A 
ATOM     77  C   UNL A   1      43.949  33.762  28.138  1.00  0.00     0.009 A 
ATOM     78  C   UNL A   1      44.400  32.442  26.199  1.00  0.00     0.009 A 
ATOM     79  C   UNL A   1      43.877  34.905  27.325  1.00  0.00     0.001 A 
ATOM     80  C   UNL A   1      44.306  33.572  25.382  1.00  0.00     0.001 A 
ATOM     81  C   UNL A   1      44.062  34.811  25.950  1.00  0.00     0.000 A 
ENDBRANCH  63  76
ENDBRANCH  37  38
ENDBRANCH  29  32
ENDBRANCH  27  28
ENDBRANCH  26  27
ENDBRANCH   1  26
TORSDOF 14
ENDMDL
MODEL 3
REMARK VINA RESULT:     -11.9      1.822      3.090
REMARK SMILES Cc1ccc(Nc2c(Cl)cc(Cl)cc2Cl)c(CC(=O)NCCCCNC(=O)c2ccc(-c3c4nc(c(-c5ccccc5)c5ccc([nH]5)c(-c5ccccc5)c5nc(c(-c6ccccc6)c6ccc3[nH]6)C=C5)C=C4)cc2)c1
REMARK SMILES IDX 22 1 21 2 20 3 18 4 19 5 17 7 16 8 1 9 2 10 3 11 76 12 4 13
REMARK SMILES IDX 5 14 6 15 7 17 8 18 14 19 9 20 10 21 13 22 15 23 11 24 12 25
REMARK SMILES IDX 23 26 24 27 25 28 26 29 27 31 28 32 29 33 75 34 30 35 74 36
REMARK SMILES IDX 31 37 32 38 33 39 68 40 34 41 73 42 67 43 69 44 35 45 72 46
REMARK SMILES IDX 66 47 65 48 36 50 58 51 43 52 57 53 44 54 47 55 56 56 70 57
REMARK SMILES IDX 45 58 46 59 55 61 71 62 48 63 37 64 38 65 42 66 39 67 41 68
REMARK SMILES IDX 40 69 59 70 60 71 64 72 61 73 63 74 62 75 49 76 50 77 54 78
REMARK SMILES IDX 51 79 53 80 52 81
REMARK H PARENT 20 6 6 16 25 30 69 49 47 60
REMARK Flexibility Score: inf
ROOT
ATOM      1  C   UNL A   1      32.733  30.101  27.262  1.00  0.00     0.023 C 
ENDROOT
BRANCH   1   2
ATOM      2  C   UNL A   1      32.093  29.261  26.143  1.00  0.00     0.116 C 
BRANCH   2   3
ATOM      3  N   UNL A   1      31.598  27.973  26.596  1.00  0.00    -0.356 N 
ATOM      4  C   UNL A   1      32.155  26.733  26.484  1.00  0.00     0.224 C 
ATOM      5  O   UNL A   1      31.489  25.758  26.843  1.00  0.00    -0.275 OA
ATOM      6  H   UNL A   1      30.728  27.998  27.055  1.00  0.00     0.163 HD
BRANCH   4   7
ATOM      7  C   UNL A   1      33.545  26.538  25.907  1.00  0.00     0.137 C 
BRANCH   7   8
ATOM      8  C   UNL A   1      33.739  25.185  25.261  1.00  0.00    -0.015 A 
ATOM      9  C   UNL A   1      34.947  21.766  26.477  1.00  0.00     0.044 C 
ATOM     10  C   UNL A   1      34.456  22.865  25.584  1.00  0.00    -0.051 A 
ATOM     11  C   UNL A   1      34.388  22.674  24.207  1.00  0.00     0.005 A 
ATOM     12  C   UNL A   1      34.099  24.110  26.106  1.00  0.00     0.009 A 
ATOM     13  C   UNL A   1      33.975  23.713  23.367  1.00  0.00     0.026 A 
ATOM     14  C   UNL A   1      33.650  24.985  23.865  1.00  0.00     0.042 A 
BRANCH  14  15
ATOM     15  N   UNL A   1      33.214  26.019  23.003  1.00  0.00    -0.353 N 
ATOM     16  H   UNL A   1      33.819  26.228  22.255  1.00  0.00     0.167 HD
BRANCH  15  17
ATOM     17  C   UNL A   1      32.031  26.795  23.063  1.00  0.00     0.076 A 
ATOM     18  C   UNL A   1      30.752  26.234  23.257  1.00  0.00     0.067 A 
ATOM     19  C   UNL A   1      32.103  28.188  22.839  1.00  0.00     0.067 A 
ATOM     20  Cl  UNL A   1      30.532  24.562  23.656  1.00  0.00    -0.082 Cl
ATOM     21  C   UNL A   1      29.599  27.024  23.199  1.00  0.00     0.043 A 
ATOM     22  C   UNL A   1      30.953  28.980  22.788  1.00  0.00     0.043 A 
ATOM     23  Cl  UNL A   1      33.625  28.973  22.579  1.00  0.00    -0.082 Cl
ATOM     24  C   UNL A   1      29.706  28.389  22.957  1.00  0.00     0.044 A 
ATOM     25  Cl  UNL A   1      28.286  29.355  22.868  1.00  0.00    -0.084 Cl
ENDBRANCH  15  17
ENDBRANCH  14  15
ENDBRANCH   7   8
ENDBRANCH   4   7
ENDBRANCH   2   3
ENDBRANCH   1   2
BRANCH   1  26
ATOM     26  C   UNL A   1      34.253  29.997  27.388  1.00  0.00     0.023 C 
BRANCH  26  27
ATOM     27  C   UNL A   1      34.942  31.330  27.630  1.00  0.00     0.116 C 
BRANCH  27  28
ATOM     28  N   UNL A   1      34.054  32.409  28.044  1.00  0.00    -0.352 N 
ATOM     29  C   UNL A   1      34.202  33.315  29.083  1.00  0.00     0.251 C 
ATOM     30  H   UNL A   1      33.232  32.509  27.511  1.00  0.00     0.163 HD
ATOM     31  O   UNL A   1      33.322  34.127  29.326  1.00  0.00    -0.269 OA
BRANCH  29  32
ATOM     32  C   UNL A   1      35.501  33.390  29.799  1.00  0.00     0.039 A 
ATOM     33  C   UNL A   1      36.569  33.995  29.128  1.00  0.00     0.014 A 
ATOM     34  C   UNL A   1      35.726  32.662  30.964  1.00  0.00     0.014 A 
ATOM     35  C   UNL A   1      37.869  33.626  29.454  1.00  0.00     0.010 A 
ATOM     36  C   UNL A   1      37.006  32.211  31.221  1.00  0.00     0.010 A 
ATOM     37  C   UNL A   1      38.062  32.628  30.406  1.00  0.00    -0.014 A 
BRANCH  37  38
ATOM     38  C   UNL A   1      39.291  31.850  30.494  1.00  0.00     0.031 A 
ATOM     39  C   UNL A   1      39.412  30.551  29.816  1.00  0.00     0.074 A 
ATOM     40  C   UNL A   1      40.348  32.352  31.172  1.00  0.00     0.049 A 
ATOM     41  N   UNL A   1      40.297  29.665  30.128  1.00  0.00    -0.248 NA
ATOM     42  C   UNL A   1      38.479  30.096  28.788  1.00  0.00     0.031 C 
ATOM     43  C   UNL A   1      41.734  31.889  31.148  1.00  0.00     0.029 A 
ATOM     44  N   UNL A   1      40.306  33.255  32.236  1.00  0.00    -0.354 N 
ATOM     45  C   UNL A   1      40.266  28.702  29.155  1.00  0.00     0.074 A 
ATOM     46  C   UNL A   1      39.028  28.926  28.448  1.00  0.00     0.031 C 
ATOM     47  C   UNL A   1      42.344  32.293  32.274  1.00  0.00     0.029 A 
ATOM     48  C   UNL A   1      41.330  32.886  33.128  1.00  0.00     0.049 A 
ATOM     49  H   UNL A   1      39.679  34.007  32.341  1.00  0.00     0.167 HD
ATOM     50  C   UNL A   1      41.367  27.925  28.965  1.00  0.00     0.031 A 
ATOM     51  C   UNL A   1      41.032  32.466  34.393  1.00  0.00     0.031 A 
ATOM     52  C   UNL A   1      42.324  28.044  30.070  1.00  0.00     0.049 A 
ATOM     53  C   UNL A   1      41.454  31.042  34.707  1.00  0.00     0.074 A 
ATOM     54  C   UNL A   1      43.603  28.554  30.209  1.00  0.00     0.029 A 
ATOM     55  N   UNL A   1      41.877  27.785  31.360  1.00  0.00    -0.354 N 
ATOM     56  N   UNL A   1      41.983  30.212  33.851  1.00  0.00    -0.248 NA
ATOM     57  C   UNL A   1      41.203  30.411  36.002  1.00  0.00     0.031 C 
ATOM     58  C   UNL A   1      43.910  28.614  31.603  1.00  0.00     0.029 A 
ATOM     59  C   UNL A   1      42.830  28.112  32.304  1.00  0.00     0.049 A 
ATOM     60  H   UNL A   1      40.991  27.414  31.574  1.00  0.00     0.167 HD
ATOM     61  C   UNL A   1      42.085  28.965  34.416  1.00  0.00     0.074 A 
ATOM     62  C   UNL A   1      41.582  29.143  35.766  1.00  0.00     0.031 C 
ATOM     63  C   UNL A   1      42.523  27.878  33.711  1.00  0.00     0.031 A 
BRANCH  50  64
ATOM     64  C   UNL A   1      41.666  27.193  27.673  1.00  0.00    -0.014 A 
ATOM     65  C   UNL A   1      41.706  25.786  27.665  1.00  0.00     0.009 A 
ATOM     66  C   UNL A   1      42.031  27.816  26.465  1.00  0.00     0.009 A 
ATOM     67  C   UNL A   1      42.103  25.058  26.533  1.00  0.00     0.001 A 
ATOM     68  C   UNL A   1      42.399  27.097  25.319  1.00  0.00     0.001 A 
ATOM     69  C   UNL A   1      42.447  25.715  25.357  1.00  0.00     0.000 A 
ENDBRANCH  50  64
BRANCH  51  70
ATOM     70  C   UNL A   1      39.830  33.135  34.968  1.00  0.00    -0.014 A 
ATOM     71  C   UNL A   1      38.557  32.616  34.653  1.00  0.00     0.009 A 
ATOM     72  C   UNL A   1      39.941  34.016  36.052  1.00  0.00     0.009 A 
ATOM     73  C   UNL A   1      37.453  32.879  35.470  1.00  0.00     0.001 A 
ATOM     74  C   UNL A   1      38.829  34.291  36.857  1.00  0.00     0.001 A 
ATOM     75  C   UNL A   1      37.597  33.695  36.589  1.00  0.00     0.000 A 
ENDBRANCH  51  70
BRANCH  63  76
ATOM     76  C   UNL A   1      42.642  26.466  34.246  1.00  0.00    -0.014 A 
ATOM     77  C   UNL A   1      41.725  25.870  35.121  1.00  0.00     0.009 A 
ATOM     78  C   UNL A   1      43.786  25.698  33.927  1.00  0.00     0.009 A 
ATOM     79  C   UNL A   1      41.894  24.552  35.574  1.00  0.00     0.001 A 
ATOM     80  C   UNL A   1      43.973  24.394  34.395  1.00  0.00     0.001 A 
ATOM     81  C   UNL A   1      43.013  23.812  35.205  1.00  0.00     0.000 A 
ENDBRANCH  63  76
ENDBRANCH  37  38
ENDBRANCH  29  32
ENDBRANCH  27  28
ENDBRANCH  26  27
ENDBRANCH   1  26
TORSDOF 14
ENDMDL
