MODEL 1
REMARK VINA RESULT:     -10.6      0.000      0.000
REMARK SMILES CC[C@@H]1C=CC[C@@H]2C(=O)N(CCCC(=O)NCCCCNC(=O)c3ccc(-c4c5nc(c(-c6ccccc6)c6ccc([nH]6)c(-c6ccccc6)c6nc(c(-c7ccccc7)c7ccc4[nH]7)C=C6)C=C5)cc3)C(=O)[C@@H]21
REMARK SMILES IDX 17 1 16 2 14 3 15 4 13 6 12 7 11 8 10 9 3 10 4 11 74 12 5 13
REMARK SMILES IDX 7 14 72 15 6 16 8 17 73 18 9 19 2 20 1 21 18 22 19 23 20 24
REMARK SMILES IDX 21 25 22 26 23 28 24 29 25 30 71 31 26 32 70 33 27 34 28 35
REMARK SMILES IDX 29 36 64 37 30 38 69 39 63 40 65 41 31 42 68 43 62 44 61 45
REMARK SMILES IDX 32 47 54 48 39 49 53 50 40 51 43 52 52 53 66 54 41 55 42 56
REMARK SMILES IDX 51 58 67 59 44 60 33 61 34 62 38 63 35 64 37 65 36 66 55 67
REMARK SMILES IDX 56 68 60 69 57 70 59 71 58 72 45 73 46 74 50 75 47 76 49 77
REMARK SMILES IDX 48 78
REMARK H PARENT 16 5 21 27 65 46 43 57
REMARK Flexibility Score: inf
ROOT
ATOM      1  C   UNL A   1      33.716  29.011  26.764  1.00  0.00     0.116 C 
ENDROOT
BRANCH   1   2
ATOM      2  N   UNL A   1      33.966  28.623  25.396  1.00  0.00    -0.356 N 
ATOM      3  C   UNL A   1      33.718  27.477  24.714  1.00  0.00     0.220 C 
ATOM      4  O   UNL A   1      33.971  27.497  23.504  1.00  0.00    -0.275 OA
ATOM      5  H   UNL A   1      34.397  29.323  24.854  1.00  0.00     0.163 HD
BRANCH   3   6
ATOM      6  C   UNL A   1      33.093  26.232  25.326  1.00  0.00     0.102 C 
BRANCH   6   7
ATOM      7  C   UNL A   1      31.840  25.619  24.711  1.00  0.00     0.032 C 
BRANCH   7   8
ATOM      8  C   UNL A   1      31.839  24.201  24.151  1.00  0.00     0.129 C 
BRANCH   8   9
ATOM      9  N   UNL A   1      33.078  23.436  24.052  1.00  0.00    -0.282 N 
ATOM     10  C   UNL A   1      35.093  21.934  26.050  1.00  0.00     0.024 C 
ATOM     11  C   UNL A   1      35.683  23.314  26.239  1.00  0.00    -0.027 C 
ATOM     12  C   UNL A   1      34.532  21.701  24.623  1.00  0.00     0.099 C 
ATOM     13  C   UNL A   1      36.380  23.893  25.251  1.00  0.00    -0.030 C 
ATOM     14  C   UNL A   1      35.194  22.548  23.533  1.00  0.00     0.096 C 
ATOM     15  C   UNL A   1      33.101  22.144  24.502  1.00  0.00     0.233 C 
ATOM     16  C   UNL A   1      36.511  23.219  23.917  1.00  0.00     0.041 C 
ATOM     17  C   UNL A   1      34.179  23.634  23.278  1.00  0.00     0.233 C 
ATOM     18  O   UNL A   1      32.133  21.445  24.745  1.00  0.00    -0.274 OA
ATOM     19  O   UNL A   1      34.363  24.475  22.407  1.00  0.00    -0.274 OA
BRANCH  10  20
ATOM     20  C   UNL A   1      34.147  21.476  27.184  1.00  0.00     0.005 C 
ATOM     21  C   UNL A   1      33.405  22.562  27.956  1.00  0.00     0.004 C 
ENDBRANCH  10  20
ENDBRANCH   8   9
ENDBRANCH   7   8
ENDBRANCH   6   7
ENDBRANCH   3   6
ENDBRANCH   1   2
BRANCH   1  22
ATOM     22  C   UNL A   1      32.260  29.438  26.978  1.00  0.00     0.023 C 
BRANCH  22  23
ATOM     23  C   UNL A   1      31.993  30.905  26.696  1.00  0.00     0.023 C 
BRANCH  23  24
ATOM     24  C   UNL A   1      33.010  31.843  27.324  1.00  0.00     0.116 C 
BRANCH  24  25
ATOM     25  N   UNL A   1      32.494  33.170  27.640  1.00  0.00    -0.352 N 
ATOM     26  C   UNL A   1      33.104  34.146  28.399  1.00  0.00     0.251 C 
ATOM     27  H   UNL A   1      31.610  33.395  27.269  1.00  0.00     0.163 HD
ATOM     28  O   UNL A   1      32.551  35.213  28.638  1.00  0.00    -0.269 OA
BRANCH  26  29
ATOM     29  C   UNL A   1      34.430  33.843  28.971  1.00  0.00     0.039 A 
ATOM     30  C   UNL A   1      34.499  33.152  30.181  1.00  0.00     0.014 A 
ATOM     31  C   UNL A   1      35.582  34.094  28.221  1.00  0.00     0.014 A 
ATOM     32  C   UNL A   1      35.723  32.627  30.596  1.00  0.00     0.010 A 
ATOM     33  C   UNL A   1      36.772  33.476  28.582  1.00  0.00     0.010 A 
ATOM     34  C   UNL A   1      36.856  32.737  29.772  1.00  0.00    -0.014 A 
BRANCH  34  35
ATOM     35  C   UNL A   1      38.140  32.085  30.136  1.00  0.00     0.031 A 
ATOM     36  C   UNL A   1      39.096  32.781  31.064  1.00  0.00     0.074 A 
ATOM     37  C   UNL A   1      38.474  30.899  29.587  1.00  0.00     0.049 A 
ATOM     38  N   UNL A   1      40.278  32.396  31.472  1.00  0.00    -0.248 NA
ATOM     39  C   UNL A   1      38.686  34.100  31.575  1.00  0.00     0.031 C 
ATOM     40  C   UNL A   1      37.660  30.144  28.630  1.00  0.00     0.029 A 
ATOM     41  N   UNL A   1      39.590  30.118  29.758  1.00  0.00    -0.354 N 
ATOM     42  C   UNL A   1      40.754  33.429  32.270  1.00  0.00     0.074 A 
ATOM     43  C   UNL A   1      39.767  34.484  32.235  1.00  0.00     0.031 C 
ATOM     44  C   UNL A   1      38.284  28.993  28.333  1.00  0.00     0.029 A 
ATOM     45  C   UNL A   1      39.559  28.946  29.041  1.00  0.00     0.049 A 
ATOM     46  H   UNL A   1      40.341  30.374  30.339  1.00  0.00     0.167 HD
ATOM     47  C   UNL A   1      41.897  33.485  32.993  1.00  0.00     0.031 A 
ATOM     48  C   UNL A   1      40.458  27.946  28.962  1.00  0.00     0.031 A 
ATOM     49  C   UNL A   1      42.873  32.431  33.039  1.00  0.00     0.049 A 
ATOM     50  C   UNL A   1      41.726  28.038  29.766  1.00  0.00     0.074 A 
ATOM     51  C   UNL A   1      44.034  32.366  33.788  1.00  0.00     0.029 A 
ATOM     52  N   UNL A   1      42.803  31.260  32.302  1.00  0.00    -0.354 N 
ATOM     53  N   UNL A   1      42.122  28.985  30.581  1.00  0.00    -0.248 NA
ATOM     54  C   UNL A   1      42.666  26.913  29.646  1.00  0.00     0.031 C 
ATOM     55  C   UNL A   1      44.697  31.179  33.458  1.00  0.00     0.029 A 
ATOM     56  C   UNL A   1      43.915  30.476  32.555  1.00  0.00     0.049 A 
ATOM     57  H   UNL A   1      42.070  31.021  31.689  1.00  0.00     0.167 HD
ATOM     58  C   UNL A   1      43.342  28.558  31.093  1.00  0.00     0.074 A 
ATOM     59  C   UNL A   1      43.609  27.259  30.512  1.00  0.00     0.031 C 
ATOM     60  C   UNL A   1      44.167  29.186  31.967  1.00  0.00     0.031 A 
BRANCH  47  61
ATOM     61  C   UNL A   1      42.149  34.736  33.791  1.00  0.00    -0.014 A 
ATOM     62  C   UNL A   1      42.841  35.826  33.239  1.00  0.00     0.009 A 
ATOM     63  C   UNL A   1      41.667  34.834  35.105  1.00  0.00     0.009 A 
ATOM     64  C   UNL A   1      43.080  36.972  33.999  1.00  0.00     0.001 A 
ATOM     65  C   UNL A   1      41.878  35.994  35.852  1.00  0.00     0.001 A 
ATOM     66  C   UNL A   1      42.594  37.057  35.303  1.00  0.00     0.000 A 
ENDBRANCH  47  61
BRANCH  48  67
ATOM     67  C   UNL A   1      40.187  26.760  28.105  1.00  0.00    -0.014 A 
ATOM     68  C   UNL A   1      39.426  25.685  28.593  1.00  0.00     0.009 A 
ATOM     69  C   UNL A   1      40.701  26.686  26.801  1.00  0.00     0.009 A 
ATOM     70  C   UNL A   1      39.212  24.551  27.805  1.00  0.00     0.001 A 
ATOM     71  C   UNL A   1      40.458  25.565  26.005  1.00  0.00     0.001 A 
ATOM     72  C   UNL A   1      39.724  24.494  26.511  1.00  0.00     0.000 A 
ENDBRANCH  48  67
BRANCH  60  73
ATOM     73  C   UNL A   1      45.419  28.460  32.374  1.00  0.00    -0.014 A 
ATOM     74  C   UNL A   1      45.429  27.568  33.456  1.00  0.00     0.009 A 
ATOM     75  C   UNL A   1      46.597  28.643  31.631  1.00  0.00     0.009 A 
ATOM     76  C   UNL A   1      46.603  26.901  33.810  1.00  0.00     0.001 A 
ATOM     77  C   UNL A   1      47.760  27.951  31.967  1.00  0.00     0.001 A 
ATOM     78  C   UNL A   1      47.766  27.089  33.062  1.00  0.00     0.000 A 
ENDBRANCH  60  73
ENDBRANCH  34  35
ENDBRANCH  26  29
ENDBRANCH  24  25
ENDBRANCH  23  24
ENDBRANCH  22  23
ENDBRANCH   1  22
TORSDOF 15
ENDMDL
MODEL 2
REMARK VINA RESULT:     -10.5      3.042      8.503
REMARK SMILES CC[C@@H]1C=CC[C@@H]2C(=O)N(CCCC(=O)NCCCCNC(=O)c3ccc(-c4c5nc(c(-c6ccccc6)c6ccc([nH]6)c(-c6ccccc6)c6nc(c(-c7ccccc7)c7ccc4[nH]7)C=C6)C=C5)cc3)C(=O)[C@@H]21
REMARK SMILES IDX 17 1 16 2 14 3 15 4 13 6 12 7 11 8 10 9 3 10 4 11 74 12 5 13
REMARK SMILES IDX 7 14 72 15 6 16 8 17 73 18 9 19 2 20 1 21 18 22 19 23 20 24
REMARK SMILES IDX 21 25 22 26 23 28 24 29 25 30 71 31 26 32 70 33 27 34 28 35
REMARK SMILES IDX 29 36 64 37 30 38 69 39 63 40 65 41 31 42 68 43 62 44 61 45
REMARK SMILES IDX 32 47 54 48 39 49 53 50 40 51 43 52 52 53 66 54 41 55 42 56
REMARK SMILES IDX 51 58 67 59 44 60 33 61 34 62 38 63 35 64 37 65 36 66 55 67
REMARK SMILES IDX 56 68 60 69 57 70 59 71 58 72 45 73 46 74 50 75 47 76 49 77
REMARK SMILES IDX 48 78
REMARK H PARENT 16 5 21 27 65 46 43 57
REMARK Flexibility Score: inf
ROOT
ATOM      1  C   UNL A   1      35.552  22.244  24.469  1.00  0.00     0.116 C 
ENDROOT
BRANCH   1   2
ATOM      2  N   UNL A   1      35.102  23.108  23.402  1.00  0.00    -0.356 N 
ATOM      3  C   UNL A   1      33.896  23.260  22.801  1.00  0.00     0.220 C 
ATOM      4  O   UNL A   1      33.814  24.170  21.967  1.00  0.00    -0.275 OA
ATOM      5  H   UNL A   1      35.803  23.698  23.043  1.00  0.00     0.163 HD
BRANCH   3   6
ATOM      6  C   UNL A   1      32.657  22.447  23.144  1.00  0.00     0.102 C 
BRANCH   6   7
ATOM      7  C   UNL A   1      31.595  23.020  24.077  1.00  0.00     0.032 C 
BRANCH   7   8
ATOM      8  C   UNL A   1      31.972  23.726  25.374  1.00  0.00     0.129 C 
BRANCH   8   9
ATOM      9  N   UNL A   1      32.215  25.164  25.399  1.00  0.00    -0.282 N 
ATOM     10  C   UNL A   1      31.030  27.785  23.972  1.00  0.00     0.024 C 
ATOM     11  C   UNL A   1      31.970  27.406  22.849  1.00  0.00    -0.027 C 
ATOM     12  C   UNL A   1      31.572  27.409  25.375  1.00  0.00     0.099 C 
ATOM     13  C   UNL A   1      33.295  27.540  23.002  1.00  0.00    -0.030 C 
ATOM     14  C   UNL A   1      33.098  27.344  25.470  1.00  0.00     0.096 C 
ATOM     15  C   UNL A   1      31.201  26.006  25.765  1.00  0.00     0.233 C 
ATOM     16  C   UNL A   1      33.867  27.984  24.316  1.00  0.00     0.041 C 
ATOM     17  C   UNL A   1      33.381  25.863  25.448  1.00  0.00     0.233 C 
ATOM     18  O   UNL A   1      30.170  25.692  26.335  1.00  0.00    -0.274 OA
ATOM     19  O   UNL A   1      34.525  25.439  25.565  1.00  0.00    -0.274 OA
BRANCH  10  20
ATOM     20  C   UNL A   1      29.553  27.390  23.738  1.00  0.00     0.005 C 
ATOM     21  C   UNL A   1      28.661  28.409  23.036  1.00  0.00     0.004 C 
ENDBRANCH  10  20
ENDBRANCH   8   9
ENDBRANCH   7   8
ENDBRANCH   6   7
ENDBRANCH   3   6
ENDBRANCH   1   2
BRANCH   1  22
ATOM     22  C   UNL A   1      37.080  22.230  24.584  1.00  0.00     0.023 C 
BRANCH  22  23
ATOM     23  C   UNL A   1      37.663  20.889  24.988  1.00  0.00     0.023 C 
BRANCH  23  24
ATOM     24  C   UNL A   1      38.951  20.998  25.785  1.00  0.00     0.116 C 
BRANCH  24  25
ATOM     25  N   UNL A   1      39.821  19.830  25.691  1.00  0.00    -0.352 N 
ATOM     26  C   UNL A   1      41.151  19.747  26.045  1.00  0.00     0.251 C 
ATOM     27  H   UNL A   1      39.413  19.010  25.333  1.00  0.00     0.163 HD
ATOM     28  O   UNL A   1      41.797  18.720  25.876  1.00  0.00    -0.269 OA
BRANCH  26  29
ATOM     29  C   UNL A   1      41.796  20.959  26.584  1.00  0.00     0.039 A 
ATOM     30  C   UNL A   1      42.246  21.935  25.693  1.00  0.00     0.014 A 
ATOM     31  C   UNL A   1      41.792  21.193  27.962  1.00  0.00     0.014 A 
ATOM     32  C   UNL A   1      42.608  23.190  26.185  1.00  0.00     0.010 A 
ATOM     33  C   UNL A   1      42.046  22.474  28.432  1.00  0.00     0.010 A 
ATOM     34  C   UNL A   1      42.456  23.486  27.550  1.00  0.00    -0.014 A 
BRANCH  34  35
ATOM     35  C   UNL A   1      42.722  24.849  28.076  1.00  0.00     0.031 A 
ATOM     36  C   UNL A   1      44.117  25.236  28.484  1.00  0.00     0.074 A 
ATOM     37  C   UNL A   1      41.703  25.716  28.247  1.00  0.00     0.049 A 
ATOM     38  N   UNL A   1      44.545  26.360  28.998  1.00  0.00    -0.248 NA
ATOM     39  C   UNL A   1      45.165  24.213  28.322  1.00  0.00     0.031 C 
ATOM     40  C   UNL A   1      40.295  25.447  27.944  1.00  0.00     0.029 A 
ATOM     41  N   UNL A   1      41.697  27.006  28.718  1.00  0.00    -0.354 N 
ATOM     42  C   UNL A   1      45.900  26.172  29.235  1.00  0.00     0.074 A 
ATOM     43  C   UNL A   1      46.211  24.808  28.873  1.00  0.00     0.031 C 
ATOM     44  C   UNL A   1      39.571  26.550  28.196  1.00  0.00     0.029 A 
ATOM     45  C   UNL A   1      40.453  27.589  28.718  1.00  0.00     0.049 A 
ATOM     46  H   UNL A   1      42.509  27.470  29.026  1.00  0.00     0.167 HD
ATOM     47  C   UNL A   1      46.815  27.062  29.685  1.00  0.00     0.031 A 
ATOM     48  C   UNL A   1      40.065  28.821  29.099  1.00  0.00     0.031 A 
ATOM     49  C   UNL A   1      46.510  28.423  30.033  1.00  0.00     0.049 A 
ATOM     50  C   UNL A   1      41.098  29.788  29.608  1.00  0.00     0.074 A 
ATOM     51  C   UNL A   1      47.375  29.422  30.442  1.00  0.00     0.029 A 
ATOM     52  N   UNL A   1      45.239  28.975  30.016  1.00  0.00    -0.354 N 
ATOM     53  N   UNL A   1      42.390  29.621  29.747  1.00  0.00    -0.248 NA
ATOM     54  C   UNL A   1      40.617  31.122  30.001  1.00  0.00     0.031 C 
ATOM     55  C   UNL A   1      46.618  30.562  30.729  1.00  0.00     0.029 A 
ATOM     56  C   UNL A   1      45.291  30.292  30.436  1.00  0.00     0.049 A 
ATOM     57  H   UNL A   1      44.419  28.499  29.747  1.00  0.00     0.167 HD
ATOM     58  C   UNL A   1      42.881  30.833  30.215  1.00  0.00     0.074 A 
ATOM     59  C   UNL A   1      41.751  31.733  30.317  1.00  0.00     0.031 C 
ATOM     60  C   UNL A   1      44.155  31.173  30.533  1.00  0.00     0.031 A 
BRANCH  47  61
ATOM     61  C   UNL A   1      48.234  26.583  29.828  1.00  0.00    -0.014 A 
ATOM     62  C   UNL A   1      48.660  25.900  30.978  1.00  0.00     0.009 A 
ATOM     63  C   UNL A   1      49.151  26.797  28.788  1.00  0.00     0.009 A 
ATOM     64  C   UNL A   1      49.985  25.476  31.101  1.00  0.00     0.001 A 
ATOM     65  C   UNL A   1      50.467  26.344  28.899  1.00  0.00     0.001 A 
ATOM     66  C   UNL A   1      50.885  25.695  30.059  1.00  0.00     0.000 A 
ENDBRANCH  47  61
BRANCH  48  67
ATOM     67  C   UNL A   1      38.635  29.222  28.997  1.00  0.00    -0.014 A 
ATOM     68  C   UNL A   1      37.791  29.147  30.117  1.00  0.00     0.009 A 
ATOM     69  C   UNL A   1      38.101  29.667  27.778  1.00  0.00     0.009 A 
ATOM     70  C   UNL A   1      36.438  29.479  30.010  1.00  0.00     0.001 A 
ATOM     71  C   UNL A   1      36.755  30.027  27.681  1.00  0.00     0.001 A 
ATOM     72  C   UNL A   1      35.922  29.922  28.794  1.00  0.00     0.000 A 
ENDBRANCH  48  67
BRANCH  60  73
ATOM     73  C   UNL A   1      44.398  32.585  30.986  1.00  0.00    -0.014 A 
ATOM     74  C   UNL A   1      44.364  32.934  32.344  1.00  0.00     0.009 A 
ATOM     75  C   UNL A   1      44.707  33.573  30.037  1.00  0.00     0.009 A 
ATOM     76  C   UNL A   1      44.598  34.253  32.740  1.00  0.00     0.001 A 
ATOM     77  C   UNL A   1      44.973  34.883  30.438  1.00  0.00     0.001 A 
ATOM     78  C   UNL A   1      44.908  35.223  31.787  1.00  0.00     0.000 A 
ENDBRANCH  60  73
ENDBRANCH  34  35
ENDBRANCH  26  29
ENDBRANCH  24  25
ENDBRANCH  23  24
ENDBRANCH  22  23
ENDBRANCH   1  22
TORSDOF 15
ENDMDL
MODEL 3
REMARK VINA RESULT:     -10.4      2.826      8.514
REMARK SMILES CC[C@@H]1C=CC[C@@H]2C(=O)N(CCCC(=O)NCCCCNC(=O)c3ccc(-c4c5nc(c(-c6ccccc6)c6ccc([nH]6)c(-c6ccccc6)c6nc(c(-c7ccccc7)c7ccc4[nH]7)C=C6)C=C5)cc3)C(=O)[C@@H]21
REMARK SMILES IDX 17 1 16 2 14 3 15 4 13 6 12 7 11 8 10 9 3 10 4 11 74 12 5 13
REMARK SMILES IDX 7 14 72 15 6 16 8 17 73 18 9 19 2 20 1 21 18 22 19 23 20 24
REMARK SMILES IDX 21 25 22 26 23 28 24 29 25 30 71 31 26 32 70 33 27 34 28 35
REMARK SMILES IDX 29 36 64 37 30 38 69 39 63 40 65 41 31 42 68 43 62 44 61 45
REMARK SMILES IDX 32 47 54 48 39 49 53 50 40 51 43 52 52 53 66 54 41 55 42 56
REMARK SMILES IDX 51 58 67 59 44 60 33 61 34 62 38 63 35 64 37 65 36 66 55 67
REMARK SMILES IDX 56 68 60 69 57 70 59 71 58 72 45 73 46 74 50 75 47 76 49 77
REMARK SMILES IDX 48 78
REMARK H PARENT 16 5 21 27 65 46 43 57
REMARK Flexibility Score: inf
ROOT
ATOM      1  C   UNL A   1      34.958  20.771  25.007  1.00  0.00     0.116 C 
ENDROOT
BRANCH   1   2
ATOM      2  N   UNL A   1      34.530  21.097  26.348  1.00  0.00    -0.356 N 
ATOM      3  C   UNL A   1      33.935  22.197  26.872  1.00  0.00     0.220 C 
ATOM      4  O   UNL A   1      33.606  22.124  28.062  1.00  0.00    -0.275 OA
ATOM      5  H   UNL A   1      34.703  20.386  27.006  1.00  0.00     0.163 HD
BRANCH   3   6
ATOM      6  C   UNL A   1      33.594  23.449  26.078  1.00  0.00     0.102 C 
BRANCH   6   7
ATOM      7  C   UNL A   1      34.671  24.164  25.269  1.00  0.00     0.032 C 
BRANCH   7   8
ATOM      8  C   UNL A   1      34.340  24.886  23.967  1.00  0.00     0.129 C 
BRANCH   8   9
ATOM      9  N   UNL A   1      33.109  25.657  23.832  1.00  0.00    -0.282 N 
ATOM     10  C   UNL A   1      31.546  27.921  25.486  1.00  0.00     0.024 C 
ATOM     11  C   UNL A   1      31.004  26.749  26.274  1.00  0.00    -0.027 C 
ATOM     12  C   UNL A   1      31.805  27.587  23.994  1.00  0.00     0.099 C 
ATOM     13  C   UNL A   1      30.119  25.910  25.716  1.00  0.00    -0.030 C 
ATOM     14  C   UNL A   1      30.933  26.460  23.435  1.00  0.00     0.096 C 
ATOM     15  C   UNL A   1      33.180  27.022  23.775  1.00  0.00     0.233 C 
ATOM     16  C   UNL A   1      29.721  26.071  24.278  1.00  0.00     0.041 C 
ATOM     17  C   UNL A   1      31.873  25.280  23.407  1.00  0.00     0.233 C 
ATOM     18  O   UNL A   1      34.178  27.686  23.558  1.00  0.00    -0.274 OA
ATOM     19  O   UNL A   1      31.514  24.200  22.954  1.00  0.00    -0.274 OA
BRANCH  10  20
ATOM     20  C   UNL A   1      32.703  28.681  26.174  1.00  0.00     0.005 C 
ATOM     21  C   UNL A   1      32.330  29.691  27.255  1.00  0.00     0.004 C 
ENDBRANCH  10  20
ENDBRANCH   8   9
ENDBRANCH   7   8
ENDBRANCH   6   7
ENDBRANCH   3   6
ENDBRANCH   1   2
BRANCH   1  22
ATOM     22  C   UNL A   1      36.379  20.199  24.986  1.00  0.00     0.023 C 
BRANCH  22  23
ATOM     23  C   UNL A   1      37.461  21.225  24.709  1.00  0.00     0.023 C 
BRANCH  23  24
ATOM     24  C   UNL A   1      38.621  21.171  25.689  1.00  0.00     0.116 C 
BRANCH  24  25
ATOM     25  N   UNL A   1      39.459  19.983  25.569  1.00  0.00    -0.352 N 
ATOM     26  C   UNL A   1      40.774  19.843  25.958  1.00  0.00     0.251 C 
ATOM     27  H   UNL A   1      39.037  19.191  25.164  1.00  0.00     0.163 HD
ATOM     28  O   UNL A   1      41.394  18.806  25.763  1.00  0.00    -0.269 OA
BRANCH  26  29
ATOM     29  C   UNL A   1      41.438  21.012  26.568  1.00  0.00     0.039 A 
ATOM     30  C   UNL A   1      42.064  21.940  25.736  1.00  0.00     0.014 A 
ATOM     31  C   UNL A   1      41.283  21.261  27.934  1.00  0.00     0.014 A 
ATOM     32  C   UNL A   1      42.456  23.171  26.264  1.00  0.00     0.010 A 
ATOM     33  C   UNL A   1      41.573  22.526  28.427  1.00  0.00     0.010 A 
ATOM     34  C   UNL A   1      42.163  23.494  27.600  1.00  0.00    -0.014 A 
BRANCH  34  35
ATOM     35  C   UNL A   1      42.463  24.840  28.150  1.00  0.00     0.031 A 
ATOM     36  C   UNL A   1      43.859  25.169  28.602  1.00  0.00     0.074 A 
ATOM     37  C   UNL A   1      41.473  25.744  28.301  1.00  0.00     0.049 A 
ATOM     38  N   UNL A   1      44.313  26.271  29.143  1.00  0.00    -0.248 NA
ATOM     39  C   UNL A   1      44.872  24.110  28.459  1.00  0.00     0.031 C 
ATOM     40  C   UNL A   1      40.065  25.531  27.954  1.00  0.00     0.029 A 
ATOM     41  N   UNL A   1      41.502  27.027  28.788  1.00  0.00    -0.354 N 
ATOM     42  C   UNL A   1      45.653  26.029  29.417  1.00  0.00     0.074 A 
ATOM     43  C   UNL A   1      45.923  24.659  29.047  1.00  0.00     0.031 C 
ATOM     44  C   UNL A   1      39.376  26.658  28.199  1.00  0.00     0.029 A 
ATOM     45  C   UNL A   1      40.280  27.656  28.760  1.00  0.00     0.049 A 
ATOM     46  H   UNL A   1      42.321  27.456  29.125  1.00  0.00     0.167 HD
ATOM     47  C   UNL A   1      46.587  26.879  29.904  1.00  0.00     0.031 A 
ATOM     48  C   UNL A   1      39.927  28.898  29.144  1.00  0.00     0.031 A 
ATOM     49  C   UNL A   1      46.323  28.247  30.260  1.00  0.00     0.049 A 
ATOM     50  C   UNL A   1      40.980  29.820  29.695  1.00  0.00     0.074 A 
ATOM     51  C   UNL A   1      47.212  29.207  30.706  1.00  0.00     0.029 A 
ATOM     52  N   UNL A   1      45.074  28.846  30.213  1.00  0.00    -0.354 N 
ATOM     53  N   UNL A   1      42.261  29.602  29.869  1.00  0.00    -0.248 NA
ATOM     54  C   UNL A   1      40.539  31.166  30.090  1.00  0.00     0.031 C 
ATOM     55  C   UNL A   1      46.491  30.372  30.986  1.00  0.00     0.029 A 
ATOM     56  C   UNL A   1      45.163  30.156  30.650  1.00  0.00     0.049 A 
ATOM     57  H   UNL A   1      44.246  28.404  29.914  1.00  0.00     0.167 HD
ATOM     58  C   UNL A   1      42.783  30.790  30.367  1.00  0.00     0.074 A 
ATOM     59  C   UNL A   1      41.684  31.730  30.446  1.00  0.00     0.031 C 
ATOM     60  C   UNL A   1      44.059  31.077  30.725  1.00  0.00     0.031 A 
BRANCH  47  61
ATOM     61  C   UNL A   1      47.982  26.345  30.083  1.00  0.00    -0.014 A 
ATOM     62  C   UNL A   1      48.909  26.359  29.028  1.00  0.00     0.009 A 
ATOM     63  C   UNL A   1      48.382  25.842  31.330  1.00  0.00     0.009 A 
ATOM     64  C   UNL A   1      50.194  25.844  29.207  1.00  0.00     0.001 A 
ATOM     65  C   UNL A   1      49.678  25.358  31.516  1.00  0.00     0.001 A 
ATOM     66  C   UNL A   1      50.579  25.349  30.452  1.00  0.00     0.000 A 
ENDBRANCH  47  61
BRANCH  48  67
ATOM     67  C   UNL A   1      38.517  29.354  29.006  1.00  0.00    -0.014 A 
ATOM     68  C   UNL A   1      37.630  29.271  30.092  1.00  0.00     0.009 A 
ATOM     69  C   UNL A   1      38.044  29.859  27.785  1.00  0.00     0.009 A 
ATOM     70  C   UNL A   1      36.294  29.655  29.948  1.00  0.00     0.001 A 
ATOM     71  C   UNL A   1      36.717  30.271  27.653  1.00  0.00     0.001 A 
ATOM     72  C   UNL A   1      35.840  30.158  28.731  1.00  0.00     0.000 A 
ENDBRANCH  48  67
BRANCH  60  73
ATOM     73  C   UNL A   1      44.341  32.475  31.203  1.00  0.00    -0.014 A 
ATOM     74  C   UNL A   1      44.675  33.501  30.307  1.00  0.00     0.009 A 
ATOM     75  C   UNL A   1      44.227  32.774  32.571  1.00  0.00     0.009 A 
ATOM     76  C   UNL A   1      44.927  34.792  30.776  1.00  0.00     0.001 A 
ATOM     77  C   UNL A   1      44.447  34.072  33.032  1.00  0.00     0.001 A 
ATOM     78  C   UNL A   1      44.806  35.077  32.136  1.00  0.00     0.000 A 
ENDBRANCH  60  73
ENDBRANCH  34  35
ENDBRANCH  26  29
ENDBRANCH  24  25
ENDBRANCH  23  24
ENDBRANCH  22  23
ENDBRANCH   1  22
TORSDOF 15
ENDMDL
