MODEL 1
REMARK VINA RESULT:     -12.0      0.000      0.000
REMARK SMILES CC(=O)NC(C)(C)C(=O)N1C[C@@H](C(=O)NCCCCNC(=O)c2ccc(-c3c4nc(c(-c5ccccc5)c5ccc([nH]5)c(-c5ccccc5)c5nc(c(-c6ccccc6)c6ccc3[nH]6)C=C5)C=C4)cc2)[C@H](c2ccccc2C)C1
REMARK SMILES IDX 17 1 16 2 15 3 13 4 14 5 12 7 10 8 11 9 79 10 71 11 8 12
REMARK SMILES IDX 9 13 5 14 6 15 7 16 4 17 1 18 2 19 3 20 72 22 73 23 77 24
REMARK SMILES IDX 74 25 76 26 78 27 75 28 18 29 19 30 20 31 21 32 22 34 23 35
REMARK SMILES IDX 24 36 70 37 25 38 69 39 26 40 27 41 28 42 63 43 29 44 68 45
REMARK SMILES IDX 62 46 64 47 30 48 67 49 61 50 60 51 31 53 53 54 38 55 52 56
REMARK SMILES IDX 39 57 42 58 51 59 65 60 40 61 41 62 50 64 66 65 43 66 32 67
REMARK SMILES IDX 33 68 37 69 34 70 36 71 35 72 54 73 55 74 59 75 56 76 58 77
REMARK SMILES IDX 57 78 44 79 45 80 49 81 46 82 48 83 47 84
REMARK H PARENT 15 6 4 21 20 33 64 52 42 63
REMARK Flexibility Score: inf
ROOT
ATOM      1  C   UNL A   1      31.217  30.754  25.761  1.00  0.00     0.023 C 
ENDROOT
BRANCH   1   2
ATOM      2  C   UNL A   1      32.454  29.921  26.063  1.00  0.00     0.116 C 
BRANCH   2   3
ATOM      3  N   UNL A   1      33.301  29.676  24.908  1.00  0.00    -0.356 N 
ATOM      4  C   UNL A   1      33.256  28.775  23.894  1.00  0.00     0.225 C 
ATOM      5  O   UNL A   1      33.907  29.081  22.888  1.00  0.00    -0.275 OA
ATOM      6  H   UNL A   1      34.066  30.292  24.848  1.00  0.00     0.163 HD
BRANCH   4   7
ATOM      7  C   UNL A   1      32.495  27.456  23.907  1.00  0.00     0.107 C 
ATOM      8  N   UNL A   1      32.877  25.194  23.319  1.00  0.00    -0.339 N 
ATOM      9  C   UNL A   1      33.423  26.275  24.103  1.00  0.00     0.133 C 
ATOM     10  C   UNL A   1      31.977  25.713  22.294  1.00  0.00     0.128 C 
ATOM     11  C   UNL A   1      31.576  27.154  22.694  1.00  0.00     0.053 C 
BRANCH   8  12
ATOM     12  C   UNL A   1      33.403  23.919  23.161  1.00  0.00     0.247 C 
ATOM     13  O   UNL A   1      34.053  23.705  22.135  1.00  0.00    -0.272 OA
BRANCH  12  14
ATOM     14  C   UNL A   1      33.254  22.820  24.289  1.00  0.00     0.113 C 
ATOM     15  C   UNL A   1      34.610  22.094  24.455  1.00  0.00     0.045 C 
ATOM     16  C   UNL A   1      32.145  21.824  23.920  1.00  0.00     0.045 C 
BRANCH  14  17
ATOM     17  N   UNL A   1      32.981  23.293  25.691  1.00  0.00    -0.342 N 
ATOM     18  C   UNL A   1      30.671  24.204  25.876  1.00  0.00     0.114 C 
ATOM     19  C   UNL A   1      31.869  23.507  26.434  1.00  0.00     0.217 C 
ATOM     20  O   UNL A   1      31.921  23.204  27.628  1.00  0.00    -0.275 OA
ATOM     21  H   UNL A   1      33.808  23.496  26.187  1.00  0.00     0.164 HD
ENDBRANCH  14  17
ENDBRANCH  12  14
ENDBRANCH   8  12
BRANCH  11  22
ATOM     22  C   UNL A   1      30.080  27.423  22.991  1.00  0.00    -0.039 A 
ATOM     23  C   UNL A   1      29.245  26.450  23.586  1.00  0.00     0.004 A 
ATOM     24  C   UNL A   1      29.468  28.662  22.665  1.00  0.00    -0.048 A 
ATOM     25  C   UNL A   1      27.893  26.695  23.875  1.00  0.00     0.000 A 
ATOM     26  C   UNL A   1      28.120  28.909  23.014  1.00  0.00     0.004 A 
ATOM     27  C   UNL A   1      30.169  29.803  21.981  1.00  0.00     0.044 C 
ATOM     28  C   UNL A   1      27.334  27.933  23.607  1.00  0.00     0.000 A 
ENDBRANCH  11  22
ENDBRANCH   4   7
ENDBRANCH   2   3
ENDBRANCH   1   2
BRANCH   1  29
ATOM     29  C   UNL A   1      31.098  32.085  26.502  1.00  0.00     0.023 C 
BRANCH  29  30
ATOM     30  C   UNL A   1      32.388  32.881  26.683  1.00  0.00     0.116 C 
BRANCH  30  31
ATOM     31  N   UNL A   1      32.248  34.077  27.500  1.00  0.00    -0.352 N 
ATOM     32  C   UNL A   1      33.042  34.499  28.546  1.00  0.00     0.251 C 
ATOM     33  H   UNL A   1      31.487  34.660  27.277  1.00  0.00     0.163 HD
ATOM     34  O   UNL A   1      32.761  35.501  29.179  1.00  0.00    -0.269 OA
BRANCH  32  35
ATOM     35  C   UNL A   1      34.222  33.687  28.920  1.00  0.00     0.039 A 
ATOM     36  C   UNL A   1      35.466  34.314  29.020  1.00  0.00     0.014 A 
ATOM     37  C   UNL A   1      34.082  32.333  29.230  1.00  0.00     0.014 A 
ATOM     38  C   UNL A   1      36.560  33.598  29.511  1.00  0.00     0.010 A 
ATOM     39  C   UNL A   1      35.154  31.642  29.785  1.00  0.00     0.010 A 
ATOM     40  C   UNL A   1      36.401  32.269  29.939  1.00  0.00    -0.014 A 
BRANCH  40  41
ATOM     41  C   UNL A   1      37.522  31.523  30.563  1.00  0.00     0.031 A 
ATOM     42  C   UNL A   1      37.877  31.758  32.004  1.00  0.00     0.074 A 
ATOM     43  C   UNL A   1      38.268  30.689  29.811  1.00  0.00     0.049 A 
ATOM     44  N   UNL A   1      38.857  31.248  32.706  1.00  0.00    -0.248 NA
ATOM     45  C   UNL A   1      37.037  32.711  32.747  1.00  0.00     0.031 C 
ATOM     46  C   UNL A   1      38.059  30.411  28.388  1.00  0.00     0.029 A 
ATOM     47  N   UNL A   1      39.360  29.925  30.140  1.00  0.00    -0.354 N 
ATOM     48  C   UNL A   1      38.763  31.831  33.964  1.00  0.00     0.074 A 
ATOM     49  C   UNL A   1      37.663  32.769  33.914  1.00  0.00     0.031 C 
ATOM     50  C   UNL A   1      38.975  29.520  27.975  1.00  0.00     0.029 A 
ATOM     51  C   UNL A   1      39.859  29.194  29.088  1.00  0.00     0.049 A 
ATOM     52  H   UNL A   1      39.751  29.904  31.044  1.00  0.00     0.167 HD
ATOM     53  C   UNL A   1      39.510  31.593  35.067  1.00  0.00     0.031 A 
ATOM     54  C   UNL A   1      40.913  28.358  29.026  1.00  0.00     0.031 A 
ATOM     55  C   UNL A   1      40.594  30.649  35.121  1.00  0.00     0.049 A 
ATOM     56  C   UNL A   1      41.729  28.112  30.266  1.00  0.00     0.074 A 
ATOM     57  C   UNL A   1      41.369  30.290  36.210  1.00  0.00     0.029 A 
ATOM     58  N   UNL A   1      41.056  29.916  34.039  1.00  0.00    -0.354 N 
ATOM     59  N   UNL A   1      41.577  28.615  31.467  1.00  0.00    -0.248 NA
ATOM     60  C   UNL A   1      42.854  27.175  30.142  1.00  0.00     0.031 C 
ATOM     61  C   UNL A   1      42.335  29.376  35.774  1.00  0.00     0.029 A 
ATOM     62  C   UNL A   1      42.123  29.124  34.428  1.00  0.00     0.049 A 
ATOM     63  H   UNL A   1      40.681  29.952  33.130  1.00  0.00     0.167 HD
ATOM     64  C   UNL A   1      42.567  28.033  32.248  1.00  0.00     0.074 A 
ATOM     65  C   UNL A   1      43.303  27.129  31.388  1.00  0.00     0.031 C 
ATOM     66  C   UNL A   1      42.843  28.229  33.560  1.00  0.00     0.031 A 
BRANCH  53  67
ATOM     67  C   UNL A   1      39.181  32.375  36.308  1.00  0.00    -0.014 A 
ATOM     68  C   UNL A   1      39.859  33.564  36.621  1.00  0.00     0.009 A 
ATOM     69  C   UNL A   1      38.152  31.938  37.155  1.00  0.00     0.009 A 
ATOM     70  C   UNL A   1      39.539  34.278  37.778  1.00  0.00     0.001 A 
ATOM     71  C   UNL A   1      37.813  32.670  38.296  1.00  0.00     0.001 A 
ATOM     72  C   UNL A   1      38.513  33.834  38.610  1.00  0.00     0.000 A 
ENDBRANCH  53  67
BRANCH  54  73
ATOM     73  C   UNL A   1      41.253  27.677  27.750  1.00  0.00    -0.014 A 
ATOM     74  C   UNL A   1      40.734  26.405  27.461  1.00  0.00     0.009 A 
ATOM     75  C   UNL A   1      42.109  28.287  26.819  1.00  0.00     0.009 A 
ATOM     76  C   UNL A   1      41.089  25.746  26.282  1.00  0.00     0.001 A 
ATOM     77  C   UNL A   1      42.439  27.638  25.628  1.00  0.00     0.001 A 
ATOM     78  C   UNL A   1      41.937  26.364  25.364  1.00  0.00     0.000 A 
ENDBRANCH  54  73
BRANCH  66  79
ATOM     79  C   UNL A   1      43.964  27.426  34.156  1.00  0.00    -0.014 A 
ATOM     80  C   UNL A   1      43.741  26.154  34.705  1.00  0.00     0.009 A 
ATOM     81  C   UNL A   1      45.272  27.935  34.128  1.00  0.00     0.009 A 
ATOM     82  C   UNL A   1      44.801  25.422  35.243  1.00  0.00     0.001 A 
ATOM     83  C   UNL A   1      46.334  27.189  34.640  1.00  0.00     0.001 A 
ATOM     84  C   UNL A   1      46.096  25.938  35.205  1.00  0.00     0.000 A 
ENDBRANCH  66  79
ENDBRANCH  40  41
ENDBRANCH  32  35
ENDBRANCH  30  31
ENDBRANCH  29  30
ENDBRANCH   1  29
TORSDOF 15
ENDMDL
MODEL 2
REMARK VINA RESULT:     -11.9      1.463      2.031
REMARK SMILES CC(=O)NC(C)(C)C(=O)N1C[C@@H](C(=O)NCCCCNC(=O)c2ccc(-c3c4nc(c(-c5ccccc5)c5ccc([nH]5)c(-c5ccccc5)c5nc(c(-c6ccccc6)c6ccc3[nH]6)C=C5)C=C4)cc2)[C@H](c2ccccc2C)C1
REMARK SMILES IDX 17 1 16 2 15 3 13 4 14 5 12 7 10 8 11 9 79 10 71 11 8 12
REMARK SMILES IDX 9 13 5 14 6 15 7 16 4 17 1 18 2 19 3 20 72 22 73 23 77 24
REMARK SMILES IDX 74 25 76 26 78 27 75 28 18 29 19 30 20 31 21 32 22 34 23 35
REMARK SMILES IDX 24 36 70 37 25 38 69 39 26 40 27 41 28 42 63 43 29 44 68 45
REMARK SMILES IDX 62 46 64 47 30 48 67 49 61 50 60 51 31 53 53 54 38 55 52 56
REMARK SMILES IDX 39 57 42 58 51 59 65 60 40 61 41 62 50 64 66 65 43 66 32 67
REMARK SMILES IDX 33 68 37 69 34 70 36 71 35 72 54 73 55 74 59 75 56 76 58 77
REMARK SMILES IDX 57 78 44 79 45 80 49 81 46 82 48 83 47 84
REMARK H PARENT 15 6 4 21 20 33 64 52 42 63
REMARK Flexibility Score: inf
ROOT
ATOM      1  C   UNL A   1      31.885  30.011  26.741  1.00  0.00     0.023 C 
ENDROOT
BRANCH   1   2
ATOM      2  C   UNL A   1      33.318  29.562  26.497  1.00  0.00     0.116 C 
BRANCH   2   3
ATOM      3  N   UNL A   1      33.657  29.397  25.093  1.00  0.00    -0.356 N 
ATOM      4  C   UNL A   1      33.129  28.653  24.088  1.00  0.00     0.225 C 
ATOM      5  O   UNL A   1      33.418  29.030  22.946  1.00  0.00    -0.275 OA
ATOM      6  H   UNL A   1      34.430  29.938  24.813  1.00  0.00     0.163 HD
BRANCH   4   7
ATOM      7  C   UNL A   1      32.244  27.426  24.259  1.00  0.00     0.107 C 
ATOM      8  N   UNL A   1      32.442  25.072  24.082  1.00  0.00    -0.339 N 
ATOM      9  C   UNL A   1      33.039  26.221  24.718  1.00  0.00     0.133 C 
ATOM     10  C   UNL A   1      31.662  25.483  22.919  1.00  0.00     0.128 C 
ATOM     11  C   UNL A   1      31.379  27.000  23.044  1.00  0.00     0.053 C 
BRANCH   8  12
ATOM     12  C   UNL A   1      32.850  23.749  24.178  1.00  0.00     0.247 C 
ATOM     13  O   UNL A   1      33.710  23.370  23.380  1.00  0.00    -0.272 OA
BRANCH  12  14
ATOM     14  C   UNL A   1      32.305  22.799  25.319  1.00  0.00     0.113 C 
ATOM     15  C   UNL A   1      30.888  23.272  25.722  1.00  0.00     0.045 C 
ATOM     16  C   UNL A   1      33.251  22.820  26.529  1.00  0.00     0.045 C 
BRANCH  14  17
ATOM     17  N   UNL A   1      32.063  21.356  24.967  1.00  0.00    -0.342 N 
ATOM     18  C   UNL A   1      34.221  20.144  24.695  1.00  0.00     0.114 C 
ATOM     19  C   UNL A   1      32.776  20.209  25.069  1.00  0.00     0.217 C 
ATOM     20  O   UNL A   1      32.159  19.186  25.376  1.00  0.00    -0.275 OA
ATOM     21  H   UNL A   1      31.174  21.211  24.567  1.00  0.00     0.164 HD
ENDBRANCH  14  17
ENDBRANCH  12  14
ENDBRANCH   8  12
BRANCH  11  22
ATOM     22  C   UNL A   1      29.900  27.442  23.174  1.00  0.00    -0.039 A 
ATOM     23  C   UNL A   1      28.917  26.614  23.763  1.00  0.00     0.004 A 
ATOM     24  C   UNL A   1      29.455  28.702  22.694  1.00  0.00    -0.048 A 
ATOM     25  C   UNL A   1      27.579  27.017  23.900  1.00  0.00     0.000 A 
ATOM     26  C   UNL A   1      28.116  29.113  22.892  1.00  0.00     0.004 A 
ATOM     27  C   UNL A   1      30.331  29.702  21.991  1.00  0.00     0.044 C 
ATOM     28  C   UNL A   1      27.181  28.276  23.482  1.00  0.00     0.000 A 
ENDBRANCH  11  22
ENDBRANCH   4   7
ENDBRANCH   2   3
ENDBRANCH   1   2
BRANCH   1  29
ATOM     29  C   UNL A   1      31.653  31.519  26.834  1.00  0.00     0.023 C 
BRANCH  29  30
ATOM     30  C   UNL A   1      32.854  32.367  27.244  1.00  0.00     0.116 C 
BRANCH  30  31
ATOM     31  N   UNL A   1      32.523  33.732  27.628  1.00  0.00    -0.352 N 
ATOM     32  C   UNL A   1      33.192  34.563  28.503  1.00  0.00     0.251 C 
ATOM     33  H   UNL A   1      31.717  34.110  27.209  1.00  0.00     0.163 HD
ATOM     34  O   UNL A   1      32.757  35.668  28.771  1.00  0.00    -0.269 OA
BRANCH  32  35
ATOM     35  C   UNL A   1      34.430  34.072  29.150  1.00  0.00     0.039 A 
ATOM     36  C   UNL A   1      34.322  33.296  30.306  1.00  0.00     0.014 A 
ATOM     37  C   UNL A   1      35.678  34.326  28.579  1.00  0.00     0.014 A 
ATOM     38  C   UNL A   1      35.466  32.705  30.847  1.00  0.00     0.010 A 
ATOM     39  C   UNL A   1      36.805  33.678  29.076  1.00  0.00     0.010 A 
ATOM     40  C   UNL A   1      36.708  32.855  30.210  1.00  0.00    -0.014 A 
BRANCH  40  41
ATOM     41  C   UNL A   1      37.916  32.149  30.705  1.00  0.00     0.031 A 
ATOM     42  C   UNL A   1      38.714  32.723  31.843  1.00  0.00     0.074 A 
ATOM     43  C   UNL A   1      38.338  31.030  30.083  1.00  0.00     0.049 A 
ATOM     44  N   UNL A   1      39.827  32.285  32.374  1.00  0.00    -0.248 NA
ATOM     45  C   UNL A   1      38.208  33.967  32.446  1.00  0.00     0.031 C 
ATOM     46  C   UNL A   1      37.682  30.398  28.935  1.00  0.00     0.029 A 
ATOM     47  N   UNL A   1      39.426  30.229  30.323  1.00  0.00    -0.354 N 
ATOM     48  C   UNL A   1      40.163  33.207  33.357  1.00  0.00     0.074 A 
ATOM     49  C   UNL A   1      39.166  34.253  33.315  1.00  0.00     0.031 C 
ATOM     50  C   UNL A   1      38.366  29.294  28.591  1.00  0.00     0.029 A 
ATOM     51  C   UNL A   1      39.527  29.161  29.463  1.00  0.00     0.049 A 
ATOM     52  H   UNL A   1      40.074  30.403  31.044  1.00  0.00     0.167 HD
ATOM     53  C   UNL A   1      41.198  33.176  34.230  1.00  0.00     0.031 A 
ATOM     54  C   UNL A   1      40.453  28.188  29.383  1.00  0.00     0.031 A 
ATOM     55  C   UNL A   1      42.182  32.127  34.280  1.00  0.00     0.049 A 
ATOM     56  C   UNL A   1      41.594  28.178  30.363  1.00  0.00     0.074 A 
ATOM     57  C   UNL A   1      43.230  31.974  35.171  1.00  0.00     0.029 A 
ATOM     58  N   UNL A   1      42.238  31.056  33.404  1.00  0.00    -0.354 N 
ATOM     59  N   UNL A   1      41.854  29.016  31.337  1.00  0.00    -0.248 NA
ATOM     60  C   UNL A   1      42.562  27.079  30.239  1.00  0.00     0.031 C 
ATOM     61  C   UNL A   1      43.953  30.835  34.800  1.00  0.00     0.029 A 
ATOM     62  C   UNL A   1      43.319  30.249  33.715  1.00  0.00     0.049 A 
ATOM     63  H   UNL A   1      41.604  30.892  32.669  1.00  0.00     0.167 HD
ATOM     64  C   UNL A   1      42.997  28.531  31.958  1.00  0.00     0.074 A 
ATOM     65  C   UNL A   1      43.371  27.317  31.262  1.00  0.00     0.031 C 
ATOM     66  C   UNL A   1      43.676  29.044  33.013  1.00  0.00     0.031 A 
BRANCH  53  67
ATOM     67  C   UNL A   1      41.320  34.318  35.199  1.00  0.00    -0.014 A 
ATOM     68  C   UNL A   1      42.024  35.486  34.865  1.00  0.00     0.009 A 
ATOM     69  C   UNL A   1      40.689  34.241  36.450  1.00  0.00     0.009 A 
ATOM     70  C   UNL A   1      42.126  36.537  35.778  1.00  0.00     0.001 A 
ATOM     71  C   UNL A   1      40.766  35.307  37.350  1.00  0.00     0.001 A 
ATOM     72  C   UNL A   1      41.492  36.449  37.017  1.00  0.00     0.000 A 
ENDBRANCH  53  67
BRANCH  54  73
ATOM     73  C   UNL A   1      40.337  27.129  28.346  1.00  0.00    -0.014 A 
ATOM     74  C   UNL A   1      39.619  25.952  28.607  1.00  0.00     0.009 A 
ATOM     75  C   UNL A   1      40.955  27.282  27.095  1.00  0.00     0.009 A 
ATOM     76  C   UNL A   1      39.548  24.938  27.649  1.00  0.00     0.001 A 
ATOM     77  C   UNL A   1      40.858  26.280  26.128  1.00  0.00     0.001 A 
ATOM     78  C   UNL A   1      40.163  25.104  26.409  1.00  0.00     0.000 A 
ENDBRANCH  54  73
BRANCH  66  79
ATOM     79  C   UNL A   1      44.872  28.276  33.501  1.00  0.00    -0.014 A 
ATOM     80  C   UNL A   1      46.162  28.550  33.021  1.00  0.00     0.009 A 
ATOM     81  C   UNL A   1      44.708  27.292  34.488  1.00  0.00     0.009 A 
ATOM     82  C   UNL A   1      47.259  27.829  33.496  1.00  0.00     0.001 A 
ATOM     83  C   UNL A   1      45.810  26.594  34.983  1.00  0.00     0.001 A 
ATOM     84  C   UNL A   1      47.083  26.857  34.481  1.00  0.00     0.000 A 
ENDBRANCH  66  79
ENDBRANCH  40  41
ENDBRANCH  32  35
ENDBRANCH  30  31
ENDBRANCH  29  30
ENDBRANCH   1  29
TORSDOF 15
ENDMDL
MODEL 3
REMARK VINA RESULT:     -11.8      4.273      9.529
REMARK SMILES CC(=O)NC(C)(C)C(=O)N1C[C@@H](C(=O)NCCCCNC(=O)c2ccc(-c3c4nc(c(-c5ccccc5)c5ccc([nH]5)c(-c5ccccc5)c5nc(c(-c6ccccc6)c6ccc3[nH]6)C=C5)C=C4)cc2)[C@H](c2ccccc2C)C1
REMARK SMILES IDX 17 1 16 2 15 3 13 4 14 5 12 7 10 8 11 9 79 10 71 11 8 12
REMARK SMILES IDX 9 13 5 14 6 15 7 16 4 17 1 18 2 19 3 20 72 22 73 23 77 24
REMARK SMILES IDX 74 25 76 26 78 27 75 28 18 29 19 30 20 31 21 32 22 34 23 35
REMARK SMILES IDX 24 36 70 37 25 38 69 39 26 40 27 41 28 42 63 43 29 44 68 45
REMARK SMILES IDX 62 46 64 47 30 48 67 49 61 50 60 51 31 53 53 54 38 55 52 56
REMARK SMILES IDX 39 57 42 58 51 59 65 60 40 61 41 62 50 64 66 65 43 66 32 67
REMARK SMILES IDX 33 68 37 69 34 70 36 71 35 72 54 73 55 74 59 75 56 76 58 77
REMARK SMILES IDX 57 78 44 79 45 80 49 81 46 82 48 83 47 84
REMARK H PARENT 15 6 4 21 20 33 64 52 42 63
REMARK Flexibility Score: inf
ROOT
ATOM      1  C   UNL A   1      36.673  21.079  24.832  1.00  0.00     0.023 C 
ENDROOT
BRANCH   1   2
ATOM      2  C   UNL A   1      36.839  22.279  25.754  1.00  0.00     0.116 C 
BRANCH   2   3
ATOM      3  N   UNL A   1      35.909  22.303  26.869  1.00  0.00    -0.356 N 
ATOM      4  C   UNL A   1      34.564  22.466  26.958  1.00  0.00     0.225 C 
ATOM      5  O   UNL A   1      34.053  22.061  28.009  1.00  0.00    -0.275 OA
ATOM      6  H   UNL A   1      36.344  22.174  27.743  1.00  0.00     0.163 HD
BRANCH   4   7
ATOM      7  C   UNL A   1      33.672  23.096  25.898  1.00  0.00     0.107 C 
ATOM      8  N   UNL A   1      32.146  24.899  25.723  1.00  0.00    -0.339 N 
ATOM      9  C   UNL A   1      33.495  24.583  26.125  1.00  0.00     0.133 C 
ATOM     10  C   UNL A   1      31.323  23.694  25.711  1.00  0.00     0.128 C 
ATOM     11  C   UNL A   1      32.269  22.469  25.686  1.00  0.00     0.053 C 
BRANCH   8  12
ATOM     12  C   UNL A   1      31.518  26.136  25.780  1.00  0.00     0.247 C 
ATOM     13  O   UNL A   1      30.515  26.222  26.493  1.00  0.00    -0.272 OA
BRANCH  12  14
ATOM     14  C   UNL A   1      32.115  27.399  25.039  1.00  0.00     0.113 C 
ATOM     15  C   UNL A   1      32.958  28.213  26.049  1.00  0.00     0.045 C 
ATOM     16  C   UNL A   1      30.983  28.260  24.457  1.00  0.00     0.045 C 
BRANCH  14  17
ATOM     17  N   UNL A   1      33.104  27.155  23.932  1.00  0.00    -0.342 N 
ATOM     18  C   UNL A   1      32.150  25.615  22.225  1.00  0.00     0.114 C 
ATOM     19  C   UNL A   1      33.023  26.753  22.642  1.00  0.00     0.217 C 
ATOM     20  O   UNL A   1      33.785  27.290  21.834  1.00  0.00    -0.275 OA
ATOM     21  H   UNL A   1      34.032  27.329  24.214  1.00  0.00     0.164 HD
ENDBRANCH  14  17
ENDBRANCH  12  14
ENDBRANCH   8  12
BRANCH  11  22
ATOM     22  C   UNL A   1      32.205  21.543  24.445  1.00  0.00    -0.039 A 
ATOM     23  C   UNL A   1      31.896  22.033  23.156  1.00  0.00     0.004 A 
ATOM     24  C   UNL A   1      32.443  20.146  24.547  1.00  0.00    -0.048 A 
ATOM     25  C   UNL A   1      31.855  21.201  22.026  1.00  0.00     0.000 A 
ATOM     26  C   UNL A   1      32.452  19.335  23.389  1.00  0.00     0.004 A 
ATOM     27  C   UNL A   1      32.735  19.424  25.833  1.00  0.00     0.044 C 
ATOM     28  C   UNL A   1      32.153  19.854  22.138  1.00  0.00     0.000 A 
ENDBRANCH  11  22
ENDBRANCH   4   7
ENDBRANCH   2   3
ENDBRANCH   1   2
BRANCH   1  29
ATOM     29  C   UNL A   1      37.856  20.115  24.753  1.00  0.00     0.023 C 
BRANCH  29  30
ATOM     30  C   UNL A   1      39.010  20.373  25.718  1.00  0.00     0.116 C 
BRANCH  30  31
ATOM     31  N   UNL A   1      39.999  19.307  25.773  1.00  0.00    -0.352 N 
ATOM     32  C   UNL A   1      41.321  19.382  26.159  1.00  0.00     0.251 C 
ATOM     33  H   UNL A   1      39.682  18.416  25.498  1.00  0.00     0.163 HD
ATOM     34  O   UNL A   1      42.047  18.406  26.094  1.00  0.00    -0.269 OA
BRANCH  32  35
ATOM     35  C   UNL A   1      41.860  20.684  26.612  1.00  0.00     0.039 A 
ATOM     36  C   UNL A   1      42.353  21.577  25.658  1.00  0.00     0.014 A 
ATOM     37  C   UNL A   1      41.818  21.039  27.962  1.00  0.00     0.014 A 
ATOM     38  C   UNL A   1      42.730  22.863  26.049  1.00  0.00     0.010 A 
ATOM     39  C   UNL A   1      42.126  22.342  28.338  1.00  0.00     0.010 A 
ATOM     40  C   UNL A   1      42.577  23.270  27.385  1.00  0.00    -0.014 A 
BRANCH  40  41
ATOM     41  C   UNL A   1      42.870  24.663  27.803  1.00  0.00     0.031 A 
ATOM     42  C   UNL A   1      44.289  25.100  28.037  1.00  0.00     0.074 A 
ATOM     43  C   UNL A   1      41.854  25.516  28.043  1.00  0.00     0.049 A 
ATOM     44  N   UNL A   1      44.739  26.253  28.462  1.00  0.00    -0.248 NA
ATOM     45  C   UNL A   1      45.340  24.099  27.788  1.00  0.00     0.031 C 
ATOM     46  C   UNL A   1      40.430  25.202  27.902  1.00  0.00     0.029 A 
ATOM     47  N   UNL A   1      41.863  26.822  28.466  1.00  0.00    -0.354 N 
ATOM     48  C   UNL A   1      46.118  26.111  28.548  1.00  0.00     0.074 A 
ATOM     49  C   UNL A   1      46.427  24.747  28.181  1.00  0.00     0.031 C 
ATOM     50  C   UNL A   1      39.707  26.292  28.206  1.00  0.00     0.029 A 
ATOM     51  C   UNL A   1      40.609  27.368  28.601  1.00  0.00     0.049 A 
ATOM     52  H   UNL A   1      42.691  27.321  28.655  1.00  0.00     0.167 HD
ATOM     53  C   UNL A   1      47.046  27.039  28.882  1.00  0.00     0.031 A 
ATOM     54  C   UNL A   1      40.228  28.595  29.002  1.00  0.00     0.031 A 
ATOM     55  C   UNL A   1      46.740  28.399  29.232  1.00  0.00     0.049 A 
ATOM     56  C   UNL A   1      41.279  29.606  29.371  1.00  0.00     0.074 A 
ATOM     57  C   UNL A   1      47.616  29.431  29.523  1.00  0.00     0.029 A 
ATOM     58  N   UNL A   1      45.459  28.917  29.340  1.00  0.00    -0.354 N 
ATOM     59  N   UNL A   1      42.584  29.477  29.372  1.00  0.00    -0.248 NA
ATOM     60  C   UNL A   1      40.804  30.934  29.782  1.00  0.00     0.031 C 
ATOM     61  C   UNL A   1      46.861  30.561  29.858  1.00  0.00     0.029 A 
ATOM     62  C   UNL A   1      45.518  30.247  29.719  1.00  0.00     0.049 A 
ATOM     63  H   UNL A   1      44.630  28.413  29.172  1.00  0.00     0.167 HD
ATOM     64  C   UNL A   1      43.085  30.714  29.755  1.00  0.00     0.074 A 
ATOM     65  C   UNL A   1      41.945  31.584  29.961  1.00  0.00     0.031 C 
ATOM     66  C   UNL A   1      44.375  31.098  29.919  1.00  0.00     0.031 A 
BRANCH  53  67
ATOM     67  C   UNL A   1      48.486  26.605  28.890  1.00  0.00    -0.014 A 
ATOM     68  C   UNL A   1      49.284  26.709  27.740  1.00  0.00     0.009 A 
ATOM     69  C   UNL A   1      49.062  26.122  30.075  1.00  0.00     0.009 A 
ATOM     70  C   UNL A   1      50.620  26.302  27.766  1.00  0.00     0.001 A 
ATOM     71  C   UNL A   1      50.406  25.744  30.106  1.00  0.00     0.001 A 
ATOM     72  C   UNL A   1      51.181  25.825  28.950  1.00  0.00     0.000 A 
ENDBRANCH  53  67
BRANCH  54  73
ATOM     73  C   UNL A   1      38.786  28.947  29.064  1.00  0.00    -0.014 A 
ATOM     74  C   UNL A   1      38.122  29.438  27.929  1.00  0.00     0.009 A 
ATOM     75  C   UNL A   1      38.067  28.809  30.262  1.00  0.00     0.009 A 
ATOM     76  C   UNL A   1      36.778  29.810  27.999  1.00  0.00     0.001 A 
ATOM     77  C   UNL A   1      36.715  29.154  30.322  1.00  0.00     0.001 A 
ATOM     78  C   UNL A   1      36.074  29.665  29.194  1.00  0.00     0.000 A 
ENDBRANCH  54  73
BRANCH  66  79
ATOM     79  C   UNL A   1      44.624  32.527  30.309  1.00  0.00    -0.014 A 
ATOM     80  C   UNL A   1      44.706  33.544  29.345  1.00  0.00     0.009 A 
ATOM     81  C   UNL A   1      44.736  32.866  31.666  1.00  0.00     0.009 A 
ATOM     82  C   UNL A   1      44.928  34.866  29.732  1.00  0.00     0.001 A 
ATOM     83  C   UNL A   1      44.928  34.193  32.052  1.00  0.00     0.001 A 
ATOM     84  C   UNL A   1      45.033  35.191  31.084  1.00  0.00     0.000 A 
ENDBRANCH  66  79
ENDBRANCH  40  41
ENDBRANCH  32  35
ENDBRANCH  30  31
ENDBRANCH  29  30
ENDBRANCH   1  29
TORSDOF 15
ENDMDL
