MODEL 1
REMARK VINA RESULT:     -12.4      0.000      0.000
REMARK SMILES CCc1ccc(-c2cc(Cl)cc3c2O[C@H](C(F)(F)F)C(C(=O)NCCCCNC(=O)c2ccc(-c4c5nc(c(-c6ccccc6)c6ccc([nH]6)c(-c6ccccc6)c6nc(c(-c7ccccc7)c7ccc4[nH]7)C=C6)C=C5)cc2)=C3)cc1
REMARK SMILES IDX 25 1 24 2 23 3 21 4 22 5 20 7 7 8 8 9 13 10 9 11 12 12 14 13
REMARK SMILES IDX 10 14 11 15 79 16 15 17 6 18 3 19 4 20 81 21 5 22 80 23 2 24
REMARK SMILES IDX 1 25 16 26 17 27 18 28 19 29 26 30 27 31 28 32 29 33 30 35
REMARK SMILES IDX 31 36 32 37 78 38 33 39 77 40 34 41 35 42 36 43 71 44 37 45
REMARK SMILES IDX 76 46 70 47 72 48 38 49 75 50 69 51 68 52 39 54 61 55 46 56
REMARK SMILES IDX 60 57 47 58 50 59 59 60 73 61 48 62 49 63 58 65 74 66 51 67
REMARK SMILES IDX 40 68 41 69 45 70 42 71 44 72 43 73 62 74 63 75 67 76 64 77
REMARK SMILES IDX 66 78 65 79 52 80 53 81 57 82 54 83 56 84 55 85
REMARK H PARENT 23 6 28 34 72 53 50 64
REMARK Flexibility Score: inf
ROOT
ATOM      1  C   UNL A   1      36.106  20.929  25.134  1.00  0.00     0.023 C 
ENDROOT
BRANCH   1   2
ATOM      2  C   UNL A   1      36.078  22.204  24.277  1.00  0.00     0.116 C 
BRANCH   2   3
ATOM      3  N   UNL A   1      35.714  23.334  25.104  1.00  0.00    -0.352 N 
ATOM      4  C   UNL A   1      34.611  24.115  25.082  1.00  0.00     0.251 C 
ATOM      5  O   UNL A   1      34.721  25.268  25.488  1.00  0.00    -0.270 OA
ATOM      6  H   UNL A   1      36.376  23.573  25.792  1.00  0.00     0.163 HD
BRANCH   4   7
ATOM      7  C   UNL A   1      33.302  23.511  24.687  1.00  0.00     0.067 C 
ATOM      8  C   UNL A   1      31.134  26.939  24.268  1.00  0.00     0.026 A 
ATOM      9  C   UNL A   1      31.405  27.733  25.416  1.00  0.00     0.033 A 
ATOM     10  C   UNL A   1      31.542  25.592  24.335  1.00  0.00     0.135 A 
ATOM     11  C   UNL A   1      31.894  27.199  26.605  1.00  0.00     0.042 A 
ATOM     12  C   UNL A   1      31.917  25.048  25.591  1.00  0.00     0.019 A 
ATOM     13  O   UNL A   1      31.662  24.771  23.220  1.00  0.00    -0.475 OA
ATOM     14  Cl  UNL A   1      32.254  28.239  27.925  1.00  0.00    -0.084 Cl
ATOM     15  C   UNL A   1      32.079  25.838  26.725  1.00  0.00     0.032 A 
ATOM     16  C   UNL A   1      32.354  23.635  25.638  1.00  0.00     0.025 C 
ATOM     17  C   UNL A   1      32.831  23.835  23.274  1.00  0.00     0.314 C 
BRANCH   8  18
ATOM     18  C   UNL A   1      30.295  27.620  23.242  1.00  0.00    -0.015 A 
ATOM     19  C   UNL A   1      28.679  29.725  22.151  1.00  0.00    -0.048 A 
ATOM     20  C   UNL A   1      30.058  29.675  21.915  1.00  0.00     0.004 A 
ATOM     21  C   UNL A   1      28.099  28.638  22.816  1.00  0.00     0.004 A 
ATOM     22  C   UNL A   1      30.847  28.635  22.434  1.00  0.00     0.009 A 
ATOM     23  C   UNL A   1      28.894  27.602  23.353  1.00  0.00     0.009 A 
BRANCH  19  24
ATOM     24  C   UNL A   1      27.892  30.919  21.644  1.00  0.00     0.032 C 
ATOM     25  C   UNL A   1      28.487  32.303  21.894  1.00  0.00     0.009 C 
ENDBRANCH  19  24
ENDBRANCH   8  18
BRANCH  17  26
ATOM     26  C   UNL A   1      32.532  22.499  22.554  1.00  0.00     0.429 C 
ATOM     27  F   UNL A   1      32.891  22.513  21.252  1.00  0.00    -0.167 F 
ATOM     28  F   UNL A   1      33.172  21.464  23.150  1.00  0.00    -0.167 F 
ATOM     29  F   UNL A   1      31.208  22.184  22.582  1.00  0.00    -0.167 F 
ENDBRANCH  17  26
ENDBRANCH   4   7
ENDBRANCH   2   3
ENDBRANCH   1   2
BRANCH   1  30
ATOM     30  C   UNL A   1      37.335  20.030  24.934  1.00  0.00     0.023 C 
BRANCH  30  31
ATOM     31  C   UNL A   1      38.617  20.541  25.577  1.00  0.00     0.116 C 
BRANCH  31  32
ATOM     32  N   UNL A   1      39.622  19.495  25.688  1.00  0.00    -0.352 N 
ATOM     33  C   UNL A   1      40.944  19.597  26.038  1.00  0.00     0.251 C 
ATOM     34  H   UNL A   1      39.307  18.586  25.482  1.00  0.00     0.163 HD
ATOM     35  O   UNL A   1      41.697  18.636  25.881  1.00  0.00    -0.269 OA
BRANCH  33  36
ATOM     36  C   UNL A   1      41.474  20.865  26.580  1.00  0.00     0.039 A 
ATOM     37  C   UNL A   1      41.974  21.823  25.695  1.00  0.00     0.014 A 
ATOM     38  C   UNL A   1      41.481  21.111  27.957  1.00  0.00     0.014 A 
ATOM     39  C   UNL A   1      42.421  23.052  26.184  1.00  0.00     0.010 A 
ATOM     40  C   UNL A   1      41.855  22.364  28.435  1.00  0.00     0.010 A 
ATOM     41  C   UNL A   1      42.330  23.350  27.554  1.00  0.00    -0.014 A 
BRANCH  41  42
ATOM     42  C   UNL A   1      42.716  24.685  28.080  1.00  0.00     0.031 A 
ATOM     43  C   UNL A   1      41.671  25.740  28.323  1.00  0.00     0.074 A 
ATOM     44  C   UNL A   1      44.019  24.970  28.279  1.00  0.00     0.049 A 
ATOM     45  N   UNL A   1      41.825  26.976  28.727  1.00  0.00    -0.248 NA
ATOM     46  C   UNL A   1      40.272  25.369  28.053  1.00  0.00     0.031 C 
ATOM     47  C   UNL A   1      45.136  24.054  28.037  1.00  0.00     0.029 A 
ATOM     48  N   UNL A   1      44.626  26.121  28.718  1.00  0.00    -0.354 N 
ATOM     49  C   UNL A   1      40.552  27.533  28.735  1.00  0.00     0.074 A 
ATOM     50  C   UNL A   1      39.642  26.516  28.259  1.00  0.00     0.031 C 
ATOM     51  C   UNL A   1      46.287  24.670  28.352  1.00  0.00     0.029 A 
ATOM     52  C   UNL A   1      45.998  26.035  28.774  1.00  0.00     0.049 A 
ATOM     53  H   UNL A   1      44.127  26.932  28.970  1.00  0.00     0.167 HD
ATOM     54  C   UNL A   1      40.173  28.775  29.119  1.00  0.00     0.031 A 
ATOM     55  C   UNL A   1      46.920  26.957  29.113  1.00  0.00     0.031 A 
ATOM     56  C   UNL A   1      41.076  29.781  29.613  1.00  0.00     0.049 A 
ATOM     57  C   UNL A   1      46.468  28.329  29.532  1.00  0.00     0.074 A 
ATOM     58  C   UNL A   1      40.774  31.040  30.103  1.00  0.00     0.029 A 
ATOM     59  N   UNL A   1      42.453  29.647  29.673  1.00  0.00    -0.354 N 
ATOM     60  N   UNL A   1      45.251  28.807  29.626  1.00  0.00    -0.248 NA
ATOM     61  C   UNL A   1      47.520  29.287  29.905  1.00  0.00     0.031 C 
ATOM     62  C   UNL A   1      41.974  31.693  30.397  1.00  0.00     0.029 A 
ATOM     63  C   UNL A   1      43.019  30.815  30.156  1.00  0.00     0.049 A 
ATOM     64  H   UNL A   1      42.955  28.842  29.410  1.00  0.00     0.167 HD
ATOM     65  C   UNL A   1      45.390  30.106  30.097  1.00  0.00     0.074 A 
ATOM     66  C   UNL A   1      46.806  30.334  30.290  1.00  0.00     0.031 C 
ATOM     67  C   UNL A   1      44.429  31.028  30.348  1.00  0.00     0.031 A 
BRANCH  54  68
ATOM     68  C   UNL A   1      38.715  29.131  29.009  1.00  0.00    -0.014 A 
ATOM     69  C   UNL A   1      37.842  28.983  30.097  1.00  0.00     0.009 A 
ATOM     70  C   UNL A   1      38.227  29.688  27.817  1.00  0.00     0.009 A 
ATOM     71  C   UNL A   1      36.500  29.359  29.983  1.00  0.00     0.001 A 
ATOM     72  C   UNL A   1      36.893  30.091  27.715  1.00  0.00     0.001 A 
ATOM     73  C   UNL A   1      36.031  29.919  28.795  1.00  0.00     0.000 A 
ENDBRANCH  54  68
BRANCH  55  74
ATOM     74  C   UNL A   1      48.370  26.623  29.064  1.00  0.00    -0.014 A 
ATOM     75  C   UNL A   1      49.122  26.862  27.903  1.00  0.00     0.009 A 
ATOM     76  C   UNL A   1      49.001  26.028  30.167  1.00  0.00     0.009 A 
ATOM     77  C   UNL A   1      50.463  26.475  27.834  1.00  0.00     0.001 A 
ATOM     78  C   UNL A   1      50.350  25.674  30.108  1.00  0.00     0.001 A 
ATOM     79  C   UNL A   1      51.076  25.884  28.938  1.00  0.00     0.000 A 
ENDBRANCH  55  74
BRANCH  67  80
ATOM     80  C   UNL A   1      44.871  32.355  30.899  1.00  0.00    -0.014 A 
ATOM     81  C   UNL A   1      45.162  33.439  30.056  1.00  0.00     0.009 A 
ATOM     82  C   UNL A   1      44.959  32.533  32.289  1.00  0.00     0.009 A 
ATOM     83  C   UNL A   1      45.566  34.663  30.594  1.00  0.00     0.001 A 
ATOM     84  C   UNL A   1      45.330  33.767  32.825  1.00  0.00     0.001 A 
ATOM     85  C   UNL A   1      45.643  34.828  31.977  1.00  0.00     0.000 A 
ENDBRANCH  67  80
ENDBRANCH  41  42
ENDBRANCH  33  36
ENDBRANCH  31  32
ENDBRANCH  30  31
ENDBRANCH   1  30
TORSDOF 14
ENDMDL
MODEL 2
REMARK VINA RESULT:     -11.8      5.524     10.770
REMARK SMILES CCc1ccc(-c2cc(Cl)cc3c2O[C@H](C(F)(F)F)C(C(=O)NCCCCNC(=O)c2ccc(-c4c5nc(c(-c6ccccc6)c6ccc([nH]6)c(-c6ccccc6)c6nc(c(-c7ccccc7)c7ccc4[nH]7)C=C6)C=C5)cc2)=C3)cc1
REMARK SMILES IDX 25 1 24 2 23 3 21 4 22 5 20 7 7 8 8 9 13 10 9 11 12 12 14 13
REMARK SMILES IDX 10 14 11 15 79 16 15 17 6 18 3 19 4 20 81 21 5 22 80 23 2 24
REMARK SMILES IDX 1 25 16 26 17 27 18 28 19 29 26 30 27 31 28 32 29 33 30 35
REMARK SMILES IDX 31 36 32 37 78 38 33 39 77 40 34 41 35 42 36 43 71 44 37 45
REMARK SMILES IDX 76 46 70 47 72 48 38 49 75 50 69 51 68 52 39 54 61 55 46 56
REMARK SMILES IDX 60 57 47 58 50 59 59 60 73 61 48 62 49 63 58 65 74 66 51 67
REMARK SMILES IDX 40 68 41 69 45 70 42 71 44 72 43 73 62 74 63 75 67 76 64 77
REMARK SMILES IDX 66 78 65 79 52 80 53 81 57 82 54 83 56 84 55 85
REMARK H PARENT 23 6 28 34 72 53 50 64
REMARK Flexibility Score: inf
ROOT
ATOM      1  C   UNL A   1      42.392  22.017  25.785  1.00  0.00     0.023 C 
ENDROOT
BRANCH   1   2
ATOM      2  C   UNL A   1      43.071  23.358  25.469  1.00  0.00     0.116 C 
BRANCH   2   3
ATOM      3  N   UNL A   1      44.250  23.126  24.663  1.00  0.00    -0.352 N 
ATOM      4  C   UNL A   1      45.500  23.626  24.777  1.00  0.00     0.251 C 
ATOM      5  O   UNL A   1      46.175  23.712  23.756  1.00  0.00    -0.270 OA
ATOM      6  H   UNL A   1      44.121  22.504  23.911  1.00  0.00     0.163 HD
BRANCH   4   7
ATOM      7  C   UNL A   1      46.038  23.932  26.138  1.00  0.00     0.067 C 
ATOM      8  C   UNL A   1      46.323  27.985  25.802  1.00  0.00     0.026 A 
ATOM      9  C   UNL A   1      46.947  28.245  24.550  1.00  0.00     0.033 A 
ATOM     10  C   UNL A   1      46.386  26.655  26.261  1.00  0.00     0.135 A 
ATOM     11  C   UNL A   1      47.717  27.300  23.879  1.00  0.00     0.042 A 
ATOM     12  C   UNL A   1      47.277  25.749  25.628  1.00  0.00     0.019 A 
ATOM     13  O   UNL A   1      45.571  26.153  27.269  1.00  0.00    -0.475 OA
ATOM     14  Cl  UNL A   1      48.384  27.675  22.340  1.00  0.00    -0.084 Cl
ATOM     15  C   UNL A   1      47.952  26.069  24.454  1.00  0.00     0.032 A 
ATOM     16  C   UNL A   1      47.319  24.354  26.118  1.00  0.00     0.025 C 
ATOM     17  C   UNL A   1      45.116  24.744  27.040  1.00  0.00     0.314 C 
BRANCH   8  18
ATOM     18  C   UNL A   1      45.856  29.208  26.513  1.00  0.00    -0.015 A 
ATOM     19  C   UNL A   1      44.749  31.845  26.750  1.00  0.00    -0.048 A 
ATOM     20  C   UNL A   1      43.937  30.707  26.838  1.00  0.00     0.004 A 
ATOM     21  C   UNL A   1      46.133  31.644  26.685  1.00  0.00     0.004 A 
ATOM     22  C   UNL A   1      44.480  29.416  26.740  1.00  0.00     0.009 A 
ATOM     23  C   UNL A   1      46.678  30.347  26.569  1.00  0.00     0.009 A 
BRANCH  19  24
ATOM     24  C   UNL A   1      44.097  33.214  26.771  1.00  0.00     0.032 C 
ATOM     25  C   UNL A   1      43.929  33.885  28.133  1.00  0.00     0.009 C 
ENDBRANCH  19  24
ENDBRANCH   8  18
BRANCH  17  26
ATOM     26  C   UNL A   1      44.949  23.970  28.369  1.00  0.00     0.429 C 
ATOM     27  F   UNL A   1      45.299  22.669  28.267  1.00  0.00    -0.167 F 
ATOM     28  F   UNL A   1      45.690  24.523  29.358  1.00  0.00    -0.167 F 
ATOM     29  F   UNL A   1      43.663  23.984  28.815  1.00  0.00    -0.167 F 
ENDBRANCH  17  26
ENDBRANCH   4   7
ENDBRANCH   2   3
ENDBRANCH   1   2
BRANCH   1  30
ATOM     30  C   UNL A   1      42.290  21.668  27.277  1.00  0.00     0.023 C 
BRANCH  30  31
ATOM     31  C   UNL A   1      40.874  21.640  27.835  1.00  0.00     0.116 C 
BRANCH  31  32
ATOM     32  N   UNL A   1      39.873  21.719  26.782  1.00  0.00    -0.352 N 
ATOM     33  C   UNL A   1      39.101  22.785  26.398  1.00  0.00     0.251 C 
ATOM     34  H   UNL A   1      39.732  20.888  26.272  1.00  0.00     0.163 HD
ATOM     35  O   UNL A   1      38.162  22.615  25.622  1.00  0.00    -0.269 OA
BRANCH  33  36
ATOM     36  C   UNL A   1      39.378  24.134  26.933  1.00  0.00     0.039 A 
ATOM     37  C   UNL A   1      38.963  24.446  28.230  1.00  0.00     0.014 A 
ATOM     38  C   UNL A   1      40.042  25.092  26.161  1.00  0.00     0.014 A 
ATOM     39  C   UNL A   1      39.271  25.694  28.775  1.00  0.00     0.010 A 
ATOM     40  C   UNL A   1      40.415  26.306  26.731  1.00  0.00     0.010 A 
ATOM     41  C   UNL A   1      40.033  26.622  28.045  1.00  0.00    -0.014 A 
BRANCH  41  42
ATOM     42  C   UNL A   1      40.447  27.919  28.642  1.00  0.00     0.031 A 
ATOM     43  C   UNL A   1      41.841  28.101  29.178  1.00  0.00     0.074 A 
ATOM     44  C   UNL A   1      39.545  28.914  28.760  1.00  0.00     0.049 A 
ATOM     45  N   UNL A   1      42.364  29.139  29.781  1.00  0.00    -0.248 NA
ATOM     46  C   UNL A   1      42.762  26.959  29.045  1.00  0.00     0.031 C 
ATOM     47  C   UNL A   1      38.148  28.853  28.324  1.00  0.00     0.029 A 
ATOM     48  N   UNL A   1      39.667  30.173  29.296  1.00  0.00    -0.354 N 
ATOM     49  C   UNL A   1      43.660  28.767  30.118  1.00  0.00     0.074 A 
ATOM     50  C   UNL A   1      43.833  27.397  29.691  1.00  0.00     0.031 C 
ATOM     51  C   UNL A   1      37.551  30.025  28.589  1.00  0.00     0.029 A 
ATOM     52  C   UNL A   1      38.505  30.907  29.253  1.00  0.00     0.049 A 
ATOM     53  H   UNL A   1      40.508  30.519  29.675  1.00  0.00     0.167 HD
ATOM     54  C   UNL A   1      44.624  29.506  30.717  1.00  0.00     0.031 A 
ATOM     55  C   UNL A   1      38.233  32.145  29.709  1.00  0.00     0.031 A 
ATOM     56  C   UNL A   1      44.460  30.877  31.123  1.00  0.00     0.049 A 
ATOM     57  C   UNL A   1      39.324  32.939  30.372  1.00  0.00     0.074 A 
ATOM     58  C   UNL A   1      45.405  31.732  31.663  1.00  0.00     0.029 A 
ATOM     59  N   UNL A   1      43.274  31.588  31.043  1.00  0.00    -0.354 N 
ATOM     60  N   UNL A   1      40.572  32.606  30.595  1.00  0.00    -0.248 NA
ATOM     61  C   UNL A   1      38.971  34.290  30.836  1.00  0.00     0.031 C 
ATOM     62  C   UNL A   1      44.775  32.940  31.971  1.00  0.00     0.029 A 
ATOM     63  C   UNL A   1      43.454  32.861  31.558  1.00  0.00     0.049 A 
ATOM     64  H   UNL A   1      42.429  31.241  30.676  1.00  0.00     0.167 HD
ATOM     65  C   UNL A   1      41.158  33.713  31.194  1.00  0.00     0.074 A 
ATOM     66  C   UNL A   1      40.137  34.735  31.281  1.00  0.00     0.031 C 
ATOM     67  C   UNL A   1      42.431  33.870  31.634  1.00  0.00     0.031 A 
BRANCH  54  68
ATOM     68  C   UNL A   1      45.949  28.847  30.986  1.00  0.00    -0.014 A 
ATOM     69  C   UNL A   1      46.966  28.825  30.020  1.00  0.00     0.009 A 
ATOM     70  C   UNL A   1      46.205  28.300  32.254  1.00  0.00     0.009 A 
ATOM     71  C   UNL A   1      48.204  28.243  30.308  1.00  0.00     0.001 A 
ATOM     72  C   UNL A   1      47.453  27.746  32.549  1.00  0.00     0.001 A 
ATOM     73  C   UNL A   1      48.447  27.711  31.574  1.00  0.00     0.000 A 
ENDBRANCH  54  68
BRANCH  55  74
ATOM     74  C   UNL A   1      36.865  32.715  29.566  1.00  0.00    -0.014 A 
ATOM     75  C   UNL A   1      35.919  32.576  30.594  1.00  0.00     0.009 A 
ATOM     76  C   UNL A   1      36.487  33.370  28.384  1.00  0.00     0.009 A 
ATOM     77  C   UNL A   1      34.613  33.043  30.424  1.00  0.00     0.001 A 
ATOM     78  C   UNL A   1      35.191  33.867  28.231  1.00  0.00     0.001 A 
ATOM     79  C   UNL A   1      34.252  33.691  29.244  1.00  0.00     0.000 A 
ENDBRANCH  55  74
BRANCH  67  80
ATOM     80  C   UNL A   1      42.803  35.208  32.210  1.00  0.00    -0.014 A 
ATOM     81  C   UNL A   1      42.510  35.541  33.542  1.00  0.00     0.009 A 
ATOM     82  C   UNL A   1      43.497  36.135  31.416  1.00  0.00     0.009 A 
ATOM     83  C   UNL A   1      42.871  36.788  34.054  1.00  0.00     0.001 A 
ATOM     84  C   UNL A   1      43.886  37.368  31.940  1.00  0.00     0.001 A 
ATOM     85  C   UNL A   1      43.565  37.698  33.255  1.00  0.00     0.000 A 
ENDBRANCH  67  80
ENDBRANCH  41  42
ENDBRANCH  33  36
ENDBRANCH  31  32
ENDBRANCH  30  31
ENDBRANCH   1  30
TORSDOF 14
ENDMDL
MODEL 3
REMARK VINA RESULT:     -11.8      2.722      6.814
REMARK SMILES CCc1ccc(-c2cc(Cl)cc3c2O[C@H](C(F)(F)F)C(C(=O)NCCCCNC(=O)c2ccc(-c4c5nc(c(-c6ccccc6)c6ccc([nH]6)c(-c6ccccc6)c6nc(c(-c7ccccc7)c7ccc4[nH]7)C=C6)C=C5)cc2)=C3)cc1
REMARK SMILES IDX 25 1 24 2 23 3 21 4 22 5 20 7 7 8 8 9 13 10 9 11 12 12 14 13
REMARK SMILES IDX 10 14 11 15 79 16 15 17 6 18 3 19 4 20 81 21 5 22 80 23 2 24
REMARK SMILES IDX 1 25 16 26 17 27 18 28 19 29 26 30 27 31 28 32 29 33 30 35
REMARK SMILES IDX 31 36 32 37 78 38 33 39 77 40 34 41 35 42 36 43 71 44 37 45
REMARK SMILES IDX 76 46 70 47 72 48 38 49 75 50 69 51 68 52 39 54 61 55 46 56
REMARK SMILES IDX 60 57 47 58 50 59 59 60 73 61 48 62 49 63 58 65 74 66 51 67
REMARK SMILES IDX 40 68 41 69 45 70 42 71 44 72 43 73 62 74 63 75 67 76 64 77
REMARK SMILES IDX 66 78 65 79 52 80 53 81 57 82 54 83 56 84 55 85
REMARK H PARENT 23 6 28 34 72 53 50 64
REMARK Flexibility Score: inf
ROOT
ATOM      1  C   UNL A   1      35.829  21.615  24.441  1.00  0.00     0.023 C 
ENDROOT
BRANCH   1   2
ATOM      2  C   UNL A   1      34.299  21.688  24.555  1.00  0.00     0.116 C 
BRANCH   2   3
ATOM      3  N   UNL A   1      33.788  22.640  23.593  1.00  0.00    -0.352 N 
ATOM      4  C   UNL A   1      32.722  23.469  23.664  1.00  0.00     0.251 C 
ATOM      5  O   UNL A   1      32.183  23.795  22.611  1.00  0.00    -0.270 OA
ATOM      6  H   UNL A   1      34.298  22.694  22.753  1.00  0.00     0.163 HD
BRANCH   4   7
ATOM      7  C   UNL A   1      32.332  24.038  24.989  1.00  0.00     0.067 C 
ATOM      8  C   UNL A   1      31.366  27.813  23.788  1.00  0.00     0.026 A 
ATOM      9  C   UNL A   1      32.420  28.251  22.940  1.00  0.00     0.033 A 
ATOM     10  C   UNL A   1      31.623  26.657  24.552  1.00  0.00     0.135 A 
ATOM     11  C   UNL A   1      33.692  27.685  22.961  1.00  0.00     0.042 A 
ATOM     12  C   UNL A   1      32.957  26.181  24.652  1.00  0.00     0.019 A 
ATOM     13  O   UNL A   1      30.629  25.909  25.168  1.00  0.00    -0.475 OA
ATOM     14  Cl  UNL A   1      34.890  28.231  21.858  1.00  0.00    -0.084 Cl
ATOM     15  C   UNL A   1      33.991  26.697  23.875  1.00  0.00     0.032 A 
ATOM     16  C   UNL A   1      33.204  24.958  25.447  1.00  0.00     0.025 C 
ATOM     17  C   UNL A   1      30.865  24.429  25.129  1.00  0.00     0.314 C 
BRANCH   8  18
ATOM     18  C   UNL A   1      30.218  28.759  23.867  1.00  0.00    -0.015 A 
ATOM     19  C   UNL A   1      28.617  31.013  23.098  1.00  0.00    -0.048 A 
ATOM     20  C   UNL A   1      28.354  29.732  22.595  1.00  0.00     0.004 A 
ATOM     21  C   UNL A   1      29.594  31.125  24.094  1.00  0.00     0.004 A 
ATOM     22  C   UNL A   1      29.126  28.626  22.985  1.00  0.00     0.009 A 
ATOM     23  C   UNL A   1      30.382  30.017  24.474  1.00  0.00     0.009 A 
BRANCH  19  24
ATOM     24  C   UNL A   1      27.810  32.186  22.573  1.00  0.00     0.032 C 
ATOM     25  C   UNL A   1      27.851  32.441  21.068  1.00  0.00     0.009 C 
ENDBRANCH  19  24
ENDBRANCH   8  18
BRANCH  17  26
ATOM     26  C   UNL A   1      30.302  23.723  26.385  1.00  0.00     0.429 C 
ATOM     27  F   UNL A   1      29.250  24.375  26.926  1.00  0.00    -0.167 F 
ATOM     28  F   UNL A   1      29.906  22.458  26.103  1.00  0.00    -0.167 F 
ATOM     29  F   UNL A   1      31.232  23.611  27.373  1.00  0.00    -0.167 F 
ENDBRANCH  17  26
ENDBRANCH   4   7
ENDBRANCH   2   3
ENDBRANCH   1   2
BRANCH   1  30
ATOM     30  C   UNL A   1      36.542  22.968  24.303  1.00  0.00     0.023 C 
BRANCH  30  31
ATOM     31  C   UNL A   1      37.343  23.401  25.524  1.00  0.00     0.116 C 
BRANCH  31  32
ATOM     32  N   UNL A   1      38.554  22.611  25.686  1.00  0.00    -0.352 N 
ATOM     33  C   UNL A   1      39.775  22.988  26.184  1.00  0.00     0.251 C 
ATOM     34  H   UNL A   1      38.486  21.672  25.397  1.00  0.00     0.163 HD
ATOM     35  O   UNL A   1      40.746  22.243  26.058  1.00  0.00    -0.269 OA
BRANCH  33  36
ATOM     36  C   UNL A   1      39.934  24.297  26.850  1.00  0.00     0.039 A 
ATOM     37  C   UNL A   1      39.356  24.491  28.107  1.00  0.00     0.014 A 
ATOM     38  C   UNL A   1      40.647  25.333  26.239  1.00  0.00     0.014 A 
ATOM     39  C   UNL A   1      39.548  25.700  28.779  1.00  0.00     0.010 A 
ATOM     40  C   UNL A   1      40.902  26.507  26.942  1.00  0.00     0.010 A 
ATOM     41  C   UNL A   1      40.355  26.706  28.219  1.00  0.00    -0.014 A 
BRANCH  41  42
ATOM     42  C   UNL A   1      40.644  27.962  28.959  1.00  0.00     0.031 A 
ATOM     43  C   UNL A   1      41.934  28.121  29.717  1.00  0.00     0.074 A 
ATOM     44  C   UNL A   1      39.714  28.937  29.002  1.00  0.00     0.049 A 
ATOM     45  N   UNL A   1      42.335  29.120  30.462  1.00  0.00    -0.248 NA
ATOM     46  C   UNL A   1      42.888  27.001  29.653  1.00  0.00     0.031 C 
ATOM     47  C   UNL A   1      38.402  28.892  28.351  1.00  0.00     0.029 A 
ATOM     48  N   UNL A   1      39.725  30.157  29.634  1.00  0.00    -0.354 N 
ATOM     49  C   UNL A   1      43.571  28.740  30.971  1.00  0.00     0.074 A 
ATOM     50  C   UNL A   1      43.837  27.404  30.485  1.00  0.00     0.031 C 
ATOM     51  C   UNL A   1      37.746  30.037  28.598  1.00  0.00     0.029 A 
ATOM     52  C   UNL A   1      38.568  30.880  29.460  1.00  0.00     0.049 A 
ATOM     53  H   UNL A   1      40.489  30.485  30.161  1.00  0.00     0.167 HD
ATOM     54  C   UNL A   1      44.415  29.445  31.761  1.00  0.00     0.031 A 
ATOM     55  C   UNL A   1      38.202  32.080  29.950  1.00  0.00     0.031 A 
ATOM     56  C   UNL A   1      44.161  30.782  32.228  1.00  0.00     0.049 A 
ATOM     57  C   UNL A   1      39.161  32.838  30.827  1.00  0.00     0.074 A 
ATOM     58  C   UNL A   1      44.994  31.608  32.964  1.00  0.00     0.029 A 
ATOM     59  N   UNL A   1      42.987  31.485  32.012  1.00  0.00    -0.354 N 
ATOM     60  N   UNL A   1      40.366  32.503  31.219  1.00  0.00    -0.248 NA
ATOM     61  C   UNL A   1      38.712  34.149  31.319  1.00  0.00     0.031 C 
ATOM     62  C   UNL A   1      44.298  32.785  33.251  1.00  0.00     0.029 A 
ATOM     63  C   UNL A   1      43.058  32.721  32.633  1.00  0.00     0.049 A 
ATOM     64  H   UNL A   1      42.217  31.155  31.495  1.00  0.00     0.167 HD
ATOM     65  C   UNL A   1      40.829  33.572  31.975  1.00  0.00     0.074 A 
ATOM     66  C   UNL A   1      39.785  34.574  31.969  1.00  0.00     0.031 C 
ATOM     67  C   UNL A   1      42.015  33.712  32.617  1.00  0.00     0.031 A 
BRANCH  54  68
ATOM     68  C   UNL A   1      45.697  28.783  32.188  1.00  0.00    -0.014 A 
ATOM     69  C   UNL A   1      46.873  28.910  31.435  1.00  0.00     0.009 A 
ATOM     70  C   UNL A   1      45.740  28.078  33.401  1.00  0.00     0.009 A 
ATOM     71  C   UNL A   1      48.062  28.319  31.874  1.00  0.00     0.001 A 
ATOM     72  C   UNL A   1      46.936  27.514  33.853  1.00  0.00     0.001 A 
ATOM     73  C   UNL A   1      48.092  27.629  33.085  1.00  0.00     0.000 A 
ENDBRANCH  54  68
BRANCH  55  74
ATOM     74  C   UNL A   1      36.861  32.645  29.635  1.00  0.00    -0.014 A 
ATOM     75  C   UNL A   1      35.784  32.472  30.519  1.00  0.00     0.009 A 
ATOM     76  C   UNL A   1      36.642  33.328  28.429  1.00  0.00     0.009 A 
ATOM     77  C   UNL A   1      34.510  32.935  30.183  1.00  0.00     0.001 A 
ATOM     78  C   UNL A   1      35.375  33.820  28.111  1.00  0.00     0.001 A 
ATOM     79  C   UNL A   1      34.307  33.611  28.981  1.00  0.00     0.000 A 
ENDBRANCH  55  74
BRANCH  67  80
ATOM     80  C   UNL A   1      42.265  35.009  33.332  1.00  0.00    -0.014 A 
ATOM     81  C   UNL A   1      43.038  36.029  32.754  1.00  0.00     0.009 A 
ATOM     82  C   UNL A   1      41.680  35.231  34.590  1.00  0.00     0.009 A 
ATOM     83  C   UNL A   1      43.250  37.228  33.438  1.00  0.00     0.001 A 
ATOM     84  C   UNL A   1      41.867  36.443  35.256  1.00  0.00     0.001 A 
ATOM     85  C   UNL A   1      42.659  37.436  34.685  1.00  0.00     0.000 A 
ENDBRANCH  67  80
ENDBRANCH  41  42
ENDBRANCH  33  36
ENDBRANCH  31  32
ENDBRANCH  30  31
ENDBRANCH   1  30
TORSDOF 14
ENDMDL
