MODEL 1
REMARK VINA RESULT:     -10.9      0.000      0.000
REMARK SMILES O=C(NCCCCNC(=O)[C@H]1C[C@@H]1C(=O)Nc1ccc(Cl)c(Br)c1)c1ccc(-c2c3nc(c(-c4ccccc4)c4ccc([nH]4)c(-c4ccccc4)c4nc(c(-c5ccccc5)c5ccc2[nH]5)C=C4)C=C3)cc1
REMARK SMILES IDX 5 1 4 2 3 3 1 4 2 5 25 7 26 8 72 9 27 10 71 11 28 12 29 13
REMARK SMILES IDX 30 14 65 15 31 16 70 17 64 18 66 19 32 20 69 21 63 22 62 23
REMARK SMILES IDX 33 25 55 26 40 27 54 28 41 29 44 30 53 31 67 32 42 33 43 34
REMARK SMILES IDX 52 36 68 37 45 38 34 39 35 40 39 41 36 42 38 43 37 44 56 45
REMARK SMILES IDX 57 46 61 47 58 48 60 49 59 50 46 51 47 52 51 53 48 54 50 55
REMARK SMILES IDX 49 56 6 57 7 58 8 59 9 60 10 62 11 63 12 64 13 65 14 66
REMARK SMILES IDX 15 67 16 68 17 70 18 71 24 72 19 73 22 74 20 75 23 76 21 77
REMARK H PARENT 3 6 66 24 44 35 8 61 16 69
REMARK Flexibility Score: inf
ROOT
ATOM      1  C   UNL A   1      32.165  28.296  27.543  1.00  0.00     0.023 C 
ENDROOT
BRANCH   1   2
ATOM      2  C   UNL A   1      33.544  28.899  27.292  1.00  0.00     0.116 C 
BRANCH   2   3
ATOM      3  N   UNL A   1      33.624  30.289  27.708  1.00  0.00    -0.352 N 
ATOM      4  O   UNL A   1      34.473  32.082  28.770  1.00  0.00    -0.269 OA
ATOM      5  C   UNL A   1      34.648  30.948  28.334  1.00  0.00     0.251 C 
ATOM      6  H   UNL A   1      32.829  30.835  27.510  1.00  0.00     0.163 HD
BRANCH   5   7
ATOM      7  C   UNL A   1      35.965  30.298  28.488  1.00  0.00     0.039 A 
ATOM      8  C   UNL A   1      36.265  29.669  29.698  1.00  0.00     0.014 A 
ATOM      9  C   UNL A   1      36.922  30.364  27.471  1.00  0.00     0.014 A 
ATOM     10  C   UNL A   1      37.526  29.103  29.890  1.00  0.00     0.010 A 
ATOM     11  C   UNL A   1      38.153  29.738  27.636  1.00  0.00     0.010 A 
ATOM     12  C   UNL A   1      38.480  29.136  28.861  1.00  0.00    -0.014 A 
BRANCH  12  13
ATOM     13  C   UNL A   1      39.860  28.640  29.075  1.00  0.00     0.031 A 
ATOM     14  C   UNL A   1      40.890  29.567  29.659  1.00  0.00     0.074 A 
ATOM     15  C   UNL A   1      40.197  27.385  28.723  1.00  0.00     0.049 A 
ATOM     16  N   UNL A   1      42.172  29.370  29.834  1.00  0.00    -0.248 NA
ATOM     17  C   UNL A   1      40.426  30.900  30.086  1.00  0.00     0.031 C 
ATOM     18  C   UNL A   1      39.285  26.392  28.154  1.00  0.00     0.029 A 
ATOM     19  N   UNL A   1      41.404  26.733  28.786  1.00  0.00    -0.354 N 
ATOM     20  C   UNL A   1      42.664  30.554  30.369  1.00  0.00     0.074 A 
ATOM     21  C   UNL A   1      41.560  31.482  30.448  1.00  0.00     0.031 C 
ATOM     22  C   UNL A   1      39.961  25.254  27.932  1.00  0.00     0.029 A 
ATOM     23  C   UNL A   1      41.363  25.451  28.295  1.00  0.00     0.049 A 
ATOM     24  H   UNL A   1      42.220  27.145  29.150  1.00  0.00     0.167 HD
ATOM     25  C   UNL A   1      43.921  30.831  30.779  1.00  0.00     0.031 A 
ATOM     26  C   UNL A   1      42.346  24.540  28.133  1.00  0.00     0.031 A 
ATOM     27  C   UNL A   1      45.007  29.890  30.734  1.00  0.00     0.049 A 
ATOM     28  C   UNL A   1      43.745  24.885  28.569  1.00  0.00     0.074 A 
ATOM     29  C   UNL A   1      46.305  30.066  31.178  1.00  0.00     0.029 A 
ATOM     30  N   UNL A   1      44.922  28.605  30.226  1.00  0.00    -0.354 N 
ATOM     31  N   UNL A   1      44.187  25.994  29.112  1.00  0.00    -0.248 NA
ATOM     32  C   UNL A   1      44.779  23.856  28.384  1.00  0.00     0.031 C 
ATOM     33  C   UNL A   1      47.025  28.913  30.872  1.00  0.00     0.029 A 
ATOM     34  C   UNL A   1      46.157  27.988  30.315  1.00  0.00     0.049 A 
ATOM     35  H   UNL A   1      44.107  28.193  29.856  1.00  0.00     0.167 HD
ATOM     36  C   UNL A   1      45.541  25.789  29.353  1.00  0.00     0.074 A 
ATOM     37  C   UNL A   1      45.845  24.444  28.914  1.00  0.00     0.031 C 
ATOM     38  C   UNL A   1      46.446  26.642  29.888  1.00  0.00     0.031 A 
BRANCH  25  39
ATOM     39  C   UNL A   1      44.213  32.198  31.334  1.00  0.00    -0.014 A 
ATOM     40  C   UNL A   1      43.991  32.455  32.697  1.00  0.00     0.009 A 
ATOM     41  C   UNL A   1      44.567  33.261  30.489  1.00  0.00     0.009 A 
ATOM     42  C   UNL A   1      44.086  33.755  33.197  1.00  0.00     0.001 A 
ATOM     43  C   UNL A   1      44.693  34.555  31.000  1.00  0.00     0.001 A 
ATOM     44  C   UNL A   1      44.437  34.803  32.348  1.00  0.00     0.000 A 
ENDBRANCH  25  39
BRANCH  26  45
ATOM     45  C   UNL A   1      42.024  23.217  27.532  1.00  0.00    -0.014 A 
ATOM     46  C   UNL A   1      41.464  22.194  28.316  1.00  0.00     0.009 A 
ATOM     47  C   UNL A   1      42.320  22.948  26.187  1.00  0.00     0.009 A 
ATOM     48  C   UNL A   1      41.236  20.926  27.779  1.00  0.00     0.001 A 
ATOM     49  C   UNL A   1      42.056  21.689  25.641  1.00  0.00     0.001 A 
ATOM     50  C   UNL A   1      41.527  20.676  26.440  1.00  0.00     0.000 A 
ENDBRANCH  26  45
BRANCH  38  51
ATOM     51  C   UNL A   1      47.865  26.173  30.062  1.00  0.00    -0.014 A 
ATOM     52  C   UNL A   1      48.285  25.689  31.313  1.00  0.00     0.009 A 
ATOM     53  C   UNL A   1      48.818  26.365  29.052  1.00  0.00     0.009 A 
ATOM     54  C   UNL A   1      49.637  25.443  31.560  1.00  0.00     0.001 A 
ATOM     55  C   UNL A   1      50.164  26.085  29.291  1.00  0.00     0.001 A 
ATOM     56  C   UNL A   1      50.574  25.640  30.549  1.00  0.00     0.000 A 
ENDBRANCH  38  51
ENDBRANCH  12  13
ENDBRANCH   5   7
ENDBRANCH   2   3
ENDBRANCH   1   2
BRANCH   1  57
ATOM     57  C   UNL A   1      31.619  27.439  26.397  1.00  0.00     0.023 C 
BRANCH  57  58
ATOM     58  C   UNL A   1      32.279  26.068  26.283  1.00  0.00     0.116 C 
BRANCH  58  59
ATOM     59  N   UNL A   1      31.421  25.032  26.819  1.00  0.00    -0.356 N 
ATOM     60  C   UNL A   1      31.652  23.688  26.880  1.00  0.00     0.223 C 
ATOM     61  H   UNL A   1      30.559  25.336  27.186  1.00  0.00     0.163 HD
ATOM     62  O   UNL A   1      30.791  22.936  27.332  1.00  0.00    -0.275 OA
BRANCH  60  63
ATOM     63  C   UNL A   1      32.961  23.159  26.423  1.00  0.00     0.091 C 
ATOM     64  C   UNL A   1      33.226  21.677  26.472  1.00  0.00     0.028 C 
ATOM     65  C   UNL A   1      33.029  22.361  25.137  1.00  0.00     0.092 C 
BRANCH  65  66
ATOM     66  C   UNL A   1      34.196  22.556  24.235  1.00  0.00     0.228 C 
ATOM     67  O   UNL A   1      35.150  21.785  24.291  1.00  0.00    -0.274 OA
ATOM     68  N   UNL A   1      34.121  23.488  23.229  1.00  0.00    -0.326 N 
ATOM     69  H   UNL A   1      34.795  23.389  22.518  1.00  0.00     0.169 HD
BRANCH  68  70
ATOM     70  C   UNL A   1      33.232  24.557  23.058  1.00  0.00     0.042 A 
ATOM     71  C   UNL A   1      31.851  24.391  22.958  1.00  0.00     0.028 A 
ATOM     72  C   UNL A   1      33.766  25.848  23.043  1.00  0.00     0.043 A 
ATOM     73  C   UNL A   1      31.018  25.493  22.753  1.00  0.00     0.024 A 
ATOM     74  C   UNL A   1      32.936  26.955  22.825  1.00  0.00     0.038 A 
ATOM     75  C   UNL A   1      31.559  26.776  22.665  1.00  0.00     0.055 A 
ATOM     76  Br  UNL A   1      33.764  28.662  22.737  1.00  0.00    -0.049 Br
ATOM     77  Cl  UNL A   1      30.470  28.083  22.371  1.00  0.00    -0.083 Cl
ENDBRANCH  68  70
ENDBRANCH  65  66
ENDBRANCH  60  63
ENDBRANCH  58  59
ENDBRANCH  57  58
ENDBRANCH   1  57
TORSDOF 13
ENDMDL
MODEL 2
REMARK VINA RESULT:     -10.9      2.082      3.014
REMARK SMILES O=C(NCCCCNC(=O)[C@H]1C[C@@H]1C(=O)Nc1ccc(Cl)c(Br)c1)c1ccc(-c2c3nc(c(-c4ccccc4)c4ccc([nH]4)c(-c4ccccc4)c4nc(c(-c5ccccc5)c5ccc2[nH]5)C=C4)C=C3)cc1
REMARK SMILES IDX 5 1 4 2 3 3 1 4 2 5 25 7 26 8 72 9 27 10 71 11 28 12 29 13
REMARK SMILES IDX 30 14 65 15 31 16 70 17 64 18 66 19 32 20 69 21 63 22 62 23
REMARK SMILES IDX 33 25 55 26 40 27 54 28 41 29 44 30 53 31 67 32 42 33 43 34
REMARK SMILES IDX 52 36 68 37 45 38 34 39 35 40 39 41 36 42 38 43 37 44 56 45
REMARK SMILES IDX 57 46 61 47 58 48 60 49 59 50 46 51 47 52 51 53 48 54 50 55
REMARK SMILES IDX 49 56 6 57 7 58 8 59 9 60 10 62 11 63 12 64 13 65 14 66
REMARK SMILES IDX 15 67 16 68 17 70 18 71 24 72 19 73 22 74 20 75 23 76 21 77
REMARK H PARENT 3 6 66 24 44 35 8 61 16 69
REMARK Flexibility Score: inf
ROOT
ATOM      1  C   UNL A   1      32.608  28.852  25.901  1.00  0.00     0.023 C 
ENDROOT
BRANCH   1   2
ATOM      2  C   UNL A   1      33.645  28.971  27.014  1.00  0.00     0.116 C 
BRANCH   2   3
ATOM      3  N   UNL A   1      33.648  30.289  27.627  1.00  0.00    -0.352 N 
ATOM      4  O   UNL A   1      34.367  31.935  28.981  1.00  0.00    -0.269 OA
ATOM      5  C   UNL A   1      34.610  30.882  28.401  1.00  0.00     0.251 C 
ATOM      6  H   UNL A   1      32.845  30.834  27.461  1.00  0.00     0.163 HD
BRANCH   5   7
ATOM      7  C   UNL A   1      35.941  30.256  28.539  1.00  0.00     0.039 A 
ATOM      8  C   UNL A   1      36.267  29.636  29.747  1.00  0.00     0.014 A 
ATOM      9  C   UNL A   1      36.883  30.338  27.510  1.00  0.00     0.014 A 
ATOM     10  C   UNL A   1      37.541  29.094  29.925  1.00  0.00     0.010 A 
ATOM     11  C   UNL A   1      38.128  29.735  27.661  1.00  0.00     0.010 A 
ATOM     12  C   UNL A   1      38.481  29.143  28.883  1.00  0.00    -0.014 A 
BRANCH  12  13
ATOM     13  C   UNL A   1      39.873  28.672  29.082  1.00  0.00     0.031 A 
ATOM     14  C   UNL A   1      40.897  29.625  29.635  1.00  0.00     0.074 A 
ATOM     15  C   UNL A   1      40.225  27.418  28.741  1.00  0.00     0.049 A 
ATOM     16  N   UNL A   1      42.184  29.452  29.791  1.00  0.00    -0.248 NA
ATOM     17  C   UNL A   1      40.417  30.956  30.050  1.00  0.00     0.031 C 
ATOM     18  C   UNL A   1      39.320  26.403  28.202  1.00  0.00     0.029 A 
ATOM     19  N   UNL A   1      41.443  26.787  28.793  1.00  0.00    -0.354 N 
ATOM     20  C   UNL A   1      42.665  30.651  30.301  1.00  0.00     0.074 A 
ATOM     21  C   UNL A   1      41.547  31.562  30.385  1.00  0.00     0.031 C 
ATOM     22  C   UNL A   1      40.011  25.273  27.985  1.00  0.00     0.029 A 
ATOM     23  C   UNL A   1      41.416  25.497  28.321  1.00  0.00     0.049 A 
ATOM     24  H   UNL A   1      42.259  27.218  29.138  1.00  0.00     0.167 HD
ATOM     25  C   UNL A   1      43.924  30.955  30.686  1.00  0.00     0.031 A 
ATOM     26  C   UNL A   1      42.411  24.601  28.156  1.00  0.00     0.031 A 
ATOM     27  C   UNL A   1      45.025  30.032  30.636  1.00  0.00     0.049 A 
ATOM     28  C   UNL A   1      43.812  24.976  28.564  1.00  0.00     0.074 A 
ATOM     29  C   UNL A   1      46.327  30.235  31.056  1.00  0.00     0.029 A 
ATOM     30  N   UNL A   1      44.953  28.738  30.147  1.00  0.00    -0.354 N 
ATOM     31  N   UNL A   1      44.244  26.100  29.083  1.00  0.00    -0.248 NA
ATOM     32  C   UNL A   1      44.860  23.962  28.376  1.00  0.00     0.031 C 
ATOM     33  C   UNL A   1      47.061  29.091  30.753  1.00  0.00     0.029 A 
ATOM     34  C   UNL A   1      46.199  28.143  30.224  1.00  0.00     0.049 A 
ATOM     35  H   UNL A   1      44.139  28.307  29.797  1.00  0.00     0.167 HD
ATOM     36  C   UNL A   1      45.605  25.920  29.304  1.00  0.00     0.074 A 
ATOM     37  C   UNL A   1      45.924  24.574  28.879  1.00  0.00     0.031 C 
ATOM     38  C   UNL A   1      46.504  26.796  29.812  1.00  0.00     0.031 A 
BRANCH  25  39
ATOM     39  C   UNL A   1      44.202  32.334  31.216  1.00  0.00    -0.014 A 
ATOM     40  C   UNL A   1      43.974  32.614  32.573  1.00  0.00     0.009 A 
ATOM     41  C   UNL A   1      44.549  33.385  30.353  1.00  0.00     0.009 A 
ATOM     42  C   UNL A   1      44.056  33.924  33.050  1.00  0.00     0.001 A 
ATOM     43  C   UNL A   1      44.662  34.689  30.840  1.00  0.00     0.001 A 
ATOM     44  C   UNL A   1      44.399  34.959  32.183  1.00  0.00     0.000 A 
ENDBRANCH  25  39
BRANCH  26  45
ATOM     45  C   UNL A   1      42.102  23.265  27.579  1.00  0.00    -0.014 A 
ATOM     46  C   UNL A   1      42.321  23.010  26.214  1.00  0.00     0.009 A 
ATOM     47  C   UNL A   1      41.540  22.252  28.371  1.00  0.00     0.009 A 
ATOM     48  C   UNL A   1      41.958  21.785  25.649  1.00  0.00     0.001 A 
ATOM     49  C   UNL A   1      41.210  21.015  27.811  1.00  0.00     0.001 A 
ATOM     50  C   UNL A   1      41.408  20.786  26.449  1.00  0.00     0.000 A 
ENDBRANCH  26  45
BRANCH  38  51
ATOM     51  C   UNL A   1      47.933  26.353  29.969  1.00  0.00    -0.014 A 
ATOM     52  C   UNL A   1      48.375  25.868  31.212  1.00  0.00     0.009 A 
ATOM     53  C   UNL A   1      48.872  26.571  28.950  1.00  0.00     0.009 A 
ATOM     54  C   UNL A   1      49.734  25.646  31.443  1.00  0.00     0.001 A 
ATOM     55  C   UNL A   1      50.226  26.315  29.175  1.00  0.00     0.001 A 
ATOM     56  C   UNL A   1      50.657  25.869  30.425  1.00  0.00     0.000 A 
ENDBRANCH  38  51
ENDBRANCH  12  13
ENDBRANCH   5   7
ENDBRANCH   2   3
ENDBRANCH   1   2
BRANCH   1  57
ATOM     57  C   UNL A   1      33.177  28.478  24.529  1.00  0.00     0.023 C 
BRANCH  57  58
ATOM     58  C   UNL A   1      32.121  28.368  23.432  1.00  0.00     0.116 C 
BRANCH  58  59
ATOM     59  N   UNL A   1      32.675  27.771  22.235  1.00  0.00    -0.356 N 
ATOM     60  C   UNL A   1      32.806  26.447  21.930  1.00  0.00     0.223 C 
ATOM     61  H   UNL A   1      33.000  28.402  21.552  1.00  0.00     0.163 HD
ATOM     62  O   UNL A   1      33.343  26.109  20.878  1.00  0.00    -0.275 OA
BRANCH  60  63
ATOM     63  C   UNL A   1      32.266  25.434  22.869  1.00  0.00     0.091 C 
ATOM     64  C   UNL A   1      32.654  23.986  22.711  1.00  0.00     0.028 C 
ATOM     65  C   UNL A   1      33.198  24.786  23.875  1.00  0.00     0.092 C 
BRANCH  65  66
ATOM     66  C   UNL A   1      32.693  24.516  25.248  1.00  0.00     0.228 C 
ATOM     67  O   UNL A   1      31.830  25.241  25.737  1.00  0.00    -0.274 OA
ATOM     68  N   UNL A   1      33.066  23.360  25.888  1.00  0.00    -0.326 N 
ATOM     69  H   UNL A   1      32.506  23.111  26.659  1.00  0.00     0.169 HD
BRANCH  68  70
ATOM     70  C   UNL A   1      34.119  22.479  25.611  1.00  0.00     0.042 A 
ATOM     71  C   UNL A   1      33.924  21.192  25.111  1.00  0.00     0.028 A 
ATOM     72  C   UNL A   1      35.422  22.947  25.800  1.00  0.00     0.043 A 
ATOM     73  C   UNL A   1      35.013  20.347  24.888  1.00  0.00     0.024 A 
ATOM     74  C   UNL A   1      36.517  22.099  25.591  1.00  0.00     0.038 A 
ATOM     75  C   UNL A   1      36.312  20.789  25.146  1.00  0.00     0.055 A 
ATOM     76  Br  UNL A   1      38.244  22.798  25.955  1.00  0.00    -0.049 Br
ATOM     77  Cl  UNL A   1      37.603  19.673  24.884  1.00  0.00    -0.083 Cl
ENDBRANCH  68  70
ENDBRANCH  65  66
ENDBRANCH  60  63
ENDBRANCH  58  59
ENDBRANCH  57  58
ENDBRANCH   1  57
TORSDOF 13
ENDMDL
MODEL 3
REMARK VINA RESULT:     -10.8      2.271      7.148
REMARK SMILES O=C(NCCCCNC(=O)[C@H]1C[C@@H]1C(=O)Nc1ccc(Cl)c(Br)c1)c1ccc(-c2c3nc(c(-c4ccccc4)c4ccc([nH]4)c(-c4ccccc4)c4nc(c(-c5ccccc5)c5ccc2[nH]5)C=C4)C=C3)cc1
REMARK SMILES IDX 5 1 4 2 3 3 1 4 2 5 25 7 26 8 72 9 27 10 71 11 28 12 29 13
REMARK SMILES IDX 30 14 65 15 31 16 70 17 64 18 66 19 32 20 69 21 63 22 62 23
REMARK SMILES IDX 33 25 55 26 40 27 54 28 41 29 44 30 53 31 67 32 42 33 43 34
REMARK SMILES IDX 52 36 68 37 45 38 34 39 35 40 39 41 36 42 38 43 37 44 56 45
REMARK SMILES IDX 57 46 61 47 58 48 60 49 59 50 46 51 47 52 51 53 48 54 50 55
REMARK SMILES IDX 49 56 6 57 7 58 8 59 9 60 10 62 11 63 12 64 13 65 14 66
REMARK SMILES IDX 15 67 16 68 17 70 18 71 24 72 19 73 22 74 20 75 23 76 21 77
REMARK H PARENT 3 6 66 24 44 35 8 61 16 69
REMARK Flexibility Score: inf
ROOT
ATOM      1  C   UNL A   1      37.754  19.928  24.953  1.00  0.00     0.023 C 
ENDROOT
BRANCH   1   2
ATOM      2  C   UNL A   1      38.969  20.350  25.772  1.00  0.00     0.116 C 
BRANCH   2   3
ATOM      3  N   UNL A   1      39.999  19.325  25.803  1.00  0.00    -0.352 N 
ATOM      4  O   UNL A   1      42.092  18.500  25.848  1.00  0.00    -0.269 OA
ATOM      5  C   UNL A   1      41.343  19.453  26.035  1.00  0.00     0.251 C 
ATOM      6  H   UNL A   1      39.686  18.407  25.633  1.00  0.00     0.163 HD
BRANCH   5   7
ATOM      7  C   UNL A   1      41.894  20.738  26.512  1.00  0.00     0.039 A 
ATOM      8  C   UNL A   1      41.959  20.970  27.887  1.00  0.00     0.014 A 
ATOM      9  C   UNL A   1      42.281  21.733  25.609  1.00  0.00     0.014 A 
ATOM     10  C   UNL A   1      42.416  22.201  28.361  1.00  0.00     0.010 A 
ATOM     11  C   UNL A   1      42.803  22.932  26.082  1.00  0.00     0.010 A 
ATOM     12  C   UNL A   1      42.838  23.192  27.461  1.00  0.00    -0.014 A 
BRANCH  12  13
ATOM     13  C   UNL A   1      43.225  24.543  27.931  1.00  0.00     0.031 A 
ATOM     14  C   UNL A   1      42.149  25.550  28.233  1.00  0.00     0.074 A 
ATOM     15  C   UNL A   1      44.523  24.877  28.057  1.00  0.00     0.049 A 
ATOM     16  N   UNL A   1      42.268  26.812  28.556  1.00  0.00    -0.248 NA
ATOM     17  C   UNL A   1      40.752  25.086  28.140  1.00  0.00     0.031 C 
ATOM     18  C   UNL A   1      45.654  23.986  27.800  1.00  0.00     0.029 A 
ATOM     19  N   UNL A   1      45.108  26.063  28.427  1.00  0.00    -0.354 N 
ATOM     20  C   UNL A   1      40.970  27.291  28.685  1.00  0.00     0.074 A 
ATOM     21  C   UNL A   1      40.076  26.204  28.361  1.00  0.00     0.031 C 
ATOM     22  C   UNL A   1      46.796  24.652  28.033  1.00  0.00     0.029 A 
ATOM     23  C   UNL A   1      46.481  26.030  28.405  1.00  0.00     0.049 A 
ATOM     24  H   UNL A   1      44.592  26.861  28.685  1.00  0.00     0.167 HD
ATOM     25  C   UNL A   1      40.563  28.523  29.064  1.00  0.00     0.031 A 
ATOM     26  C   UNL A   1      47.387  27.002  28.637  1.00  0.00     0.031 A 
ATOM     27  C   UNL A   1      41.458  29.589  29.422  1.00  0.00     0.049 A 
ATOM     28  C   UNL A   1      46.907  28.375  29.027  1.00  0.00     0.074 A 
ATOM     29  C   UNL A   1      41.135  30.857  29.871  1.00  0.00     0.029 A 
ATOM     30  N   UNL A   1      42.840  29.513  29.383  1.00  0.00    -0.354 N 
ATOM     31  N   UNL A   1      45.677  28.802  29.185  1.00  0.00    -0.248 NA
ATOM     32  C   UNL A   1      47.933  29.398  29.281  1.00  0.00     0.031 C 
ATOM     33  C   UNL A   1      42.319  31.572  30.032  1.00  0.00     0.029 A 
ATOM     34  C   UNL A   1      43.383  30.725  29.767  1.00  0.00     0.049 A 
ATOM     35  H   UNL A   1      43.357  28.717  29.120  1.00  0.00     0.167 HD
ATOM     36  C   UNL A   1      45.782  30.131  29.579  1.00  0.00     0.074 A 
ATOM     37  C   UNL A   1      47.194  30.437  29.652  1.00  0.00     0.031 C 
ATOM     38  C   UNL A   1      44.793  31.015  29.851  1.00  0.00     0.031 A 
BRANCH  25  39
ATOM     39  C   UNL A   1      39.088  28.804  29.134  1.00  0.00    -0.014 A 
ATOM     40  C   UNL A   1      38.431  29.339  28.014  1.00  0.00     0.009 A 
ATOM     41  C   UNL A   1      38.383  28.675  30.340  1.00  0.00     0.009 A 
ATOM     42  C   UNL A   1      37.107  29.771  28.109  1.00  0.00     0.001 A 
ATOM     43  C   UNL A   1      37.048  29.077  30.423  1.00  0.00     0.001 A 
ATOM     44  C   UNL A   1      36.417  29.639  29.313  1.00  0.00     0.000 A 
ENDBRANCH  25  39
BRANCH  26  45
ATOM     45  C   UNL A   1      48.838  26.695  28.506  1.00  0.00    -0.014 A 
ATOM     46  C   UNL A   1      49.477  26.789  27.258  1.00  0.00     0.009 A 
ATOM     47  C   UNL A   1      49.583  26.257  29.611  1.00  0.00     0.009 A 
ATOM     48  C   UNL A   1      50.817  26.425  27.112  1.00  0.00     0.001 A 
ATOM     49  C   UNL A   1      50.933  25.927  29.470  1.00  0.00     0.001 A 
ATOM     50  C   UNL A   1      51.546  25.999  28.219  1.00  0.00     0.000 A 
ENDBRANCH  26  45
BRANCH  38  51
ATOM     51  C   UNL A   1      45.168  32.408  30.277  1.00  0.00    -0.014 A 
ATOM     52  C   UNL A   1      45.405  33.390  29.300  1.00  0.00     0.009 A 
ATOM     53  C   UNL A   1      45.449  32.702  31.619  1.00  0.00     0.009 A 
ATOM     54  C   UNL A   1      45.951  34.625  29.654  1.00  0.00     0.001 A 
ATOM     55  C   UNL A   1      45.963  33.950  31.973  1.00  0.00     0.001 A 
ATOM     56  C   UNL A   1      46.229  34.904  30.990  1.00  0.00     0.000 A 
ENDBRANCH  38  51
ENDBRANCH  12  13
ENDBRANCH   5   7
ENDBRANCH   2   3
ENDBRANCH   1   2
BRANCH   1  57
ATOM     57  C   UNL A   1      36.709  21.028  24.737  1.00  0.00     0.023 C 
BRANCH  57  58
ATOM     58  C   UNL A   1      35.275  20.576  24.998  1.00  0.00     0.116 C 
BRANCH  58  59
ATOM     59  N   UNL A   1      34.825  21.005  26.306  1.00  0.00    -0.356 N 
ATOM     60  C   UNL A   1      33.601  21.492  26.664  1.00  0.00     0.223 C 
ATOM     61  H   UNL A   1      35.488  20.939  27.031  1.00  0.00     0.163 HD
ATOM     62  O   UNL A   1      33.397  21.854  27.820  1.00  0.00    -0.275 OA
BRANCH  60  63
ATOM     63  C   UNL A   1      32.521  21.547  25.647  1.00  0.00     0.091 C 
ATOM     64  C   UNL A   1      31.330  22.443  25.869  1.00  0.00     0.028 C 
ATOM     65  C   UNL A   1      32.353  22.801  24.813  1.00  0.00     0.092 C 
BRANCH  65  66
ATOM     66  C   UNL A   1      31.999  22.662  23.375  1.00  0.00     0.228 C 
ATOM     67  O   UNL A   1      32.157  21.584  22.806  1.00  0.00    -0.274 OA
ATOM     68  N   UNL A   1      31.338  23.685  22.742  1.00  0.00    -0.326 N 
ATOM     69  H   UNL A   1      30.903  23.438  21.893  1.00  0.00     0.169 HD
BRANCH  68  70
ATOM     70  C   UNL A   1      31.185  25.025  23.118  1.00  0.00     0.042 A 
ATOM     71  C   UNL A   1      30.049  25.510  23.766  1.00  0.00     0.028 A 
ATOM     72  C   UNL A   1      32.252  25.893  22.873  1.00  0.00     0.043 A 
ATOM     73  C   UNL A   1      29.939  26.865  24.086  1.00  0.00     0.024 A 
ATOM     74  C   UNL A   1      32.141  27.256  23.180  1.00  0.00     0.038 A 
ATOM     75  C   UNL A   1      30.975  27.746  23.775  1.00  0.00     0.055 A 
ATOM     76  Br  UNL A   1      33.611  28.372  22.733  1.00  0.00    -0.049 Br
ATOM     77  Cl  UNL A   1      30.749  29.413  24.165  1.00  0.00    -0.083 Cl
ENDBRANCH  68  70
ENDBRANCH  65  66
ENDBRANCH  60  63
ENDBRANCH  58  59
ENDBRANCH  57  58
ENDBRANCH   1  57
TORSDOF 13
ENDMDL
