MODEL 1
REMARK VINA RESULT:     -11.5      0.000      0.000
REMARK SMILES CC[C@H](C(=O)NCCCCNC(=O)c1ccc(-c2c3nc(c(-c4ccccc4)c4ccc([nH]4)c(-c4ccccc4)c4nc(c(-c5ccccc5)c5ccc2[nH]5)C=C4)C=C3)cc1)N1C(=O)c2ccc([N+](=O)[O-])cc2C1=O
REMARK SMILES IDX 8 1 7 2 6 3 4 4 5 5 3 7 2 8 1 9 62 10 63 11 74 12 64 13
REMARK SMILES IDX 65 14 73 15 75 16 66 17 72 18 67 19 68 20 69 21 70 22 71 23
REMARK SMILES IDX 9 24 10 25 11 26 12 27 13 29 14 30 15 31 61 32 16 33 60 34
REMARK SMILES IDX 17 35 18 36 19 37 54 38 20 39 59 40 53 41 55 42 21 43 58 44
REMARK SMILES IDX 52 45 51 46 22 48 44 49 29 50 43 51 30 52 33 53 42 54 56 55
REMARK SMILES IDX 31 56 32 57 41 59 57 60 34 61 23 62 24 63 28 64 25 65 27 66
REMARK SMILES IDX 26 67 45 68 46 69 50 70 47 71 49 72 48 73 35 74 36 75 40 76
REMARK SMILES IDX 37 77 39 78 38 79
REMARK H PARENT 6 6 11 28 55 47 33 58
REMARK Flexibility Score: inf
ROOT
ATOM      1  C   UNL A   1      31.424  27.280  26.886  1.00  0.00     0.023 C 
ENDROOT
BRANCH   1   2
ATOM      2  C   UNL A   1      30.886  26.245  25.895  1.00  0.00     0.116 C 
BRANCH   2   3
ATOM      3  N   UNL A   1      30.649  24.969  26.543  1.00  0.00    -0.354 N 
ATOM      4  C   UNL A   1      31.195  23.744  26.293  1.00  0.00     0.243 C 
ATOM      5  O   UNL A   1      30.515  22.774  26.639  1.00  0.00    -0.273 OA
ATOM      6  H   UNL A   1      29.993  24.990  27.276  1.00  0.00     0.163 HD
BRANCH   4   7
ATOM      7  C   UNL A   1      32.540  23.608  25.539  1.00  0.00     0.183 C 
BRANCH   7   8
ATOM      8  C   UNL A   1      33.795  24.125  26.275  1.00  0.00     0.032 C 
ATOM      9  C   UNL A   1      34.998  24.485  25.417  1.00  0.00     0.006 C 
ENDBRANCH   7   8
BRANCH   7  10
ATOM     10  N   UNL A   1      32.716  22.254  25.003  1.00  0.00    -0.262 N 
ATOM     11  C   UNL A   1      32.239  21.820  23.794  1.00  0.00     0.262 C 
ATOM     12  C   UNL A   1      33.158  21.206  25.765  1.00  0.00     0.262 C 
ATOM     13  O   UNL A   1      31.596  22.400  22.940  1.00  0.00    -0.269 OA
ATOM     14  C   UNL A   1      32.521  20.391  23.719  1.00  0.00     0.053 A 
ATOM     15  C   UNL A   1      33.042  20.004  24.939  1.00  0.00     0.060 A 
ATOM     16  O   UNL A   1      33.523  21.199  26.924  1.00  0.00    -0.269 OA
ATOM     17  C   UNL A   1      32.263  19.492  22.701  1.00  0.00     0.022 A 
ATOM     18  C   UNL A   1      33.296  18.678  25.238  1.00  0.00     0.100 A 
ATOM     19  C   UNL A   1      32.524  18.143  22.960  1.00  0.00     0.086 A 
ATOM     20  C   UNL A   1      33.020  17.741  24.226  1.00  0.00     0.270 A 
BRANCH  20  21
ATOM     21  N   UNL A   1      33.212  16.309  24.497  1.00  0.00     0.062 N 
ATOM     22  O   UNL A   1      32.333  15.725  25.145  1.00  0.00    -0.258 OA
ATOM     23  O   UNL A   1      34.246  15.779  24.070  1.00  0.00    -0.258 OA
ENDBRANCH  20  21
ENDBRANCH   7  10
ENDBRANCH   4   7
ENDBRANCH   2   3
ENDBRANCH   1   2
BRANCH   1  24
ATOM     24  C   UNL A   1      32.439  28.279  26.316  1.00  0.00     0.023 C 
BRANCH  24  25
ATOM     25  C   UNL A   1      33.623  28.613  27.219  1.00  0.00     0.116 C 
BRANCH  25  26
ATOM     26  N   UNL A   1      33.622  29.996  27.659  1.00  0.00    -0.352 N 
ATOM     27  C   UNL A   1      34.606  30.727  28.280  1.00  0.00     0.251 C 
ATOM     28  H   UNL A   1      32.786  30.487  27.485  1.00  0.00     0.163 HD
ATOM     29  O   UNL A   1      34.347  31.854  28.696  1.00  0.00    -0.269 OA
BRANCH  27  30
ATOM     30  C   UNL A   1      35.963  30.168  28.482  1.00  0.00     0.039 A 
ATOM     31  C   UNL A   1      36.869  30.222  27.417  1.00  0.00     0.014 A 
ATOM     32  C   UNL A   1      36.343  29.566  29.684  1.00  0.00     0.014 A 
ATOM     33  C   UNL A   1      38.167  29.734  27.577  1.00  0.00     0.010 A 
ATOM     34  C   UNL A   1      37.659  29.133  29.864  1.00  0.00     0.010 A 
ATOM     35  C   UNL A   1      38.586  29.216  28.814  1.00  0.00    -0.014 A 
BRANCH  35  36
ATOM     36  C   UNL A   1      39.995  28.795  29.024  1.00  0.00     0.031 A 
ATOM     37  C   UNL A   1      40.459  27.423  28.620  1.00  0.00     0.074 A 
ATOM     38  C   UNL A   1      40.852  29.638  29.631  1.00  0.00     0.049 A 
ATOM     39  N   UNL A   1      41.648  26.886  28.744  1.00  0.00    -0.248 NA
ATOM     40  C   UNL A   1      39.457  26.532  28.019  1.00  0.00     0.031 C 
ATOM     41  C   UNL A   1      40.522  30.981  30.114  1.00  0.00     0.029 A 
ATOM     42  N   UNL A   1      42.180  29.488  29.948  1.00  0.00    -0.354 N 
ATOM     43  C   UNL A   1      41.533  25.595  28.250  1.00  0.00     0.074 A 
ATOM     44  C   UNL A   1      40.151  25.413  27.861  1.00  0.00     0.031 C 
ATOM     45  C   UNL A   1      41.623  31.541  30.640  1.00  0.00     0.029 A 
ATOM     46  C   UNL A   1      42.726  30.589  30.562  1.00  0.00     0.049 A 
ATOM     47  H   UNL A   1      42.692  28.670  29.753  1.00  0.00     0.167 HD
ATOM     48  C   UNL A   1      42.494  24.647  28.117  1.00  0.00     0.031 A 
ATOM     49  C   UNL A   1      43.975  30.811  31.012  1.00  0.00     0.031 A 
ATOM     50  C   UNL A   1      43.872  24.823  28.492  1.00  0.00     0.049 A 
ATOM     51  C   UNL A   1      45.022  29.745  30.852  1.00  0.00     0.074 A 
ATOM     52  C   UNL A   1      44.927  23.941  28.333  1.00  0.00     0.029 A 
ATOM     53  N   UNL A   1      44.385  25.954  29.104  1.00  0.00    -0.354 N 
ATOM     54  N   UNL A   1      44.912  28.556  30.313  1.00  0.00    -0.248 NA
ATOM     55  C   UNL A   1      46.367  30.061  31.353  1.00  0.00     0.031 C 
ATOM     56  C   UNL A   1      46.072  24.523  28.891  1.00  0.00     0.029 A 
ATOM     57  C   UNL A   1      45.737  25.785  29.353  1.00  0.00     0.049 A 
ATOM     58  H   UNL A   1      43.866  26.760  29.331  1.00  0.00     0.167 HD
ATOM     59  C   UNL A   1      46.177  27.989  30.391  1.00  0.00     0.074 A 
ATOM     60  C   UNL A   1      47.041  28.971  31.014  1.00  0.00     0.031 C 
ATOM     61  C   UNL A   1      46.585  26.764  29.981  1.00  0.00     0.031 A 
BRANCH  48  62
ATOM     62  C   UNL A   1      42.080  23.322  27.540  1.00  0.00    -0.014 A 
ATOM     63  C   UNL A   1      42.263  23.034  26.179  1.00  0.00     0.009 A 
ATOM     64  C   UNL A   1      41.537  22.335  28.377  1.00  0.00     0.009 A 
ATOM     65  C   UNL A   1      41.878  21.795  25.660  1.00  0.00     0.001 A 
ATOM     66  C   UNL A   1      41.177  21.089  27.861  1.00  0.00     0.001 A 
ATOM     67  C   UNL A   1      41.339  20.823  26.502  1.00  0.00     0.000 A 
ENDBRANCH  48  62
BRANCH  49  68
ATOM     68  C   UNL A   1      44.313  32.113  31.642  1.00  0.00    -0.014 A 
ATOM     69  C   UNL A   1      44.170  32.289  33.026  1.00  0.00     0.009 A 
ATOM     70  C   UNL A   1      44.780  33.182  30.863  1.00  0.00     0.009 A 
ATOM     71  C   UNL A   1      44.469  33.519  33.616  1.00  0.00     0.001 A 
ATOM     72  C   UNL A   1      45.102  34.403  31.459  1.00  0.00     0.001 A 
ATOM     73  C   UNL A   1      44.939  34.572  32.833  1.00  0.00     0.000 A 
ENDBRANCH  49  68
BRANCH  61  74
ATOM     74  C   UNL A   1      48.035  26.427  30.173  1.00  0.00    -0.014 A 
ATOM     75  C   UNL A   1      48.489  25.823  31.357  1.00  0.00     0.009 A 
ATOM     76  C   UNL A   1      48.955  26.689  29.147  1.00  0.00     0.009 A 
ATOM     77  C   UNL A   1      49.843  25.519  31.520  1.00  0.00     0.001 A 
ATOM     78  C   UNL A   1      50.303  26.362  29.303  1.00  0.00     0.001 A 
ATOM     79  C   UNL A   1      50.746  25.786  30.492  1.00  0.00     0.000 A 
ENDBRANCH  61  74
ENDBRANCH  35  36
ENDBRANCH  27  30
ENDBRANCH  25  26
ENDBRANCH  24  25
ENDBRANCH   1  24
TORSDOF 14
ENDMDL
MODEL 2
REMARK VINA RESULT:     -11.4      0.963      6.068
REMARK SMILES CC[C@H](C(=O)NCCCCNC(=O)c1ccc(-c2c3nc(c(-c4ccccc4)c4ccc([nH]4)c(-c4ccccc4)c4nc(c(-c5ccccc5)c5ccc2[nH]5)C=C4)C=C3)cc1)N1C(=O)c2ccc([N+](=O)[O-])cc2C1=O
REMARK SMILES IDX 8 1 7 2 6 3 4 4 5 5 3 7 2 8 1 9 62 10 63 11 74 12 64 13
REMARK SMILES IDX 65 14 73 15 75 16 66 17 72 18 67 19 68 20 69 21 70 22 71 23
REMARK SMILES IDX 9 24 10 25 11 26 12 27 13 29 14 30 15 31 61 32 16 33 60 34
REMARK SMILES IDX 17 35 18 36 19 37 54 38 20 39 59 40 53 41 55 42 21 43 58 44
REMARK SMILES IDX 52 45 51 46 22 48 44 49 29 50 43 51 30 52 33 53 42 54 56 55
REMARK SMILES IDX 31 56 32 57 41 59 57 60 34 61 23 62 24 63 28 64 25 65 27 66
REMARK SMILES IDX 26 67 45 68 46 69 50 70 47 71 49 72 48 73 35 74 36 75 40 76
REMARK SMILES IDX 37 77 39 78 38 79
REMARK H PARENT 6 6 11 28 55 47 33 58
REMARK Flexibility Score: inf
ROOT
ATOM      1  C   UNL A   1      33.281  27.189  25.165  1.00  0.00     0.023 C 
ENDROOT
BRANCH   1   2
ATOM      2  C   UNL A   1      33.967  25.830  25.317  1.00  0.00     0.116 C 
BRANCH   2   3
ATOM      3  N   UNL A   1      34.090  25.156  24.039  1.00  0.00    -0.354 N 
ATOM      4  C   UNL A   1      33.720  23.894  23.674  1.00  0.00     0.243 C 
ATOM      5  O   UNL A   1      34.332  23.412  22.716  1.00  0.00    -0.273 OA
ATOM      6  H   UNL A   1      34.502  25.691  23.323  1.00  0.00     0.163 HD
BRANCH   4   7
ATOM      7  C   UNL A   1      32.664  23.105  24.485  1.00  0.00     0.183 C 
BRANCH   7   8
ATOM      8  C   UNL A   1      31.196  23.555  24.319  1.00  0.00     0.032 C 
ATOM      9  C   UNL A   1      30.624  24.454  25.404  1.00  0.00     0.006 C 
ENDBRANCH   7   8
BRANCH   7  10
ATOM     10  N   UNL A   1      32.834  21.659  24.318  1.00  0.00    -0.262 N 
ATOM     11  C   UNL A   1      32.413  20.938  23.230  1.00  0.00     0.262 C 
ATOM     12  C   UNL A   1      33.209  20.832  25.343  1.00  0.00     0.262 C 
ATOM     13  O   UNL A   1      31.832  21.291  22.222  1.00  0.00    -0.269 OA
ATOM     14  C   UNL A   1      32.663  19.534  23.533  1.00  0.00     0.053 A 
ATOM     15  C   UNL A   1      33.107  19.461  24.840  1.00  0.00     0.060 A 
ATOM     16  O   UNL A   1      33.510  21.113  26.485  1.00  0.00    -0.269 OA
ATOM     17  C   UNL A   1      32.438  18.410  22.761  1.00  0.00     0.022 A 
ATOM     18  C   UNL A   1      33.311  18.251  25.476  1.00  0.00     0.100 A 
ATOM     19  C   UNL A   1      32.650  17.167  23.365  1.00  0.00     0.086 A 
ATOM     20  C   UNL A   1      33.067  17.092  24.718  1.00  0.00     0.270 A 
BRANCH  20  21
ATOM     21  N   UNL A   1      33.208  15.773  25.351  1.00  0.00     0.062 N 
ATOM     22  O   UNL A   1      34.318  15.227  25.300  1.00  0.00    -0.258 OA
ATOM     23  O   UNL A   1      32.203  15.285  25.885  1.00  0.00    -0.258 OA
ENDBRANCH  20  21
ENDBRANCH   7  10
ENDBRANCH   4   7
ENDBRANCH   2   3
ENDBRANCH   1   2
BRANCH   1  24
ATOM     24  C   UNL A   1      33.969  28.361  25.878  1.00  0.00     0.023 C 
BRANCH  24  25
ATOM     25  C   UNL A   1      33.529  28.615  27.317  1.00  0.00     0.116 C 
BRANCH  25  26
ATOM     26  N   UNL A   1      33.553  30.023  27.672  1.00  0.00    -0.352 N 
ATOM     27  C   UNL A   1      34.550  30.771  28.249  1.00  0.00     0.251 C 
ATOM     28  H   UNL A   1      32.727  30.518  27.468  1.00  0.00     0.163 HD
ATOM     29  O   UNL A   1      34.313  31.926  28.596  1.00  0.00    -0.269 OA
BRANCH  27  30
ATOM     30  C   UNL A   1      35.897  30.201  28.486  1.00  0.00     0.039 A 
ATOM     31  C   UNL A   1      36.831  30.249  27.446  1.00  0.00     0.014 A 
ATOM     32  C   UNL A   1      36.239  29.594  29.697  1.00  0.00     0.014 A 
ATOM     33  C   UNL A   1      38.121  29.750  27.640  1.00  0.00     0.010 A 
ATOM     34  C   UNL A   1      37.546  29.149  29.911  1.00  0.00     0.010 A 
ATOM     35  C   UNL A   1      38.501  29.227  28.887  1.00  0.00    -0.014 A 
BRANCH  35  36
ATOM     36  C   UNL A   1      39.901  28.792  29.134  1.00  0.00     0.031 A 
ATOM     37  C   UNL A   1      40.893  29.716  29.783  1.00  0.00     0.074 A 
ATOM     38  C   UNL A   1      40.295  27.570  28.725  1.00  0.00     0.049 A 
ATOM     39  N   UNL A   1      42.156  29.505  30.061  1.00  0.00    -0.248 NA
ATOM     40  C   UNL A   1      40.413  31.056  30.150  1.00  0.00     0.031 C 
ATOM     41  C   UNL A   1      39.447  26.591  28.042  1.00  0.00     0.029 A 
ATOM     42  N   UNL A   1      41.513  26.946  28.822  1.00  0.00    -0.354 N 
ATOM     43  C   UNL A   1      42.623  30.686  30.621  1.00  0.00     0.074 A 
ATOM     44  C   UNL A   1      41.520  31.624  30.608  1.00  0.00     0.031 C 
ATOM     45  C   UNL A   1      40.162  25.479  27.807  1.00  0.00     0.029 A 
ATOM     46  C   UNL A   1      41.525  25.678  28.292  1.00  0.00     0.049 A 
ATOM     47  H   UNL A   1      42.304  27.365  29.234  1.00  0.00     0.167 HD
ATOM     48  C   UNL A   1      43.854  30.963  31.116  1.00  0.00     0.031 A 
ATOM     49  C   UNL A   1      42.519  24.775  28.203  1.00  0.00     0.031 A 
ATOM     50  C   UNL A   1      44.953  30.034  31.142  1.00  0.00     0.049 A 
ATOM     51  C   UNL A   1      43.874  25.105  28.760  1.00  0.00     0.074 A 
ATOM     52  C   UNL A   1      46.215  30.206  31.682  1.00  0.00     0.029 A 
ATOM     53  N   UNL A   1      44.921  28.760  30.600  1.00  0.00    -0.354 N 
ATOM     54  N   UNL A   1      44.276  26.202  29.354  1.00  0.00    -0.248 NA
ATOM     55  C   UNL A   1      44.907  24.067  28.643  1.00  0.00     0.031 C 
ATOM     56  C   UNL A   1      46.963  29.051  31.428  1.00  0.00     0.029 A 
ATOM     57  C   UNL A   1      46.149  28.143  30.771  1.00  0.00     0.049 A 
ATOM     58  H   UNL A   1      44.141  28.352  30.157  1.00  0.00     0.167 HD
ATOM     59  C   UNL A   1      45.602  25.978  29.701  1.00  0.00     0.074 A 
ATOM     60  C   UNL A   1      45.929  24.636  29.265  1.00  0.00     0.031 C 
ATOM     61  C   UNL A   1      46.468  26.811  30.325  1.00  0.00     0.031 A 
BRANCH  48  62
ATOM     62  C   UNL A   1      44.080  32.342  31.671  1.00  0.00    -0.014 A 
ATOM     63  C   UNL A   1      44.534  33.388  30.853  1.00  0.00     0.009 A 
ATOM     64  C   UNL A   1      43.797  32.607  33.020  1.00  0.00     0.009 A 
ATOM     65  C   UNL A   1      44.734  34.665  31.383  1.00  0.00     0.001 A 
ATOM     66  C   UNL A   1      43.973  33.891  33.541  1.00  0.00     0.001 A 
ATOM     67  C   UNL A   1      44.450  34.916  32.725  1.00  0.00     0.000 A 
ENDBRANCH  48  62
BRANCH  49  68
ATOM     68  C   UNL A   1      42.261  23.452  27.578  1.00  0.00    -0.014 A 
ATOM     69  C   UNL A   1      42.550  23.241  26.221  1.00  0.00     0.009 A 
ATOM     70  C   UNL A   1      41.728  22.397  28.334  1.00  0.00     0.009 A 
ATOM     71  C   UNL A   1      42.291  22.004  25.629  1.00  0.00     0.001 A 
ATOM     72  C   UNL A   1      41.493  21.154  27.744  1.00  0.00     0.001 A 
ATOM     73  C   UNL A   1      41.767  20.961  26.391  1.00  0.00     0.000 A 
ENDBRANCH  49  68
BRANCH  61  74
ATOM     74  C   UNL A   1      47.848  26.286  30.594  1.00  0.00    -0.014 A 
ATOM     75  C   UNL A   1      48.853  26.352  29.616  1.00  0.00     0.009 A 
ATOM     76  C   UNL A   1      48.156  25.744  31.851  1.00  0.00     0.009 A 
ATOM     77  C   UNL A   1      50.131  25.854  29.884  1.00  0.00     0.001 A 
ATOM     78  C   UNL A   1      49.440  25.271  32.124  1.00  0.00     0.001 A 
ATOM     79  C   UNL A   1      50.424  25.318  31.137  1.00  0.00     0.000 A 
ENDBRANCH  61  74
ENDBRANCH  35  36
ENDBRANCH  27  30
ENDBRANCH  25  26
ENDBRANCH  24  25
ENDBRANCH   1  24
TORSDOF 14
ENDMDL
MODEL 3
REMARK VINA RESULT:     -11.4      3.731      6.218
REMARK SMILES CC[C@H](C(=O)NCCCCNC(=O)c1ccc(-c2c3nc(c(-c4ccccc4)c4ccc([nH]4)c(-c4ccccc4)c4nc(c(-c5ccccc5)c5ccc2[nH]5)C=C4)C=C3)cc1)N1C(=O)c2ccc([N+](=O)[O-])cc2C1=O
REMARK SMILES IDX 8 1 7 2 6 3 4 4 5 5 3 7 2 8 1 9 62 10 63 11 74 12 64 13
REMARK SMILES IDX 65 14 73 15 75 16 66 17 72 18 67 19 68 20 69 21 70 22 71 23
REMARK SMILES IDX 9 24 10 25 11 26 12 27 13 29 14 30 15 31 61 32 16 33 60 34
REMARK SMILES IDX 17 35 18 36 19 37 54 38 20 39 59 40 53 41 55 42 21 43 58 44
REMARK SMILES IDX 52 45 51 46 22 48 44 49 29 50 43 51 30 52 33 53 42 54 56 55
REMARK SMILES IDX 31 56 32 57 41 59 57 60 34 61 23 62 24 63 28 64 25 65 27 66
REMARK SMILES IDX 26 67 45 68 46 69 50 70 47 71 49 72 48 73 35 74 36 75 40 76
REMARK SMILES IDX 37 77 39 78 38 79
REMARK H PARENT 6 6 11 28 55 47 33 58
REMARK Flexibility Score: inf
ROOT
ATOM      1  C   UNL A   1      32.168  29.028  27.255  1.00  0.00     0.023 C 
ENDROOT
BRANCH   1   2
ATOM      2  C   UNL A   1      33.026  28.339  26.192  1.00  0.00     0.116 C 
BRANCH   2   3
ATOM      3  N   UNL A   1      32.862  26.898  26.235  1.00  0.00    -0.354 N 
ATOM      4  C   UNL A   1      32.369  26.043  25.293  1.00  0.00     0.243 C 
ATOM      5  O   UNL A   1      31.910  24.981  25.721  1.00  0.00    -0.273 OA
ATOM      6  H   UNL A   1      33.152  26.471  27.073  1.00  0.00     0.163 HD
BRANCH   4   7
ATOM      7  C   UNL A   1      32.318  26.444  23.799  1.00  0.00     0.183 C 
BRANCH   7   8
ATOM      8  C   UNL A   1      32.354  25.287  22.776  1.00  0.00     0.032 C 
ATOM      9  C   UNL A   1      32.658  25.653  21.331  1.00  0.00     0.006 C 
ENDBRANCH   7   8
BRANCH   7  10
ATOM     10  N   UNL A   1      31.234  27.395  23.539  1.00  0.00    -0.262 N 
ATOM     11  C   UNL A   1      29.897  27.106  23.625  1.00  0.00     0.262 C 
ATOM     12  C   UNL A   1      31.439  28.608  22.938  1.00  0.00     0.262 C 
ATOM     13  O   UNL A   1      29.327  26.068  23.905  1.00  0.00    -0.269 OA
ATOM     14  C   UNL A   1      29.180  28.288  23.162  1.00  0.00     0.053 A 
ATOM     15  C   UNL A   1      30.117  29.191  22.699  1.00  0.00     0.060 A 
ATOM     16  O   UNL A   1      32.480  29.125  22.584  1.00  0.00    -0.269 OA
ATOM     17  C   UNL A   1      27.820  28.516  23.073  1.00  0.00     0.022 A 
ATOM     18  C   UNL A   1      29.752  30.367  22.072  1.00  0.00     0.100 A 
ATOM     19  C   UNL A   1      27.411  29.705  22.460  1.00  0.00     0.086 A 
ATOM     20  C   UNL A   1      28.373  30.613  21.949  1.00  0.00     0.270 A 
BRANCH  20  21
ATOM     21  N   UNL A   1      27.914  31.817  21.241  1.00  0.00     0.062 N 
ATOM     22  O   UNL A   1      27.565  31.689  20.060  1.00  0.00    -0.258 OA
ATOM     23  O   UNL A   1      27.918  32.885  21.867  1.00  0.00    -0.258 OA
ENDBRANCH  20  21
ENDBRANCH   7  10
ENDBRANCH   4   7
ENDBRANCH   2   3
ENDBRANCH   1   2
BRANCH   1  24
ATOM     24  C   UNL A   1      31.650  30.424  26.886  1.00  0.00     0.023 C 
BRANCH  24  25
ATOM     25  C   UNL A   1      32.719  31.479  26.614  1.00  0.00     0.116 C 
BRANCH  25  26
ATOM     26  N   UNL A   1      32.367  32.785  27.142  1.00  0.00    -0.352 N 
ATOM     27  C   UNL A   1      33.026  33.579  28.049  1.00  0.00     0.251 C 
ATOM     28  H   UNL A   1      31.525  33.160  26.796  1.00  0.00     0.163 HD
ATOM     29  O   UNL A   1      32.480  34.597  28.468  1.00  0.00    -0.269 OA
BRANCH  27  30
ATOM     30  C   UNL A   1      34.371  33.213  28.552  1.00  0.00     0.039 A 
ATOM     31  C   UNL A   1      34.458  32.456  29.726  1.00  0.00     0.014 A 
ATOM     32  C   UNL A   1      35.539  33.628  27.908  1.00  0.00     0.014 A 
ATOM     33  C   UNL A   1      35.706  32.064  30.215  1.00  0.00     0.010 A 
ATOM     34  C   UNL A   1      36.783  33.187  28.363  1.00  0.00     0.010 A 
ATOM     35  C   UNL A   1      36.879  32.396  29.519  1.00  0.00    -0.014 A 
BRANCH  35  36
ATOM     36  C   UNL A   1      38.202  31.893  29.973  1.00  0.00     0.031 A 
ATOM     37  C   UNL A   1      38.748  30.589  29.465  1.00  0.00     0.074 A 
ATOM     38  C   UNL A   1      38.895  32.596  30.891  1.00  0.00     0.049 A 
ATOM     39  N   UNL A   1      39.876  29.995  29.767  1.00  0.00    -0.248 NA
ATOM     40  C   UNL A   1      37.913  29.844  28.511  1.00  0.00     0.031 C 
ATOM     41  C   UNL A   1      38.460  33.854  31.501  1.00  0.00     0.029 A 
ATOM     42  N   UNL A   1      40.112  32.346  31.473  1.00  0.00    -0.354 N 
ATOM     43  C   UNL A   1      39.881  28.805  29.052  1.00  0.00     0.074 A 
ATOM     44  C   UNL A   1      38.626  28.741  28.333  1.00  0.00     0.031 C 
ATOM     45  C   UNL A   1      39.409  34.281  32.350  1.00  0.00     0.029 A 
ATOM     46  C   UNL A   1      40.501  33.312  32.370  1.00  0.00     0.049 A 
ATOM     47  H   UNL A   1      40.657  31.552  31.269  1.00  0.00     0.167 HD
ATOM     48  C   UNL A   1      40.847  27.856  28.987  1.00  0.00     0.031 A 
ATOM     49  C   UNL A   1      41.611  33.412  33.125  1.00  0.00     0.031 A 
ATOM     50  C   UNL A   1      42.101  27.917  29.692  1.00  0.00     0.049 A 
ATOM     51  C   UNL A   1      42.667  32.348  33.034  1.00  0.00     0.074 A 
ATOM     52  C   UNL A   1      43.165  27.034  29.635  1.00  0.00     0.029 A 
ATOM     53  N   UNL A   1      42.457  28.915  30.584  1.00  0.00    -0.354 N 
ATOM     54  N   UNL A   1      42.687  31.266  32.295  1.00  0.00    -0.248 NA
ATOM     55  C   UNL A   1      43.860  32.528  33.875  1.00  0.00     0.031 C 
ATOM     56  C   UNL A   1      44.148  27.474  30.528  1.00  0.00     0.029 A 
ATOM     57  C   UNL A   1      43.714  28.657  31.104  1.00  0.00     0.049 A 
ATOM     58  H   UNL A   1      41.898  29.692  30.815  1.00  0.00     0.167 HD
ATOM     59  C   UNL A   1      43.900  30.647  32.565  1.00  0.00     0.074 A 
ATOM     60  C   UNL A   1      44.595  31.483  33.522  1.00  0.00     0.031 C 
ATOM     61  C   UNL A   1      44.393  29.490  32.062  1.00  0.00     0.031 A 
BRANCH  48  62
ATOM     62  C   UNL A   1      40.579  26.658  28.120  1.00  0.00    -0.014 A 
ATOM     63  C   UNL A   1      39.830  25.571  28.596  1.00  0.00     0.009 A 
ATOM     64  C   UNL A   1      41.049  26.633  26.798  1.00  0.00     0.009 A 
ATOM     65  C   UNL A   1      39.586  24.467  27.775  1.00  0.00     0.001 A 
ATOM     66  C   UNL A   1      40.782  25.540  25.972  1.00  0.00     0.001 A 
ATOM     67  C   UNL A   1      40.059  24.454  26.464  1.00  0.00     0.000 A 
ENDBRANCH  48  62
BRANCH  49  68
ATOM     68  C   UNL A   1      41.792  34.582  34.021  1.00  0.00    -0.014 A 
ATOM     69  C   UNL A   1      41.344  34.533  35.350  1.00  0.00     0.009 A 
ATOM     70  C   UNL A   1      42.414  35.750  33.554  1.00  0.00     0.009 A 
ATOM     71  C   UNL A   1      41.498  35.639  36.188  1.00  0.00     0.001 A 
ATOM     72  C   UNL A   1      42.588  36.845  34.402  1.00  0.00     0.001 A 
ATOM     73  C   UNL A   1      42.124  36.792  35.715  1.00  0.00     0.000 A 
ENDBRANCH  49  68
BRANCH  61  74
ATOM     74  C   UNL A   1      45.759  29.071  32.522  1.00  0.00    -0.014 A 
ATOM     75  C   UNL A   1      46.916  29.530  31.873  1.00  0.00     0.009 A 
ATOM     76  C   UNL A   1      45.893  28.230  33.637  1.00  0.00     0.009 A 
ATOM     77  C   UNL A   1      48.179  29.128  32.313  1.00  0.00     0.001 A 
ATOM     78  C   UNL A   1      47.157  27.850  34.090  1.00  0.00     0.001 A 
ATOM     79  C   UNL A   1      48.298  28.292  33.423  1.00  0.00     0.000 A 
ENDBRANCH  61  74
ENDBRANCH  35  36
ENDBRANCH  27  30
ENDBRANCH  25  26
ENDBRANCH  24  25
ENDBRANCH   1  24
TORSDOF 14
ENDMDL
