MODEL 1
REMARK VINA RESULT:     -10.3      0.000      0.000
REMARK SMILES C[C@@H]1CC[N@@H+]1[C@@H]1CCC[C@@H]1C(=O)NCCCCNC(=O)c1ccc(-c2c3nc(c(-c4ccccc4)c4ccc([nH]4)c(-c4ccccc4)c4nc(c(-c5ccccc5)c5ccc2[nH]5)C=C4)C=C3)cc1
REMARK SMILES IDX 16 1 15 2 14 3 13 4 11 5 12 6 10 8 6 9 7 10 8 11 9 12 5 13
REMARK SMILES IDX 1 14 2 15 3 16 4 17 17 19 18 20 19 21 20 23 21 24 22 25
REMARK SMILES IDX 68 26 23 27 67 28 24 29 25 30 26 31 61 32 27 33 66 34 60 35
REMARK SMILES IDX 62 36 28 37 65 38 59 39 58 40 29 42 51 43 36 44 50 45 37 46
REMARK SMILES IDX 40 47 49 48 63 49 38 50 39 51 48 53 64 54 41 55 30 56 31 57
REMARK SMILES IDX 35 58 32 59 34 60 33 61 52 62 53 63 57 64 54 65 56 66 55 67
REMARK SMILES IDX 42 68 43 69 47 70 44 71 46 72 45 73
REMARK H PARENT 13 7 5 18 18 22 62 41 40 52
REMARK Flexibility Score: inf
ROOT
ATOM      1  C   UNL A   1      33.832  28.834  25.994  1.00  0.00     0.023 C 
ENDROOT
BRANCH   1   2
ATOM      2  C   UNL A   1      33.041  29.735  25.045  1.00  0.00     0.023 C 
BRANCH   2   3
ATOM      3  C   UNL A   1      31.593  29.295  24.881  1.00  0.00     0.116 C 
BRANCH   3   4
ATOM      4  N   UNL A   1      31.144  29.197  23.519  1.00  0.00    -0.356 N 
ATOM      5  C   UNL A   1      30.620  28.112  22.889  1.00  0.00     0.229 C 
ATOM      6  O   UNL A   1      29.816  28.362  21.981  1.00  0.00    -0.275 OA
ATOM      7  H   UNL A   1      31.228  30.014  22.976  1.00  0.00     0.163 HD
BRANCH   5   8
ATOM      8  C   UNL A   1      31.094  26.667  23.081  1.00  0.00     0.136 C 
ATOM      9  C   UNL A   1      32.078  26.085  24.127  1.00  0.00     0.196 C 
ATOM     10  C   UNL A   1      33.496  26.197  23.498  1.00  0.00     0.066 C 
ATOM     11  C   UNL A   1      33.277  26.527  22.022  1.00  0.00     0.007 C 
ATOM     12  C   UNL A   1      31.797  26.281  21.759  1.00  0.00     0.020 C 
BRANCH   9  13
ATOM     13  N   UNL A   1      31.862  25.907  25.574  1.00  0.00    -0.329 N 
ATOM     14  C   UNL A   1      33.200  23.725  26.023  1.00  0.00     0.075 C 
ATOM     15  C   UNL A   1      32.054  24.650  26.331  1.00  0.00     0.186 C 
ATOM     16  C   UNL A   1      30.567  24.315  26.109  1.00  0.00     0.126 C 
ATOM     17  C   UNL A   1      30.418  25.844  25.959  1.00  0.00     0.268 C 
ATOM     18  H   UNL A   1      32.529  26.650  25.781  1.00  0.00     0.348 HD
ENDBRANCH   9  13
ENDBRANCH   5   8
ENDBRANCH   3   4
ENDBRANCH   2   3
ENDBRANCH   1   2
BRANCH   1  19
ATOM     19  C   UNL A   1      33.502  28.978  27.480  1.00  0.00     0.116 C 
BRANCH  19  20
ATOM     20  N   UNL A   1      33.567  30.345  27.972  1.00  0.00    -0.352 N 
ATOM     21  C   UNL A   1      34.652  30.987  28.526  1.00  0.00     0.251 C 
ATOM     22  H   UNL A   1      32.740  30.873  27.900  1.00  0.00     0.163 HD
ATOM     23  O   UNL A   1      34.558  32.129  28.960  1.00  0.00    -0.269 OA
BRANCH  21  24
ATOM     24  C   UNL A   1      35.930  30.253  28.634  1.00  0.00     0.039 A 
ATOM     25  C   UNL A   1      36.810  30.271  27.549  1.00  0.00     0.014 A 
ATOM     26  C   UNL A   1      36.294  29.637  29.834  1.00  0.00     0.014 A 
ATOM     27  C   UNL A   1      38.093  29.743  27.696  1.00  0.00     0.010 A 
ATOM     28  C   UNL A   1      37.594  29.165  29.997  1.00  0.00     0.010 A 
ATOM     29  C   UNL A   1      38.511  29.226  28.934  1.00  0.00    -0.014 A 
BRANCH  29  30
ATOM     30  C   UNL A   1      39.909  28.772  29.143  1.00  0.00     0.031 A 
ATOM     31  C   UNL A   1      40.931  29.706  29.725  1.00  0.00     0.074 A 
ATOM     32  C   UNL A   1      40.278  27.538  28.743  1.00  0.00     0.049 A 
ATOM     33  N   UNL A   1      42.210  29.507  29.929  1.00  0.00    -0.248 NA
ATOM     34  C   UNL A   1      40.463  31.048  30.106  1.00  0.00     0.031 C 
ATOM     35  C   UNL A   1      39.397  26.547  28.119  1.00  0.00     0.029 A 
ATOM     36  N   UNL A   1      41.498  26.909  28.796  1.00  0.00    -0.354 N 
ATOM     37  C   UNL A   1      42.700  30.701  30.441  1.00  0.00     0.074 A 
ATOM     38  C   UNL A   1      41.593  31.632  30.479  1.00  0.00     0.031 C 
ATOM     39  C   UNL A   1      40.101  25.431  27.867  1.00  0.00     0.029 A 
ATOM     40  C   UNL A   1      41.486  25.636  28.279  1.00  0.00     0.049 A 
ATOM     41  H   UNL A   1      42.305  27.332  29.168  1.00  0.00     0.167 HD
ATOM     42  C   UNL A   1      43.954  30.993  30.859  1.00  0.00     0.031 A 
ATOM     43  C   UNL A   1      42.478  24.735  28.148  1.00  0.00     0.031 A 
ATOM     44  C   UNL A   1      45.054  30.067  30.842  1.00  0.00     0.049 A 
ATOM     45  C   UNL A   1      43.859  25.083  28.627  1.00  0.00     0.074 A 
ATOM     46  C   UNL A   1      46.344  30.254  31.308  1.00  0.00     0.029 A 
ATOM     47  N   UNL A   1      44.993  28.780  30.333  1.00  0.00    -0.354 N 
ATOM     48  N   UNL A   1      44.287  26.191  29.178  1.00  0.00    -0.248 NA
ATOM     49  C   UNL A   1      44.892  24.047  28.474  1.00  0.00     0.031 C 
ATOM     50  C   UNL A   1      47.076  29.091  31.042  1.00  0.00     0.029 A 
ATOM     51  C   UNL A   1      46.229  28.168  30.453  1.00  0.00     0.049 A 
ATOM     52  H   UNL A   1      44.191  28.364  29.942  1.00  0.00     0.167 HD
ATOM     53  C   UNL A   1      45.630  25.978  29.462  1.00  0.00     0.074 A 
ATOM     54  C   UNL A   1      45.942  24.631  29.035  1.00  0.00     0.031 C 
ATOM     55  C   UNL A   1      46.524  26.825  30.026  1.00  0.00     0.031 A 
BRANCH  42  56
ATOM     56  C   UNL A   1      44.204  32.383  31.372  1.00  0.00    -0.014 A 
ATOM     57  C   UNL A   1      44.063  32.689  32.735  1.00  0.00     0.009 A 
ATOM     58  C   UNL A   1      44.621  33.390  30.487  1.00  0.00     0.009 A 
ATOM     59  C   UNL A   1      44.302  33.984  33.196  1.00  0.00     0.001 A 
ATOM     60  C   UNL A   1      44.884  34.678  30.955  1.00  0.00     0.001 A 
ATOM     61  C   UNL A   1      44.716  34.976  32.307  1.00  0.00     0.000 A 
ENDBRANCH  42  56
BRANCH  43  62
ATOM     62  C   UNL A   1      42.202  23.404  27.549  1.00  0.00    -0.014 A 
ATOM     63  C   UNL A   1      42.479  23.163  26.193  1.00  0.00     0.009 A 
ATOM     64  C   UNL A   1      41.648  22.373  28.323  1.00  0.00     0.009 A 
ATOM     65  C   UNL A   1      42.180  21.926  25.620  1.00  0.00     0.001 A 
ATOM     66  C   UNL A   1      41.375  21.128  27.752  1.00  0.00     0.001 A 
ATOM     67  C   UNL A   1      41.632  20.909  26.399  1.00  0.00     0.000 A 
ENDBRANCH  43  62
BRANCH  55  68
ATOM     68  C   UNL A   1      47.917  26.309  30.245  1.00  0.00    -0.014 A 
ATOM     69  C   UNL A   1      48.305  25.763  31.478  1.00  0.00     0.009 A 
ATOM     70  C   UNL A   1      48.840  26.331  29.187  1.00  0.00     0.009 A 
ATOM     71  C   UNL A   1      49.600  25.274  31.656  1.00  0.00     0.001 A 
ATOM     72  C   UNL A   1      50.127  25.820  29.361  1.00  0.00     0.001 A 
ATOM     73  C   UNL A   1      50.508  25.299  30.596  1.00  0.00     0.000 A 
ENDBRANCH  55  68
ENDBRANCH  29  30
ENDBRANCH  21  24
ENDBRANCH  19  20
ENDBRANCH   1  19
TORSDOF 12
ENDMDL
MODEL 2
REMARK VINA RESULT:     -10.2      2.740      7.377
REMARK SMILES C[C@@H]1CC[N@@H+]1[C@@H]1CCC[C@@H]1C(=O)NCCCCNC(=O)c1ccc(-c2c3nc(c(-c4ccccc4)c4ccc([nH]4)c(-c4ccccc4)c4nc(c(-c5ccccc5)c5ccc2[nH]5)C=C4)C=C3)cc1
REMARK SMILES IDX 16 1 15 2 14 3 13 4 11 5 12 6 10 8 6 9 7 10 8 11 9 12 5 13
REMARK SMILES IDX 1 14 2 15 3 16 4 17 17 19 18 20 19 21 20 23 21 24 22 25
REMARK SMILES IDX 68 26 23 27 67 28 24 29 25 30 26 31 61 32 27 33 66 34 60 35
REMARK SMILES IDX 62 36 28 37 65 38 59 39 58 40 29 42 51 43 36 44 50 45 37 46
REMARK SMILES IDX 40 47 49 48 63 49 38 50 39 51 48 53 64 54 41 55 30 56 31 57
REMARK SMILES IDX 35 58 32 59 34 60 33 61 52 62 53 63 57 64 54 65 56 66 55 67
REMARK SMILES IDX 42 68 43 69 47 70 44 71 46 72 45 73
REMARK H PARENT 13 7 5 18 18 22 62 41 40 52
REMARK Flexibility Score: inf
ROOT
ATOM      1  C   UNL A   1      37.187  20.954  24.954  1.00  0.00     0.023 C 
ENDROOT
BRANCH   1   2
ATOM      2  C   UNL A   1      35.941  21.442  25.696  1.00  0.00     0.023 C 
BRANCH   2   3
ATOM      3  C   UNL A   1      35.388  22.743  25.130  1.00  0.00     0.116 C 
BRANCH   3   4
ATOM      4  N   UNL A   1      35.115  22.718  23.720  1.00  0.00    -0.356 N 
ATOM      5  C   UNL A   1      33.947  23.013  23.090  1.00  0.00     0.229 C 
ATOM      6  O   UNL A   1      34.061  23.470  21.945  1.00  0.00    -0.275 OA
ATOM      7  H   UNL A   1      35.866  22.453  23.139  1.00  0.00     0.163 HD
BRANCH   5   8
ATOM      8  C   UNL A   1      32.551  22.639  23.602  1.00  0.00     0.136 C 
ATOM      9  C   UNL A   1      32.094  22.278  25.039  1.00  0.00     0.196 C 
ATOM     10  C   UNL A   1      32.279  20.740  25.179  1.00  0.00     0.066 C 
ATOM     11  C   UNL A   1      32.519  20.214  23.764  1.00  0.00     0.007 C 
ATOM     12  C   UNL A   1      32.154  21.360  22.830  1.00  0.00     0.020 C 
BRANCH   9  13
ATOM     13  N   UNL A   1      31.971  23.174  26.202  1.00  0.00    -0.329 N 
ATOM     14  C   UNL A   1      29.555  22.646  26.997  1.00  0.00     0.075 C 
ATOM     15  C   UNL A   1      30.705  23.601  26.837  1.00  0.00     0.186 C 
ATOM     16  C   UNL A   1      30.696  24.846  25.929  1.00  0.00     0.126 C 
ATOM     17  C   UNL A   1      32.221  24.613  25.878  1.00  0.00     0.268 C 
ATOM     18  H   UNL A   1      32.555  22.552  26.761  1.00  0.00     0.348 HD
ENDBRANCH   9  13
ENDBRANCH   5   8
ENDBRANCH   3   4
ENDBRANCH   2   3
ENDBRANCH   1   2
BRANCH   1  19
ATOM     19  C   UNL A   1      38.508  21.084  25.714  1.00  0.00     0.116 C 
BRANCH  19  20
ATOM     20  N   UNL A   1      39.364  19.913  25.617  1.00  0.00    -0.352 N 
ATOM     21  C   UNL A   1      40.685  19.806  25.989  1.00  0.00     0.251 C 
ATOM     22  H   UNL A   1      38.952  19.102  25.242  1.00  0.00     0.163 HD
ATOM     23  O   UNL A   1      41.316  18.772  25.796  1.00  0.00    -0.269 OA
BRANCH  21  24
ATOM     24  C   UNL A   1      41.352  20.983  26.584  1.00  0.00     0.039 A 
ATOM     25  C   UNL A   1      41.923  21.934  25.734  1.00  0.00     0.014 A 
ATOM     26  C   UNL A   1      41.323  21.190  27.966  1.00  0.00     0.014 A 
ATOM     27  C   UNL A   1      42.391  23.136  26.266  1.00  0.00     0.010 A 
ATOM     28  C   UNL A   1      41.736  22.414  28.485  1.00  0.00     0.010 A 
ATOM     29  C   UNL A   1      42.261  23.404  27.638  1.00  0.00    -0.014 A 
BRANCH  29  30
ATOM     30  C   UNL A   1      42.643  24.725  28.201  1.00  0.00     0.031 A 
ATOM     31  C   UNL A   1      41.605  25.792  28.404  1.00  0.00     0.074 A 
ATOM     32  C   UNL A   1      43.938  24.990  28.466  1.00  0.00     0.049 A 
ATOM     33  N   UNL A   1      41.758  27.021  28.829  1.00  0.00    -0.248 NA
ATOM     34  C   UNL A   1      40.218  25.441  28.060  1.00  0.00     0.031 C 
ATOM     35  C   UNL A   1      45.054  24.060  28.270  1.00  0.00     0.029 A 
ATOM     36  N   UNL A   1      44.537  26.127  28.950  1.00  0.00    -0.354 N 
ATOM     37  C   UNL A   1      40.494  27.595  28.785  1.00  0.00     0.074 A 
ATOM     38  C   UNL A   1      39.594  26.594  28.254  1.00  0.00     0.031 C 
ATOM     39  C   UNL A   1      46.195  24.657  28.650  1.00  0.00     0.029 A 
ATOM     40  C   UNL A   1      45.900  26.019  29.084  1.00  0.00     0.049 A 
ATOM     41  H   UNL A   1      44.036  26.943  29.178  1.00  0.00     0.167 HD
ATOM     42  C   UNL A   1      40.111  28.835  29.168  1.00  0.00     0.031 A 
ATOM     43  C   UNL A   1      46.812  26.916  29.505  1.00  0.00     0.031 A 
ATOM     44  C   UNL A   1      40.998  29.827  29.715  1.00  0.00     0.049 A 
ATOM     45  C   UNL A   1      46.360  28.284  29.933  1.00  0.00     0.074 A 
ATOM     46  C   UNL A   1      40.688  31.089  30.193  1.00  0.00     0.029 A 
ATOM     47  N   UNL A   1      42.367  29.669  29.856  1.00  0.00    -0.354 N 
ATOM     48  N   UNL A   1      45.149  28.784  29.955  1.00  0.00    -0.248 NA
ATOM     49  C   UNL A   1      47.402  29.209  30.402  1.00  0.00     0.031 C 
ATOM     50  C   UNL A   1      41.878  31.711  30.586  1.00  0.00     0.029 A 
ATOM     51  C   UNL A   1      42.920  30.819  30.394  1.00  0.00     0.049 A 
ATOM     52  H   UNL A   1      42.871  28.861  29.609  1.00  0.00     0.167 HD
ATOM     53  C   UNL A   1      45.279  30.069  30.464  1.00  0.00     0.074 A 
ATOM     54  C   UNL A   1      46.685  30.268  30.751  1.00  0.00     0.031 C 
ATOM     55  C   UNL A   1      44.319  31.001  30.676  1.00  0.00     0.031 A 
BRANCH  42  56
ATOM     56  C   UNL A   1      38.661  29.192  29.005  1.00  0.00    -0.014 A 
ATOM     57  C   UNL A   1      37.756  29.050  30.070  1.00  0.00     0.009 A 
ATOM     58  C   UNL A   1      38.201  29.709  27.784  1.00  0.00     0.009 A 
ATOM     59  C   UNL A   1      36.412  29.388  29.903  1.00  0.00     0.001 A 
ATOM     60  C   UNL A   1      36.863  30.071  27.629  1.00  0.00     0.001 A 
ATOM     61  C   UNL A   1      35.968  29.902  28.686  1.00  0.00     0.000 A 
ENDBRANCH  42  56
BRANCH  43  62
ATOM     62  C   UNL A   1      48.250  26.548  29.562  1.00  0.00    -0.014 A 
ATOM     63  C   UNL A   1      48.777  25.916  30.700  1.00  0.00     0.009 A 
ATOM     64  C   UNL A   1      49.105  26.838  28.488  1.00  0.00     0.009 A 
ATOM     65  C   UNL A   1      50.138  25.608  30.771  1.00  0.00     0.001 A 
ATOM     66  C   UNL A   1      50.460  26.506  28.553  1.00  0.00     0.001 A 
ATOM     67  C   UNL A   1      50.977  25.900  29.697  1.00  0.00     0.000 A 
ENDBRANCH  43  62
BRANCH  55  68
ATOM     68  C   UNL A   1      44.751  32.309  31.275  1.00  0.00    -0.014 A 
ATOM     69  C   UNL A   1      44.811  32.486  32.666  1.00  0.00     0.009 A 
ATOM     70  C   UNL A   1      45.142  33.362  30.434  1.00  0.00     0.009 A 
ATOM     71  C   UNL A   1      45.230  33.705  33.203  1.00  0.00     0.001 A 
ATOM     72  C   UNL A   1      45.583  34.571  30.974  1.00  0.00     0.001 A 
ATOM     73  C   UNL A   1      45.619  34.744  32.357  1.00  0.00     0.000 A 
ENDBRANCH  55  68
ENDBRANCH  29  30
ENDBRANCH  21  24
ENDBRANCH  19  20
ENDBRANCH   1  19
TORSDOF 12
ENDMDL
MODEL 3
REMARK VINA RESULT:     -10.2      2.754      7.546
REMARK SMILES C[C@@H]1CC[N@@H+]1[C@@H]1CCC[C@@H]1C(=O)NCCCCNC(=O)c1ccc(-c2c3nc(c(-c4ccccc4)c4ccc([nH]4)c(-c4ccccc4)c4nc(c(-c5ccccc5)c5ccc2[nH]5)C=C4)C=C3)cc1
REMARK SMILES IDX 16 1 15 2 14 3 13 4 11 5 12 6 10 8 6 9 7 10 8 11 9 12 5 13
REMARK SMILES IDX 1 14 2 15 3 16 4 17 17 19 18 20 19 21 20 23 21 24 22 25
REMARK SMILES IDX 68 26 23 27 67 28 24 29 25 30 26 31 61 32 27 33 66 34 60 35
REMARK SMILES IDX 62 36 28 37 65 38 59 39 58 40 29 42 51 43 36 44 50 45 37 46
REMARK SMILES IDX 40 47 49 48 63 49 38 50 39 51 48 53 64 54 41 55 30 56 31 57
REMARK SMILES IDX 35 58 32 59 34 60 33 61 52 62 53 63 57 64 54 65 56 66 55 67
REMARK SMILES IDX 42 68 43 69 47 70 44 71 46 72 45 73
REMARK H PARENT 13 7 5 18 18 22 62 41 40 52
REMARK Flexibility Score: inf
ROOT
ATOM      1  C   UNL A   1      37.664  20.837  24.652  1.00  0.00     0.023 C 
ENDROOT
BRANCH   1   2
ATOM      2  C   UNL A   1      36.209  20.917  25.117  1.00  0.00     0.023 C 
BRANCH   2   3
ATOM      3  C   UNL A   1      35.592  22.292  24.897  1.00  0.00     0.116 C 
BRANCH   3   4
ATOM      4  N   UNL A   1      35.205  22.567  23.541  1.00  0.00    -0.356 N 
ATOM      5  C   UNL A   1      34.015  23.049  23.094  1.00  0.00     0.229 C 
ATOM      6  O   UNL A   1      34.070  23.721  22.055  1.00  0.00    -0.275 OA
ATOM      7  H   UNL A   1      35.884  22.383  22.851  1.00  0.00     0.163 HD
BRANCH   5   8
ATOM      8  C   UNL A   1      32.641  22.659  23.652  1.00  0.00     0.136 C 
ATOM      9  C   UNL A   1      32.263  22.140  25.063  1.00  0.00     0.196 C 
ATOM     10  C   UNL A   1      32.396  20.592  25.005  1.00  0.00     0.066 C 
ATOM     11  C   UNL A   1      32.524  20.235  23.524  1.00  0.00     0.007 C 
ATOM     12  C   UNL A   1      32.145  21.497  22.761  1.00  0.00     0.020 C 
BRANCH   9  13
ATOM     13  N   UNL A   1      32.251  22.891  26.331  1.00  0.00    -0.329 N 
ATOM     14  C   UNL A   1      29.732  22.786  26.959  1.00  0.00     0.075 C 
ATOM     15  C   UNL A   1      31.060  23.491  26.971  1.00  0.00     0.186 C 
ATOM     16  C   UNL A   1      31.362  24.813  26.239  1.00  0.00     0.126 C 
ATOM     17  C   UNL A   1      32.808  24.274  26.213  1.00  0.00     0.268 C 
ATOM     18  H   UNL A   1      32.660  22.096  26.823  1.00  0.00     0.348 HD
ENDBRANCH   9  13
ENDBRANCH   5   8
ENDBRANCH   3   4
ENDBRANCH   2   3
ENDBRANCH   1   2
BRANCH   1  19
ATOM     19  C   UNL A   1      38.717  20.807  25.761  1.00  0.00     0.116 C 
BRANCH  19  20
ATOM     20  N   UNL A   1      39.659  19.705  25.653  1.00  0.00    -0.352 N 
ATOM     21  C   UNL A   1      40.993  19.705  25.996  1.00  0.00     0.251 C 
ATOM     22  H   UNL A   1      39.303  18.862  25.293  1.00  0.00     0.163 HD
ATOM     23  O   UNL A   1      41.697  18.721  25.797  1.00  0.00    -0.269 OA
BRANCH  21  24
ATOM     24  C   UNL A   1      41.578  20.935  26.568  1.00  0.00     0.039 A 
ATOM     25  C   UNL A   1      42.132  21.881  25.702  1.00  0.00     0.014 A 
ATOM     26  C   UNL A   1      41.489  21.191  27.939  1.00  0.00     0.014 A 
ATOM     27  C   UNL A   1      42.521  23.125  26.202  1.00  0.00     0.010 A 
ATOM     28  C   UNL A   1      41.822  22.453  28.424  1.00  0.00     0.010 A 
ATOM     29  C   UNL A   1      42.329  23.437  27.558  1.00  0.00    -0.014 A 
BRANCH  29  30
ATOM     30  C   UNL A   1      42.624  24.795  28.082  1.00  0.00     0.031 A 
ATOM     31  C   UNL A   1      44.013  25.150  28.529  1.00  0.00     0.074 A 
ATOM     32  C   UNL A   1      41.624  25.689  28.223  1.00  0.00     0.049 A 
ATOM     33  N   UNL A   1      44.448  26.263  29.064  1.00  0.00    -0.248 NA
ATOM     34  C   UNL A   1      45.045  24.111  28.377  1.00  0.00     0.031 C 
ATOM     35  C   UNL A   1      40.221  25.457  27.873  1.00  0.00     0.029 A 
ATOM     36  N   UNL A   1      41.637  26.975  28.707  1.00  0.00    -0.354 N 
ATOM     37  C   UNL A   1      45.795  26.052  29.331  1.00  0.00     0.074 A 
ATOM     38  C   UNL A   1      46.096  24.693  28.938  1.00  0.00     0.031 C 
ATOM     39  C   UNL A   1      39.513  26.569  28.134  1.00  0.00     0.029 A 
ATOM     40  C   UNL A   1      40.403  27.579  28.699  1.00  0.00     0.049 A 
ATOM     41  H   UNL A   1      42.453  27.420  29.030  1.00  0.00     0.167 HD
ATOM     42  C   UNL A   1      46.704  26.915  29.842  1.00  0.00     0.031 A 
ATOM     43  C   UNL A   1      40.027  28.807  29.105  1.00  0.00     0.031 A 
ATOM     44  C   UNL A   1      46.415  28.274  30.216  1.00  0.00     0.049 A 
ATOM     45  C   UNL A   1      41.058  29.749  29.660  1.00  0.00     0.074 A 
ATOM     46  C   UNL A   1      47.288  29.243  30.680  1.00  0.00     0.029 A 
ATOM     47  N   UNL A   1      45.158  28.854  30.171  1.00  0.00    -0.354 N 
ATOM     48  N   UNL A   1      42.342  29.556  29.836  1.00  0.00    -0.248 NA
ATOM     49  C   UNL A   1      40.587  31.081  30.065  1.00  0.00     0.031 C 
ATOM     50  C   UNL A   1      46.550  30.399  30.955  1.00  0.00     0.029 A 
ATOM     51  C   UNL A   1      45.227  30.162  30.619  1.00  0.00     0.049 A 
ATOM     52  H   UNL A   1      44.337  28.403  29.868  1.00  0.00     0.167 HD
ATOM     53  C   UNL A   1      42.837  30.750  30.345  1.00  0.00     0.074 A 
ATOM     54  C   UNL A   1      41.718  31.664  30.438  1.00  0.00     0.031 C 
ATOM     55  C   UNL A   1      44.106  31.061  30.703  1.00  0.00     0.031 A 
BRANCH  42  56
ATOM     56  C   UNL A   1      48.106  26.411  30.027  1.00  0.00    -0.014 A 
ATOM     57  C   UNL A   1      48.506  25.804  31.228  1.00  0.00     0.009 A 
ATOM     58  C   UNL A   1      49.030  26.511  28.974  1.00  0.00     0.009 A 
ATOM     59  C   UNL A   1      49.812  25.338  31.384  1.00  0.00     0.001 A 
ATOM     60  C   UNL A   1      50.327  26.020  29.123  1.00  0.00     0.001 A 
ATOM     61  C   UNL A   1      50.720  25.442  30.330  1.00  0.00     0.000 A 
ENDBRANCH  42  56
BRANCH  43  62
ATOM     62  C   UNL A   1      38.608  29.230  28.987  1.00  0.00    -0.014 A 
ATOM     63  C   UNL A   1      37.741  29.123  30.087  1.00  0.00     0.009 A 
ATOM     64  C   UNL A   1      38.110  29.728  27.774  1.00  0.00     0.009 A 
ATOM     65  C   UNL A   1      36.397  29.480  29.964  1.00  0.00     0.001 A 
ATOM     66  C   UNL A   1      36.770  30.108  27.663  1.00  0.00     0.001 A 
ATOM     67  C   UNL A   1      35.913  29.976  28.755  1.00  0.00     0.000 A 
ENDBRANCH  43  62
BRANCH  55  68
ATOM     68  C   UNL A   1      44.359  32.455  31.198  1.00  0.00    -0.014 A 
ATOM     69  C   UNL A   1      44.303  32.763  32.566  1.00  0.00     0.009 A 
ATOM     70  C   UNL A   1      44.701  33.465  30.284  1.00  0.00     0.009 A 
ATOM     71  C   UNL A   1      44.557  34.063  33.007  1.00  0.00     0.001 A 
ATOM     72  C   UNL A   1      44.977  34.758  30.730  1.00  0.00     0.001 A 
ATOM     73  C   UNL A   1      44.898  35.058  32.089  1.00  0.00     0.000 A 
ENDBRANCH  55  68
ENDBRANCH  29  30
ENDBRANCH  21  24
ENDBRANCH  19  20
ENDBRANCH   1  19
TORSDOF 12
ENDMDL
