MODEL 1
REMARK VINA RESULT:     -11.5      0.000      0.000
REMARK SMILES Cc1n[nH]c(C[N@H+]2CCC[C@H](c3cccc(C(=O)NCCCCNC(=O)c4ccc(-c5c6nc(c(-c7ccccc7)c7ccc([nH]7)c(-c7ccccc7)c7nc(c(-c8ccccc8)c8ccc5[nH]8)C=C7)C=C6)cc4)c3)C2)n1
REMARK SMILES IDX 21 1 20 2 19 3 17 4 18 5 16 7 12 8 13 9 75 10 14 11 15 12
REMARK SMILES IDX 11 13 7 14 8 15 76 16 9 18 10 19 6 20 5 21 1 22 2 23 3 24
REMARK SMILES IDX 77 25 4 26 22 28 23 29 24 30 25 31 26 33 27 34 28 35 74 36
REMARK SMILES IDX 29 37 73 38 30 39 31 40 32 41 67 42 33 43 72 44 66 45 68 46
REMARK SMILES IDX 34 47 71 48 65 49 64 50 35 52 57 53 42 54 56 55 43 56 46 57
REMARK SMILES IDX 55 58 69 59 44 60 45 61 54 63 70 64 47 65 36 66 37 67 41 68
REMARK SMILES IDX 38 69 40 70 39 71 58 72 59 73 63 74 60 75 62 76 61 77 48 78
REMARK SMILES IDX 49 79 53 80 50 81 52 82 51 83
REMARK H PARENT 19 6 7 17 4 27 24 32 68 51 46 62
REMARK Flexibility Score: inf
ROOT
ATOM      1  C   UNL A   1      40.603  31.151  33.721  1.00  0.00     0.023 C 
ENDROOT
BRANCH   1   2
ATOM      2  C   UNL A   1      39.637  30.292  34.533  1.00  0.00     0.116 C 
BRANCH   2   3
ATOM      3  N   UNL A   1      38.883  29.294  33.777  1.00  0.00    -0.352 N 
ATOM      4  C   UNL A   1      37.831  29.386  32.879  1.00  0.00     0.251 C 
ATOM      5  O   UNL A   1      37.402  28.349  32.377  1.00  0.00    -0.269 OA
ATOM      6  H   UNL A   1      39.183  28.370  33.938  1.00  0.00     0.163 HD
BRANCH   4   7
ATOM      7  C   UNL A   1      37.161  30.676  32.556  1.00  0.00     0.040 A 
ATOM      8  C   UNL A   1      36.508  32.287  30.853  1.00  0.00    -0.039 A 
ATOM      9  C   UNL A   1      36.375  33.258  31.854  1.00  0.00     0.004 A 
ATOM     10  C   UNL A   1      36.748  30.972  31.262  1.00  0.00     0.018 A 
ATOM     11  C   UNL A   1      36.559  32.926  33.199  1.00  0.00     0.001 A 
ATOM     12  C   UNL A   1      37.000  31.647  33.547  1.00  0.00     0.014 A 
BRANCH   8  13
ATOM     13  C   UNL A   1      36.620  32.616  29.363  1.00  0.00     0.074 C 
ATOM     14  N   UNL A   1      34.288  33.319  28.854  1.00  0.00    -0.328 N 
ATOM     15  C   UNL A   1      34.073  32.138  28.007  1.00  0.00     0.262 C 
ATOM     16  C   UNL A   1      35.701  33.739  28.852  1.00  0.00     0.270 C 
ATOM     17  H   UNL A   1      34.044  33.034  29.803  1.00  0.00     0.348 HD
ATOM     18  C   UNL A   1      34.995  30.973  28.381  1.00  0.00     0.062 C 
ATOM     19  C   UNL A   1      36.451  31.418  28.407  1.00  0.00     0.020 C 
BRANCH  14  20
ATOM     20  C   UNL A   1      33.395  34.445  28.515  1.00  0.00     0.340 C 
BRANCH  20  21
ATOM     21  C   UNL A   1      33.144  35.390  29.642  1.00  0.00     0.179 A 
ATOM     22  C   UNL A   1      33.312  36.607  32.943  1.00  0.00     0.092 C 
ATOM     23  C   UNL A   1      33.116  36.389  31.497  1.00  0.00     0.147 A 
ATOM     24  N   UNL A   1      32.903  37.382  30.626  1.00  0.00    -0.159 NA
ATOM     25  N   UNL A   1      33.211  35.148  30.936  1.00  0.00    -0.211 NA
ATOM     26  N   UNL A   1      32.904  36.721  29.458  1.00  0.00    -0.258 N 
ATOM     27  H   UNL A   1      32.750  37.141  28.581  1.00  0.00     0.192 HD
ENDBRANCH  20  21
ENDBRANCH  14  20
ENDBRANCH   8  13
ENDBRANCH   4   7
ENDBRANCH   2   3
ENDBRANCH   1   2
BRANCH   1  28
ATOM     28  C   UNL A   1      40.674  32.640  34.052  1.00  0.00     0.023 C 
BRANCH  28  29
ATOM     29  C   UNL A   1      41.250  33.521  32.953  1.00  0.00     0.116 C 
BRANCH  29  30
ATOM     30  N   UNL A   1      40.254  34.043  32.016  1.00  0.00    -0.352 N 
ATOM     31  C   UNL A   1      40.114  33.719  30.674  1.00  0.00     0.251 C 
ATOM     32  H   UNL A   1      39.613  34.697  32.379  1.00  0.00     0.163 HD
ATOM     33  O   UNL A   1      39.515  34.440  29.898  1.00  0.00    -0.269 OA
BRANCH  31  34
ATOM     34  C   UNL A   1      40.708  32.452  30.210  1.00  0.00     0.039 A 
ATOM     35  C   UNL A   1      42.062  32.344  29.875  1.00  0.00     0.014 A 
ATOM     36  C   UNL A   1      39.870  31.342  30.181  1.00  0.00     0.014 A 
ATOM     37  C   UNL A   1      42.585  31.082  29.598  1.00  0.00     0.010 A 
ATOM     38  C   UNL A   1      40.416  30.092  30.069  1.00  0.00     0.010 A 
ATOM     39  C   UNL A   1      41.758  29.958  29.718  1.00  0.00    -0.014 A 
BRANCH  39  40
ATOM     40  C   UNL A   1      42.284  28.605  29.583  1.00  0.00     0.031 A 
ATOM     41  C   UNL A   1      42.911  28.037  30.812  1.00  0.00     0.074 A 
ATOM     42  C   UNL A   1      41.953  27.825  28.529  1.00  0.00     0.049 A 
ATOM     43  N   UNL A   1      44.124  27.618  30.962  1.00  0.00    -0.248 NA
ATOM     44  C   UNL A   1      42.120  28.022  32.056  1.00  0.00     0.031 C 
ATOM     45  C   UNL A   1      41.034  28.141  27.427  1.00  0.00     0.029 A 
ATOM     46  N   UNL A   1      42.223  26.510  28.318  1.00  0.00    -0.354 N 
ATOM     47  C   UNL A   1      44.203  27.111  32.258  1.00  0.00     0.074 A 
ATOM     48  C   UNL A   1      43.005  27.541  32.933  1.00  0.00     0.031 C 
ATOM     49  C   UNL A   1      40.604  26.993  26.860  1.00  0.00     0.029 A 
ATOM     50  C   UNL A   1      41.342  25.886  27.441  1.00  0.00     0.049 A 
ATOM     51  H   UNL A   1      42.975  26.042  28.746  1.00  0.00     0.167 HD
ATOM     52  C   UNL A   1      45.128  26.171  32.604  1.00  0.00     0.031 A 
ATOM     53  C   UNL A   1      41.179  24.552  27.262  1.00  0.00     0.031 A 
ATOM     54  C   UNL A   1      46.157  26.044  31.604  1.00  0.00     0.049 A 
ATOM     55  C   UNL A   1      42.378  23.882  27.824  1.00  0.00     0.074 A 
ATOM     56  C   UNL A   1      47.053  26.918  31.018  1.00  0.00     0.029 A 
ATOM     57  N   UNL A   1      46.089  24.958  30.762  1.00  0.00    -0.354 N 
ATOM     58  N   UNL A   1      43.571  24.000  27.313  1.00  0.00    -0.248 NA
ATOM     59  C   UNL A   1      42.335  23.481  29.222  1.00  0.00     0.031 C 
ATOM     60  C   UNL A   1      47.050  26.558  29.637  1.00  0.00     0.029 A 
ATOM     61  C   UNL A   1      46.234  25.435  29.487  1.00  0.00     0.049 A 
ATOM     62  H   UNL A   1      45.961  24.018  31.027  1.00  0.00     0.167 HD
ATOM     63  C   UNL A   1      44.409  24.142  28.410  1.00  0.00     0.074 A 
ATOM     64  C   UNL A   1      43.607  23.717  29.559  1.00  0.00     0.031 C 
ATOM     65  C   UNL A   1      45.564  24.869  28.337  1.00  0.00     0.031 A 
BRANCH  52  66
ATOM     66  C   UNL A   1      44.883  25.080  33.621  1.00  0.00    -0.014 A 
ATOM     67  C   UNL A   1      45.920  24.748  34.515  1.00  0.00     0.009 A 
ATOM     68  C   UNL A   1      43.807  24.177  33.543  1.00  0.00     0.009 A 
ATOM     69  C   UNL A   1      45.918  23.537  35.217  1.00  0.00     0.001 A 
ATOM     70  C   UNL A   1      43.781  22.988  34.277  1.00  0.00     0.001 A 
ATOM     71  C   UNL A   1      44.853  22.652  35.090  1.00  0.00     0.000 A 
ENDBRANCH  52  66
BRANCH  53  72
ATOM     72  C   UNL A   1      39.942  23.818  26.908  1.00  0.00    -0.014 A 
ATOM     73  C   UNL A   1      38.729  24.497  26.714  1.00  0.00     0.009 A 
ATOM     74  C   UNL A   1      39.999  22.467  26.515  1.00  0.00     0.009 A 
ATOM     75  C   UNL A   1      37.630  23.858  26.123  1.00  0.00     0.001 A 
ATOM     76  C   UNL A   1      38.900  21.825  25.930  1.00  0.00     0.001 A 
ATOM     77  C   UNL A   1      37.719  22.527  25.720  1.00  0.00     0.000 A 
ENDBRANCH  53  72
BRANCH  65  78
ATOM     78  C   UNL A   1      46.041  25.348  26.987  1.00  0.00    -0.014 A 
ATOM     79  C   UNL A   1      45.535  26.493  26.348  1.00  0.00     0.009 A 
ATOM     80  C   UNL A   1      47.163  24.719  26.424  1.00  0.00     0.009 A 
ATOM     81  C   UNL A   1      46.114  26.972  25.166  1.00  0.00     0.001 A 
ATOM     82  C   UNL A   1      47.756  25.210  25.260  1.00  0.00     0.001 A 
ATOM     83  C   UNL A   1      47.228  26.333  24.626  1.00  0.00     0.000 A 
ENDBRANCH  65  78
ENDBRANCH  39  40
ENDBRANCH  31  34
ENDBRANCH  29  30
ENDBRANCH  28  29
ENDBRANCH   1  28
TORSDOF 14
ENDMDL
MODEL 2
REMARK VINA RESULT:     -11.1      3.935     10.127
REMARK SMILES Cc1n[nH]c(C[N@H+]2CCC[C@H](c3cccc(C(=O)NCCCCNC(=O)c4ccc(-c5c6nc(c(-c7ccccc7)c7ccc([nH]7)c(-c7ccccc7)c7nc(c(-c8ccccc8)c8ccc5[nH]8)C=C7)C=C6)cc4)c3)C2)n1
REMARK SMILES IDX 21 1 20 2 19 3 17 4 18 5 16 7 12 8 13 9 75 10 14 11 15 12
REMARK SMILES IDX 11 13 7 14 8 15 76 16 9 18 10 19 6 20 5 21 1 22 2 23 3 24
REMARK SMILES IDX 77 25 4 26 22 28 23 29 24 30 25 31 26 33 27 34 28 35 74 36
REMARK SMILES IDX 29 37 73 38 30 39 31 40 32 41 67 42 33 43 72 44 66 45 68 46
REMARK SMILES IDX 34 47 71 48 65 49 64 50 35 52 57 53 42 54 56 55 43 56 46 57
REMARK SMILES IDX 55 58 69 59 44 60 45 61 54 63 70 64 47 65 36 66 37 67 41 68
REMARK SMILES IDX 38 69 40 70 39 71 58 72 59 73 63 74 60 75 62 76 61 77 48 78
REMARK SMILES IDX 49 79 53 80 50 81 52 82 51 83
REMARK H PARENT 19 6 7 17 4 27 24 32 68 51 46 62
REMARK Flexibility Score: inf
ROOT
ATOM      1  C   UNL A   1      31.832  30.477  26.910  1.00  0.00     0.023 C 
ENDROOT
BRANCH   1   2
ATOM      2  C   UNL A   1      33.264  29.951  26.870  1.00  0.00     0.116 C 
BRANCH   2   3
ATOM      3  N   UNL A   1      33.729  29.465  25.572  1.00  0.00    -0.352 N 
ATOM      4  C   UNL A   1      33.400  28.357  24.807  1.00  0.00     0.251 C 
ATOM      5  O   UNL A   1      33.958  28.213  23.721  1.00  0.00    -0.269 OA
ATOM      6  H   UNL A   1      34.411  30.041  25.157  1.00  0.00     0.163 HD
BRANCH   4   7
ATOM      7  C   UNL A   1      32.458  27.304  25.279  1.00  0.00     0.040 A 
ATOM      8  C   UNL A   1      32.154  25.054  26.152  1.00  0.00    -0.039 A 
ATOM      9  C   UNL A   1      30.818  25.096  25.732  1.00  0.00     0.004 A 
ATOM     10  C   UNL A   1      32.896  26.235  26.050  1.00  0.00     0.018 A 
ATOM     11  C   UNL A   1      30.286  26.254  25.160  1.00  0.00     0.001 A 
ATOM     12  C   UNL A   1      31.117  27.343  24.888  1.00  0.00     0.014 A 
BRANCH   8  13
ATOM     13  C   UNL A   1      32.891  23.761  26.504  1.00  0.00     0.074 C 
ATOM     14  N   UNL A   1      34.132  23.330  24.390  1.00  0.00    -0.328 N 
ATOM     15  C   UNL A   1      33.322  22.137  24.110  1.00  0.00     0.262 C 
ATOM     16  C   UNL A   1      34.265  23.568  25.838  1.00  0.00     0.270 C 
ATOM     17  H   UNL A   1      33.624  24.118  23.986  1.00  0.00     0.348 HD
ATOM     18  C   UNL A   1      31.950  22.186  24.789  1.00  0.00     0.062 C 
ATOM     19  C   UNL A   1      32.091  22.462  26.280  1.00  0.00     0.020 C 
BRANCH  14  20
ATOM     20  C   UNL A   1      35.452  23.304  23.729  1.00  0.00     0.340 C 
BRANCH  20  21
ATOM     21  C   UNL A   1      36.459  22.434  24.404  1.00  0.00     0.179 A 
ATOM     22  C   UNL A   1      38.223  19.466  25.098  1.00  0.00     0.092 C 
ATOM     23  C   UNL A   1      37.710  20.845  24.996  1.00  0.00     0.147 A 
ATOM     24  N   UNL A   1      38.427  21.924  25.331  1.00  0.00    -0.159 NA
ATOM     25  N   UNL A   1      36.476  21.118  24.479  1.00  0.00    -0.211 NA
ATOM     26  N   UNL A   1      37.605  22.920  24.965  1.00  0.00    -0.258 N 
ATOM     27  H   UNL A   1      37.802  23.876  25.086  1.00  0.00     0.192 HD
ENDBRANCH  20  21
ENDBRANCH  14  20
ENDBRANCH   8  13
ENDBRANCH   4   7
ENDBRANCH   2   3
ENDBRANCH   1   2
BRANCH   1  28
ATOM     28  C   UNL A   1      31.633  31.991  26.851  1.00  0.00     0.023 C 
BRANCH  28  29
ATOM     29  C   UNL A   1      32.846  32.819  27.251  1.00  0.00     0.116 C 
BRANCH  29  30
ATOM     30  N   UNL A   1      32.520  34.131  27.813  1.00  0.00    -0.352 N 
ATOM     31  C   UNL A   1      33.090  34.732  28.926  1.00  0.00     0.251 C 
ATOM     32  H   UNL A   1      31.818  34.643  27.350  1.00  0.00     0.163 HD
ATOM     33  O   UNL A   1      32.535  35.633  29.525  1.00  0.00    -0.269 OA
BRANCH  31  34
ATOM     34  C   UNL A   1      34.415  34.251  29.361  1.00  0.00     0.039 A 
ATOM     35  C   UNL A   1      34.588  33.509  30.533  1.00  0.00     0.014 A 
ATOM     36  C   UNL A   1      35.486  34.515  28.513  1.00  0.00     0.014 A 
ATOM     37  C   UNL A   1      35.839  32.954  30.797  1.00  0.00     0.010 A 
ATOM     38  C   UNL A   1      36.663  33.839  28.689  1.00  0.00     0.010 A 
ATOM     39  C   UNL A   1      36.866  33.108  29.858  1.00  0.00    -0.014 A 
BRANCH  39  40
ATOM     40  C   UNL A   1      38.148  32.430  30.010  1.00  0.00     0.031 A 
ATOM     41  C   UNL A   1      38.161  30.990  29.619  1.00  0.00     0.074 A 
ATOM     42  C   UNL A   1      39.293  33.126  30.194  1.00  0.00     0.049 A 
ATOM     43  N   UNL A   1      38.459  29.971  30.354  1.00  0.00    -0.248 NA
ATOM     44  C   UNL A   1      37.691  30.630  28.268  1.00  0.00     0.031 C 
ATOM     45  C   UNL A   1      39.466  34.585  30.225  1.00  0.00     0.029 A 
ATOM     46  N   UNL A   1      40.576  32.678  30.205  1.00  0.00    -0.354 N 
ATOM     47  C   UNL A   1      38.400  28.857  29.518  1.00  0.00     0.074 A 
ATOM     48  C   UNL A   1      37.760  29.297  28.305  1.00  0.00     0.031 C 
ATOM     49  C   UNL A   1      40.753  34.888  29.953  1.00  0.00     0.029 A 
ATOM     50  C   UNL A   1      41.518  33.656  29.901  1.00  0.00     0.049 A 
ATOM     51  H   UNL A   1      40.817  31.747  30.411  1.00  0.00     0.167 HD
ATOM     52  C   UNL A   1      39.103  27.720  29.790  1.00  0.00     0.031 A 
ATOM     53  C   UNL A   1      42.814  33.458  29.558  1.00  0.00     0.031 A 
ATOM     54  C   UNL A   1      39.600  27.712  31.142  1.00  0.00     0.049 A 
ATOM     55  C   UNL A   1      43.177  32.082  29.976  1.00  0.00     0.074 A 
ATOM     56  C   UNL A   1      39.017  27.823  32.390  1.00  0.00     0.029 A 
ATOM     57  N   UNL A   1      40.934  27.994  31.326  1.00  0.00    -0.354 N 
ATOM     58  N   UNL A   1      43.249  31.706  31.221  1.00  0.00    -0.248 NA
ATOM     59  C   UNL A   1      42.983  31.009  29.012  1.00  0.00     0.031 C 
ATOM     60  C   UNL A   1      39.901  28.669  33.123  1.00  0.00     0.029 A 
ATOM     61  C   UNL A   1      41.006  28.939  32.314  1.00  0.00     0.049 A 
ATOM     62  H   UNL A   1      41.690  27.592  30.841  1.00  0.00     0.167 HD
ATOM     63  C   UNL A   1      42.662  30.449  31.244  1.00  0.00     0.074 A 
ATOM     64  C   UNL A   1      42.605  30.031  29.842  1.00  0.00     0.031 C 
ATOM     65  C   UNL A   1      42.000  29.989  32.349  1.00  0.00     0.031 A 
BRANCH  52  66
ATOM     66  C   UNL A   1      39.698  26.822  28.730  1.00  0.00    -0.014 A 
ATOM     67  C   UNL A   1      40.526  27.398  27.746  1.00  0.00     0.009 A 
ATOM     68  C   UNL A   1      39.250  25.511  28.487  1.00  0.00     0.009 A 
ATOM     69  C   UNL A   1      40.806  26.731  26.548  1.00  0.00     0.001 A 
ATOM     70  C   UNL A   1      39.566  24.825  27.311  1.00  0.00     0.001 A 
ATOM     71  C   UNL A   1      40.317  25.448  26.326  1.00  0.00     0.000 A 
ENDBRANCH  52  66
BRANCH  53  72
ATOM     72  C   UNL A   1      43.655  34.266  28.643  1.00  0.00    -0.014 A 
ATOM     73  C   UNL A   1      45.055  34.174  28.677  1.00  0.00     0.009 A 
ATOM     74  C   UNL A   1      43.076  34.953  27.559  1.00  0.00     0.009 A 
ATOM     75  C   UNL A   1      45.840  34.721  27.652  1.00  0.00     0.001 A 
ATOM     76  C   UNL A   1      43.859  35.505  26.537  1.00  0.00     0.001 A 
ATOM     77  C   UNL A   1      45.242  35.375  26.577  1.00  0.00     0.000 A 
ENDBRANCH  53  72
BRANCH  65  78
ATOM     78  C   UNL A   1      42.095  30.774  33.635  1.00  0.00    -0.014 A 
ATOM     79  C   UNL A   1      41.281  31.882  33.928  1.00  0.00     0.009 A 
ATOM     80  C   UNL A   1      42.914  30.267  34.656  1.00  0.00     0.009 A 
ATOM     81  C   UNL A   1      41.312  32.481  35.194  1.00  0.00     0.001 A 
ATOM     82  C   UNL A   1      42.928  30.849  35.925  1.00  0.00     0.001 A 
ATOM     83  C   UNL A   1      42.131  31.961  36.192  1.00  0.00     0.000 A 
ENDBRANCH  65  78
ENDBRANCH  39  40
ENDBRANCH  31  34
ENDBRANCH  29  30
ENDBRANCH  28  29
ENDBRANCH   1  28
TORSDOF 14
ENDMDL
MODEL 3
REMARK VINA RESULT:     -11.0      3.215     11.818
REMARK SMILES Cc1n[nH]c(C[N@H+]2CCC[C@H](c3cccc(C(=O)NCCCCNC(=O)c4ccc(-c5c6nc(c(-c7ccccc7)c7ccc([nH]7)c(-c7ccccc7)c7nc(c(-c8ccccc8)c8ccc5[nH]8)C=C7)C=C6)cc4)c3)C2)n1
REMARK SMILES IDX 21 1 20 2 19 3 17 4 18 5 16 7 12 8 13 9 75 10 14 11 15 12
REMARK SMILES IDX 11 13 7 14 8 15 76 16 9 18 10 19 6 20 5 21 1 22 2 23 3 24
REMARK SMILES IDX 77 25 4 26 22 28 23 29 24 30 25 31 26 33 27 34 28 35 74 36
REMARK SMILES IDX 29 37 73 38 30 39 31 40 32 41 67 42 33 43 72 44 66 45 68 46
REMARK SMILES IDX 34 47 71 48 65 49 64 50 35 52 57 53 42 54 56 55 43 56 46 57
REMARK SMILES IDX 55 58 69 59 44 60 45 61 54 63 70 64 47 65 36 66 37 67 41 68
REMARK SMILES IDX 38 69 40 70 39 71 58 72 59 73 63 74 60 75 62 76 61 77 48 78
REMARK SMILES IDX 49 79 53 80 50 81 52 82 51 83
REMARK H PARENT 19 6 7 17 4 27 24 32 68 51 46 62
REMARK Flexibility Score: inf
ROOT
ATOM      1  C   UNL A   1      46.847  24.922  26.486  1.00  0.00     0.023 C 
ENDROOT
BRANCH   1   2
ATOM      2  C   UNL A   1      46.485  24.916  25.004  1.00  0.00     0.116 C 
BRANCH   2   3
ATOM      3  N   UNL A   1      45.820  23.709  24.516  1.00  0.00    -0.352 N 
ATOM      4  C   UNL A   1      44.512  23.257  24.591  1.00  0.00     0.251 C 
ATOM      5  O   UNL A   1      44.235  22.183  24.059  1.00  0.00    -0.269 OA
ATOM      6  H   UNL A   1      46.421  23.095  24.036  1.00  0.00     0.163 HD
BRANCH   4   7
ATOM      7  C   UNL A   1      43.452  23.982  25.346  1.00  0.00     0.040 A 
ATOM      8  C   UNL A   1      41.563  23.860  26.875  1.00  0.00    -0.039 A 
ATOM      9  C   UNL A   1      41.150  25.122  26.429  1.00  0.00     0.004 A 
ATOM     10  C   UNL A   1      42.803  23.395  26.424  1.00  0.00     0.018 A 
ATOM     11  C   UNL A   1      41.918  25.841  25.509  1.00  0.00     0.001 A 
ATOM     12  C   UNL A   1      43.043  25.251  24.930  1.00  0.00     0.014 A 
BRANCH   8  13
ATOM     13  C   UNL A   1      40.655  22.890  27.634  1.00  0.00     0.074 C 
ATOM     14  N   UNL A   1      41.488  20.701  26.792  1.00  0.00    -0.328 N 
ATOM     15  C   UNL A   1      40.227  20.449  26.080  1.00  0.00     0.262 C 
ATOM     16  C   UNL A   1      41.276  21.530  27.993  1.00  0.00     0.270 C 
ATOM     17  H   UNL A   1      42.078  21.227  26.146  1.00  0.00     0.348 HD
ATOM     18  C   UNL A   1      39.481  21.741  25.734  1.00  0.00     0.062 C 
ATOM     19  C   UNL A   1      39.291  22.607  26.972  1.00  0.00     0.020 C 
BRANCH  14  20
ATOM     20  C   UNL A   1      42.226  19.465  27.119  1.00  0.00     0.340 C 
BRANCH  20  21
ATOM     21  C   UNL A   1      43.187  19.027  26.064  1.00  0.00     0.179 A 
ATOM     22  C   UNL A   1      44.752  19.035  22.909  1.00  0.00     0.092 C 
ATOM     23  C   UNL A   1      44.337  18.829  24.309  1.00  0.00     0.147 A 
ATOM     24  N   UNL A   1      45.138  18.308  25.245  1.00  0.00    -0.159 NA
ATOM     25  N   UNL A   1      43.112  19.227  24.763  1.00  0.00    -0.211 NA
ATOM     26  N   UNL A   1      44.379  18.426  26.347  1.00  0.00    -0.258 N 
ATOM     27  H   UNL A   1      44.647  18.117  27.242  1.00  0.00     0.192 HD
ENDBRANCH  20  21
ENDBRANCH  14  20
ENDBRANCH   8  13
ENDBRANCH   4   7
ENDBRANCH   2   3
ENDBRANCH   1   2
BRANCH   1  28
ATOM     28  C   UNL A   1      46.897  26.274  27.196  1.00  0.00     0.023 C 
BRANCH  28  29
ATOM     29  C   UNL A   1      46.069  26.369  28.469  1.00  0.00     0.116 C 
BRANCH  29  30
ATOM     30  N   UNL A   1      45.547  25.087  28.945  1.00  0.00    -0.352 N 
ATOM     31  C   UNL A   1      44.585  24.884  29.924  1.00  0.00     0.251 C 
ATOM     32  H   UNL A   1      45.921  24.279  28.523  1.00  0.00     0.163 HD
ATOM     33  O   UNL A   1      44.470  23.820  30.501  1.00  0.00    -0.269 OA
BRANCH  31  34
ATOM     34  C   UNL A   1      43.684  26.007  30.241  1.00  0.00     0.039 A 
ATOM     35  C   UNL A   1      43.860  26.803  31.377  1.00  0.00     0.014 A 
ATOM     36  C   UNL A   1      42.679  26.283  29.319  1.00  0.00     0.014 A 
ATOM     37  C   UNL A   1      43.068  27.940  31.528  1.00  0.00     0.010 A 
ATOM     38  C   UNL A   1      42.019  27.480  29.385  1.00  0.00     0.010 A 
ATOM     39  C   UNL A   1      42.163  28.282  30.515  1.00  0.00    -0.014 A 
BRANCH  39  40
ATOM     40  C   UNL A   1      41.415  29.533  30.549  1.00  0.00     0.031 A 
ATOM     41  C   UNL A   1      42.196  30.755  30.196  1.00  0.00     0.074 A 
ATOM     42  C   UNL A   1      40.064  29.542  30.592  1.00  0.00     0.049 A 
ATOM     43  N   UNL A   1      42.398  31.804  30.922  1.00  0.00    -0.248 NA
ATOM     44  C   UNL A   1      42.921  30.773  28.913  1.00  0.00     0.031 C 
ATOM     45  C   UNL A   1      39.153  28.389  30.567  1.00  0.00     0.029 A 
ATOM     46  N   UNL A   1      39.209  30.593  30.480  1.00  0.00    -0.354 N 
ATOM     47  C   UNL A   1      43.116  32.695  30.127  1.00  0.00     0.074 A 
ATOM     48  C   UNL A   1      43.554  31.947  28.977  1.00  0.00     0.031 C 
ATOM     49  C   UNL A   1      37.932  28.793  30.153  1.00  0.00     0.029 A 
ATOM     50  C   UNL A   1      37.933  30.240  30.053  1.00  0.00     0.049 A 
ATOM     51  H   UNL A   1      39.469  31.520  30.684  1.00  0.00     0.167 HD
ATOM     52  C   UNL A   1      43.085  34.040  30.353  1.00  0.00     0.031 A 
ATOM     53  C   UNL A   1      36.974  31.074  29.580  1.00  0.00     0.031 A 
ATOM     54  C   UNL A   1      42.529  34.350  31.645  1.00  0.00     0.049 A 
ATOM     55  C   UNL A   1      37.341  32.450  29.993  1.00  0.00     0.074 A 
ATOM     56  C   UNL A   1      42.835  33.993  32.944  1.00  0.00     0.029 A 
ATOM     57  N   UNL A   1      41.233  34.811  31.680  1.00  0.00    -0.354 N 
ATOM     58  N   UNL A   1      37.347  32.848  31.234  1.00  0.00    -0.248 NA
ATOM     59  C   UNL A   1      38.165  33.232  29.084  1.00  0.00     0.031 C 
ATOM     60  C   UNL A   1      41.569  33.756  33.557  1.00  0.00     0.029 A 
ATOM     61  C   UNL A   1      40.576  34.075  32.629  1.00  0.00     0.049 A 
ATOM     62  H   UNL A   1      40.852  35.533  31.128  1.00  0.00     0.167 HD
ATOM     63  C   UNL A   1      38.498  33.615  31.351  1.00  0.00     0.074 A 
ATOM     64  C   UNL A   1      38.909  33.896  29.975  1.00  0.00     0.031 C 
ATOM     65  C   UNL A   1      39.183  33.699  32.531  1.00  0.00     0.031 A 
BRANCH  52  66
ATOM     66  C   UNL A   1      43.160  35.082  29.261  1.00  0.00    -0.014 A 
ATOM     67  C   UNL A   1      42.019  35.306  28.466  1.00  0.00     0.009 A 
ATOM     68  C   UNL A   1      44.369  35.628  28.794  1.00  0.00     0.009 A 
ATOM     69  C   UNL A   1      42.108  35.959  27.230  1.00  0.00     0.001 A 
ATOM     70  C   UNL A   1      44.453  36.320  27.583  1.00  0.00     0.001 A 
ATOM     71  C   UNL A   1      43.327  36.456  26.784  1.00  0.00     0.000 A 
ENDBRANCH  52  66
BRANCH  53  72
ATOM     72  C   UNL A   1      35.936  30.793  28.561  1.00  0.00    -0.014 A 
ATOM     73  C   UNL A   1      35.930  29.582  27.849  1.00  0.00     0.009 A 
ATOM     74  C   UNL A   1      34.796  31.612  28.455  1.00  0.00     0.009 A 
ATOM     75  C   UNL A   1      34.816  29.196  27.090  1.00  0.00     0.001 A 
ATOM     76  C   UNL A   1      33.686  31.232  27.692  1.00  0.00     0.001 A 
ATOM     77  C   UNL A   1      33.690  30.014  27.020  1.00  0.00     0.000 A 
ENDBRANCH  53  72
BRANCH  65  78
ATOM     78  C   UNL A   1      38.560  33.121  33.780  1.00  0.00    -0.014 A 
ATOM     79  C   UNL A   1      38.648  31.763  34.132  1.00  0.00     0.009 A 
ATOM     80  C   UNL A   1      38.018  34.013  34.718  1.00  0.00     0.009 A 
ATOM     81  C   UNL A   1      38.177  31.311  35.371  1.00  0.00     0.001 A 
ATOM     82  C   UNL A   1      37.571  33.567  35.963  1.00  0.00     0.001 A 
ATOM     83  C   UNL A   1      37.644  32.214  36.287  1.00  0.00     0.000 A 
ENDBRANCH  65  78
ENDBRANCH  39  40
ENDBRANCH  31  34
ENDBRANCH  29  30
ENDBRANCH  28  29
ENDBRANCH   1  28
TORSDOF 14
ENDMDL
