MODEL 1
REMARK VINA RESULT:      -8.3      0.000      0.000
REMARK SMILES O=C(/C=C/c1ccc(O)c(O)c1)NCCCCNC(=O)c1ccc(-c2c3nc(c(-c4ccccc4)c4ccc([nH]4)c(-c4ccccc4)c4nc(c(-c5ccccc5)c5ccc2[nH]5)C=C4)C=C3)cc1
REMARK SMILES IDX 15 1 14 2 13 3 1 4 2 5 3 7 4 8 5 9 6 10 12 11 7 12 10 13
REMARK SMILES IDX 8 14 11 15 9 17 16 19 17 20 18 21 19 22 20 24 21 25 22 26
REMARK SMILES IDX 68 27 23 28 67 29 24 30 25 31 26 32 61 33 27 34 66 35 60 36
REMARK SMILES IDX 62 37 28 38 65 39 59 40 58 41 29 43 51 44 36 45 50 46 37 47
REMARK SMILES IDX 40 48 49 49 63 50 38 51 39 52 48 54 64 55 41 56 30 57 31 58
REMARK SMILES IDX 35 59 32 60 34 61 33 62 52 63 53 64 57 65 54 66 56 67 55 68
REMARK SMILES IDX 42 69 43 70 47 71 44 72 46 73 45 74
REMARK H PARENT 13 6 11 16 9 18 18 23 62 42 40 53
REMARK Flexibility Score: inf
ROOT
ATOM      1  C   UNL A   1      35.232  35.751  33.053  1.00  0.00     0.023 C 
ENDROOT
BRANCH   1   2
ATOM      2  C   UNL A   1      35.056  34.653  34.103  1.00  0.00     0.116 C 
BRANCH   2   3
ATOM      3  N   UNL A   1      36.097  33.645  34.026  1.00  0.00    -0.353 N 
ATOM      4  O   UNL A   1      36.394  33.450  36.292  1.00  0.00    -0.270 OA
ATOM      5  C   UNL A   1      36.698  33.135  35.147  1.00  0.00     0.243 C 
ATOM      6  H   UNL A   1      36.381  33.318  33.142  1.00  0.00     0.163 HD
BRANCH   5   7
ATOM      7  C   UNL A   1      37.759  32.115  34.937  1.00  0.00     0.072 C 
ATOM      8  C   UNL A   1      39.002  32.120  35.444  1.00  0.00     0.014 C 
BRANCH   8   9
ATOM      9  C   UNL A   1      39.954  31.019  35.227  1.00  0.00    -0.022 A 
ATOM     10  C   UNL A   1      41.104  30.851  36.020  1.00  0.00     0.012 A 
ATOM     11  C   UNL A   1      39.683  30.085  34.220  1.00  0.00     0.058 A 
ATOM     12  C   UNL A   1      41.988  29.790  35.791  1.00  0.00     0.051 A 
ATOM     13  C   UNL A   1      40.565  29.035  33.998  1.00  0.00     0.157 A 
ATOM     14  C   UNL A   1      41.712  28.889  34.772  1.00  0.00     0.157 A 
BRANCH  13  15
ATOM     15  O   UNL A   1      40.298  28.142  33.000  1.00  0.00    -0.504 OA
ATOM     16  H   UNL A   1      40.714  27.302  32.998  1.00  0.00     0.293 HD
ENDBRANCH  13  15
BRANCH  14  17
ATOM     17  O   UNL A   1      42.538  27.836  34.491  1.00  0.00    -0.504 OA
ATOM     18  H   UNL A   1      42.792  27.663  33.605  1.00  0.00     0.293 HD
ENDBRANCH  14  17
ENDBRANCH   8   9
ENDBRANCH   5   7
ENDBRANCH   2   3
ENDBRANCH   1   2
BRANCH   1  19
ATOM     19  C   UNL A   1      33.928  36.327  32.491  1.00  0.00     0.023 C 
BRANCH  19  20
ATOM     20  C   UNL A   1      32.866  35.302  32.110  1.00  0.00     0.116 C 
BRANCH  20  21
ATOM     21  N   UNL A   1      32.521  35.334  30.698  1.00  0.00    -0.352 N 
ATOM     22  C   UNL A   1      33.220  34.860  29.615  1.00  0.00     0.251 C 
ATOM     23  H   UNL A   1      31.658  35.760  30.487  1.00  0.00     0.163 HD
ATOM     24  O   UNL A   1      32.826  35.100  28.476  1.00  0.00    -0.269 OA
BRANCH  22  25
ATOM     25  C   UNL A   1      34.469  34.087  29.807  1.00  0.00     0.039 A 
ATOM     26  C   UNL A   1      35.606  34.455  29.081  1.00  0.00     0.014 A 
ATOM     27  C   UNL A   1      34.527  33.005  30.689  1.00  0.00     0.014 A 
ATOM     28  C   UNL A   1      36.815  33.787  29.296  1.00  0.00     0.010 A 
ATOM     29  C   UNL A   1      35.749  32.392  30.959  1.00  0.00     0.010 A 
ATOM     30  C   UNL A   1      36.908  32.777  30.267  1.00  0.00    -0.014 A 
BRANCH  30  31
ATOM     31  C   UNL A   1      38.208  32.128  30.583  1.00  0.00     0.031 A 
ATOM     32  C   UNL A   1      39.197  32.802  31.496  1.00  0.00     0.074 A 
ATOM     33  C   UNL A   1      38.530  30.958  29.996  1.00  0.00     0.049 A 
ATOM     34  N   UNL A   1      40.399  32.413  31.843  1.00  0.00    -0.248 NA
ATOM     35  C   UNL A   1      38.792  34.092  32.078  1.00  0.00     0.031 C 
ATOM     36  C   UNL A   1      37.679  30.214  29.065  1.00  0.00     0.029 A 
ATOM     37  N   UNL A   1      39.665  30.190  30.094  1.00  0.00    -0.354 N 
ATOM     38  C   UNL A   1      40.898  33.415  32.667  1.00  0.00     0.074 A 
ATOM     39  C   UNL A   1      39.890  34.451  32.727  1.00  0.00     0.031 C 
ATOM     40  C   UNL A   1      38.308  29.083  28.702  1.00  0.00     0.029 A 
ATOM     41  C   UNL A   1      39.622  29.044  29.335  1.00  0.00     0.049 A 
ATOM     42  H   UNL A   1      40.435  30.436  30.655  1.00  0.00     0.167 HD
ATOM     43  C   UNL A   1      42.080  33.462  33.326  1.00  0.00     0.031 A 
ATOM     44  C   UNL A   1      40.538  28.074  29.161  1.00  0.00     0.031 A 
ATOM     45  C   UNL A   1      43.083  32.431  33.269  1.00  0.00     0.049 A 
ATOM     46  C   UNL A   1      41.856  28.166  29.881  1.00  0.00     0.074 A 
ATOM     47  C   UNL A   1      44.287  32.364  33.950  1.00  0.00     0.029 A 
ATOM     48  N   UNL A   1      43.003  31.293  32.484  1.00  0.00    -0.354 N 
ATOM     49  N   UNL A   1      42.282  29.085  30.711  1.00  0.00    -0.248 NA
ATOM     50  C   UNL A   1      42.815  27.078  29.643  1.00  0.00     0.031 C 
ATOM     51  C   UNL A   1      44.964  31.216  33.527  1.00  0.00     0.029 A 
ATOM     52  C   UNL A   1      44.152  30.533  32.637  1.00  0.00     0.049 A 
ATOM     53  H   UNL A   1      42.243  31.058  31.904  1.00  0.00     0.167 HD
ATOM     54  C   UNL A   1      43.543  28.672  31.120  1.00  0.00     0.074 A 
ATOM     55  C   UNL A   1      43.806  27.410  30.458  1.00  0.00     0.031 C 
ATOM     56  C   UNL A   1      44.405  29.280  31.971  1.00  0.00     0.031 A 
BRANCH  43  57
ATOM     57  C   UNL A   1      42.361  34.685  34.157  1.00  0.00    -0.014 A 
ATOM     58  C   UNL A   1      42.026  34.736  35.521  1.00  0.00     0.009 A 
ATOM     59  C   UNL A   1      43.006  35.790  33.577  1.00  0.00     0.009 A 
ATOM     60  C   UNL A   1      42.293  35.882  36.273  1.00  0.00     0.001 A 
ATOM     61  C   UNL A   1      43.301  36.921  34.341  1.00  0.00     0.001 A 
ATOM     62  C   UNL A   1      42.934  36.970  35.684  1.00  0.00     0.000 A 
ENDBRANCH  43  57
BRANCH  44  63
ATOM     63  C   UNL A   1      40.242  26.918  28.274  1.00  0.00    -0.014 A 
ATOM     64  C   UNL A   1      39.490  25.832  28.748  1.00  0.00     0.009 A 
ATOM     65  C   UNL A   1      40.717  26.888  26.953  1.00  0.00     0.009 A 
ATOM     66  C   UNL A   1      39.246  24.727  27.927  1.00  0.00     0.001 A 
ATOM     67  C   UNL A   1      40.443  25.797  26.125  1.00  0.00     0.001 A 
ATOM     68  C   UNL A   1      39.717  24.714  26.617  1.00  0.00     0.000 A 
ENDBRANCH  44  63
BRANCH  56  69
ATOM     69  C   UNL A   1      45.698  28.573  32.267  1.00  0.00    -0.014 A 
ATOM     70  C   UNL A   1      45.802  27.637  33.307  1.00  0.00     0.009 A 
ATOM     71  C   UNL A   1      46.823  28.822  31.464  1.00  0.00     0.009 A 
ATOM     72  C   UNL A   1      47.016  26.991  33.559  1.00  0.00     0.001 A 
ATOM     73  C   UNL A   1      48.025  28.152  31.697  1.00  0.00     0.001 A 
ATOM     74  C   UNL A   1      48.123  27.245  32.751  1.00  0.00     0.000 A 
ENDBRANCH  56  69
ENDBRANCH  30  31
ENDBRANCH  22  25
ENDBRANCH  20  21
ENDBRANCH  19  20
ENDBRANCH   1  19
TORSDOF 14
ENDMDL
MODEL 2
REMARK VINA RESULT:      -8.2      4.935      8.588
REMARK SMILES O=C(/C=C/c1ccc(O)c(O)c1)NCCCCNC(=O)c1ccc(-c2c3nc(c(-c4ccccc4)c4ccc([nH]4)c(-c4ccccc4)c4nc(c(-c5ccccc5)c5ccc2[nH]5)C=C4)C=C3)cc1
REMARK SMILES IDX 15 1 14 2 13 3 1 4 2 5 3 7 4 8 5 9 6 10 12 11 7 12 10 13
REMARK SMILES IDX 8 14 11 15 9 17 16 19 17 20 18 21 19 22 20 24 21 25 22 26
REMARK SMILES IDX 68 27 23 28 67 29 24 30 25 31 26 32 61 33 27 34 66 35 60 36
REMARK SMILES IDX 62 37 28 38 65 39 59 40 58 41 29 43 51 44 36 45 50 46 37 47
REMARK SMILES IDX 40 48 49 49 63 50 38 51 39 52 48 54 64 55 41 56 30 57 31 58
REMARK SMILES IDX 35 59 32 60 34 61 33 62 52 63 53 64 57 65 54 66 56 67 55 68
REMARK SMILES IDX 42 69 43 70 47 71 44 72 46 73 45 74
REMARK H PARENT 13 6 11 16 9 18 18 23 62 42 40 53
REMARK Flexibility Score: inf
ROOT
ATOM      1  C   UNL A   1      33.500  26.737  25.907  1.00  0.00     0.023 C 
ENDROOT
BRANCH   1   2
ATOM      2  C   UNL A   1      32.200  26.221  25.288  1.00  0.00     0.116 C 
BRANCH   2   3
ATOM      3  N   UNL A   1      31.480  27.258  24.574  1.00  0.00    -0.353 N 
ATOM      4  O   UNL A   1      29.779  25.898  23.851  1.00  0.00    -0.270 OA
ATOM      5  C   UNL A   1      30.321  26.998  23.891  1.00  0.00     0.243 C 
ATOM      6  H   UNL A   1      31.835  28.176  24.580  1.00  0.00     0.163 HD
BRANCH   5   7
ATOM      7  C   UNL A   1      29.681  28.142  23.189  1.00  0.00     0.072 C 
ATOM      8  C   UNL A   1      29.715  29.436  23.546  1.00  0.00     0.014 C 
BRANCH   8   9
ATOM      9  C   UNL A   1      29.102  30.500  22.735  1.00  0.00    -0.022 A 
ATOM     10  C   UNL A   1      28.516  30.248  21.481  1.00  0.00     0.012 A 
ATOM     11  C   UNL A   1      29.068  31.802  23.250  1.00  0.00     0.058 A 
ATOM     12  C   UNL A   1      27.937  31.282  20.736  1.00  0.00     0.051 A 
ATOM     13  C   UNL A   1      28.492  32.823  22.505  1.00  0.00     0.157 A 
ATOM     14  C   UNL A   1      27.934  32.569  21.255  1.00  0.00     0.157 A 
BRANCH  13  15
ATOM     15  O   UNL A   1      28.481  34.092  23.011  1.00  0.00    -0.504 OA
ATOM     16  H   UNL A   1      29.001  34.761  22.611  1.00  0.00     0.293 HD
ENDBRANCH  13  15
BRANCH  14  17
ATOM     17  O   UNL A   1      27.392  33.625  20.576  1.00  0.00    -0.504 OA
ATOM     18  H   UNL A   1      27.688  34.497  20.751  1.00  0.00     0.293 HD
ENDBRANCH  14  17
ENDBRANCH   8   9
ENDBRANCH   5   7
ENDBRANCH   2   3
ENDBRANCH   1   2
BRANCH   1  19
ATOM     19  C   UNL A   1      33.361  28.015  26.739  1.00  0.00     0.023 C 
BRANCH  19  20
ATOM     20  C   UNL A   1      33.990  29.265  26.134  1.00  0.00     0.116 C 
BRANCH  20  21
ATOM     21  N   UNL A   1      33.821  30.449  26.962  1.00  0.00    -0.352 N 
ATOM     22  C   UNL A   1      34.610  30.923  27.983  1.00  0.00     0.251 C 
ATOM     23  H   UNL A   1      33.023  30.990  26.762  1.00  0.00     0.163 HD
ATOM     24  O   UNL A   1      34.230  31.875  28.660  1.00  0.00    -0.269 OA
BRANCH  22  25
ATOM     25  C   UNL A   1      35.903  30.273  28.297  1.00  0.00     0.039 A 
ATOM     26  C   UNL A   1      36.917  30.292  27.335  1.00  0.00     0.014 A 
ATOM     27  C   UNL A   1      36.121  29.644  29.526  1.00  0.00     0.014 A 
ATOM     28  C   UNL A   1      38.170  29.749  27.633  1.00  0.00     0.010 A 
ATOM     29  C   UNL A   1      37.392  29.173  29.849  1.00  0.00     0.010 A 
ATOM     30  C   UNL A   1      38.432  29.221  28.908  1.00  0.00    -0.014 A 
BRANCH  30  31
ATOM     31  C   UNL A   1      39.787  28.734  29.277  1.00  0.00     0.031 A 
ATOM     32  C   UNL A   1      40.725  29.608  30.066  1.00  0.00     0.074 A 
ATOM     33  C   UNL A   1      40.203  27.526  28.846  1.00  0.00     0.049 A 
ATOM     34  N   UNL A   1      41.960  29.373  30.434  1.00  0.00    -0.248 NA
ATOM     35  C   UNL A   1      40.216  30.926  30.479  1.00  0.00     0.031 C 
ATOM     36  C   UNL A   1      39.410  26.593  28.043  1.00  0.00     0.029 A 
ATOM     37  N   UNL A   1      41.402  26.878  29.019  1.00  0.00    -0.354 N 
ATOM     38  C   UNL A   1      42.380  30.517  31.103  1.00  0.00     0.074 A 
ATOM     39  C   UNL A   1      41.285  31.462  31.047  1.00  0.00     0.031 C 
ATOM     40  C   UNL A   1      40.130  25.481  27.822  1.00  0.00     0.029 A 
ATOM     41  C   UNL A   1      41.450  25.640  28.423  1.00  0.00     0.049 A 
ATOM     42  H   UNL A   1      42.154  27.263  29.523  1.00  0.00     0.167 HD
ATOM     43  C   UNL A   1      43.561  30.754  31.721  1.00  0.00     0.031 A 
ATOM     44  C   UNL A   1      42.446  24.737  28.359  1.00  0.00     0.031 A 
ATOM     45  C   UNL A   1      44.650  29.814  31.780  1.00  0.00     0.049 A 
ATOM     46  C   UNL A   1      43.759  25.038  29.028  1.00  0.00     0.074 A 
ATOM     47  C   UNL A   1      45.863  29.943  32.434  1.00  0.00     0.029 A 
ATOM     48  N   UNL A   1      44.660  28.576  31.158  1.00  0.00    -0.354 N 
ATOM     49  N   UNL A   1      44.113  26.094  29.717  1.00  0.00    -0.248 NA
ATOM     50  C   UNL A   1      44.807  24.013  28.916  1.00  0.00     0.031 C 
ATOM     51  C   UNL A   1      46.633  28.809  32.154  1.00  0.00     0.029 A 
ATOM     52  C   UNL A   1      45.872  27.945  31.384  1.00  0.00     0.049 A 
ATOM     53  H   UNL A   1      43.916  28.201  30.633  1.00  0.00     0.167 HD
ATOM     54  C   UNL A   1      45.410  25.849  30.147  1.00  0.00     0.074 A 
ATOM     55  C   UNL A   1      45.774  24.536  29.655  1.00  0.00     0.031 C 
ATOM     56  C   UNL A   1      46.226  26.639  30.888  1.00  0.00     0.031 A 
BRANCH  43  57
ATOM     57  C   UNL A   1      43.744  32.098  32.373  1.00  0.00    -0.014 A 
ATOM     58  C   UNL A   1      43.513  32.283  33.746  1.00  0.00     0.009 A 
ATOM     59  C   UNL A   1      44.193  33.188  31.610  1.00  0.00     0.009 A 
ATOM     60  C   UNL A   1      43.685  33.540  34.331  1.00  0.00     0.001 A 
ATOM     61  C   UNL A   1      44.397  34.435  32.204  1.00  0.00     0.001 A 
ATOM     62  C   UNL A   1      44.132  34.613  33.561  1.00  0.00     0.000 A 
ENDBRANCH  43  57
BRANCH  44  63
ATOM     63  C   UNL A   1      42.241  23.449  27.643  1.00  0.00    -0.014 A 
ATOM     64  C   UNL A   1      41.628  22.365  28.290  1.00  0.00     0.009 A 
ATOM     65  C   UNL A   1      42.665  23.293  26.314  1.00  0.00     0.009 A 
ATOM     66  C   UNL A   1      41.471  21.143  27.631  1.00  0.00     0.001 A 
ATOM     67  C   UNL A   1      42.478  22.080  25.648  1.00  0.00     0.001 A 
ATOM     68  C   UNL A   1      41.891  21.004  26.310  1.00  0.00     0.000 A 
ENDBRANCH  44  63
BRANCH  56  69
ATOM     69  C   UNL A   1      47.580  26.091  31.245  1.00  0.00    -0.014 A 
ATOM     70  C   UNL A   1      48.649  26.125  30.337  1.00  0.00     0.009 A 
ATOM     71  C   UNL A   1      47.798  25.567  32.530  1.00  0.00     0.009 A 
ATOM     72  C   UNL A   1      49.899  25.612  30.695  1.00  0.00     0.001 A 
ATOM     73  C   UNL A   1      49.055  25.086  32.897  1.00  0.00     0.001 A 
ATOM     74  C   UNL A   1      50.101  25.099  31.976  1.00  0.00     0.000 A 
ENDBRANCH  56  69
ENDBRANCH  30  31
ENDBRANCH  22  25
ENDBRANCH  20  21
ENDBRANCH  19  20
ENDBRANCH   1  19
TORSDOF 14
ENDMDL
MODEL 3
REMARK VINA RESULT:      -8.1      4.941     10.575
REMARK SMILES O=C(/C=C/c1ccc(O)c(O)c1)NCCCCNC(=O)c1ccc(-c2c3nc(c(-c4ccccc4)c4ccc([nH]4)c(-c4ccccc4)c4nc(c(-c5ccccc5)c5ccc2[nH]5)C=C4)C=C3)cc1
REMARK SMILES IDX 15 1 14 2 13 3 1 4 2 5 3 7 4 8 5 9 6 10 12 11 7 12 10 13
REMARK SMILES IDX 8 14 11 15 9 17 16 19 17 20 18 21 19 22 20 24 21 25 22 26
REMARK SMILES IDX 68 27 23 28 67 29 24 30 25 31 26 32 61 33 27 34 66 35 60 36
REMARK SMILES IDX 62 37 28 38 65 39 59 40 58 41 29 43 51 44 36 45 50 46 37 47
REMARK SMILES IDX 40 48 49 49 63 50 38 51 39 52 48 54 64 55 41 56 30 57 31 58
REMARK SMILES IDX 35 59 32 60 34 61 33 62 52 63 53 64 57 65 54 66 56 67 55 68
REMARK SMILES IDX 42 69 43 70 47 71 44 72 46 73 45 74
REMARK H PARENT 13 6 11 16 9 18 18 23 62 42 40 53
REMARK Flexibility Score: inf
ROOT
ATOM      1  C   UNL A   1      33.270  26.572  25.739  1.00  0.00     0.023 C 
ENDROOT
BRANCH   1   2
ATOM      2  C   UNL A   1      31.842  26.171  25.366  1.00  0.00     0.116 C 
BRANCH   2   3
ATOM      3  N   UNL A   1      31.145  27.219  24.645  1.00  0.00    -0.353 N 
ATOM      4  O   UNL A   1      31.305  26.224  22.584  1.00  0.00    -0.270 OA
ATOM      5  C   UNL A   1      30.949  27.162  23.290  1.00  0.00     0.243 C 
ATOM      6  H   UNL A   1      30.803  27.995  25.144  1.00  0.00     0.163 HD
BRANCH   5   7
ATOM      7  C   UNL A   1      30.230  28.303  22.664  1.00  0.00     0.072 C 
ATOM      8  C   UNL A   1      29.769  29.406  23.275  1.00  0.00     0.014 C 
BRANCH   8   9
ATOM      9  C   UNL A   1      29.129  30.511  22.543  1.00  0.00    -0.022 A 
ATOM     10  C   UNL A   1      28.527  30.331  21.285  1.00  0.00     0.012 A 
ATOM     11  C   UNL A   1      29.086  31.777  23.140  1.00  0.00     0.058 A 
ATOM     12  C   UNL A   1      27.922  31.402  20.616  1.00  0.00     0.051 A 
ATOM     13  C   UNL A   1      28.486  32.835  22.471  1.00  0.00     0.157 A 
ATOM     14  C   UNL A   1      27.912  32.653  21.216  1.00  0.00     0.157 A 
BRANCH  13  15
ATOM     15  O   UNL A   1      28.467  34.068  23.056  1.00  0.00    -0.504 OA
ATOM     16  H   UNL A   1      28.596  34.151  23.981  1.00  0.00     0.293 HD
ENDBRANCH  13  15
BRANCH  14  17
ATOM     17  O   UNL A   1      27.345  33.742  20.613  1.00  0.00    -0.504 OA
ATOM     18  H   UNL A   1      27.036  33.681  19.730  1.00  0.00     0.293 HD
ENDBRANCH  14  17
ENDBRANCH   8   9
ENDBRANCH   5   7
ENDBRANCH   2   3
ENDBRANCH   1   2
BRANCH   1  19
ATOM     19  C   UNL A   1      33.479  28.068  25.992  1.00  0.00     0.023 C 
BRANCH  19  20
ATOM     20  C   UNL A   1      33.393  28.508  27.450  1.00  0.00     0.116 C 
BRANCH  20  21
ATOM     21  N   UNL A   1      33.429  29.952  27.615  1.00  0.00    -0.352 N 
ATOM     22  C   UNL A   1      34.450  30.756  28.061  1.00  0.00     0.251 C 
ATOM     23  H   UNL A   1      32.600  30.423  27.371  1.00  0.00     0.163 HD
ATOM     24  O   UNL A   1      34.247  31.952  28.260  1.00  0.00    -0.269 OA
BRANCH  22  25
ATOM     25  C   UNL A   1      35.789  30.187  28.338  1.00  0.00     0.039 A 
ATOM     26  C   UNL A   1      36.746  30.192  27.318  1.00  0.00     0.014 A 
ATOM     27  C   UNL A   1      36.106  29.648  29.587  1.00  0.00     0.014 A 
ATOM     28  C   UNL A   1      38.038  29.726  27.574  1.00  0.00     0.010 A 
ATOM     29  C   UNL A   1      37.415  29.256  29.863  1.00  0.00     0.010 A 
ATOM     30  C   UNL A   1      38.397  29.293  28.861  1.00  0.00    -0.014 A 
BRANCH  30  31
ATOM     31  C   UNL A   1      39.793  28.892  29.179  1.00  0.00     0.031 A 
ATOM     32  C   UNL A   1      40.318  27.547  28.754  1.00  0.00     0.074 A 
ATOM     33  C   UNL A   1      40.574  29.714  29.908  1.00  0.00     0.049 A 
ATOM     34  N   UNL A   1      41.488  27.006  28.987  1.00  0.00    -0.248 NA
ATOM     35  C   UNL A   1      39.402  26.689  27.986  1.00  0.00     0.031 C 
ATOM     36  C   UNL A   1      40.180  31.031  30.414  1.00  0.00     0.029 A 
ATOM     37  N   UNL A   1      41.863  29.560  30.356  1.00  0.00    -0.354 N 
ATOM     38  C   UNL A   1      41.442  25.741  28.412  1.00  0.00     0.074 A 
ATOM     39  C   UNL A   1      40.113  25.578  27.863  1.00  0.00     0.031 C 
ATOM     40  C   UNL A   1      41.215  31.577  31.073  1.00  0.00     0.029 A 
ATOM     41  C   UNL A   1      42.328  30.633  31.079  1.00  0.00     0.049 A 
ATOM     42  H   UNL A   1      42.404  28.758  30.174  1.00  0.00     0.167 HD
ATOM     43  C   UNL A   1      42.419  24.808  28.332  1.00  0.00     0.031 A 
ATOM     44  C   UNL A   1      43.512  30.833  31.687  1.00  0.00     0.031 A 
ATOM     45  C   UNL A   1      43.743  24.970  28.875  1.00  0.00     0.049 A 
ATOM     46  C   UNL A   1      44.570  29.767  31.610  1.00  0.00     0.074 A 
ATOM     47  C   UNL A   1      44.818  24.102  28.793  1.00  0.00     0.029 A 
ATOM     48  N   UNL A   1      44.168  26.067  29.606  1.00  0.00    -0.354 N 
ATOM     49  N   UNL A   1      44.534  28.608  31.001  1.00  0.00    -0.248 NA
ATOM     50  C   UNL A   1      45.838  30.045  32.300  1.00  0.00     0.031 C 
ATOM     51  C   UNL A   1      45.876  24.647  29.528  1.00  0.00     0.029 A 
ATOM     52  C   UNL A   1      45.481  25.884  30.010  1.00  0.00     0.049 A 
ATOM     53  H   UNL A   1      43.620  26.859  29.808  1.00  0.00     0.167 HD
ATOM     54  C   UNL A   1      45.781  28.033  31.206  1.00  0.00     0.074 A 
ATOM     55  C   UNL A   1      46.556  28.978  31.982  1.00  0.00     0.031 C 
ATOM     56  C   UNL A   1      46.243  26.830  30.785  1.00  0.00     0.031 A 
BRANCH  43  57
ATOM     57  C   UNL A   1      42.086  23.512  27.643  1.00  0.00    -0.014 A 
ATOM     58  C   UNL A   1      42.410  23.296  26.294  1.00  0.00     0.009 A 
ATOM     59  C   UNL A   1      41.471  22.476  28.366  1.00  0.00     0.009 A 
ATOM     60  C   UNL A   1      42.088  22.087  25.672  1.00  0.00     0.001 A 
ATOM     61  C   UNL A   1      41.182  21.256  27.750  1.00  0.00     0.001 A 
ATOM     62  C   UNL A   1      41.479  21.068  26.402  1.00  0.00     0.000 A 
ENDBRANCH  43  57
BRANCH  44  63
ATOM     63  C   UNL A   1      43.771  32.103  32.416  1.00  0.00    -0.014 A 
ATOM     64  C   UNL A   1      43.456  32.219  33.779  1.00  0.00     0.009 A 
ATOM     65  C   UNL A   1      44.325  33.210  31.753  1.00  0.00     0.009 A 
ATOM     66  C   UNL A   1      43.662  33.425  34.454  1.00  0.00     0.001 A 
ATOM     67  C   UNL A   1      44.559  34.404  32.439  1.00  0.00     0.001 A 
ATOM     68  C   UNL A   1      44.218  34.513  33.786  1.00  0.00     0.000 A 
ENDBRANCH  44  63
BRANCH  56  69
ATOM     69  C   UNL A   1      47.667  26.482  31.120  1.00  0.00    -0.014 A 
ATOM     70  C   UNL A   1      47.993  25.761  32.279  1.00  0.00     0.009 A 
ATOM     71  C   UNL A   1      48.697  26.849  30.238  1.00  0.00     0.009 A 
ATOM     72  C   UNL A   1      49.324  25.447  32.566  1.00  0.00     0.001 A 
ATOM     73  C   UNL A   1      50.022  26.506  30.510  1.00  0.00     0.001 A 
ATOM     74  C   UNL A   1      50.336  25.815  31.679  1.00  0.00     0.000 A 
ENDBRANCH  56  69
ENDBRANCH  30  31
ENDBRANCH  22  25
ENDBRANCH  20  21
ENDBRANCH  19  20
ENDBRANCH   1  19
TORSDOF 14
ENDMDL
