MODEL 1
REMARK VINA RESULT:     -11.0      0.000      0.000
REMARK SMILES CC(C)C[C@H](CNC(=O)N[C@@H](C)C1CCCCC1)C(=O)NCCCCNC(=O)c1ccc(-c2c3nc(c(-c4ccccc4)c4ccc([nH]4)c(-c4ccccc4)c4nc(c(-c5ccccc5)c5ccc2[nH]5)C=C4)C=C3)cc1
REMARK SMILES IDX 22 1 21 2 19 3 20 4 5 6 4 7 2 8 1 9 3 10 6 11 7 12 8 13 9 15
REMARK SMILES IDX 10 16 11 18 12 19 13 20 14 21 18 22 15 23 17 24 16 25 23 26
REMARK SMILES IDX 24 27 25 28 26 29 27 30 28 32 29 33 30 34 76 35 31 36 75 37
REMARK SMILES IDX 32 38 33 39 34 40 69 41 35 42 74 43 68 44 70 45 36 46 73 47
REMARK SMILES IDX 67 48 66 49 37 51 59 52 44 53 58 54 45 55 48 56 57 57 71 58
REMARK SMILES IDX 46 59 47 60 56 62 72 63 49 64 38 65 39 66 43 67 40 68 42 69
REMARK SMILES IDX 41 70 60 71 61 72 65 73 62 74 64 75 63 76 50 77 51 78 55 79
REMARK SMILES IDX 52 80 54 81 53 82
REMARK H PARENT 21 5 7 14 10 17 26 31 70 50 48 61
REMARK Flexibility Score: inf
ROOT
ATOM      1  C   UNL A   1      35.483  21.305  25.809  1.00  0.00     0.116 C 
ENDROOT
BRANCH   1   2
ATOM      2  N   UNL A   1      34.751  20.181  25.270  1.00  0.00    -0.356 N 
ATOM      3  C   UNL A   1      33.526  20.117  24.698  1.00  0.00     0.224 C 
ATOM      4  O   UNL A   1      33.121  18.993  24.380  1.00  0.00    -0.275 OA
ATOM      5  H   UNL A   1      35.223  19.319  25.327  1.00  0.00     0.163 HD
BRANCH   3   6
ATOM      6  C   UNL A   1      32.634  21.331  24.472  1.00  0.00     0.098 C 
BRANCH   6   7
ATOM      7  C   UNL A   1      32.862  22.224  23.238  1.00  0.00     0.018 C 
BRANCH   7   8
ATOM      8  C   UNL A   1      33.288  23.695  23.411  1.00  0.00    -0.017 C 
ATOM      9  C   UNL A   1      34.793  23.930  23.334  1.00  0.00     0.007 C 
ATOM     10  C   UNL A   1      32.583  24.537  22.338  1.00  0.00     0.007 C 
ENDBRANCH   7   8
ENDBRANCH   6   7
BRANCH   6  11
ATOM     11  C   UNL A   1      32.395  22.118  25.783  1.00  0.00     0.131 C 
BRANCH  11  12
ATOM     12  N   UNL A   1      31.009  22.262  26.208  1.00  0.00    -0.337 N 
ATOM     13  C   UNL A   1      30.364  23.229  26.882  1.00  0.00     0.315 C 
ATOM     14  H   UNL A   1      30.433  21.505  25.952  1.00  0.00     0.165 HD
ATOM     15  O   UNL A   1      29.378  22.936  27.557  1.00  0.00    -0.249 OA
ATOM     16  N   UNL A   1      30.791  24.500  26.884  1.00  0.00    -0.335 N 
ATOM     17  H   UNL A   1      30.829  24.945  27.760  1.00  0.00     0.165 HD
BRANCH  16  18
ATOM     18  C   UNL A   1      31.209  25.304  25.733  1.00  0.00     0.083 C 
ATOM     19  C   UNL A   1      29.985  25.523  24.837  1.00  0.00     0.031 C 
BRANCH  18  20
ATOM     20  C   UNL A   1      31.908  26.594  26.249  1.00  0.00     0.011 C 
ATOM     21  C   UNL A   1      33.400  26.561  25.871  1.00  0.00     0.006 C 
ATOM     22  C   UNL A   1      31.279  27.917  25.784  1.00  0.00     0.006 C 
ATOM     23  C   UNL A   1      34.162  27.773  26.395  1.00  0.00     0.000 C 
ATOM     24  C   UNL A   1      32.048  29.130  26.307  1.00  0.00     0.000 C 
ATOM     25  C   UNL A   1      33.521  29.072  25.922  1.00  0.00     0.000 C 
ENDBRANCH  18  20
ENDBRANCH  16  18
ENDBRANCH  11  12
ENDBRANCH   6  11
ENDBRANCH   3   6
ENDBRANCH   1   2
BRANCH   1  26
ATOM     26  C   UNL A   1      36.757  21.570  25.014  1.00  0.00     0.023 C 
BRANCH  26  27
ATOM     27  C   UNL A   1      37.755  20.418  25.006  1.00  0.00     0.023 C 
BRANCH  27  28
ATOM     28  C   UNL A   1      39.040  20.685  25.774  1.00  0.00     0.116 C 
BRANCH  28  29
ATOM     29  N   UNL A   1      39.984  19.577  25.738  1.00  0.00    -0.352 N 
ATOM     30  C   UNL A   1      41.312  19.581  26.100  1.00  0.00     0.251 C 
ATOM     31  H   UNL A   1      39.627  18.718  25.417  1.00  0.00     0.163 HD
ATOM     32  O   UNL A   1      42.015  18.594  25.962  1.00  0.00    -0.269 OA
BRANCH  30  33
ATOM     33  C   UNL A   1      41.878  20.841  26.614  1.00  0.00     0.039 A 
ATOM     34  C   UNL A   1      42.336  21.792  25.701  1.00  0.00     0.014 A 
ATOM     35  C   UNL A   1      41.826  21.118  27.982  1.00  0.00     0.014 A 
ATOM     36  C   UNL A   1      42.670  23.065  26.159  1.00  0.00     0.010 A 
ATOM     37  C   UNL A   1      42.075  22.411  28.420  1.00  0.00     0.010 A 
ATOM     38  C   UNL A   1      42.498  23.396  27.513  1.00  0.00    -0.014 A 
BRANCH  38  39
ATOM     39  C   UNL A   1      42.763  24.765  28.012  1.00  0.00     0.031 A 
ATOM     40  C   UNL A   1      44.162  25.153  28.401  1.00  0.00     0.074 A 
ATOM     41  C   UNL A   1      41.743  25.626  28.190  1.00  0.00     0.049 A 
ATOM     42  N   UNL A   1      44.589  26.265  28.941  1.00  0.00    -0.248 NA
ATOM     43  C   UNL A   1      45.212  24.142  28.189  1.00  0.00     0.031 C 
ATOM     44  C   UNL A   1      40.333  25.349  27.903  1.00  0.00     0.029 A 
ATOM     45  N   UNL A   1      41.738  26.912  28.667  1.00  0.00    -0.354 N 
ATOM     46  C   UNL A   1      45.946  26.072  29.165  1.00  0.00     0.074 A 
ATOM     47  C   UNL A   1      46.261  24.724  28.748  1.00  0.00     0.031 C 
ATOM     48  C   UNL A   1      39.605  26.444  28.177  1.00  0.00     0.029 A 
ATOM     49  C   UNL A   1      40.489  27.485  28.691  1.00  0.00     0.049 A 
ATOM     50  H   UNL A   1      42.551  27.380  28.963  1.00  0.00     0.167 HD
ATOM     51  C   UNL A   1      46.856  26.947  29.652  1.00  0.00     0.031 A 
ATOM     52  C   UNL A   1      40.104  28.714  29.083  1.00  0.00     0.031 A 
ATOM     53  C   UNL A   1      46.551  28.299  30.028  1.00  0.00     0.049 A 
ATOM     54  C   UNL A   1      41.138  29.680  29.587  1.00  0.00     0.074 A 
ATOM     55  C   UNL A   1      47.413  29.289  30.464  1.00  0.00     0.029 A 
ATOM     56  N   UNL A   1      45.281  28.853  30.003  1.00  0.00    -0.354 N 
ATOM     57  N   UNL A   1      42.430  29.506  29.731  1.00  0.00    -0.248 NA
ATOM     58  C   UNL A   1      40.662  31.017  29.971  1.00  0.00     0.031 C 
ATOM     59  C   UNL A   1      46.658  30.436  30.733  1.00  0.00     0.029 A 
ATOM     60  C   UNL A   1      45.333  30.169  30.426  1.00  0.00     0.049 A 
ATOM     61  H   UNL A   1      44.463  28.380  29.725  1.00  0.00     0.167 HD
ATOM     62  C   UNL A   1      42.924  30.715  30.199  1.00  0.00     0.074 A 
ATOM     63  C   UNL A   1      41.796  31.619  30.301  1.00  0.00     0.031 C 
ATOM     64  C   UNL A   1      44.199  31.049  30.515  1.00  0.00     0.031 A 
BRANCH  51  65
ATOM     65  C   UNL A   1      48.268  26.457  29.798  1.00  0.00    -0.014 A 
ATOM     66  C   UNL A   1      48.704  25.843  30.983  1.00  0.00     0.009 A 
ATOM     67  C   UNL A   1      49.172  26.605  28.734  1.00  0.00     0.009 A 
ATOM     68  C   UNL A   1      50.030  25.425  31.116  1.00  0.00     0.001 A 
ATOM     69  C   UNL A   1      50.488  26.161  28.860  1.00  0.00     0.001 A 
ATOM     70  C   UNL A   1      50.919  25.581  30.054  1.00  0.00     0.000 A 
ENDBRANCH  51  65
BRANCH  52  71
ATOM     71  C   UNL A   1      38.677  29.115  28.983  1.00  0.00    -0.014 A 
ATOM     72  C   UNL A   1      38.170  29.622  27.776  1.00  0.00     0.009 A 
ATOM     73  C   UNL A   1      37.819  29.001  30.087  1.00  0.00     0.009 A 
ATOM     74  C   UNL A   1      36.837  30.029  27.684  1.00  0.00     0.001 A 
ATOM     75  C   UNL A   1      36.481  29.388  29.985  1.00  0.00     0.001 A 
ATOM     76  C   UNL A   1      35.993  29.909  28.787  1.00  0.00     0.000 A 
ENDBRANCH  52  71
BRANCH  64  77
ATOM     77  C   UNL A   1      44.443  32.458  30.967  1.00  0.00    -0.014 A 
ATOM     78  C   UNL A   1      44.407  32.799  32.328  1.00  0.00     0.009 A 
ATOM     79  C   UNL A   1      44.760  33.446  30.022  1.00  0.00     0.009 A 
ATOM     80  C   UNL A   1      44.657  34.112  32.729  1.00  0.00     0.001 A 
ATOM     81  C   UNL A   1      45.034  34.752  30.429  1.00  0.00     0.001 A 
ATOM     82  C   UNL A   1      44.974  35.085  31.782  1.00  0.00     0.000 A 
ENDBRANCH  64  77
ENDBRANCH  38  39
ENDBRANCH  30  33
ENDBRANCH  28  29
ENDBRANCH  27  28
ENDBRANCH  26  27
ENDBRANCH   1  26
TORSDOF 17
ENDMDL
MODEL 2
REMARK VINA RESULT:     -11.0      3.494      8.770
REMARK SMILES CC(C)C[C@H](CNC(=O)N[C@@H](C)C1CCCCC1)C(=O)NCCCCNC(=O)c1ccc(-c2c3nc(c(-c4ccccc4)c4ccc([nH]4)c(-c4ccccc4)c4nc(c(-c5ccccc5)c5ccc2[nH]5)C=C4)C=C3)cc1
REMARK SMILES IDX 22 1 21 2 19 3 20 4 5 6 4 7 2 8 1 9 3 10 6 11 7 12 8 13 9 15
REMARK SMILES IDX 10 16 11 18 12 19 13 20 14 21 18 22 15 23 17 24 16 25 23 26
REMARK SMILES IDX 24 27 25 28 26 29 27 30 28 32 29 33 30 34 76 35 31 36 75 37
REMARK SMILES IDX 32 38 33 39 34 40 69 41 35 42 74 43 68 44 70 45 36 46 73 47
REMARK SMILES IDX 67 48 66 49 37 51 59 52 44 53 58 54 45 55 48 56 57 57 71 58
REMARK SMILES IDX 46 59 47 60 56 62 72 63 49 64 38 65 39 66 43 67 40 68 42 69
REMARK SMILES IDX 41 70 60 71 61 72 65 73 62 74 64 75 63 76 50 77 51 78 55 79
REMARK SMILES IDX 52 80 54 81 53 82
REMARK H PARENT 21 5 7 14 10 17 26 31 70 50 48 61
REMARK Flexibility Score: inf
ROOT
ATOM      1  C   UNL A   1      32.476  28.616  26.247  1.00  0.00     0.116 C 
ENDROOT
BRANCH   1   2
ATOM      2  N   UNL A   1      31.626  27.467  26.026  1.00  0.00    -0.356 N 
ATOM      3  C   UNL A   1      30.893  27.104  24.948  1.00  0.00     0.224 C 
ATOM      4  O   UNL A   1      30.202  26.085  25.064  1.00  0.00    -0.275 OA
ATOM      5  H   UNL A   1      31.572  26.844  26.787  1.00  0.00     0.163 HD
BRANCH   3   6
ATOM      6  C   UNL A   1      30.856  27.895  23.647  1.00  0.00     0.098 C 
BRANCH   6   7
ATOM      7  C   UNL A   1      29.583  27.876  22.780  1.00  0.00     0.018 C 
BRANCH   7   8
ATOM      8  C   UNL A   1      28.727  29.149  22.630  1.00  0.00    -0.017 C 
ATOM      9  C   UNL A   1      27.287  29.004  23.115  1.00  0.00     0.007 C 
ATOM     10  C   UNL A   1      29.411  30.292  23.394  1.00  0.00     0.007 C 
ENDBRANCH   7   8
ENDBRANCH   6   7
BRANCH   6  11
ATOM     11  C   UNL A   1      32.168  27.737  22.842  1.00  0.00     0.131 C 
BRANCH  11  12
ATOM     12  N   UNL A   1      32.112  26.863  21.677  1.00  0.00    -0.337 N 
ATOM     13  C   UNL A   1      32.850  25.805  21.302  1.00  0.00     0.315 C 
ATOM     14  H   UNL A   1      31.395  27.093  21.042  1.00  0.00     0.165 HD
ATOM     15  O   UNL A   1      32.970  25.550  20.105  1.00  0.00    -0.249 OA
ATOM     16  N   UNL A   1      33.504  25.044  22.192  1.00  0.00    -0.335 N 
ATOM     17  H   UNL A   1      34.440  24.831  21.977  1.00  0.00     0.165 HD
BRANCH  16  18
ATOM     18  C   UNL A   1      32.989  24.494  23.448  1.00  0.00     0.083 C 
ATOM     19  C   UNL A   1      31.767  23.628  23.121  1.00  0.00     0.031 C 
BRANCH  18  20
ATOM     20  C   UNL A   1      34.149  23.772  24.193  1.00  0.00     0.011 C 
ATOM     21  C   UNL A   1      35.146  23.202  23.167  1.00  0.00     0.006 C 
ATOM     22  C   UNL A   1      34.895  24.622  25.233  1.00  0.00     0.006 C 
ATOM     23  C   UNL A   1      36.284  22.431  23.827  1.00  0.00     0.000 C 
ATOM     24  C   UNL A   1      36.038  23.848  25.889  1.00  0.00     0.000 C 
ATOM     25  C   UNL A   1      37.009  23.292  24.854  1.00  0.00     0.000 C 
ENDBRANCH  18  20
ENDBRANCH  16  18
ENDBRANCH  11  12
ENDBRANCH   6  11
ENDBRANCH   3   6
ENDBRANCH   1   2
BRANCH   1  26
ATOM     26  C   UNL A   1      31.816  29.623  27.182  1.00  0.00     0.023 C 
BRANCH  26  27
ATOM     27  C   UNL A   1      31.840  31.064  26.687  1.00  0.00     0.023 C 
BRANCH  27  28
ATOM     28  C   UNL A   1      32.945  31.922  27.281  1.00  0.00     0.116 C 
BRANCH  28  29
ATOM     29  N   UNL A   1      32.520  33.273  27.617  1.00  0.00    -0.352 N 
ATOM     30  C   UNL A   1      33.171  34.197  28.403  1.00  0.00     0.251 C 
ATOM     31  H   UNL A   1      31.661  33.562  27.235  1.00  0.00     0.163 HD
ATOM     32  O   UNL A   1      32.675  35.281  28.661  1.00  0.00    -0.269 OA
BRANCH  30  33
ATOM     33  C   UNL A   1      34.477  33.814  28.973  1.00  0.00     0.039 A 
ATOM     34  C   UNL A   1      34.502  33.105  30.174  1.00  0.00     0.014 A 
ATOM     35  C   UNL A   1      35.646  34.044  28.244  1.00  0.00     0.014 A 
ATOM     36  C   UNL A   1      35.704  32.552  30.610  1.00  0.00     0.010 A 
ATOM     37  C   UNL A   1      36.821  33.419  28.636  1.00  0.00     0.010 A 
ATOM     38  C   UNL A   1      36.861  32.667  29.821  1.00  0.00    -0.014 A 
BRANCH  38  39
ATOM     39  C   UNL A   1      38.130  32.016  30.216  1.00  0.00     0.031 A 
ATOM     40  C   UNL A   1      39.049  32.711  31.182  1.00  0.00     0.074 A 
ATOM     41  C   UNL A   1      38.494  30.850  29.650  1.00  0.00     0.049 A 
ATOM     42  N   UNL A   1      40.241  32.358  31.586  1.00  0.00    -0.248 NA
ATOM     43  C   UNL A   1      38.578  33.992  31.736  1.00  0.00     0.031 C 
ATOM     44  C   UNL A   1      37.716  30.103  28.657  1.00  0.00     0.029 A 
ATOM     45  N   UNL A   1      39.623  30.089  29.827  1.00  0.00    -0.354 N 
ATOM     46  C   UNL A   1      40.675  33.388  32.411  1.00  0.00     0.074 A 
ATOM     47  C   UNL A   1      39.641  34.398  32.412  1.00  0.00     0.031 C 
ATOM     48  C   UNL A   1      38.375  28.976  28.339  1.00  0.00     0.029 A 
ATOM     49  C   UNL A   1      39.634  28.938  29.076  1.00  0.00     0.049 A 
ATOM     50  H   UNL A   1      40.354  30.343  30.433  1.00  0.00     0.167 HD
ATOM     51  C   UNL A   1      41.822  33.474  33.124  1.00  0.00     0.031 A 
ATOM     52  C   UNL A   1      40.557  27.962  28.995  1.00  0.00     0.031 A 
ATOM     53  C   UNL A   1      42.829  32.452  33.155  1.00  0.00     0.049 A 
ATOM     54  C   UNL A   1      41.805  28.063  29.824  1.00  0.00     0.074 A 
ATOM     55  C   UNL A   1      43.993  32.409  33.902  1.00  0.00     0.029 A 
ATOM     56  N   UNL A   1      42.786  31.285  32.409  1.00  0.00    -0.354 N 
ATOM     57  N   UNL A   1      42.173  29.013  30.651  1.00  0.00    -0.248 NA
ATOM     58  C   UNL A   1      42.762  26.952  29.717  1.00  0.00     0.031 C 
ATOM     59  C   UNL A   1      44.671  31.227  33.584  1.00  0.00     0.029 A 
ATOM     60  C   UNL A   1      43.908  30.518  32.669  1.00  0.00     0.049 A 
ATOM     61  H   UNL A   1      42.063  31.037  31.787  1.00  0.00     0.167 HD
ATOM     62  C   UNL A   1      43.388  28.604  31.180  1.00  0.00     0.074 A 
ATOM     63  C   UNL A   1      43.690  27.314  30.592  1.00  0.00     0.031 C 
ATOM     64  C   UNL A   1      44.184  29.238  32.075  1.00  0.00     0.031 A 
BRANCH  51  65
ATOM     65  C   UNL A   1      42.033  34.723  33.931  1.00  0.00    -0.014 A 
ATOM     66  C   UNL A   1      41.614  34.803  35.268  1.00  0.00     0.009 A 
ATOM     67  C   UNL A   1      42.665  35.832  33.347  1.00  0.00     0.009 A 
ATOM     68  C   UNL A   1      41.786  35.984  35.994  1.00  0.00     0.001 A 
ATOM     69  C   UNL A   1      42.860  37.001  34.083  1.00  0.00     0.001 A 
ATOM     70  C   UNL A   1      42.411  37.080  35.401  1.00  0.00     0.000 A 
ENDBRANCH  51  65
BRANCH  52  71
ATOM     71  C   UNL A   1      40.322  26.784  28.121  1.00  0.00    -0.014 A 
ATOM     72  C   UNL A   1      39.598  25.682  28.603  1.00  0.00     0.009 A 
ATOM     73  C   UNL A   1      40.819  26.751  26.810  1.00  0.00     0.009 A 
ATOM     74  C   UNL A   1      39.399  24.558  27.796  1.00  0.00     0.001 A 
ATOM     75  C   UNL A   1      40.600  25.636  25.998  1.00  0.00     0.001 A 
ATOM     76  C   UNL A   1      39.897  24.538  26.493  1.00  0.00     0.000 A 
ENDBRANCH  52  71
BRANCH  64  77
ATOM     77  C   UNL A   1      45.438  28.530  32.495  1.00  0.00    -0.014 A 
ATOM     78  C   UNL A   1      46.673  28.829  31.900  1.00  0.00     0.009 A 
ATOM     79  C   UNL A   1      45.388  27.586  33.532  1.00  0.00     0.009 A 
ATOM     80  C   UNL A   1      47.831  28.173  32.320  1.00  0.00     0.001 A 
ATOM     81  C   UNL A   1      46.552  26.950  33.965  1.00  0.00     0.001 A 
ATOM     82  C   UNL A   1      47.771  27.239  33.353  1.00  0.00     0.000 A 
ENDBRANCH  64  77
ENDBRANCH  38  39
ENDBRANCH  30  33
ENDBRANCH  28  29
ENDBRANCH  27  28
ENDBRANCH  26  27
ENDBRANCH   1  26
TORSDOF 17
ENDMDL
MODEL 3
REMARK VINA RESULT:     -10.8      1.982      6.450
REMARK SMILES CC(C)C[C@H](CNC(=O)N[C@@H](C)C1CCCCC1)C(=O)NCCCCNC(=O)c1ccc(-c2c3nc(c(-c4ccccc4)c4ccc([nH]4)c(-c4ccccc4)c4nc(c(-c5ccccc5)c5ccc2[nH]5)C=C4)C=C3)cc1
REMARK SMILES IDX 22 1 21 2 19 3 20 4 5 6 4 7 2 8 1 9 3 10 6 11 7 12 8 13 9 15
REMARK SMILES IDX 10 16 11 18 12 19 13 20 14 21 18 22 15 23 17 24 16 25 23 26
REMARK SMILES IDX 24 27 25 28 26 29 27 30 28 32 29 33 30 34 76 35 31 36 75 37
REMARK SMILES IDX 32 38 33 39 34 40 69 41 35 42 74 43 68 44 70 45 36 46 73 47
REMARK SMILES IDX 67 48 66 49 37 51 59 52 44 53 58 54 45 55 48 56 57 57 71 58
REMARK SMILES IDX 46 59 47 60 56 62 72 63 49 64 38 65 39 66 43 67 40 68 42 69
REMARK SMILES IDX 41 70 60 71 61 72 65 73 62 74 64 75 63 76 50 77 51 78 55 79
REMARK SMILES IDX 52 80 54 81 53 82
REMARK H PARENT 21 5 7 14 10 17 26 31 70 50 48 61
REMARK Flexibility Score: inf
ROOT
ATOM      1  C   UNL A   1      35.695  23.399  25.355  1.00  0.00     0.116 C 
ENDROOT
BRANCH   1   2
ATOM      2  N   UNL A   1      34.493  22.604  25.465  1.00  0.00    -0.356 N 
ATOM      3  C   UNL A   1      33.190  22.950  25.342  1.00  0.00     0.224 C 
ATOM      4  O   UNL A   1      32.357  22.061  25.552  1.00  0.00    -0.275 OA
ATOM      5  H   UNL A   1      34.647  21.652  25.662  1.00  0.00     0.163 HD
BRANCH   3   6
ATOM      6  C   UNL A   1      32.718  24.358  25.003  1.00  0.00     0.098 C 
BRANCH   6   7
ATOM      7  C   UNL A   1      32.020  25.208  26.081  1.00  0.00     0.018 C 
BRANCH   7   8
ATOM      8  C   UNL A   1      32.605  26.572  26.495  1.00  0.00    -0.017 C 
ATOM      9  C   UNL A   1      33.876  26.968  25.749  1.00  0.00     0.007 C 
ATOM     10  C   UNL A   1      31.531  27.650  26.284  1.00  0.00     0.007 C 
ENDBRANCH   7   8
ENDBRANCH   6   7
BRANCH   6  11
ATOM     11  C   UNL A   1      32.035  24.415  23.616  1.00  0.00     0.131 C 
BRANCH  11  12
ATOM     12  N   UNL A   1      32.857  24.882  22.507  1.00  0.00    -0.337 N 
ATOM     13  C   UNL A   1      32.598  25.688  21.463  1.00  0.00     0.315 C 
ATOM     14  H   UNL A   1      33.782  24.543  22.527  1.00  0.00     0.165 HD
ATOM     15  O   UNL A   1      33.233  25.542  20.420  1.00  0.00    -0.249 OA
ATOM     16  N   UNL A   1      31.629  26.614  21.505  1.00  0.00    -0.335 N 
ATOM     17  H   UNL A   1      31.028  26.650  20.727  1.00  0.00     0.165 HD
BRANCH  16  18
ATOM     18  C   UNL A   1      31.361  27.580  22.573  1.00  0.00     0.083 C 
ATOM     19  C   UNL A   1      32.573  28.512  22.685  1.00  0.00     0.031 C 
BRANCH  18  20
ATOM     20  C   UNL A   1      29.998  28.275  22.291  1.00  0.00     0.011 C 
ATOM     21  C   UNL A   1      28.978  27.870  23.370  1.00  0.00     0.006 C 
ATOM     22  C   UNL A   1      30.052  29.807  22.168  1.00  0.00     0.006 C 
ATOM     23  C   UNL A   1      27.600  28.473  23.126  1.00  0.00     0.000 C 
ATOM     24  C   UNL A   1      28.667  30.407  21.927  1.00  0.00     0.000 C 
ATOM     25  C   UNL A   1      27.676  29.990  23.006  1.00  0.00     0.000 C 
ENDBRANCH  18  20
ENDBRANCH  16  18
ENDBRANCH  11  12
ENDBRANCH   6  11
ENDBRANCH   3   6
ENDBRANCH   1   2
BRANCH   1  26
ATOM     26  C   UNL A   1      36.649  22.820  24.315  1.00  0.00     0.023 C 
BRANCH  26  27
ATOM     27  C   UNL A   1      37.188  21.434  24.645  1.00  0.00     0.023 C 
BRANCH  27  28
ATOM     28  C   UNL A   1      38.381  21.424  25.587  1.00  0.00     0.116 C 
BRANCH  28  29
ATOM     29  N   UNL A   1      39.164  20.198  25.526  1.00  0.00    -0.352 N 
ATOM     30  C   UNL A   1      40.463  19.998  25.937  1.00  0.00     0.251 C 
ATOM     31  H   UNL A   1      38.708  19.414  25.144  1.00  0.00     0.163 HD
ATOM     32  O   UNL A   1      41.029  18.931  25.772  1.00  0.00    -0.269 OA
BRANCH  30  33
ATOM     33  C   UNL A   1      41.173  21.140  26.543  1.00  0.00     0.039 A 
ATOM     34  C   UNL A   1      41.770  22.079  25.702  1.00  0.00     0.014 A 
ATOM     35  C   UNL A   1      41.124  21.334  27.925  1.00  0.00     0.014 A 
ATOM     36  C   UNL A   1      42.253  23.267  26.247  1.00  0.00     0.010 A 
ATOM     37  C   UNL A   1      41.526  22.554  28.451  1.00  0.00     0.010 A 
ATOM     38  C   UNL A   1      42.093  23.531  27.618  1.00  0.00    -0.014 A 
BRANCH  38  39
ATOM     39  C   UNL A   1      42.518  24.820  28.209  1.00  0.00     0.031 A 
ATOM     40  C   UNL A   1      41.498  25.899  28.441  1.00  0.00     0.074 A 
ATOM     41  C   UNL A   1      43.821  25.049  28.460  1.00  0.00     0.049 A 
ATOM     42  N   UNL A   1      41.676  27.125  28.862  1.00  0.00    -0.248 NA
ATOM     43  C   UNL A   1      40.099  25.567  28.122  1.00  0.00     0.031 C 
ATOM     44  C   UNL A   1      44.915  24.102  28.225  1.00  0.00     0.029 A 
ATOM     45  N   UNL A   1      44.448  26.161  28.963  1.00  0.00    -0.354 N 
ATOM     46  C   UNL A   1      40.420  27.717  28.823  1.00  0.00     0.074 A 
ATOM     47  C   UNL A   1      39.500  26.735  28.294  1.00  0.00     0.031 C 
ATOM     48  C   UNL A   1      46.072  24.661  28.615  1.00  0.00     0.029 A 
ATOM     49  C   UNL A   1      45.808  26.015  29.093  1.00  0.00     0.049 A 
ATOM     50  H   UNL A   1      43.969  26.985  29.207  1.00  0.00     0.167 HD
ATOM     51  C   UNL A   1      40.059  28.961  29.215  1.00  0.00     0.031 A 
ATOM     52  C   UNL A   1      46.736  26.877  29.548  1.00  0.00     0.031 A 
ATOM     53  C   UNL A   1      40.964  29.922  29.778  1.00  0.00     0.049 A 
ATOM     54  C   UNL A   1      46.305  28.239  30.012  1.00  0.00     0.074 A 
ATOM     55  C   UNL A   1      40.686  31.183  30.276  1.00  0.00     0.029 A 
ATOM     56  N   UNL A   1      42.327  29.721  29.928  1.00  0.00    -0.354 N 
ATOM     57  N   UNL A   1      45.102  28.763  30.030  1.00  0.00    -0.248 NA
ATOM     58  C   UNL A   1      47.358  29.126  30.528  1.00  0.00     0.031 C 
ATOM     59  C   UNL A   1      41.889  31.758  30.699  1.00  0.00     0.029 A 
ATOM     60  C   UNL A   1      42.908  30.839  30.501  1.00  0.00     0.049 A 
ATOM     61  H   UNL A   1      42.812  28.904  29.666  1.00  0.00     0.167 HD
ATOM     62  C   UNL A   1      45.250  30.028  30.581  1.00  0.00     0.074 A 
ATOM     63  C   UNL A   1      46.655  30.188  30.896  1.00  0.00     0.031 C 
ATOM     64  C   UNL A   1      44.306  30.974  30.808  1.00  0.00     0.031 A 
BRANCH  51  65
ATOM     65  C   UNL A   1      38.615  29.340  29.046  1.00  0.00    -0.014 A 
ATOM     66  C   UNL A   1      37.708  29.237  30.113  1.00  0.00     0.009 A 
ATOM     67  C   UNL A   1      38.158  29.810  27.806  1.00  0.00     0.009 A 
ATOM     68  C   UNL A   1      36.362  29.558  29.930  1.00  0.00     0.001 A 
ATOM     69  C   UNL A   1      36.818  30.157  27.633  1.00  0.00     0.001 A 
ATOM     70  C   UNL A   1      35.919  30.022  28.691  1.00  0.00     0.000 A 
ENDBRANCH  51  65
BRANCH  52  71
ATOM     71  C   UNL A   1      48.161  26.467  29.623  1.00  0.00    -0.014 A 
ATOM     72  C   UNL A   1      49.026  26.722  28.546  1.00  0.00     0.009 A 
ATOM     73  C   UNL A   1      48.664  25.819  30.760  1.00  0.00     0.009 A 
ATOM     74  C   UNL A   1      50.361  26.312  28.598  1.00  0.00     0.001 A 
ATOM     75  C   UNL A   1      50.005  25.431  30.818  1.00  0.00     0.001 A 
ATOM     76  C   UNL A   1      50.850  25.671  29.736  1.00  0.00     0.000 A 
ENDBRANCH  52  71
BRANCH  64  77
ATOM     77  C   UNL A   1      44.759  32.249  31.455  1.00  0.00    -0.014 A 
ATOM     78  C   UNL A   1      45.177  33.344  30.685  1.00  0.00     0.009 A 
ATOM     79  C   UNL A   1      44.721  32.369  32.853  1.00  0.00     0.009 A 
ATOM     80  C   UNL A   1      45.575  34.529  31.306  1.00  0.00     0.001 A 
ATOM     81  C   UNL A   1      45.097  33.563  33.470  1.00  0.00     0.001 A 
ATOM     82  C   UNL A   1      45.531  34.639  32.696  1.00  0.00     0.000 A 
ENDBRANCH  64  77
ENDBRANCH  38  39
ENDBRANCH  30  33
ENDBRANCH  28  29
ENDBRANCH  27  28
ENDBRANCH  26  27
ENDBRANCH   1  26
TORSDOF 17
ENDMDL
