MODEL 1
REMARK VINA RESULT:     -11.6      0.000      0.000
REMARK SMILES O=C(NCCCCNC(=O)c1cccnc1Nc1cccc(C(F)(F)F)c1)c1ccc(-c2c3nc(c(-c4ccccc4)c4ccc([nH]4)c(-c4ccccc4)c4nc(c(-c5ccccc5)c5ccc2[nH]5)C=C4)C=C3)cc1
REMARK SMILES IDX 6 1 5 2 4 3 3 4 1 5 2 6 28 8 29 9 75 10 30 11 74 12 31 13
REMARK SMILES IDX 32 14 33 15 68 16 34 17 73 18 67 19 69 20 35 21 72 22 66 23
REMARK SMILES IDX 65 24 36 26 58 27 43 28 57 29 44 30 47 31 56 32 70 33 45 34
REMARK SMILES IDX 46 35 55 37 71 38 48 39 37 40 38 41 42 42 39 43 41 44 40 45
REMARK SMILES IDX 59 46 60 47 64 48 61 49 63 50 62 51 49 52 50 53 54 54 51 55
REMARK SMILES IDX 53 56 52 57 7 58 8 59 9 60 10 62 11 63 12 64 16 65 13 66
REMARK SMILES IDX 15 67 14 68 17 69 18 71 19 72 27 73 20 74 22 75 21 76 23 77
REMARK SMILES IDX 24 78 25 79 26 80
REMARK H PARENT 3 7 69 25 47 36 8 61 17 70
REMARK Flexibility Score: inf
ROOT
ATOM      1  C   UNL A   1      31.502  30.449  25.934  1.00  0.00     0.023 C 
ENDROOT
BRANCH   1   2
ATOM      2  C   UNL A   1      31.314  31.823  26.577  1.00  0.00     0.023 C 
BRANCH   2   3
ATOM      3  C   UNL A   1      32.575  32.449  27.160  1.00  0.00     0.116 C 
BRANCH   3   4
ATOM      4  N   UNL A   1      32.373  33.815  27.617  1.00  0.00    -0.352 N 
ATOM      5  O   UNL A   1      32.727  35.662  28.863  1.00  0.00    -0.269 OA
ATOM      6  C   UNL A   1      33.124  34.560  28.494  1.00  0.00     0.251 C 
ATOM      7  H   UNL A   1      31.586  34.272  27.243  1.00  0.00     0.163 HD
BRANCH   6   8
ATOM      8  C   UNL A   1      34.395  34.021  29.019  1.00  0.00     0.039 A 
ATOM      9  C   UNL A   1      35.612  34.332  28.406  1.00  0.00     0.014 A 
ATOM     10  C   UNL A   1      34.366  33.188  30.142  1.00  0.00     0.014 A 
ATOM     11  C   UNL A   1      36.776  33.698  28.825  1.00  0.00     0.010 A 
ATOM     12  C   UNL A   1      35.551  32.615  30.610  1.00  0.00     0.010 A 
ATOM     13  C   UNL A   1      36.761  32.838  29.935  1.00  0.00    -0.014 A 
BRANCH  13  14
ATOM     14  C   UNL A   1      38.028  32.224  30.401  1.00  0.00     0.031 A 
ATOM     15  C   UNL A   1      38.836  32.847  31.504  1.00  0.00     0.074 A 
ATOM     16  C   UNL A   1      38.438  31.074  29.831  1.00  0.00     0.049 A 
ATOM     17  N   UNL A   1      39.956  32.427  32.041  1.00  0.00    -0.248 NA
ATOM     18  C   UNL A   1      38.329  34.102  32.079  1.00  0.00     0.031 C 
ATOM     19  C   UNL A   1      37.741  30.373  28.749  1.00  0.00     0.029 A 
ATOM     20  N   UNL A   1      39.526  30.283  30.094  1.00  0.00    -0.354 N 
ATOM     21  C   UNL A   1      40.298  33.374  32.998  1.00  0.00     0.074 A 
ATOM     22  C   UNL A   1      39.279  34.402  32.957  1.00  0.00     0.031 C 
ATOM     23  C   UNL A   1      38.392  29.235  28.472  1.00  0.00     0.029 A 
ATOM     24  C   UNL A   1      39.582  29.155  29.313  1.00  0.00     0.049 A 
ATOM     25  H   UNL A   1      40.201  30.502  30.776  1.00  0.00     0.167 HD
ATOM     26  C   UNL A   1      41.361  33.384  33.837  1.00  0.00     0.031 A 
ATOM     27  C   UNL A   1      40.495  28.169  29.265  1.00  0.00     0.031 A 
ATOM     28  C   UNL A   1      42.374  32.361  33.879  1.00  0.00     0.049 A 
ATOM     29  C   UNL A   1      41.678  28.221  30.184  1.00  0.00     0.074 A 
ATOM     30  C   UNL A   1      43.473  32.269  34.717  1.00  0.00     0.029 A 
ATOM     31  N   UNL A   1      42.415  31.255  33.045  1.00  0.00    -0.354 N 
ATOM     32  N   UNL A   1      41.969  29.109  31.102  1.00  0.00    -0.248 NA
ATOM     33  C   UNL A   1      42.659  27.135  30.057  1.00  0.00     0.031 C 
ATOM     34  C   UNL A   1      44.203  31.131  34.359  1.00  0.00     0.029 A 
ATOM     35  C   UNL A   1      43.532  30.488  33.331  1.00  0.00     0.049 A 
ATOM     36  H   UNL A   1      41.748  31.045  32.352  1.00  0.00     0.167 HD
ATOM     37  C   UNL A   1      43.160  28.683  31.673  1.00  0.00     0.074 A 
ATOM     38  C   UNL A   1      43.525  27.447  31.011  1.00  0.00     0.031 C 
ATOM     39  C   UNL A   1      43.887  29.267  32.657  1.00  0.00     0.031 A 
BRANCH  26  40
ATOM     40  C   UNL A   1      41.502  34.558  34.766  1.00  0.00    -0.014 A 
ATOM     41  C   UNL A   1      40.924  34.550  36.045  1.00  0.00     0.009 A 
ATOM     42  C   UNL A   1      42.264  35.669  34.372  1.00  0.00     0.009 A 
ATOM     43  C   UNL A   1      41.084  35.644  36.899  1.00  0.00     0.001 A 
ATOM     44  C   UNL A   1      42.441  36.752  35.236  1.00  0.00     0.001 A 
ATOM     45  C   UNL A   1      41.844  36.741  36.496  1.00  0.00     0.000 A 
ENDBRANCH  26  40
BRANCH  27  46
ATOM     46  C   UNL A   1      40.322  27.055  28.298  1.00  0.00    -0.014 A 
ATOM     47  C   UNL A   1      40.881  27.132  27.014  1.00  0.00     0.009 A 
ATOM     48  C   UNL A   1      39.615  25.899  28.666  1.00  0.00     0.009 A 
ATOM     49  C   UNL A   1      40.721  26.078  26.112  1.00  0.00     0.001 A 
ATOM     50  C   UNL A   1      39.481  24.837  27.771  1.00  0.00     0.001 A 
ATOM     51  C   UNL A   1      40.028  24.930  26.493  1.00  0.00     0.000 A 
ENDBRANCH  27  46
BRANCH  39  52
ATOM     52  C   UNL A   1      45.137  28.557  33.089  1.00  0.00    -0.014 A 
ATOM     53  C   UNL A   1      45.094  27.527  34.041  1.00  0.00     0.009 A 
ATOM     54  C   UNL A   1      46.370  28.908  32.517  1.00  0.00     0.009 A 
ATOM     55  C   UNL A   1      46.268  26.883  34.436  1.00  0.00     0.001 A 
ATOM     56  C   UNL A   1      47.538  28.246  32.895  1.00  0.00     0.001 A 
ATOM     57  C   UNL A   1      47.488  27.241  33.862  1.00  0.00     0.000 A 
ENDBRANCH  39  52
ENDBRANCH  13  14
ENDBRANCH   6   8
ENDBRANCH   3   4
ENDBRANCH   2   3
ENDBRANCH   1   2
BRANCH   1  58
ATOM     58  C   UNL A   1      32.947  29.960  25.858  1.00  0.00     0.116 C 
BRANCH  58  59
ATOM     59  N   UNL A   1      33.375  29.728  24.488  1.00  0.00    -0.352 N 
ATOM     60  C   UNL A   1      33.549  28.536  23.832  1.00  0.00     0.255 C 
ATOM     61  H   UNL A   1      33.565  30.536  23.960  1.00  0.00     0.163 HD
ATOM     62  O   UNL A   1      34.167  28.508  22.771  1.00  0.00    -0.269 OA
BRANCH  60  63
ATOM     63  C   UNL A   1      33.022  27.285  24.404  1.00  0.00     0.082 A 
ATOM     64  C   UNL A   1      33.729  26.630  25.422  1.00  0.00     0.019 A 
ATOM     65  C   UNL A   1      31.789  26.776  23.978  1.00  0.00     0.143 A 
ATOM     66  C   UNL A   1      33.246  25.428  25.921  1.00  0.00     0.021 A 
ATOM     67  N   UNL A   1      31.334  25.593  24.465  1.00  0.00    -0.238 NA
ATOM     68  C   UNL A   1      32.061  24.947  25.403  1.00  0.00     0.113 A 
BRANCH  65  69
ATOM     69  N   UNL A   1      31.045  27.427  22.970  1.00  0.00    -0.340 N 
ATOM     70  H   UNL A   1      31.394  27.338  22.053  1.00  0.00     0.168 HD
BRANCH  69  71
ATOM     71  C   UNL A   1      29.869  28.184  23.111  1.00  0.00     0.040 A 
ATOM     72  C   UNL A   1      28.641  27.528  23.234  1.00  0.00     0.026 A 
ATOM     73  C   UNL A   1      29.881  29.583  23.060  1.00  0.00     0.039 A 
ATOM     74  C   UNL A   1      27.452  28.253  23.346  1.00  0.00     0.003 A 
ATOM     75  C   UNL A   1      28.695  30.327  23.147  1.00  0.00     0.058 A 
ATOM     76  C   UNL A   1      27.479  29.647  23.304  1.00  0.00     0.013 A 
BRANCH  75  77
ATOM     77  C   UNL A   1      28.721  31.831  23.065  1.00  0.00     0.416 C 
ATOM     78  F   UNL A   1      29.465  32.390  24.063  1.00  0.00    -0.166 F 
ATOM     79  F   UNL A   1      29.265  32.284  21.902  1.00  0.00    -0.166 F 
ATOM     80  F   UNL A   1      27.492  32.414  23.153  1.00  0.00    -0.166 F 
ENDBRANCH  75  77
ENDBRANCH  69  71
ENDBRANCH  65  69
ENDBRANCH  60  63
ENDBRANCH  58  59
ENDBRANCH   1  58
TORSDOF 14
ENDMDL
MODEL 2
REMARK VINA RESULT:     -11.5      5.531      9.817
REMARK SMILES O=C(NCCCCNC(=O)c1cccnc1Nc1cccc(C(F)(F)F)c1)c1ccc(-c2c3nc(c(-c4ccccc4)c4ccc([nH]4)c(-c4ccccc4)c4nc(c(-c5ccccc5)c5ccc2[nH]5)C=C4)C=C3)cc1
REMARK SMILES IDX 6 1 5 2 4 3 3 4 1 5 2 6 28 8 29 9 75 10 30 11 74 12 31 13
REMARK SMILES IDX 32 14 33 15 68 16 34 17 73 18 67 19 69 20 35 21 72 22 66 23
REMARK SMILES IDX 65 24 36 26 58 27 43 28 57 29 44 30 47 31 56 32 70 33 45 34
REMARK SMILES IDX 46 35 55 37 71 38 48 39 37 40 38 41 42 42 39 43 41 44 40 45
REMARK SMILES IDX 59 46 60 47 64 48 61 49 63 50 62 51 49 52 50 53 54 54 51 55
REMARK SMILES IDX 53 56 52 57 7 58 8 59 9 60 10 62 11 63 12 64 16 65 13 66
REMARK SMILES IDX 15 67 14 68 17 69 18 71 19 72 27 73 20 74 22 75 21 76 23 77
REMARK SMILES IDX 24 78 25 79 26 80
REMARK H PARENT 3 7 69 25 47 36 8 61 17 70
REMARK Flexibility Score: inf
ROOT
ATOM      1  C   UNL A   1      38.885  22.668  26.193  1.00  0.00     0.023 C 
ENDROOT
BRANCH   1   2
ATOM      2  C   UNL A   1      38.892  21.301  25.510  1.00  0.00     0.023 C 
BRANCH   2   3
ATOM      3  C   UNL A   1      39.291  20.129  26.399  1.00  0.00     0.116 C 
BRANCH   3   4
ATOM      4  N   UNL A   1      40.458  19.415  25.907  1.00  0.00    -0.352 N 
ATOM      5  O   UNL A   1      42.604  19.132  25.271  1.00  0.00    -0.269 OA
ATOM      6  C   UNL A   1      41.768  19.828  25.839  1.00  0.00     0.251 C 
ATOM      7  H   UNL A   1      40.287  18.505  25.575  1.00  0.00     0.163 HD
BRANCH   6   8
ATOM      8  C   UNL A   1      42.162  21.126  26.424  1.00  0.00     0.039 A 
ATOM      9  C   UNL A   1      42.201  21.305  27.809  1.00  0.00     0.014 A 
ATOM     10  C   UNL A   1      42.495  22.181  25.569  1.00  0.00     0.014 A 
ATOM     11  C   UNL A   1      42.432  22.571  28.334  1.00  0.00     0.010 A 
ATOM     12  C   UNL A   1      42.805  23.435  26.104  1.00  0.00     0.010 A 
ATOM     13  C   UNL A   1      42.742  23.649  27.489  1.00  0.00    -0.014 A 
BRANCH  13  14
ATOM     14  C   UNL A   1      43.046  24.976  28.078  1.00  0.00     0.031 A 
ATOM     15  C   UNL A   1      41.960  25.984  28.327  1.00  0.00     0.074 A 
ATOM     16  C   UNL A   1      44.320  25.258  28.414  1.00  0.00     0.049 A 
ATOM     17  N   UNL A   1      42.055  27.182  28.852  1.00  0.00    -0.248 NA
ATOM     18  C   UNL A   1      40.593  25.608  27.934  1.00  0.00     0.031 C 
ATOM     19  C   UNL A   1      45.462  24.361  28.220  1.00  0.00     0.029 A 
ATOM     20  N   UNL A   1      44.864  26.368  29.006  1.00  0.00    -0.354 N 
ATOM     21  C   UNL A   1      40.770  27.709  28.833  1.00  0.00     0.074 A 
ATOM     22  C   UNL A   1      39.914  26.710  28.227  1.00  0.00     0.031 C 
ATOM     23  C   UNL A   1      46.562  24.937  28.725  1.00  0.00     0.029 A 
ATOM     24  C   UNL A   1      46.215  26.264  29.223  1.00  0.00     0.049 A 
ATOM     25  H   UNL A   1      44.337  27.163  29.251  1.00  0.00     0.167 HD
ATOM     26  C   UNL A   1      40.342  28.912  29.284  1.00  0.00     0.031 A 
ATOM     27  C   UNL A   1      47.087  27.142  29.751  1.00  0.00     0.031 A 
ATOM     28  C   UNL A   1      41.192  29.904  29.889  1.00  0.00     0.049 A 
ATOM     29  C   UNL A   1      46.591  28.478  30.213  1.00  0.00     0.074 A 
ATOM     30  C   UNL A   1      40.844  31.142  30.404  1.00  0.00     0.029 A 
ATOM     31  N   UNL A   1      42.563  29.775  30.054  1.00  0.00    -0.354 N 
ATOM     32  N   UNL A   1      45.367  28.948  30.215  1.00  0.00    -0.248 NA
ATOM     33  C   UNL A   1      47.597  29.406  30.746  1.00  0.00     0.031 C 
ATOM     34  C   UNL A   1      42.010  31.779  30.841  1.00  0.00     0.029 A 
ATOM     35  C   UNL A   1      43.077  30.919  30.642  1.00  0.00     0.049 A 
ATOM     36  H   UNL A   1      43.091  28.987  29.794  1.00  0.00     0.167 HD
ATOM     37  C   UNL A   1      45.453  30.220  30.760  1.00  0.00     0.074 A 
ATOM     38  C   UNL A   1      46.846  30.441  31.095  1.00  0.00     0.031 C 
ATOM     39  C   UNL A   1      44.466  31.127  30.961  1.00  0.00     0.031 A 
BRANCH  26  40
ATOM     40  C   UNL A   1      38.884  29.238  29.114  1.00  0.00    -0.014 A 
ATOM     41  C   UNL A   1      38.371  29.666  27.880  1.00  0.00     0.009 A 
ATOM     42  C   UNL A   1      38.003  29.068  30.194  1.00  0.00     0.009 A 
ATOM     43  C   UNL A   1      37.009  29.945  27.739  1.00  0.00     0.001 A 
ATOM     44  C   UNL A   1      36.638  29.326  30.045  1.00  0.00     0.001 A 
ATOM     45  C   UNL A   1      36.144  29.771  28.819  1.00  0.00     0.000 A 
ENDBRANCH  26  40
BRANCH  27  46
ATOM     46  C   UNL A   1      48.522  26.777  29.856  1.00  0.00    -0.014 A 
ATOM     47  C   UNL A   1      49.003  26.087  30.977  1.00  0.00     0.009 A 
ATOM     48  C   UNL A   1      49.414  27.101  28.820  1.00  0.00     0.009 A 
ATOM     49  C   UNL A   1      50.353  25.741  31.067  1.00  0.00     0.001 A 
ATOM     50  C   UNL A   1      50.757  26.729  28.900  1.00  0.00     0.001 A 
ATOM     51  C   UNL A   1      51.226  26.056  30.026  1.00  0.00     0.000 A 
ENDBRANCH  27  46
BRANCH  39  52
ATOM     52  C   UNL A   1      44.859  32.429  31.595  1.00  0.00    -0.014 A 
ATOM     53  C   UNL A   1      45.228  33.534  30.812  1.00  0.00     0.009 A 
ATOM     54  C   UNL A   1      44.838  32.558  32.992  1.00  0.00     0.009 A 
ATOM     55  C   UNL A   1      45.599  34.735  31.419  1.00  0.00     0.001 A 
ATOM     56  C   UNL A   1      45.186  33.767  33.595  1.00  0.00     0.001 A 
ATOM     57  C   UNL A   1      45.575  34.852  32.808  1.00  0.00     0.000 A 
ENDBRANCH  39  52
ENDBRANCH  13  14
ENDBRANCH   6   8
ENDBRANCH   3   4
ENDBRANCH   2   3
ENDBRANCH   1   2
BRANCH   1  58
ATOM     58  C   UNL A   1      37.672  23.543  25.884  1.00  0.00     0.116 C 
BRANCH  58  59
ATOM     59  N   UNL A   1      37.266  23.442  24.492  1.00  0.00    -0.352 N 
ATOM     60  C   UNL A   1      35.999  23.427  23.965  1.00  0.00     0.255 C 
ATOM     61  H   UNL A   1      37.999  23.376  23.840  1.00  0.00     0.163 HD
ATOM     62  O   UNL A   1      35.825  23.069  22.803  1.00  0.00    -0.269 OA
BRANCH  60  63
ATOM     63  C   UNL A   1      34.841  23.812  24.791  1.00  0.00     0.082 A 
ATOM     64  C   UNL A   1      34.451  25.156  24.865  1.00  0.00     0.019 A 
ATOM     65  C   UNL A   1      34.091  22.835  25.457  1.00  0.00     0.143 A 
ATOM     66  C   UNL A   1      33.388  25.512  25.683  1.00  0.00     0.021 A 
ATOM     67  N   UNL A   1      33.061  23.197  26.264  1.00  0.00    -0.238 NA
ATOM     68  C   UNL A   1      32.739  24.505  26.369  1.00  0.00     0.113 A 
BRANCH  65  69
ATOM     69  N   UNL A   1      34.448  21.471  25.383  1.00  0.00    -0.340 N 
ATOM     70  H   UNL A   1      35.208  21.193  25.946  1.00  0.00     0.168 HD
BRANCH  69  71
ATOM     71  C   UNL A   1      33.855  20.460  24.607  1.00  0.00     0.040 A 
ATOM     72  C   UNL A   1      32.752  20.767  23.806  1.00  0.00     0.026 A 
ATOM     73  C   UNL A   1      34.292  19.131  24.667  1.00  0.00     0.039 A 
ATOM     74  C   UNL A   1      32.123  19.778  23.046  1.00  0.00     0.003 A 
ATOM     75  C   UNL A   1      33.658  18.120  23.930  1.00  0.00     0.058 A 
ATOM     76  C   UNL A   1      32.575  18.460  23.107  1.00  0.00     0.013 A 
BRANCH  75  77
ATOM     77  C   UNL A   1      34.124  16.691  24.025  1.00  0.00     0.416 C 
ATOM     78  F   UNL A   1      34.430  16.165  22.804  1.00  0.00    -0.166 F 
ATOM     79  F   UNL A   1      35.250  16.554  24.778  1.00  0.00    -0.166 F 
ATOM     80  F   UNL A   1      33.207  15.842  24.570  1.00  0.00    -0.166 F 
ENDBRANCH  75  77
ENDBRANCH  69  71
ENDBRANCH  65  69
ENDBRANCH  60  63
ENDBRANCH  58  59
ENDBRANCH   1  58
TORSDOF 14
ENDMDL
MODEL 3
REMARK VINA RESULT:     -11.4      5.512      9.845
REMARK SMILES O=C(NCCCCNC(=O)c1cccnc1Nc1cccc(C(F)(F)F)c1)c1ccc(-c2c3nc(c(-c4ccccc4)c4ccc([nH]4)c(-c4ccccc4)c4nc(c(-c5ccccc5)c5ccc2[nH]5)C=C4)C=C3)cc1
REMARK SMILES IDX 6 1 5 2 4 3 3 4 1 5 2 6 28 8 29 9 75 10 30 11 74 12 31 13
REMARK SMILES IDX 32 14 33 15 68 16 34 17 73 18 67 19 69 20 35 21 72 22 66 23
REMARK SMILES IDX 65 24 36 26 58 27 43 28 57 29 44 30 47 31 56 32 70 33 45 34
REMARK SMILES IDX 46 35 55 37 71 38 48 39 37 40 38 41 42 42 39 43 41 44 40 45
REMARK SMILES IDX 59 46 60 47 64 48 61 49 63 50 62 51 49 52 50 53 54 54 51 55
REMARK SMILES IDX 53 56 52 57 7 58 8 59 9 60 10 62 11 63 12 64 16 65 13 66
REMARK SMILES IDX 15 67 14 68 17 69 18 71 19 72 27 73 20 74 22 75 21 76 23 77
REMARK SMILES IDX 24 78 25 79 26 80
REMARK H PARENT 3 7 69 25 47 36 8 61 17 70
REMARK Flexibility Score: inf
ROOT
ATOM      1  C   UNL A   1      38.899  22.332  26.182  1.00  0.00     0.023 C 
ENDROOT
BRANCH   1   2
ATOM      2  C   UNL A   1      38.934  21.013  25.411  1.00  0.00     0.023 C 
BRANCH   2   3
ATOM      3  C   UNL A   1      39.348  19.792  26.224  1.00  0.00     0.116 C 
BRANCH   3   4
ATOM      4  N   UNL A   1      40.619  19.229  25.796  1.00  0.00    -0.352 N 
ATOM      5  O   UNL A   1      42.814  19.215  25.276  1.00  0.00    -0.269 OA
ATOM      6  C   UNL A   1      41.869  19.800  25.797  1.00  0.00     0.251 C 
ATOM      7  H   UNL A   1      40.578  18.306  25.459  1.00  0.00     0.163 HD
BRANCH   6   8
ATOM      8  C   UNL A   1      42.069  21.135  26.398  1.00  0.00     0.039 A 
ATOM      9  C   UNL A   1      42.355  22.244  25.599  1.00  0.00     0.014 A 
ATOM     10  C   UNL A   1      41.971  21.275  27.786  1.00  0.00     0.014 A 
ATOM     11  C   UNL A   1      42.684  23.457  26.194  1.00  0.00     0.010 A 
ATOM     12  C   UNL A   1      42.224  22.516  28.377  1.00  0.00     0.010 A 
ATOM     13  C   UNL A   1      42.616  23.608  27.589  1.00  0.00    -0.014 A 
BRANCH  13  14
ATOM     14  C   UNL A   1      42.910  24.930  28.195  1.00  0.00     0.031 A 
ATOM     15  C   UNL A   1      44.310  25.314  28.585  1.00  0.00     0.074 A 
ATOM     16  C   UNL A   1      41.897  25.801  28.370  1.00  0.00     0.049 A 
ATOM     17  N   UNL A   1      44.738  26.436  29.108  1.00  0.00    -0.248 NA
ATOM     18  C   UNL A   1      45.365  24.313  28.365  1.00  0.00     0.031 C 
ATOM     19  C   UNL A   1      40.495  25.544  28.033  1.00  0.00     0.029 A 
ATOM     20  N   UNL A   1      41.894  27.083  28.856  1.00  0.00    -0.354 N 
ATOM     21  C   UNL A   1      46.105  26.270  29.300  1.00  0.00     0.074 A 
ATOM     22  C   UNL A   1      46.432  24.931  28.856  1.00  0.00     0.031 C 
ATOM     23  C   UNL A   1      39.775  26.647  28.279  1.00  0.00     0.029 A 
ATOM     24  C   UNL A   1      40.652  27.667  28.846  1.00  0.00     0.049 A 
ATOM     25  H   UNL A   1      42.703  27.540  29.182  1.00  0.00     0.167 HD
ATOM     26  C   UNL A   1      47.004  27.153  29.797  1.00  0.00     0.031 A 
ATOM     27  C   UNL A   1      40.253  28.884  29.258  1.00  0.00     0.031 A 
ATOM     28  C   UNL A   1      46.678  28.484  30.236  1.00  0.00     0.049 A 
ATOM     29  C   UNL A   1      41.264  29.829  29.832  1.00  0.00     0.074 A 
ATOM     30  C   UNL A   1      47.527  29.464  30.726  1.00  0.00     0.029 A 
ATOM     31  N   UNL A   1      45.401  29.024  30.245  1.00  0.00    -0.354 N 
ATOM     32  N   UNL A   1      42.556  29.665  29.978  1.00  0.00    -0.248 NA
ATOM     33  C   UNL A   1      40.762  31.128  30.299  1.00  0.00     0.031 C 
ATOM     34  C   UNL A   1      46.758  30.578  31.073  1.00  0.00     0.029 A 
ATOM     35  C   UNL A   1      45.436  30.312  30.753  1.00  0.00     0.049 A 
ATOM     36  H   UNL A   1      44.591  28.561  29.935  1.00  0.00     0.167 HD
ATOM     37  C   UNL A   1      43.024  30.844  30.542  1.00  0.00     0.074 A 
ATOM     38  C   UNL A   1      41.880  31.721  30.691  1.00  0.00     0.031 C 
ATOM     39  C   UNL A   1      44.289  31.168  30.905  1.00  0.00     0.031 A 
BRANCH  26  40
ATOM     40  C   UNL A   1      48.431  26.695  29.919  1.00  0.00    -0.014 A 
ATOM     41  C   UNL A   1      48.878  25.994  31.049  1.00  0.00     0.009 A 
ATOM     42  C   UNL A   1      49.328  26.928  28.865  1.00  0.00     0.009 A 
ATOM     43  C   UNL A   1      50.204  25.562  31.134  1.00  0.00     0.001 A 
ATOM     44  C   UNL A   1      50.647  26.475  28.941  1.00  0.00     0.001 A 
ATOM     45  C   UNL A   1      51.085  25.798  30.080  1.00  0.00     0.000 A 
ENDBRANCH  26  40
BRANCH  27  46
ATOM     46  C   UNL A   1      38.822  29.263  29.149  1.00  0.00    -0.014 A 
ATOM     47  C   UNL A   1      38.307  29.764  27.945  1.00  0.00     0.009 A 
ATOM     48  C   UNL A   1      37.960  29.104  30.246  1.00  0.00     0.009 A 
ATOM     49  C   UNL A   1      36.958  30.112  27.846  1.00  0.00     0.001 A 
ATOM     50  C   UNL A   1      36.607  29.428  30.135  1.00  0.00     0.001 A 
ATOM     51  C   UNL A   1      36.109  29.938  28.938  1.00  0.00     0.000 A 
ENDBRANCH  27  46
BRANCH  39  52
ATOM     52  C   UNL A   1      44.499  32.540  31.478  1.00  0.00    -0.014 A 
ATOM     53  C   UNL A   1      44.426  32.766  32.860  1.00  0.00     0.009 A 
ATOM     54  C   UNL A   1      44.797  33.613  30.624  1.00  0.00     0.009 A 
ATOM     55  C   UNL A   1      44.617  34.051  33.375  1.00  0.00     0.001 A 
ATOM     56  C   UNL A   1      45.011  34.890  31.142  1.00  0.00     0.001 A 
ATOM     57  C   UNL A   1      44.912  35.110  32.517  1.00  0.00     0.000 A 
ENDBRANCH  39  52
ENDBRANCH  13  14
ENDBRANCH   6   8
ENDBRANCH   3   4
ENDBRANCH   2   3
ENDBRANCH   1   2
BRANCH   1  58
ATOM     58  C   UNL A   1      37.697  23.226  25.886  1.00  0.00     0.116 C 
BRANCH  58  59
ATOM     59  N   UNL A   1      37.317  23.185  24.483  1.00  0.00    -0.352 N 
ATOM     60  C   UNL A   1      36.065  23.266  23.928  1.00  0.00     0.255 C 
ATOM     61  H   UNL A   1      38.060  23.085  23.845  1.00  0.00     0.163 HD
ATOM     62  O   UNL A   1      35.896  22.947  22.754  1.00  0.00    -0.269 OA
BRANCH  60  63
ATOM     63  C   UNL A   1      34.916  23.706  24.739  1.00  0.00     0.082 A 
ATOM     64  C   UNL A   1      34.575  25.064  24.787  1.00  0.00     0.019 A 
ATOM     65  C   UNL A   1      34.126  22.768  25.415  1.00  0.00     0.143 A 
ATOM     66  C   UNL A   1      33.520  25.473  25.591  1.00  0.00     0.021 A 
ATOM     67  N   UNL A   1      33.104  23.182  26.207  1.00  0.00    -0.238 NA
ATOM     68  C   UNL A   1      32.829  24.502  26.287  1.00  0.00     0.113 A 
BRANCH  65  69
ATOM     69  N   UNL A   1      34.434  21.391  25.366  1.00  0.00    -0.340 N 
ATOM     70  H   UNL A   1      35.161  21.091  25.959  1.00  0.00     0.168 HD
BRANCH  69  71
ATOM     71  C   UNL A   1      33.831  20.395  24.578  1.00  0.00     0.040 A 
ATOM     72  C   UNL A   1      32.729  20.722  23.782  1.00  0.00     0.026 A 
ATOM     73  C   UNL A   1      34.257  19.062  24.620  1.00  0.00     0.039 A 
ATOM     74  C   UNL A   1      32.092  19.747  23.010  1.00  0.00     0.003 A 
ATOM     75  C   UNL A   1      33.614  18.066  23.871  1.00  0.00     0.058 A 
ATOM     76  C   UNL A   1      32.533  18.425  23.054  1.00  0.00     0.013 A 
BRANCH  75  77
ATOM     77  C   UNL A   1      34.069  16.632  23.946  1.00  0.00     0.416 C 
ATOM     78  F   UNL A   1      34.440  16.142  22.728  1.00  0.00    -0.166 F 
ATOM     79  F   UNL A   1      35.152  16.466  24.755  1.00  0.00    -0.166 F 
ATOM     80  F   UNL A   1      33.120  15.772  24.414  1.00  0.00    -0.166 F 
ENDBRANCH  75  77
ENDBRANCH  69  71
ENDBRANCH  65  69
ENDBRANCH  60  63
ENDBRANCH  58  59
ENDBRANCH   1  58
TORSDOF 14
ENDMDL
