MODEL 1
REMARK VINA RESULT:     -11.5      0.000      0.000
REMARK SMILES O=C(NCCCCNC(=O)c1cc(-c2cccc(Cl)c2)oc1C(F)(F)F)c1ccc(-c2c3nc(c(-c4ccccc4)c4ccc([nH]4)c(-c4ccccc4)c4nc(c(-c5ccccc5)c5ccc2[nH]5)C=C4)C=C3)cc1
REMARK SMILES IDX 5 1 4 2 3 3 1 4 2 5 27 7 28 8 74 9 29 10 73 11 30 12 31 13
REMARK SMILES IDX 32 14 67 15 33 16 72 17 66 18 68 19 34 20 71 21 65 22 64 23
REMARK SMILES IDX 35 25 57 26 42 27 56 28 43 29 46 30 55 31 69 32 44 33 45 34
REMARK SMILES IDX 54 36 70 37 47 38 36 39 37 40 41 41 38 42 40 43 39 44 58 45
REMARK SMILES IDX 59 46 63 47 60 48 62 49 61 50 48 51 49 52 53 53 50 54 52 55
REMARK SMILES IDX 51 56 6 57 7 58 8 59 9 60 10 62 11 63 12 64 22 65 13 66
REMARK SMILES IDX 21 67 23 68 24 69 25 70 26 71 14 72 15 73 20 74 16 75 18 76
REMARK SMILES IDX 17 77 19 78
REMARK H PARENT 3 6 68 24 46 35 8 61
REMARK Flexibility Score: inf
ROOT
ATOM      1  C   UNL A   1      37.745  19.839  24.675  1.00  0.00     0.023 C 
ENDROOT
BRANCH   1   2
ATOM      2  C   UNL A   1      38.816  20.245  25.677  1.00  0.00     0.116 C 
BRANCH   2   3
ATOM      3  N   UNL A   1      39.925  19.306  25.737  1.00  0.00    -0.352 N 
ATOM      4  O   UNL A   1      42.073  18.649  25.961  1.00  0.00    -0.269 OA
ATOM      5  C   UNL A   1      41.233  19.532  26.095  1.00  0.00     0.251 C 
ATOM      6  H   UNL A   1      39.709  18.379  25.487  1.00  0.00     0.163 HD
BRANCH   5   7
ATOM      7  C   UNL A   1      41.627  20.857  26.617  1.00  0.00     0.039 A 
ATOM      8  C   UNL A   1      41.502  21.152  27.976  1.00  0.00     0.014 A 
ATOM      9  C   UNL A   1      42.118  21.818  25.728  1.00  0.00     0.014 A 
ATOM     10  C   UNL A   1      41.732  22.447  28.424  1.00  0.00     0.010 A 
ATOM     11  C   UNL A   1      42.431  23.095  26.196  1.00  0.00     0.010 A 
ATOM     12  C   UNL A   1      42.213  23.428  27.543  1.00  0.00    -0.014 A 
BRANCH  12  13
ATOM     13  C   UNL A   1      42.550  24.775  28.061  1.00  0.00     0.031 A 
ATOM     14  C   UNL A   1      43.953  25.128  28.465  1.00  0.00     0.074 A 
ATOM     15  C   UNL A   1      41.565  25.686  28.170  1.00  0.00     0.049 A 
ATOM     16  N   UNL A   1      44.408  26.254  28.953  1.00  0.00    -0.248 NA
ATOM     17  C   UNL A   1      44.975  24.082  28.310  1.00  0.00     0.031 C 
ATOM     18  C   UNL A   1      40.162  25.455  27.820  1.00  0.00     0.029 A 
ATOM     19  N   UNL A   1      41.592  26.987  28.603  1.00  0.00    -0.354 N 
ATOM     20  C   UNL A   1      45.762  26.048  29.187  1.00  0.00     0.074 A 
ATOM     21  C   UNL A   1      46.050  24.681  28.807  1.00  0.00     0.031 C 
ATOM     22  C   UNL A   1      39.466  26.582  28.028  1.00  0.00     0.029 A 
ATOM     23  C   UNL A   1      40.359  27.592  28.583  1.00  0.00     0.049 A 
ATOM     24  H   UNL A   1      42.413  27.442  28.899  1.00  0.00     0.167 HD
ATOM     25  C   UNL A   1      46.679  26.919  29.675  1.00  0.00     0.031 A 
ATOM     26  C   UNL A   1      39.977  28.814  28.995  1.00  0.00     0.031 A 
ATOM     27  C   UNL A   1      46.383  28.275  30.057  1.00  0.00     0.049 A 
ATOM     28  C   UNL A   1      41.004  29.748  29.562  1.00  0.00     0.074 A 
ATOM     29  C   UNL A   1      47.253  29.251  30.515  1.00  0.00     0.029 A 
ATOM     30  N   UNL A   1      45.119  28.846  30.040  1.00  0.00    -0.354 N 
ATOM     31  N   UNL A   1      42.290  29.555  29.726  1.00  0.00    -0.248 NA
ATOM     32  C   UNL A   1      40.528  31.068  29.995  1.00  0.00     0.031 C 
ATOM     33  C   UNL A   1      46.506  30.390  30.831  1.00  0.00     0.029 A 
ATOM     34  C   UNL A   1      45.179  30.146  30.512  1.00  0.00     0.049 A 
ATOM     35  H   UNL A   1      44.300  28.392  29.735  1.00  0.00     0.167 HD
ATOM     36  C   UNL A   1      42.781  30.733  30.270  1.00  0.00     0.074 A 
ATOM     37  C   UNL A   1      41.657  31.641  30.388  1.00  0.00     0.031 C 
ATOM     38  C   UNL A   1      44.051  31.034  30.637  1.00  0.00     0.031 A 
BRANCH  25  39
ATOM     39  C   UNL A   1      48.084  26.415  29.859  1.00  0.00    -0.014 A 
ATOM     40  C   UNL A   1      48.502  25.829  31.065  1.00  0.00     0.009 A 
ATOM     41  C   UNL A   1      48.998  26.503  28.796  1.00  0.00     0.009 A 
ATOM     42  C   UNL A   1      49.817  25.379  31.214  1.00  0.00     0.001 A 
ATOM     43  C   UNL A   1      50.302  26.027  28.939  1.00  0.00     0.001 A 
ATOM     44  C   UNL A   1      50.714  25.475  30.150  1.00  0.00     0.000 A 
ENDBRANCH  25  39
BRANCH  26  45
ATOM     45  C   UNL A   1      38.546  29.195  28.905  1.00  0.00    -0.014 A 
ATOM     46  C   UNL A   1      37.703  29.092  30.020  1.00  0.00     0.009 A 
ATOM     47  C   UNL A   1      38.028  29.713  27.705  1.00  0.00     0.009 A 
ATOM     48  C   UNL A   1      36.367  29.492  29.932  1.00  0.00     0.001 A 
ATOM     49  C   UNL A   1      36.702  30.139  27.630  1.00  0.00     0.001 A 
ATOM     50  C   UNL A   1      35.871  30.022  28.742  1.00  0.00     0.000 A 
ENDBRANCH  26  45
BRANCH  38  51
ATOM     51  C   UNL A   1      44.295  32.411  31.184  1.00  0.00    -0.014 A 
ATOM     52  C   UNL A   1      44.231  32.668  32.562  1.00  0.00     0.009 A 
ATOM     53  C   UNL A   1      44.636  33.455  30.310  1.00  0.00     0.009 A 
ATOM     54  C   UNL A   1      44.478  33.953  33.051  1.00  0.00     0.001 A 
ATOM     55  C   UNL A   1      44.908  34.731  30.803  1.00  0.00     0.001 A 
ATOM     56  C   UNL A   1      44.822  34.981  32.173  1.00  0.00     0.000 A 
ENDBRANCH  38  51
ENDBRANCH  12  13
ENDBRANCH   5   7
ENDBRANCH   2   3
ENDBRANCH   1   2
BRANCH   1  57
ATOM     57  C   UNL A   1      36.343  20.362  24.980  1.00  0.00     0.023 C 
BRANCH  57  58
ATOM     58  C   UNL A   1      36.297  21.583  25.892  1.00  0.00     0.116 C 
BRANCH  58  59
ATOM     59  N   UNL A   1      35.234  21.501  26.884  1.00  0.00    -0.352 N 
ATOM     60  C   UNL A   1      34.096  22.261  26.992  1.00  0.00     0.255 C 
ATOM     61  H   UNL A   1      35.346  20.804  27.571  1.00  0.00     0.163 HD
ATOM     62  O   UNL A   1      33.360  22.144  27.966  1.00  0.00    -0.269 OA
BRANCH  60  63
ATOM     63  C   UNL A   1      33.820  23.189  25.922  1.00  0.00     0.091 A 
ATOM     64  C   UNL A   1      34.219  24.550  25.814  1.00  0.00     0.065 A 
ATOM     65  C   UNL A   1      33.074  22.914  24.788  1.00  0.00     0.221 A 
ATOM     66  C   UNL A   1      33.560  25.063  24.723  1.00  0.00     0.135 A 
ATOM     67  O   UNL A   1      32.880  24.075  24.078  1.00  0.00    -0.451 OA
BRANCH  65  68
ATOM     68  C   UNL A   1      32.418  21.685  24.274  1.00  0.00     0.450 C 
ATOM     69  F   UNL A   1      31.544  21.168  25.177  1.00  0.00    -0.163 F 
ATOM     70  F   UNL A   1      31.714  21.923  23.138  1.00  0.00    -0.163 F 
ATOM     71  F   UNL A   1      33.298  20.692  23.994  1.00  0.00    -0.163 F 
ENDBRANCH  65  68
BRANCH  66  72
ATOM     72  C   UNL A   1      33.424  26.411  24.211  1.00  0.00     0.019 A 
ATOM     73  C   UNL A   1      33.630  26.668  22.848  1.00  0.00     0.012 A 
ATOM     74  C   UNL A   1      33.202  27.482  25.085  1.00  0.00     0.032 A 
ATOM     75  C   UNL A   1      33.621  27.978  22.366  1.00  0.00     0.002 A 
ATOM     76  C   UNL A   1      33.209  28.788  24.599  1.00  0.00     0.041 A 
ATOM     77  C   UNL A   1      33.418  29.041  23.245  1.00  0.00     0.020 A 
ATOM     78  Cl  UNL A   1      32.996  30.104  25.688  1.00  0.00    -0.084 Cl
ENDBRANCH  66  72
ENDBRANCH  60  63
ENDBRANCH  58  59
ENDBRANCH  57  58
ENDBRANCH   1  57
TORSDOF 13
ENDMDL
MODEL 2
REMARK VINA RESULT:     -11.4      2.671      7.574
REMARK SMILES O=C(NCCCCNC(=O)c1cc(-c2cccc(Cl)c2)oc1C(F)(F)F)c1ccc(-c2c3nc(c(-c4ccccc4)c4ccc([nH]4)c(-c4ccccc4)c4nc(c(-c5ccccc5)c5ccc2[nH]5)C=C4)C=C3)cc1
REMARK SMILES IDX 5 1 4 2 3 3 1 4 2 5 27 7 28 8 74 9 29 10 73 11 30 12 31 13
REMARK SMILES IDX 32 14 67 15 33 16 72 17 66 18 68 19 34 20 71 21 65 22 64 23
REMARK SMILES IDX 35 25 57 26 42 27 56 28 43 29 46 30 55 31 69 32 44 33 45 34
REMARK SMILES IDX 54 36 70 37 47 38 36 39 37 40 41 41 38 42 40 43 39 44 58 45
REMARK SMILES IDX 59 46 63 47 60 48 62 49 61 50 48 51 49 52 53 53 50 54 52 55
REMARK SMILES IDX 51 56 6 57 7 58 8 59 9 60 10 62 11 63 12 64 22 65 13 66
REMARK SMILES IDX 21 67 23 68 24 69 25 70 26 71 14 72 15 73 20 74 16 75 18 76
REMARK SMILES IDX 17 77 19 78
REMARK H PARENT 3 6 68 24 46 35 8 61
REMARK Flexibility Score: inf
ROOT
ATOM      1  C   UNL A   1      33.215  27.731  25.756  1.00  0.00     0.023 C 
ENDROOT
BRANCH   1   2
ATOM      2  C   UNL A   1      33.803  28.179  27.087  1.00  0.00     0.116 C 
BRANCH   2   3
ATOM      3  N   UNL A   1      33.562  29.586  27.371  1.00  0.00    -0.352 N 
ATOM      4  O   UNL A   1      33.984  31.624  28.244  1.00  0.00    -0.269 OA
ATOM      5  C   UNL A   1      34.397  30.506  27.957  1.00  0.00     0.251 C 
ATOM      6  H   UNL A   1      32.677  29.926  27.105  1.00  0.00     0.163 HD
BRANCH   5   7
ATOM      7  C   UNL A   1      35.793  30.130  28.267  1.00  0.00     0.039 A 
ATOM      8  C   UNL A   1      36.797  30.270  27.306  1.00  0.00     0.014 A 
ATOM      9  C   UNL A   1      36.094  29.622  29.534  1.00  0.00     0.014 A 
ATOM     10  C   UNL A   1      38.068  29.771  27.560  1.00  0.00     0.010 A 
ATOM     11  C   UNL A   1      37.394  29.202  29.817  1.00  0.00     0.010 A 
ATOM     12  C   UNL A   1      38.384  29.246  28.823  1.00  0.00    -0.014 A 
BRANCH  12  13
ATOM     13  C   UNL A   1      39.774  28.814  29.109  1.00  0.00     0.031 A 
ATOM     14  C   UNL A   1      40.756  29.733  29.777  1.00  0.00     0.074 A 
ATOM     15  C   UNL A   1      40.146  27.571  28.750  1.00  0.00     0.049 A 
ATOM     16  N   UNL A   1      42.010  29.515  30.079  1.00  0.00    -0.248 NA
ATOM     17  C   UNL A   1      40.272  31.073  30.145  1.00  0.00     0.031 C 
ATOM     18  C   UNL A   1      39.284  26.592  28.084  1.00  0.00     0.029 A 
ATOM     19  N   UNL A   1      41.343  26.918  28.896  1.00  0.00    -0.354 N 
ATOM     20  C   UNL A   1      42.475  30.693  30.651  1.00  0.00     0.074 A 
ATOM     21  C   UNL A   1      41.372  31.631  30.633  1.00  0.00     0.031 C 
ATOM     22  C   UNL A   1      39.970  25.456  27.901  1.00  0.00     0.029 A 
ATOM     23  C   UNL A   1      41.335  25.646  28.377  1.00  0.00     0.049 A 
ATOM     24  H   UNL A   1      42.130  27.320  29.328  1.00  0.00     0.167 HD
ATOM     25  C   UNL A   1      43.707  30.966  31.144  1.00  0.00     0.031 A 
ATOM     26  C   UNL A   1      42.322  24.740  28.266  1.00  0.00     0.031 A 
ATOM     27  C   UNL A   1      44.802  30.029  31.152  1.00  0.00     0.049 A 
ATOM     28  C   UNL A   1      43.686  25.077  28.790  1.00  0.00     0.074 A 
ATOM     29  C   UNL A   1      46.074  30.195  31.673  1.00  0.00     0.029 A 
ATOM     30  N   UNL A   1      44.759  28.757  30.601  1.00  0.00    -0.354 N 
ATOM     31  N   UNL A   1      44.093  26.177  29.375  1.00  0.00    -0.248 NA
ATOM     32  C   UNL A   1      44.723  24.048  28.640  1.00  0.00     0.031 C 
ATOM     33  C   UNL A   1      46.818  29.046  31.385  1.00  0.00     0.029 A 
ATOM     34  C   UNL A   1      45.991  28.140  30.738  1.00  0.00     0.049 A 
ATOM     35  H   UNL A   1      43.969  28.352  30.177  1.00  0.00     0.167 HD
ATOM     36  C   UNL A   1      45.431  25.969  29.677  1.00  0.00     0.074 A 
ATOM     37  C   UNL A   1      45.760  24.630  29.227  1.00  0.00     0.031 C 
ATOM     38  C   UNL A   1      46.308  26.813  30.274  1.00  0.00     0.031 A 
BRANCH  25  39
ATOM     39  C   UNL A   1      43.949  32.350  31.680  1.00  0.00    -0.014 A 
ATOM     40  C   UNL A   1      44.394  33.392  30.852  1.00  0.00     0.009 A 
ATOM     41  C   UNL A   1      43.697  32.623  33.035  1.00  0.00     0.009 A 
ATOM     42  C   UNL A   1      44.621  34.667  31.378  1.00  0.00     0.001 A 
ATOM     43  C   UNL A   1      43.897  33.904  33.552  1.00  0.00     0.001 A 
ATOM     44  C   UNL A   1      44.370  34.922  32.726  1.00  0.00     0.000 A 
ENDBRANCH  25  39
BRANCH  26  45
ATOM     45  C   UNL A   1      42.043  23.441  27.604  1.00  0.00    -0.014 A 
ATOM     46  C   UNL A   1      42.347  23.245  26.250  1.00  0.00     0.009 A 
ATOM     47  C   UNL A   1      41.513  22.371  28.346  1.00  0.00     0.009 A 
ATOM     48  C   UNL A   1      42.116  22.006  25.649  1.00  0.00     0.001 A 
ATOM     49  C   UNL A   1      41.312  21.126  27.749  1.00  0.00     0.001 A 
ATOM     50  C   UNL A   1      41.608  20.946  26.400  1.00  0.00     0.000 A 
ENDBRANCH  26  45
BRANCH  38  51
ATOM     51  C   UNL A   1      47.704  26.304  30.494  1.00  0.00    -0.014 A 
ATOM     52  C   UNL A   1      48.100  25.781  31.735  1.00  0.00     0.009 A 
ATOM     53  C   UNL A   1      48.621  26.308  29.432  1.00  0.00     0.009 A 
ATOM     54  C   UNL A   1      49.397  25.298  31.914  1.00  0.00     0.001 A 
ATOM     55  C   UNL A   1      49.909  25.800  29.606  1.00  0.00     0.001 A 
ATOM     56  C   UNL A   1      50.298  25.302  30.849  1.00  0.00     0.000 A 
ENDBRANCH  38  51
ENDBRANCH  12  13
ENDBRANCH   5   7
ENDBRANCH   2   3
ENDBRANCH   1   2
BRANCH   1  57
ATOM     57  C   UNL A   1      31.720  27.424  25.780  1.00  0.00     0.023 C 
BRANCH  57  58
ATOM     58  C   UNL A   1      31.363  25.999  26.190  1.00  0.00     0.116 C 
BRANCH  58  59
ATOM     59  N   UNL A   1      30.566  25.311  25.184  1.00  0.00    -0.352 N 
ATOM     60  C   UNL A   1      30.990  24.571  24.107  1.00  0.00     0.255 C 
ATOM     61  H   UNL A   1      29.590  25.384  25.290  1.00  0.00     0.163 HD
ATOM     62  O   UNL A   1      30.185  24.160  23.280  1.00  0.00    -0.269 OA
BRANCH  60  63
ATOM     63  C   UNL A   1      32.406  24.313  24.002  1.00  0.00     0.091 A 
ATOM     64  C   UNL A   1      33.178  23.346  24.704  1.00  0.00     0.065 A 
ATOM     65  C   UNL A   1      33.293  25.000  23.191  1.00  0.00     0.221 A 
ATOM     66  C   UNL A   1      34.494  23.611  24.411  1.00  0.00     0.135 A 
ATOM     67  O   UNL A   1      34.577  24.598  23.476  1.00  0.00    -0.451 OA
BRANCH  65  68
ATOM     68  C   UNL A   1      33.127  26.083  22.189  1.00  0.00     0.450 C 
ATOM     69  F   UNL A   1      34.158  26.968  22.232  1.00  0.00    -0.163 F 
ATOM     70  F   UNL A   1      33.077  25.599  20.921  1.00  0.00    -0.163 F 
ATOM     71  F   UNL A   1      32.000  26.813  22.379  1.00  0.00    -0.163 F 
ENDBRANCH  65  68
BRANCH  66  72
ATOM     72  C   UNL A   1      35.736  23.092  24.945  1.00  0.00     0.019 A 
ATOM     73  C   UNL A   1      36.633  23.951  25.596  1.00  0.00     0.012 A 
ATOM     74  C   UNL A   1      36.104  21.761  24.715  1.00  0.00     0.032 A 
ATOM     75  C   UNL A   1      37.884  23.487  26.006  1.00  0.00     0.002 A 
ATOM     76  C   UNL A   1      37.361  21.310  25.113  1.00  0.00     0.041 A 
ATOM     77  C   UNL A   1      38.252  22.166  25.757  1.00  0.00     0.020 A 
ATOM     78  Cl  UNL A   1      37.832  19.689  24.773  1.00  0.00    -0.084 Cl
ENDBRANCH  66  72
ENDBRANCH  60  63
ENDBRANCH  58  59
ENDBRANCH  57  58
ENDBRANCH   1  57
TORSDOF 13
ENDMDL
MODEL 3
REMARK VINA RESULT:     -11.4      4.014      8.890
REMARK SMILES O=C(NCCCCNC(=O)c1cc(-c2cccc(Cl)c2)oc1C(F)(F)F)c1ccc(-c2c3nc(c(-c4ccccc4)c4ccc([nH]4)c(-c4ccccc4)c4nc(c(-c5ccccc5)c5ccc2[nH]5)C=C4)C=C3)cc1
REMARK SMILES IDX 5 1 4 2 3 3 1 4 2 5 27 7 28 8 74 9 29 10 73 11 30 12 31 13
REMARK SMILES IDX 32 14 67 15 33 16 72 17 66 18 68 19 34 20 71 21 65 22 64 23
REMARK SMILES IDX 35 25 57 26 42 27 56 28 43 29 46 30 55 31 69 32 44 33 45 34
REMARK SMILES IDX 54 36 70 37 47 38 36 39 37 40 41 41 38 42 40 43 39 44 58 45
REMARK SMILES IDX 59 46 63 47 60 48 62 49 61 50 48 51 49 52 53 53 50 54 52 55
REMARK SMILES IDX 51 56 6 57 7 58 8 59 9 60 10 62 11 63 12 64 22 65 13 66
REMARK SMILES IDX 21 67 23 68 24 69 25 70 26 71 14 72 15 73 20 74 16 75 18 76
REMARK SMILES IDX 17 77 19 78
REMARK H PARENT 3 6 68 24 46 35 8 61
REMARK Flexibility Score: inf
ROOT
ATOM      1  C   UNL A   1      31.386  31.821  26.500  1.00  0.00     0.023 C 
ENDROOT
BRANCH   1   2
ATOM      2  C   UNL A   1      32.642  32.486  27.045  1.00  0.00     0.116 C 
BRANCH   2   3
ATOM      3  N   UNL A   1      32.401  33.829  27.550  1.00  0.00    -0.352 N 
ATOM      4  O   UNL A   1      32.686  35.616  28.901  1.00  0.00    -0.269 OA
ATOM      5  C   UNL A   1      33.107  34.539  28.492  1.00  0.00     0.251 C 
ATOM      6  H   UNL A   1      31.624  34.294  27.164  1.00  0.00     0.163 HD
BRANCH   5   7
ATOM      7  C   UNL A   1      34.366  33.984  29.031  1.00  0.00     0.039 A 
ATOM      8  C   UNL A   1      35.590  34.283  28.429  1.00  0.00     0.014 A 
ATOM      9  C   UNL A   1      34.314  33.145  30.148  1.00  0.00     0.014 A 
ATOM     10  C   UNL A   1      36.743  33.632  28.853  1.00  0.00     0.010 A 
ATOM     11  C   UNL A   1      35.488  32.560  30.627  1.00  0.00     0.010 A 
ATOM     12  C   UNL A   1      36.707  32.777  29.965  1.00  0.00    -0.014 A 
BRANCH  12  13
ATOM     13  C   UNL A   1      37.966  32.174  30.465  1.00  0.00     0.031 A 
ATOM     14  C   UNL A   1      38.507  30.900  29.884  1.00  0.00     0.074 A 
ATOM     15  C   UNL A   1      38.620  32.793  31.465  1.00  0.00     0.049 A 
ATOM     16  N   UNL A   1      39.582  30.235  30.222  1.00  0.00    -0.248 NA
ATOM     17  C   UNL A   1      37.740  30.287  28.789  1.00  0.00     0.031 C 
ATOM     18  C   UNL A   1      38.185  34.030  32.119  1.00  0.00     0.029 A 
ATOM     19  N   UNL A   1      39.788  32.470  32.107  1.00  0.00    -0.354 N 
ATOM     20  C   UNL A   1      39.611  29.114  29.401  1.00  0.00     0.074 A 
ATOM     21  C   UNL A   1      38.432  29.178  28.563  1.00  0.00     0.031 C 
ATOM     22  C   UNL A   1      39.086  34.375  33.049  1.00  0.00     0.029 A 
ATOM     23  C   UNL A   1      40.125  33.354  33.102  1.00  0.00     0.049 A 
ATOM     24  H   UNL A   1      40.332  31.682  31.876  1.00  0.00     0.167 HD
ATOM     25  C   UNL A   1      40.535  28.124  29.352  1.00  0.00     0.031 A 
ATOM     26  C   UNL A   1      41.139  33.333  33.985  1.00  0.00     0.031 A 
ATOM     27  C   UNL A   1      41.702  28.064  30.195  1.00  0.00     0.049 A 
ATOM     28  C   UNL A   1      42.131  32.210  33.933  1.00  0.00     0.074 A 
ATOM     29  C   UNL A   1      42.723  27.128  30.187  1.00  0.00     0.029 A 
ATOM     30  N   UNL A   1      41.998  28.969  31.203  1.00  0.00    -0.354 N 
ATOM     31  N   UNL A   1      42.171  31.187  33.115  1.00  0.00    -0.248 NA
ATOM     32  C   UNL A   1      43.216  32.241  34.922  1.00  0.00     0.031 C 
ATOM     33  C   UNL A   1      43.603  27.433  31.231  1.00  0.00     0.029 A 
ATOM     34  C   UNL A   1      43.165  28.594  31.848  1.00  0.00     0.049 A 
ATOM     35  H   UNL A   1      41.458  29.761  31.427  1.00  0.00     0.167 HD
ATOM     36  C   UNL A   1      43.293  30.457  33.481  1.00  0.00     0.074 A 
ATOM     37  C   UNL A   1      43.915  31.167  34.581  1.00  0.00     0.031 C 
ATOM     38  C   UNL A   1      43.765  29.302  32.951  1.00  0.00     0.031 A 
BRANCH  25  39
ATOM     39  C   UNL A   1      40.298  27.002  28.380  1.00  0.00    -0.014 A 
ATOM     40  C   UNL A   1      39.553  25.866  28.735  1.00  0.00     0.009 A 
ATOM     41  C   UNL A   1      40.806  27.097  27.074  1.00  0.00     0.009 A 
ATOM     42  C   UNL A   1      39.357  24.832  27.815  1.00  0.00     0.001 A 
ATOM     43  C   UNL A   1      40.584  26.075  26.148  1.00  0.00     0.001 A 
ATOM     44  C   UNL A   1      39.870  24.939  26.523  1.00  0.00     0.000 A 
ENDBRANCH  25  39
BRANCH  26  45
ATOM     45  C   UNL A   1      41.234  34.407  35.005  1.00  0.00    -0.014 A 
ATOM     46  C   UNL A   1      41.941  35.589  34.741  1.00  0.00     0.009 A 
ATOM     47  C   UNL A   1      40.570  34.271  36.237  1.00  0.00     0.009 A 
ATOM     48  C   UNL A   1      41.989  36.609  35.694  1.00  0.00     0.001 A 
ATOM     49  C   UNL A   1      40.596  35.304  37.174  1.00  0.00     0.001 A 
ATOM     50  C   UNL A   1      41.310  36.469  36.905  1.00  0.00     0.000 A 
ENDBRANCH  26  45
BRANCH  38  51
ATOM     51  C   UNL A   1      45.028  28.745  33.542  1.00  0.00    -0.014 A 
ATOM     52  C   UNL A   1      44.990  27.813  34.591  1.00  0.00     0.009 A 
ATOM     53  C   UNL A   1      46.271  29.127  33.013  1.00  0.00     0.009 A 
ATOM     54  C   UNL A   1      46.176  27.295  35.116  1.00  0.00     0.001 A 
ATOM     55  C   UNL A   1      47.453  28.587  33.521  1.00  0.00     0.001 A 
ATOM     56  C   UNL A   1      47.405  27.678  34.577  1.00  0.00     0.000 A 
ENDBRANCH  38  51
ENDBRANCH  12  13
ENDBRANCH   5   7
ENDBRANCH   2   3
ENDBRANCH   1   2
BRANCH   1  57
ATOM     57  C   UNL A   1      31.525  30.332  26.192  1.00  0.00     0.023 C 
BRANCH  57  58
ATOM     58  C   UNL A   1      32.954  29.856  25.951  1.00  0.00     0.116 C 
BRANCH  58  59
ATOM     59  N   UNL A   1      33.277  29.746  24.535  1.00  0.00    -0.352 N 
ATOM     60  C   UNL A   1      33.396  28.616  23.765  1.00  0.00     0.255 C 
ATOM     61  H   UNL A   1      33.428  30.598  24.066  1.00  0.00     0.163 HD
ATOM     62  O   UNL A   1      33.799  28.691  22.610  1.00  0.00    -0.269 OA
BRANCH  60  63
ATOM     63  C   UNL A   1      33.035  27.360  24.377  1.00  0.00     0.091 A 
ATOM     64  C   UNL A   1      33.842  26.511  25.184  1.00  0.00     0.065 A 
ATOM     65  C   UNL A   1      31.807  26.732  24.264  1.00  0.00     0.221 A 
ATOM     66  C   UNL A   1      33.126  25.353  25.368  1.00  0.00     0.135 A 
ATOM     67  O   UNL A   1      31.879  25.482  24.835  1.00  0.00    -0.451 OA
BRANCH  65  68
ATOM     68  C   UNL A   1      30.528  27.105  23.608  1.00  0.00     0.450 C 
ATOM     69  F   UNL A   1      30.639  27.098  22.253  1.00  0.00    -0.163 F 
ATOM     70  F   UNL A   1      29.525  26.247  23.925  1.00  0.00    -0.163 F 
ATOM     71  F   UNL A   1      30.105  28.349  23.943  1.00  0.00    -0.163 F 
ENDBRANCH  65  68
BRANCH  66  72
ATOM     72  C   UNL A   1      33.475  24.070  25.944  1.00  0.00     0.019 A 
ATOM     73  C   UNL A   1      32.709  23.539  26.991  1.00  0.00     0.012 A 
ATOM     74  C   UNL A   1      34.642  23.408  25.543  1.00  0.00     0.032 A 
ATOM     75  C   UNL A   1      33.106  22.366  27.633  1.00  0.00     0.002 A 
ATOM     76  C   UNL A   1      35.040  22.245  26.199  1.00  0.00     0.041 A 
ATOM     77  C   UNL A   1      34.279  21.722  27.242  1.00  0.00     0.020 A 
ATOM     78  Cl  UNL A   1      36.507  21.469  25.743  1.00  0.00    -0.084 Cl
ENDBRANCH  66  72
ENDBRANCH  60  63
ENDBRANCH  58  59
ENDBRANCH  57  58
ENDBRANCH   1  57
TORSDOF 13
ENDMDL
