MODEL 1
REMARK VINA RESULT:     -11.6      0.000      0.000
REMARK SMILES Cc1cccc(C[C@H](C(=O)NCCCCNC(=O)c2ccc(-c3c4nc(c(-c5ccccc5)c5ccc([nH]5)c(-c5ccccc5)c5nc(c(-c6ccccc6)c6ccc3[nH]6)C=C5)C=C4)cc2)[C@@H]2CCCC[C@@H]2O)c1
REMARK SMILES IDX 13 1 12 2 11 3 9 4 10 5 8 7 7 8 6 9 1 10 2 11 3 12 74 13
REMARK SMILES IDX 4 14 5 15 67 16 68 17 72 18 69 19 71 20 70 21 73 22 14 24
REMARK SMILES IDX 15 25 16 26 17 27 18 29 19 30 20 31 66 32 21 33 65 34 22 35
REMARK SMILES IDX 23 36 24 37 59 38 25 39 64 40 58 41 60 42 26 43 63 44 57 45
REMARK SMILES IDX 56 46 27 48 49 49 34 50 48 51 35 52 38 53 47 54 61 55 36 56
REMARK SMILES IDX 37 57 46 59 62 60 39 61 28 62 29 63 33 64 30 65 32 66 31 67
REMARK SMILES IDX 50 68 51 69 55 70 52 71 54 72 53 73 40 74 41 75 45 76 42 77
REMARK SMILES IDX 44 78 43 79
REMARK H PARENT 11 6 73 23 16 28 60 47 38 58
REMARK Flexibility Score: inf
ROOT
ATOM      1  C   UNL A   1      32.524  29.938  27.199  1.00  0.00     0.023 C 
ENDROOT
BRANCH   1   2
ATOM      2  C   UNL A   1      33.778  29.056  27.001  1.00  0.00     0.116 C 
BRANCH   2   3
ATOM      3  N   UNL A   1      34.242  28.956  25.621  1.00  0.00    -0.356 N 
ATOM      4  C   UNL A   1      33.678  28.433  24.492  1.00  0.00     0.223 C 
ATOM      5  O   UNL A   1      34.330  28.579  23.452  1.00  0.00    -0.275 OA
ATOM      6  H   UNL A   1      35.136  29.341  25.476  1.00  0.00     0.163 HD
BRANCH   4   7
ATOM      7  C   UNL A   1      32.306  27.696  24.500  1.00  0.00     0.088 C 
BRANCH   7   8
ATOM      8  C   UNL A   1      31.527  28.178  23.233  1.00  0.00     0.049 C 
BRANCH   8   9
ATOM      9  C   UNL A   1      30.034  28.431  23.273  1.00  0.00    -0.047 A 
ATOM     10  C   UNL A   1      27.688  31.454  23.030  1.00  0.00     0.044 C 
ATOM     11  C   UNL A   1      28.189  30.044  23.129  1.00  0.00    -0.051 A 
ATOM     12  C   UNL A   1      27.274  28.994  23.226  1.00  0.00     0.003 A 
ATOM     13  C   UNL A   1      29.563  29.752  23.126  1.00  0.00     0.007 A 
ATOM     14  C   UNL A   1      27.726  27.694  23.424  1.00  0.00     0.001 A 
ATOM     15  C   UNL A   1      29.096  27.428  23.501  1.00  0.00     0.004 A 
ENDBRANCH   8   9
ENDBRANCH   7   8
BRANCH   7  16
ATOM     16  C   UNL A   1      32.562  26.158  24.634  1.00  0.00     0.030 C 
ATOM     17  C   UNL A   1      32.711  25.319  23.359  1.00  0.00     0.007 C 
ATOM     18  C   UNL A   1      31.841  25.392  25.773  1.00  0.00     0.118 C 
ATOM     19  C   UNL A   1      31.466  24.550  22.958  1.00  0.00     0.001 C 
ATOM     20  C   UNL A   1      30.654  24.527  25.360  1.00  0.00     0.032 C 
ATOM     21  C   UNL A   1      30.917  23.711  24.105  1.00  0.00     0.003 C 
BRANCH  18  22
ATOM     22  O   UNL A   1      31.495  26.234  26.868  1.00  0.00    -0.393 OA
ATOM     23  H   UNL A   1      31.387  27.146  26.552  1.00  0.00     0.210 HD
ENDBRANCH  18  22
ENDBRANCH   7  16
ENDBRANCH   4   7
ENDBRANCH   2   3
ENDBRANCH   1   2
BRANCH   1  24
ATOM     24  C   UNL A   1      32.800  31.411  27.506  1.00  0.00     0.023 C 
BRANCH  24  25
ATOM     25  C   UNL A   1      34.284  31.705  27.640  1.00  0.00     0.116 C 
BRANCH  25  26
ATOM     26  N   UNL A   1      34.699  32.137  28.971  1.00  0.00    -0.352 N 
ATOM     27  C   UNL A   1      35.584  31.532  29.858  1.00  0.00     0.251 C 
ATOM     28  H   UNL A   1      34.293  32.977  29.287  1.00  0.00     0.163 HD
ATOM     29  O   UNL A   1      35.783  32.004  30.954  1.00  0.00    -0.269 OA
BRANCH  27  30
ATOM     30  C   UNL A   1      36.386  30.375  29.377  1.00  0.00     0.039 A 
ATOM     31  C   UNL A   1      36.650  29.351  30.291  1.00  0.00     0.014 A 
ATOM     32  C   UNL A   1      37.082  30.446  28.175  1.00  0.00     0.014 A 
ATOM     33  C   UNL A   1      37.798  28.581  30.127  1.00  0.00     0.010 A 
ATOM     34  C   UNL A   1      38.282  29.771  28.075  1.00  0.00     0.010 A 
ATOM     35  C   UNL A   1      38.674  28.891  29.087  1.00  0.00    -0.014 A 
BRANCH  35  36
ATOM     36  C   UNL A   1      40.064  28.453  29.072  1.00  0.00     0.031 A 
ATOM     37  C   UNL A   1      40.435  27.148  28.499  1.00  0.00     0.074 A 
ATOM     38  C   UNL A   1      41.036  29.237  29.589  1.00  0.00     0.049 A 
ATOM     39  N   UNL A   1      41.421  26.433  28.931  1.00  0.00    -0.248 NA
ATOM     40  C   UNL A   1      39.695  26.521  27.409  1.00  0.00     0.031 C 
ATOM     41  C   UNL A   1      42.481  29.058  29.471  1.00  0.00     0.029 A 
ATOM     42  N   UNL A   1      40.896  30.250  30.528  1.00  0.00    -0.354 N 
ATOM     43  C   UNL A   1      41.627  25.439  28.009  1.00  0.00     0.074 A 
ATOM     44  C   UNL A   1      40.479  25.477  27.131  1.00  0.00     0.031 C 
ATOM     45  C   UNL A   1      43.086  29.740  30.457  1.00  0.00     0.029 A 
ATOM     46  C   UNL A   1      42.048  30.272  31.324  1.00  0.00     0.049 A 
ATOM     47  H   UNL A   1      40.121  30.850  30.619  1.00  0.00     0.167 HD
ATOM     48  C   UNL A   1      42.817  24.782  27.963  1.00  0.00     0.031 A 
ATOM     49  C   UNL A   1      41.978  30.074  32.673  1.00  0.00     0.031 A 
ATOM     50  C   UNL A   1      43.762  25.254  28.967  1.00  0.00     0.049 A 
ATOM     51  C   UNL A   1      42.735  28.856  33.156  1.00  0.00     0.074 A 
ATOM     52  C   UNL A   1      44.850  26.110  28.909  1.00  0.00     0.029 A 
ATOM     53  N   UNL A   1      43.473  25.081  30.315  1.00  0.00    -0.354 N 
ATOM     54  N   UNL A   1      43.173  27.906  32.376  1.00  0.00    -0.248 NA
ATOM     55  C   UNL A   1      43.009  28.583  34.564  1.00  0.00     0.031 C 
ATOM     56  C   UNL A   1      45.200  26.473  30.234  1.00  0.00     0.029 A 
ATOM     57  C   UNL A   1      44.337  25.824  31.097  1.00  0.00     0.049 A 
ATOM     58  H   UNL A   1      42.752  24.509  30.665  1.00  0.00     0.167 HD
ATOM     59  C   UNL A   1      43.747  26.912  33.130  1.00  0.00     0.074 A 
ATOM     60  C   UNL A   1      43.636  27.396  34.494  1.00  0.00     0.031 C 
ATOM     61  C   UNL A   1      44.241  25.776  32.551  1.00  0.00     0.031 A 
BRANCH  48  62
ATOM     62  C   UNL A   1      43.189  23.949  26.767  1.00  0.00    -0.014 A 
ATOM     63  C   UNL A   1      42.969  22.562  26.780  1.00  0.00     0.009 A 
ATOM     64  C   UNL A   1      43.817  24.477  25.626  1.00  0.00     0.009 A 
ATOM     65  C   UNL A   1      43.452  21.731  25.763  1.00  0.00     0.001 A 
ATOM     66  C   UNL A   1      44.341  23.648  24.627  1.00  0.00     0.001 A 
ATOM     67  C   UNL A   1      44.169  22.271  24.703  1.00  0.00     0.000 A 
ENDBRANCH  48  62
BRANCH  49  68
ATOM     68  C   UNL A   1      40.717  30.580  33.285  1.00  0.00    -0.014 A 
ATOM     69  C   UNL A   1      40.529  31.975  33.369  1.00  0.00     0.009 A 
ATOM     70  C   UNL A   1      39.603  29.744  33.434  1.00  0.00     0.009 A 
ATOM     71  C   UNL A   1      39.247  32.520  33.480  1.00  0.00     0.001 A 
ATOM     72  C   UNL A   1      38.321  30.295  33.560  1.00  0.00     0.001 A 
ATOM     73  C   UNL A   1      38.140  31.678  33.546  1.00  0.00     0.000 A 
ENDBRANCH  49  68
BRANCH  61  74
ATOM     74  C   UNL A   1      44.745  24.524  33.243  1.00  0.00    -0.014 A 
ATOM     75  C   UNL A   1      46.055  24.311  33.685  1.00  0.00     0.009 A 
ATOM     76  C   UNL A   1      43.811  23.507  33.562  1.00  0.00     0.009 A 
ATOM     77  C   UNL A   1      46.418  23.143  34.375  1.00  0.00     0.001 A 
ATOM     78  C   UNL A   1      44.155  22.362  34.286  1.00  0.00     0.001 A 
ATOM     79  C   UNL A   1      45.467  22.175  34.685  1.00  0.00     0.000 A 
ENDBRANCH  61  74
ENDBRANCH  35  36
ENDBRANCH  27  30
ENDBRANCH  25  26
ENDBRANCH  24  25
ENDBRANCH   1  24
TORSDOF 15
ENDMDL
MODEL 2
REMARK VINA RESULT:     -11.6      1.906      3.167
REMARK SMILES Cc1cccc(C[C@H](C(=O)NCCCCNC(=O)c2ccc(-c3c4nc(c(-c5ccccc5)c5ccc([nH]5)c(-c5ccccc5)c5nc(c(-c6ccccc6)c6ccc3[nH]6)C=C5)C=C4)cc2)[C@@H]2CCCC[C@@H]2O)c1
REMARK SMILES IDX 13 1 12 2 11 3 9 4 10 5 8 7 7 8 6 9 1 10 2 11 3 12 74 13
REMARK SMILES IDX 4 14 5 15 67 16 68 17 72 18 69 19 71 20 70 21 73 22 14 24
REMARK SMILES IDX 15 25 16 26 17 27 18 29 19 30 20 31 66 32 21 33 65 34 22 35
REMARK SMILES IDX 23 36 24 37 59 38 25 39 64 40 58 41 60 42 26 43 63 44 57 45
REMARK SMILES IDX 56 46 27 48 49 49 34 50 48 51 35 52 38 53 47 54 61 55 36 56
REMARK SMILES IDX 37 57 46 59 62 60 39 61 28 62 29 63 33 64 30 65 32 66 31 67
REMARK SMILES IDX 50 68 51 69 55 70 52 71 54 72 53 73 40 74 41 75 45 76 42 77
REMARK SMILES IDX 44 78 43 79
REMARK H PARENT 11 6 73 23 16 28 60 47 38 58
REMARK Flexibility Score: inf
ROOT
ATOM      1  C   UNL A   1      34.826  29.327  27.562  1.00  0.00     0.023 C 
ENDROOT
BRANCH   1   2
ATOM      2  C   UNL A   1      33.615  29.572  26.633  1.00  0.00     0.116 C 
BRANCH   2   3
ATOM      3  N   UNL A   1      33.882  29.360  25.214  1.00  0.00    -0.356 N 
ATOM      4  C   UNL A   1      33.217  28.669  24.241  1.00  0.00     0.223 C 
ATOM      5  O   UNL A   1      33.694  28.753  23.104  1.00  0.00    -0.275 OA
ATOM      6  H   UNL A   1      34.703  29.801  24.896  1.00  0.00     0.163 HD
BRANCH   4   7
ATOM      7  C   UNL A   1      31.942  27.824  24.531  1.00  0.00     0.088 C 
BRANCH   7   8
ATOM      8  C   UNL A   1      31.057  27.885  23.244  1.00  0.00     0.049 C 
BRANCH   8   9
ATOM      9  C   UNL A   1      29.744  28.640  23.225  1.00  0.00    -0.047 A 
ATOM     10  C   UNL A   1      28.602  32.299  23.347  1.00  0.00     0.044 C 
ATOM     11  C   UNL A   1      28.583  30.803  23.235  1.00  0.00    -0.051 A 
ATOM     12  C   UNL A   1      27.363  30.140  23.087  1.00  0.00     0.003 A 
ATOM     13  C   UNL A   1      29.767  30.049  23.276  1.00  0.00     0.007 A 
ATOM     14  C   UNL A   1      27.322  28.750  23.088  1.00  0.00     0.001 A 
ATOM     15  C   UNL A   1      28.502  28.011  23.212  1.00  0.00     0.004 A 
ENDBRANCH   8   9
ENDBRANCH   7   8
BRANCH   7  16
ATOM     16  C   UNL A   1      32.381  26.404  25.024  1.00  0.00     0.030 C 
ATOM     17  C   UNL A   1      32.692  25.323  23.982  1.00  0.00     0.007 C 
ATOM     18  C   UNL A   1      31.709  25.831  26.299  1.00  0.00     0.118 C 
ATOM     19  C   UNL A   1      31.572  24.325  23.752  1.00  0.00     0.001 C 
ATOM     20  C   UNL A   1      30.659  24.746  26.080  1.00  0.00     0.032 C 
ATOM     21  C   UNL A   1      31.079  23.707  25.054  1.00  0.00     0.003 C 
BRANCH  18  22
ATOM     22  O   UNL A   1      31.211  26.849  27.161  1.00  0.00    -0.393 OA
ATOM     23  H   UNL A   1      31.955  27.303  27.589  1.00  0.00     0.210 HD
ENDBRANCH  18  22
ENDBRANCH   7  16
ENDBRANCH   4   7
ENDBRANCH   2   3
ENDBRANCH   1   2
BRANCH   1  24
ATOM     24  C   UNL A   1      35.209  30.502  28.465  1.00  0.00     0.023 C 
BRANCH  24  25
ATOM     25  C   UNL A   1      35.127  31.835  27.742  1.00  0.00     0.116 C 
BRANCH  25  26
ATOM     26  N   UNL A   1      34.196  32.791  28.336  1.00  0.00    -0.352 N 
ATOM     27  C   UNL A   1      34.331  33.547  29.496  1.00  0.00     0.251 C 
ATOM     28  H   UNL A   1      33.352  32.917  27.846  1.00  0.00     0.163 HD
ATOM     29  O   UNL A   1      33.434  34.265  29.876  1.00  0.00    -0.269 OA
BRANCH  27  30
ATOM     30  C   UNL A   1      35.652  33.564  30.179  1.00  0.00     0.039 A 
ATOM     31  C   UNL A   1      36.707  34.204  29.524  1.00  0.00     0.014 A 
ATOM     32  C   UNL A   1      35.896  32.736  31.270  1.00  0.00     0.014 A 
ATOM     33  C   UNL A   1      38.011  33.788  29.781  1.00  0.00     0.010 A 
ATOM     34  C   UNL A   1      37.172  32.235  31.438  1.00  0.00     0.010 A 
ATOM     35  C   UNL A   1      38.217  32.712  30.643  1.00  0.00    -0.014 A 
BRANCH  35  36
ATOM     36  C   UNL A   1      39.453  31.940  30.655  1.00  0.00     0.031 A 
ATOM     37  C   UNL A   1      39.551  30.665  29.923  1.00  0.00     0.074 A 
ATOM     38  C   UNL A   1      40.531  32.379  31.342  1.00  0.00     0.049 A 
ATOM     39  N   UNL A   1      40.286  29.675  30.309  1.00  0.00    -0.248 NA
ATOM     40  C   UNL A   1      38.793  30.389  28.707  1.00  0.00     0.031 C 
ATOM     41  C   UNL A   1      41.893  31.854  31.294  1.00  0.00     0.029 A 
ATOM     42  N   UNL A   1      40.549  33.268  32.409  1.00  0.00    -0.354 N 
ATOM     43  C   UNL A   1      40.335  28.784  29.268  1.00  0.00     0.074 A 
ATOM     44  C   UNL A   1      39.324  29.222  28.332  1.00  0.00     0.031 C 
ATOM     45  C   UNL A   1      42.544  32.232  32.406  1.00  0.00     0.029 A 
ATOM     46  C   UNL A   1      41.586  32.897  33.272  1.00  0.00     0.049 A 
ATOM     47  H   UNL A   1      39.937  34.030  32.536  1.00  0.00     0.167 HD
ATOM     48  C   UNL A   1      41.328  27.857  29.203  1.00  0.00     0.031 A 
ATOM     49  C   UNL A   1      41.336  32.557  34.570  1.00  0.00     0.031 A 
ATOM     50  C   UNL A   1      42.255  27.943  30.325  1.00  0.00     0.049 A 
ATOM     51  C   UNL A   1      41.722  31.135  34.918  1.00  0.00     0.074 A 
ATOM     52  C   UNL A   1      43.518  28.494  30.463  1.00  0.00     0.029 A 
ATOM     53  N   UNL A   1      41.799  27.683  31.611  1.00  0.00    -0.354 N 
ATOM     54  N   UNL A   1      41.992  30.211  34.039  1.00  0.00    -0.248 NA
ATOM     55  C   UNL A   1      41.780  30.628  36.287  1.00  0.00     0.031 C 
ATOM     56  C   UNL A   1      43.812  28.588  31.848  1.00  0.00     0.029 A 
ATOM     57  C   UNL A   1      42.735  28.078  32.548  1.00  0.00     0.049 A 
ATOM     58  H   UNL A   1      40.929  27.274  31.826  1.00  0.00     0.167 HD
ATOM     59  C   UNL A   1      42.228  29.017  34.676  1.00  0.00     0.074 A 
ATOM     60  C   UNL A   1      42.103  29.338  36.085  1.00  0.00     0.031 C 
ATOM     61  C   UNL A   1      42.487  27.874  33.970  1.00  0.00     0.031 A 
BRANCH  48  62
ATOM     62  C   UNL A   1      41.603  27.113  27.925  1.00  0.00    -0.014 A 
ATOM     63  C   UNL A   1      42.144  27.790  26.820  1.00  0.00     0.009 A 
ATOM     64  C   UNL A   1      41.287  25.757  27.741  1.00  0.00     0.009 A 
ATOM     65  C   UNL A   1      42.257  27.179  25.566  1.00  0.00     0.001 A 
ATOM     66  C   UNL A   1      41.357  25.152  26.479  1.00  0.00     0.001 A 
ATOM     67  C   UNL A   1      41.831  25.869  25.388  1.00  0.00     0.000 A 
ENDBRANCH  48  62
BRANCH  49  68
ATOM     68  C   UNL A   1      40.182  33.286  35.166  1.00  0.00    -0.014 A 
ATOM     69  C   UNL A   1      38.931  32.636  35.207  1.00  0.00     0.009 A 
ATOM     70  C   UNL A   1      40.381  34.406  35.985  1.00  0.00     0.009 A 
ATOM     71  C   UNL A   1      37.952  33.023  36.127  1.00  0.00     0.001 A 
ATOM     72  C   UNL A   1      39.391  34.798  36.895  1.00  0.00     0.001 A 
ATOM     73  C   UNL A   1      38.196  34.087  36.990  1.00  0.00     0.000 A 
ENDBRANCH  49  68
BRANCH  61  74
ATOM     74  C   UNL A   1      42.600  26.459  34.503  1.00  0.00    -0.014 A 
ATOM     75  C   UNL A   1      41.639  25.805  35.281  1.00  0.00     0.009 A 
ATOM     76  C   UNL A   1      43.721  25.681  34.122  1.00  0.00     0.009 A 
ATOM     77  C   UNL A   1      41.801  24.467  35.679  1.00  0.00     0.001 A 
ATOM     78  C   UNL A   1      43.868  24.337  34.477  1.00  0.00     0.001 A 
ATOM     79  C   UNL A   1      42.907  23.731  35.269  1.00  0.00     0.000 A 
ENDBRANCH  61  74
ENDBRANCH  35  36
ENDBRANCH  27  30
ENDBRANCH  25  26
ENDBRANCH  24  25
ENDBRANCH   1  24
TORSDOF 15
ENDMDL
MODEL 3
REMARK VINA RESULT:     -11.6      2.642      4.669
REMARK SMILES Cc1cccc(C[C@H](C(=O)NCCCCNC(=O)c2ccc(-c3c4nc(c(-c5ccccc5)c5ccc([nH]5)c(-c5ccccc5)c5nc(c(-c6ccccc6)c6ccc3[nH]6)C=C5)C=C4)cc2)[C@@H]2CCCC[C@@H]2O)c1
REMARK SMILES IDX 13 1 12 2 11 3 9 4 10 5 8 7 7 8 6 9 1 10 2 11 3 12 74 13
REMARK SMILES IDX 4 14 5 15 67 16 68 17 72 18 69 19 71 20 70 21 73 22 14 24
REMARK SMILES IDX 15 25 16 26 17 27 18 29 19 30 20 31 66 32 21 33 65 34 22 35
REMARK SMILES IDX 23 36 24 37 59 38 25 39 64 40 58 41 60 42 26 43 63 44 57 45
REMARK SMILES IDX 56 46 27 48 49 49 34 50 48 51 35 52 38 53 47 54 61 55 36 56
REMARK SMILES IDX 37 57 46 59 62 60 39 61 28 62 29 63 33 64 30 65 32 66 31 67
REMARK SMILES IDX 50 68 51 69 55 70 52 71 54 72 53 73 40 74 41 75 45 76 42 77
REMARK SMILES IDX 44 78 43 79
REMARK H PARENT 11 6 73 23 16 28 60 47 38 58
REMARK Flexibility Score: inf
ROOT
ATOM      1  C   UNL A   1      34.356  28.950  26.540  1.00  0.00     0.023 C 
ENDROOT
BRANCH   1   2
ATOM      2  C   UNL A   1      33.446  28.233  25.516  1.00  0.00     0.116 C 
BRANCH   2   3
ATOM      3  N   UNL A   1      32.309  27.528  26.099  1.00  0.00    -0.356 N 
ATOM      4  C   UNL A   1      31.896  26.227  26.037  1.00  0.00     0.223 C 
ATOM      5  O   UNL A   1      30.905  25.947  26.720  1.00  0.00    -0.275 OA
ATOM      6  H   UNL A   1      31.725  28.104  26.645  1.00  0.00     0.163 HD
BRANCH   4   7
ATOM      7  C   UNL A   1      32.615  25.158  25.163  1.00  0.00     0.088 C 
BRANCH   7   8
ATOM      8  C   UNL A   1      34.050  24.979  25.758  1.00  0.00     0.049 C 
BRANCH   8   9
ATOM      9  C   UNL A   1      35.092  24.129  25.061  1.00  0.00    -0.047 A 
ATOM     10  C   UNL A   1      38.379  22.386  25.992  1.00  0.00     0.044 C 
ATOM     11  C   UNL A   1      37.177  22.842  25.219  1.00  0.00    -0.051 A 
ATOM     12  C   UNL A   1      37.028  22.451  23.887  1.00  0.00     0.003 A 
ATOM     13  C   UNL A   1      36.193  23.656  25.804  1.00  0.00     0.007 A 
ATOM     14  C   UNL A   1      35.975  22.952  23.129  1.00  0.00     0.001 A 
ATOM     15  C   UNL A   1      35.048  23.827  23.702  1.00  0.00     0.004 A 
ENDBRANCH   8   9
ENDBRANCH   7   8
BRANCH   7  16
ATOM     16  C   UNL A   1      31.714  23.880  25.086  1.00  0.00     0.030 C 
ATOM     17  C   UNL A   1      31.919  22.768  26.121  1.00  0.00     0.007 C 
ATOM     18  C   UNL A   1      31.334  23.334  23.686  1.00  0.00     0.118 C 
ATOM     19  C   UNL A   1      32.734  21.587  25.625  1.00  0.00     0.001 C 
ATOM     20  C   UNL A   1      32.073  22.079  23.228  1.00  0.00     0.032 C 
ATOM     21  C   UNL A   1      32.193  21.026  24.317  1.00  0.00     0.003 C 
BRANCH  18  22
ATOM     22  O   UNL A   1      31.371  24.337  22.676  1.00  0.00    -0.393 OA
ATOM     23  H   UNL A   1      30.530  24.822  22.673  1.00  0.00     0.210 HD
ENDBRANCH  18  22
ENDBRANCH   7  16
ENDBRANCH   4   7
ENDBRANCH   2   3
ENDBRANCH   1   2
BRANCH   1  24
ATOM     24  C   UNL A   1      33.646  29.930  27.476  1.00  0.00     0.023 C 
BRANCH  24  25
ATOM     25  C   UNL A   1      34.405  31.237  27.625  1.00  0.00     0.116 C 
BRANCH  25  26
ATOM     26  N   UNL A   1      33.570  32.389  27.953  1.00  0.00    -0.352 N 
ATOM     27  C   UNL A   1      33.729  33.335  28.961  1.00  0.00     0.251 C 
ATOM     28  H   UNL A   1      32.779  32.513  27.379  1.00  0.00     0.163 HD
ATOM     29  O   UNL A   1      32.909  34.209  29.126  1.00  0.00    -0.269 OA
BRANCH  27  30
ATOM     30  C   UNL A   1      34.997  33.333  29.738  1.00  0.00     0.039 A 
ATOM     31  C   UNL A   1      36.053  34.104  29.247  1.00  0.00     0.014 A 
ATOM     32  C   UNL A   1      35.216  32.388  30.735  1.00  0.00     0.014 A 
ATOM     33  C   UNL A   1      37.360  33.727  29.548  1.00  0.00     0.010 A 
ATOM     34  C   UNL A   1      36.506  31.936  30.934  1.00  0.00     0.010 A 
ATOM     35  C   UNL A   1      37.572  32.562  30.284  1.00  0.00    -0.014 A 
BRANCH  35  36
ATOM     36  C   UNL A   1      38.849  31.860  30.294  1.00  0.00     0.031 A 
ATOM     37  C   UNL A   1      39.010  30.582  29.578  1.00  0.00     0.074 A 
ATOM     38  C   UNL A   1      39.906  32.368  30.965  1.00  0.00     0.049 A 
ATOM     39  N   UNL A   1      39.802  29.640  29.970  1.00  0.00    -0.248 NA
ATOM     40  C   UNL A   1      38.257  30.248  28.374  1.00  0.00     0.031 C 
ATOM     41  C   UNL A   1      41.295  31.918  30.910  1.00  0.00     0.029 A 
ATOM     42  N   UNL A   1      39.885  33.272  32.019  1.00  0.00    -0.354 N 
ATOM     43  C   UNL A   1      39.890  28.739  28.941  1.00  0.00     0.074 A 
ATOM     44  C   UNL A   1      38.847  29.107  28.009  1.00  0.00     0.031 C 
ATOM     45  C   UNL A   1      41.935  32.346  32.010  1.00  0.00     0.029 A 
ATOM     46  C   UNL A   1      40.950  32.970  32.877  1.00  0.00     0.049 A 
ATOM     47  H   UNL A   1      39.234  34.000  32.142  1.00  0.00     0.167 HD
ATOM     48  C   UNL A   1      40.932  27.867  28.879  1.00  0.00     0.031 A 
ATOM     49  C   UNL A   1      40.731  32.635  34.182  1.00  0.00     0.031 A 
ATOM     50  C   UNL A   1      41.863  28.019  29.989  1.00  0.00     0.049 A 
ATOM     51  C   UNL A   1      41.198  31.241  34.545  1.00  0.00     0.074 A 
ATOM     52  C   UNL A   1      43.095  28.641  30.107  1.00  0.00     0.029 A 
ATOM     53  N   UNL A   1      41.434  27.753  31.284  1.00  0.00    -0.354 N 
ATOM     54  N   UNL A   1      41.510  30.321  33.675  1.00  0.00    -0.248 NA
ATOM     55  C   UNL A   1      41.296  30.758  35.920  1.00  0.00     0.031 C 
ATOM     56  C   UNL A   1      43.397  28.771  31.488  1.00  0.00     0.029 A 
ATOM     57  C   UNL A   1      42.356  28.211  32.205  1.00  0.00     0.049 A 
ATOM     58  H   UNL A   1      40.591  27.300  31.513  1.00  0.00     0.167 HD
ATOM     59  C   UNL A   1      41.818  29.151  34.326  1.00  0.00     0.074 A 
ATOM     60  C   UNL A   1      41.689  29.485  35.732  1.00  0.00     0.031 C 
ATOM     61  C   UNL A   1      42.133  28.015  33.633  1.00  0.00     0.031 A 
BRANCH  48  62
ATOM     62  C   UNL A   1      41.235  27.121  27.608  1.00  0.00    -0.014 A 
ATOM     63  C   UNL A   1      40.944  25.751  27.510  1.00  0.00     0.009 A 
ATOM     64  C   UNL A   1      41.868  27.712  26.501  1.00  0.00     0.009 A 
ATOM     65  C   UNL A   1      41.362  24.986  26.415  1.00  0.00     0.001 A 
ATOM     66  C   UNL A   1      42.328  26.946  25.423  1.00  0.00     0.001 A 
ATOM     67  C   UNL A   1      42.085  25.578  25.387  1.00  0.00     0.000 A 
ENDBRANCH  48  62
BRANCH  49  68
ATOM     68  C   UNL A   1      39.544  33.308  34.779  1.00  0.00    -0.014 A 
ATOM     69  C   UNL A   1      38.263  32.813  34.455  1.00  0.00     0.009 A 
ATOM     70  C   UNL A   1      39.676  34.145  35.895  1.00  0.00     0.009 A 
ATOM     71  C   UNL A   1      37.170  33.054  35.292  1.00  0.00     0.001 A 
ATOM     72  C   UNL A   1      38.573  34.395  36.723  1.00  0.00     0.001 A 
ATOM     73  C   UNL A   1      37.333  33.821  36.442  1.00  0.00     0.000 A 
ENDBRANCH  49  68
BRANCH  61  74
ATOM     74  C   UNL A   1      42.329  26.615  34.184  1.00  0.00    -0.014 A 
ATOM     75  C   UNL A   1      43.422  25.784  33.922  1.00  0.00     0.009 A 
ATOM     76  C   UNL A   1      41.384  26.119  35.116  1.00  0.00     0.009 A 
ATOM     77  C   UNL A   1      43.551  24.523  34.529  1.00  0.00     0.001 A 
ATOM     78  C   UNL A   1      41.526  24.885  35.757  1.00  0.00     0.001 A 
ATOM     79  C   UNL A   1      42.611  24.079  35.453  1.00  0.00     0.000 A 
ENDBRANCH  61  74
ENDBRANCH  35  36
ENDBRANCH  27  30
ENDBRANCH  25  26
ENDBRANCH  24  25
ENDBRANCH   1  24
TORSDOF 15
ENDMDL
