MODEL 1
REMARK VINA RESULT:     -11.2      0.000      0.000
REMARK SMILES O=C(NCCCCNC(=O)[C@H]1CCCCN1C(=O)CCc1cccnc1)c1ccc(-c2c3nc(c(-c4ccccc4)c4ccc([nH]4)c(-c4ccccc4)c4nc(c(-c5ccccc5)c5ccc2[nH]5)C=C4)C=C3)cc1
REMARK SMILES IDX 6 1 5 2 4 3 3 4 1 5 2 6 27 8 28 9 74 10 29 11 73 12 30 13
REMARK SMILES IDX 31 14 32 15 67 16 33 17 72 18 66 19 68 20 34 21 71 22 65 23
REMARK SMILES IDX 64 24 35 26 57 27 42 28 56 29 43 30 46 31 55 32 69 33 44 34
REMARK SMILES IDX 45 35 54 37 70 38 47 39 36 40 37 41 41 42 38 43 40 44 39 45
REMARK SMILES IDX 58 46 59 47 63 48 60 49 62 50 61 51 48 52 49 53 53 54 50 55
REMARK SMILES IDX 52 56 51 57 7 58 8 59 9 60 10 62 11 63 12 64 16 65 13 66
REMARK SMILES IDX 15 67 14 68 17 69 18 70 19 71 20 72 21 73 22 74 26 75 23 76
REMARK SMILES IDX 25 77 24 78
REMARK H PARENT 3 7 68 25 46 36 8 61
REMARK Flexibility Score: inf
ROOT
ATOM      1  C   UNL A   1      36.679  20.681  24.828  1.00  0.00     0.023 C 
ENDROOT
BRANCH   1   2
ATOM      2  C   UNL A   1      37.814  19.664  25.001  1.00  0.00     0.023 C 
BRANCH   2   3
ATOM      3  C   UNL A   1      39.044  20.164  25.747  1.00  0.00     0.116 C 
BRANCH   3   4
ATOM      4  N   UNL A   1      40.131  19.202  25.777  1.00  0.00    -0.352 N 
ATOM      5  O   UNL A   1      42.265  18.506  26.025  1.00  0.00    -0.269 OA
ATOM      6  C   UNL A   1      41.445  19.407  26.126  1.00  0.00     0.251 C 
ATOM      7  H   UNL A   1      39.896  18.284  25.514  1.00  0.00     0.163 HD
BRANCH   6   8
ATOM      8  C   UNL A   1      41.862  20.747  26.586  1.00  0.00     0.039 A 
ATOM      9  C   UNL A   1      41.837  21.075  27.943  1.00  0.00     0.014 A 
ATOM     10  C   UNL A   1      42.253  21.691  25.633  1.00  0.00     0.014 A 
ATOM     11  C   UNL A   1      42.085  22.385  28.336  1.00  0.00     0.010 A 
ATOM     12  C   UNL A   1      42.577  22.986  26.040  1.00  0.00     0.010 A 
ATOM     13  C   UNL A   1      42.471  23.350  27.391  1.00  0.00    -0.014 A 
BRANCH  13  14
ATOM     14  C   UNL A   1      42.831  24.713  27.848  1.00  0.00     0.031 A 
ATOM     15  C   UNL A   1      41.779  25.746  28.135  1.00  0.00     0.074 A 
ATOM     16  C   UNL A   1      44.135  25.008  28.013  1.00  0.00     0.049 A 
ATOM     17  N   UNL A   1      41.930  26.979  28.548  1.00  0.00    -0.248 NA
ATOM     18  C   UNL A   1      40.376  25.351  27.925  1.00  0.00     0.031 C 
ATOM     19  C   UNL A   1      45.246  24.087  27.755  1.00  0.00     0.029 A 
ATOM     20  N   UNL A   1      44.746  26.153  28.451  1.00  0.00    -0.354 N 
ATOM     21  C   UNL A   1      40.651  27.514  28.626  1.00  0.00     0.074 A 
ATOM     22  C   UNL A   1      39.734  26.478  28.201  1.00  0.00     0.031 C 
ATOM     23  C   UNL A   1      46.398  24.687  28.083  1.00  0.00     0.029 A 
ATOM     24  C   UNL A   1      46.114  26.051  28.513  1.00  0.00     0.049 A 
ATOM     25  H   UNL A   1      44.253  26.968  28.699  1.00  0.00     0.167 HD
ATOM     26  C   UNL A   1      40.278  28.756  29.019  1.00  0.00     0.031 A 
ATOM     27  C   UNL A   1      47.043  26.959  28.860  1.00  0.00     0.031 A 
ATOM     28  C   UNL A   1      41.196  29.782  29.444  1.00  0.00     0.049 A 
ATOM     29  C   UNL A   1      46.602  28.331  29.271  1.00  0.00     0.074 A 
ATOM     30  C   UNL A   1      40.911  31.060  29.894  1.00  0.00     0.029 A 
ATOM     31  N   UNL A   1      42.576  29.650  29.464  1.00  0.00    -0.354 N 
ATOM     32  N   UNL A   1      45.386  28.808  29.373  1.00  0.00    -0.248 NA
ATOM     33  C   UNL A   1      47.661  29.287  29.616  1.00  0.00     0.031 C 
ATOM     34  C   UNL A   1      42.121  31.718  30.140  1.00  0.00     0.029 A 
ATOM     35  C   UNL A   1      43.157  30.831  29.895  1.00  0.00     0.049 A 
ATOM     36  H   UNL A   1      43.069  28.837  29.211  1.00  0.00     0.167 HD
ATOM     37  C   UNL A   1      45.532  30.119  29.805  1.00  0.00     0.074 A 
ATOM     38  C   UNL A   1      46.953  30.351  29.969  1.00  0.00     0.031 C 
ATOM     39  C   UNL A   1      44.573  31.048  30.041  1.00  0.00     0.031 A 
BRANCH  26  40
ATOM     40  C   UNL A   1      38.812  29.089  28.983  1.00  0.00    -0.014 A 
ATOM     41  C   UNL A   1      38.011  28.986  30.131  1.00  0.00     0.009 A 
ATOM     42  C   UNL A   1      38.237  29.567  27.796  1.00  0.00     0.009 A 
ATOM     43  C   UNL A   1      36.657  29.329  30.081  1.00  0.00     0.001 A 
ATOM     44  C   UNL A   1      36.891  29.932  27.754  1.00  0.00     0.001 A 
ATOM     45  C   UNL A   1      36.100  29.807  28.895  1.00  0.00     0.000 A 
ENDBRANCH  26  40
BRANCH  27  46
ATOM     46  C   UNL A   1      48.481  26.592  28.814  1.00  0.00    -0.014 A 
ATOM     47  C   UNL A   1      49.236  26.805  27.653  1.00  0.00     0.009 A 
ATOM     48  C   UNL A   1      49.111  26.052  29.947  1.00  0.00     0.009 A 
ATOM     49  C   UNL A   1      50.591  26.468  27.622  1.00  0.00     0.001 A 
ATOM     50  C   UNL A   1      50.472  25.745  29.922  1.00  0.00     0.001 A 
ATOM     51  C   UNL A   1      51.209  25.945  28.758  1.00  0.00     0.000 A 
ENDBRANCH  27  46
BRANCH  39  52
ATOM     52  C   UNL A   1      45.038  32.392  30.522  1.00  0.00    -0.014 A 
ATOM     53  C   UNL A   1      45.284  33.440  29.622  1.00  0.00     0.009 A 
ATOM     54  C   UNL A   1      45.211  32.617  31.896  1.00  0.00     0.009 A 
ATOM     55  C   UNL A   1      45.729  34.679  30.087  1.00  0.00     0.001 A 
ATOM     56  C   UNL A   1      45.629  33.864  32.361  1.00  0.00     0.001 A 
ATOM     57  C   UNL A   1      45.898  34.891  31.455  1.00  0.00     0.000 A 
ENDBRANCH  39  52
ENDBRANCH  13  14
ENDBRANCH   6   8
ENDBRANCH   3   4
ENDBRANCH   2   3
ENDBRANCH   1   2
BRANCH   1  58
ATOM     58  C   UNL A   1      37.133  22.128  24.634  1.00  0.00     0.116 C 
BRANCH  58  59
ATOM     59  N   UNL A   1      36.378  22.768  23.580  1.00  0.00    -0.354 N 
ATOM     60  C   UNL A   1      35.056  23.064  23.508  1.00  0.00     0.242 C 
ATOM     61  H   UNL A   1      36.905  23.029  22.790  1.00  0.00     0.163 HD
ATOM     62  O   UNL A   1      34.625  23.299  22.375  1.00  0.00    -0.273 OA
BRANCH  60  63
ATOM     63  C   UNL A   1      34.195  23.187  24.793  1.00  0.00     0.174 C 
ATOM     64  C   UNL A   1      34.490  24.540  25.456  1.00  0.00     0.035 C 
ATOM     65  N   UNL A   1      32.746  23.062  24.547  1.00  0.00    -0.331 N 
ATOM     66  C   UNL A   1      33.931  25.712  24.645  1.00  0.00     0.004 C 
ATOM     67  C   UNL A   1      32.173  24.110  23.702  1.00  0.00     0.120 C 
ATOM     68  C   UNL A   1      32.462  25.494  24.286  1.00  0.00     0.022 C 
BRANCH  65  69
ATOM     69  C   UNL A   1      32.038  22.085  25.229  1.00  0.00     0.223 C 
ATOM     70  O   UNL A   1      30.950  22.327  25.761  1.00  0.00    -0.275 OA
BRANCH  69  71
ATOM     71  C   UNL A   1      32.613  20.682  25.373  1.00  0.00     0.105 C 
BRANCH  71  72
ATOM     72  C   UNL A   1      32.593  19.869  24.072  1.00  0.00     0.047 C 
BRANCH  72  73
ATOM     73  C   UNL A   1      32.797  18.392  24.276  1.00  0.00    -0.029 A 
ATOM     74  C   UNL A   1      32.526  17.782  25.507  1.00  0.00     0.007 A 
ATOM     75  C   UNL A   1      33.317  17.588  23.268  1.00  0.00     0.114 A 
ATOM     76  C   UNL A   1      32.874  16.450  25.711  1.00  0.00     0.020 A 
ATOM     77  N   UNL A   1      33.650  16.286  23.435  1.00  0.00    -0.264 NA
ATOM     78  C   UNL A   1      33.441  15.755  24.658  1.00  0.00     0.111 A 
ENDBRANCH  72  73
ENDBRANCH  71  72
ENDBRANCH  69  71
ENDBRANCH  65  69
ENDBRANCH  60  63
ENDBRANCH  58  59
ENDBRANCH   1  58
TORSDOF 15
ENDMDL
MODEL 2
REMARK VINA RESULT:     -11.2      0.270      5.947
REMARK SMILES O=C(NCCCCNC(=O)[C@H]1CCCCN1C(=O)CCc1cccnc1)c1ccc(-c2c3nc(c(-c4ccccc4)c4ccc([nH]4)c(-c4ccccc4)c4nc(c(-c5ccccc5)c5ccc2[nH]5)C=C4)C=C3)cc1
REMARK SMILES IDX 6 1 5 2 4 3 3 4 1 5 2 6 27 8 28 9 74 10 29 11 73 12 30 13
REMARK SMILES IDX 31 14 32 15 67 16 33 17 72 18 66 19 68 20 34 21 71 22 65 23
REMARK SMILES IDX 64 24 35 26 57 27 42 28 56 29 43 30 46 31 55 32 69 33 44 34
REMARK SMILES IDX 45 35 54 37 70 38 47 39 36 40 37 41 41 42 38 43 40 44 39 45
REMARK SMILES IDX 58 46 59 47 63 48 60 49 62 50 61 51 48 52 49 53 53 54 50 55
REMARK SMILES IDX 52 56 51 57 7 58 8 59 9 60 10 62 11 63 12 64 16 65 13 66
REMARK SMILES IDX 15 67 14 68 17 69 18 70 19 71 20 72 21 73 22 74 26 75 23 76
REMARK SMILES IDX 25 77 24 78
REMARK H PARENT 3 7 68 25 46 36 8 61
REMARK Flexibility Score: inf
ROOT
ATOM      1  C   UNL A   1      36.699  20.639  24.908  1.00  0.00     0.023 C 
ENDROOT
BRANCH   1   2
ATOM      2  C   UNL A   1      37.875  19.658  24.981  1.00  0.00     0.023 C 
BRANCH   2   3
ATOM      3  C   UNL A   1      39.075  20.120  25.798  1.00  0.00     0.116 C 
BRANCH   3   4
ATOM      4  N   UNL A   1      40.158  19.154  25.830  1.00  0.00    -0.352 N 
ATOM      5  O   UNL A   1      42.290  18.451  26.069  1.00  0.00    -0.269 OA
ATOM      6  C   UNL A   1      41.475  19.357  26.166  1.00  0.00     0.251 C 
ATOM      7  H   UNL A   1      39.917  18.234  25.578  1.00  0.00     0.163 HD
BRANCH   6   8
ATOM      8  C   UNL A   1      41.901  20.700  26.610  1.00  0.00     0.039 A 
ATOM      9  C   UNL A   1      41.867  21.049  27.961  1.00  0.00     0.014 A 
ATOM     10  C   UNL A   1      42.311  21.624  25.646  1.00  0.00     0.014 A 
ATOM     11  C   UNL A   1      42.124  22.362  28.336  1.00  0.00     0.010 A 
ATOM     12  C   UNL A   1      42.644  22.922  26.035  1.00  0.00     0.010 A 
ATOM     13  C   UNL A   1      42.529  23.308  27.379  1.00  0.00    -0.014 A 
BRANCH  13  14
ATOM     14  C   UNL A   1      42.898  24.675  27.819  1.00  0.00     0.031 A 
ATOM     15  C   UNL A   1      44.335  25.091  27.955  1.00  0.00     0.074 A 
ATOM     16  C   UNL A   1      41.909  25.550  28.085  1.00  0.00     0.049 A 
ATOM     17  N   UNL A   1      44.823  26.250  28.321  1.00  0.00    -0.248 NA
ATOM     18  C   UNL A   1      45.359  24.078  27.652  1.00  0.00     0.031 C 
ATOM     19  C   UNL A   1      40.476  25.253  27.998  1.00  0.00     0.029 A 
ATOM     20  N   UNL A   1      41.955  26.865  28.467  1.00  0.00    -0.354 N 
ATOM     21  C   UNL A   1      46.203  26.102  28.313  1.00  0.00     0.074 A 
ATOM     22  C   UNL A   1      46.478  24.735  27.924  1.00  0.00     0.031 C 
ATOM     23  C   UNL A   1      39.781  26.366  28.271  1.00  0.00     0.029 A 
ATOM     24  C   UNL A   1      40.713  27.433  28.613  1.00  0.00     0.049 A 
ATOM     25  H   UNL A   1      42.795  27.354  28.620  1.00  0.00     0.167 HD
ATOM     26  C   UNL A   1      47.153  27.024  28.602  1.00  0.00     0.031 A 
ATOM     27  C   UNL A   1      40.359  28.672  28.999  1.00  0.00     0.031 A 
ATOM     28  C   UNL A   1      46.872  28.384  28.987  1.00  0.00     0.049 A 
ATOM     29  C   UNL A   1      41.431  29.664  29.333  1.00  0.00     0.074 A 
ATOM     30  C   UNL A   1      47.768  29.403  29.266  1.00  0.00     0.029 A 
ATOM     31  N   UNL A   1      45.601  28.913  29.153  1.00  0.00    -0.354 N 
ATOM     32  N   UNL A   1      42.733  29.517  29.286  1.00  0.00    -0.248 NA
ATOM     33  C   UNL A   1      40.985  30.993  29.770  1.00  0.00     0.031 C 
ATOM     34  C   UNL A   1      47.039  30.534  29.648  1.00  0.00     0.029 A 
ATOM     35  C   UNL A   1      45.690  30.236  29.554  1.00  0.00     0.049 A 
ATOM     36  H   UNL A   1      44.762  28.422  29.006  1.00  0.00     0.167 HD
ATOM     37  C   UNL A   1      43.263  30.738  29.677  1.00  0.00     0.074 A 
ATOM     38  C   UNL A   1      42.142  31.620  29.933  1.00  0.00     0.031 C 
ATOM     39  C   UNL A   1      44.563  31.095  29.816  1.00  0.00     0.031 A 
BRANCH  26  40
ATOM     40  C   UNL A   1      48.591  26.588  28.543  1.00  0.00    -0.014 A 
ATOM     41  C   UNL A   1      49.256  26.108  29.682  1.00  0.00     0.009 A 
ATOM     42  C   UNL A   1      49.272  26.605  27.317  1.00  0.00     0.009 A 
ATOM     43  C   UNL A   1      50.584  25.681  29.598  1.00  0.00     0.001 A 
ATOM     44  C   UNL A   1      50.591  26.155  27.229  1.00  0.00     0.001 A 
ATOM     45  C   UNL A   1      51.248  25.700  28.371  1.00  0.00     0.000 A 
ENDBRANCH  26  40
BRANCH  27  46
ATOM     46  C   UNL A   1      38.921  29.025  29.101  1.00  0.00    -0.014 A 
ATOM     47  C   UNL A   1      38.222  28.837  30.302  1.00  0.00     0.009 A 
ATOM     48  C   UNL A   1      38.248  29.582  28.001  1.00  0.00     0.009 A 
ATOM     49  C   UNL A   1      36.872  29.183  30.393  1.00  0.00     0.001 A 
ATOM     50  C   UNL A   1      36.908  29.955  28.105  1.00  0.00     0.001 A 
ATOM     51  C   UNL A   1      36.219  29.748  29.298  1.00  0.00     0.000 A 
ENDBRANCH  27  46
BRANCH  39  52
ATOM     52  C   UNL A   1      44.835  32.508  30.244  1.00  0.00    -0.014 A 
ATOM     53  C   UNL A   1      44.958  33.541  29.302  1.00  0.00     0.009 A 
ATOM     54  C   UNL A   1      44.948  32.812  31.609  1.00  0.00     0.009 A 
ATOM     55  C   UNL A   1      45.225  34.846  29.718  1.00  0.00     0.001 A 
ATOM     56  C   UNL A   1      45.187  34.122  32.024  1.00  0.00     0.001 A 
ATOM     57  C   UNL A   1      45.336  35.136  31.077  1.00  0.00     0.000 A 
ENDBRANCH  39  52
ENDBRANCH  13  14
ENDBRANCH   6   8
ENDBRANCH   3   4
ENDBRANCH   2   3
ENDBRANCH   1   2
BRANCH   1  58
ATOM     58  C   UNL A   1      37.094  22.112  24.780  1.00  0.00     0.116 C 
BRANCH  58  59
ATOM     59  N   UNL A   1      36.412  22.732  23.665  1.00  0.00    -0.354 N 
ATOM     60  C   UNL A   1      35.100  23.037  23.504  1.00  0.00     0.242 C 
ATOM     61  H   UNL A   1      36.990  22.970  22.905  1.00  0.00     0.163 HD
ATOM     62  O   UNL A   1      34.743  23.248  22.341  1.00  0.00    -0.273 OA
BRANCH  60  63
ATOM     63  C   UNL A   1      34.161  23.198  24.728  1.00  0.00     0.174 C 
ATOM     64  C   UNL A   1      34.373  24.593  25.332  1.00  0.00     0.035 C 
ATOM     65  N   UNL A   1      32.734  23.008  24.407  1.00  0.00    -0.331 N 
ATOM     66  C   UNL A   1      33.826  25.700  24.428  1.00  0.00     0.004 C 
ATOM     67  C   UNL A   1      32.179  23.990  23.475  1.00  0.00     0.120 C 
ATOM     68  C   UNL A   1      32.389  25.413  23.998  1.00  0.00     0.022 C 
BRANCH  65  69
ATOM     69  C   UNL A   1      32.018  22.045  25.100  1.00  0.00     0.223 C 
ATOM     70  O   UNL A   1      30.926  22.298  25.617  1.00  0.00    -0.275 OA
BRANCH  69  71
ATOM     71  C   UNL A   1      32.590  20.645  25.276  1.00  0.00     0.105 C 
BRANCH  71  72
ATOM     72  C   UNL A   1      32.561  19.800  23.995  1.00  0.00     0.047 C 
BRANCH  72  73
ATOM     73  C   UNL A   1      32.831  18.337  24.226  1.00  0.00    -0.029 A 
ATOM     74  C   UNL A   1      32.636  17.749  25.482  1.00  0.00     0.007 A 
ATOM     75  C   UNL A   1      33.341  17.528  23.217  1.00  0.00     0.114 A 
ATOM     76  C   UNL A   1      33.046  16.438  25.704  1.00  0.00     0.020 A 
ATOM     77  N   UNL A   1      33.732  16.245  23.402  1.00  0.00    -0.264 NA
ATOM     78  C   UNL A   1      33.596  15.738  24.645  1.00  0.00     0.111 A 
ENDBRANCH  72  73
ENDBRANCH  71  72
ENDBRANCH  69  71
ENDBRANCH  65  69
ENDBRANCH  60  63
ENDBRANCH  58  59
ENDBRANCH   1  58
TORSDOF 15
ENDMDL
MODEL 3
REMARK VINA RESULT:     -11.1      5.105      9.977
REMARK SMILES O=C(NCCCCNC(=O)[C@H]1CCCCN1C(=O)CCc1cccnc1)c1ccc(-c2c3nc(c(-c4ccccc4)c4ccc([nH]4)c(-c4ccccc4)c4nc(c(-c5ccccc5)c5ccc2[nH]5)C=C4)C=C3)cc1
REMARK SMILES IDX 6 1 5 2 4 3 3 4 1 5 2 6 27 8 28 9 74 10 29 11 73 12 30 13
REMARK SMILES IDX 31 14 32 15 67 16 33 17 72 18 66 19 68 20 34 21 71 22 65 23
REMARK SMILES IDX 64 24 35 26 57 27 42 28 56 29 43 30 46 31 55 32 69 33 44 34
REMARK SMILES IDX 45 35 54 37 70 38 47 39 36 40 37 41 41 42 38 43 40 44 39 45
REMARK SMILES IDX 58 46 59 47 63 48 60 49 62 50 61 51 48 52 49 53 53 54 50 55
REMARK SMILES IDX 52 56 51 57 7 58 8 59 9 60 10 62 11 63 12 64 16 65 13 66
REMARK SMILES IDX 15 67 14 68 17 69 18 70 19 71 20 72 21 73 22 74 26 75 23 76
REMARK SMILES IDX 25 77 24 78
REMARK H PARENT 3 7 68 25 46 36 8 61
REMARK Flexibility Score: inf
ROOT
ATOM      1  C   UNL A   1      31.606  30.502  26.106  1.00  0.00     0.023 C 
ENDROOT
BRANCH   1   2
ATOM      2  C   UNL A   1      31.401  31.969  26.501  1.00  0.00     0.023 C 
BRANCH   2   3
ATOM      3  C   UNL A   1      32.593  32.652  27.157  1.00  0.00     0.116 C 
BRANCH   3   4
ATOM      4  N   UNL A   1      32.304  33.999  27.619  1.00  0.00    -0.352 N 
ATOM      5  O   UNL A   1      32.559  35.840  28.901  1.00  0.00    -0.269 OA
ATOM      6  C   UNL A   1      32.974  34.742  28.562  1.00  0.00     0.251 C 
ATOM      7  H   UNL A   1      31.528  34.436  27.201  1.00  0.00     0.163 HD
BRANCH   6   8
ATOM      8  C   UNL A   1      34.183  34.174  29.192  1.00  0.00     0.039 A 
ATOM      9  C   UNL A   1      35.454  34.481  28.703  1.00  0.00     0.014 A 
ATOM     10  C   UNL A   1      34.028  33.298  30.270  1.00  0.00     0.014 A 
ATOM     11  C   UNL A   1      36.563  33.817  29.212  1.00  0.00     0.010 A 
ATOM     12  C   UNL A   1      35.153  32.691  30.831  1.00  0.00     0.010 A 
ATOM     13  C   UNL A   1      36.426  32.926  30.289  1.00  0.00    -0.014 A 
BRANCH  13  14
ATOM     14  C   UNL A   1      37.636  32.309  30.883  1.00  0.00     0.031 A 
ATOM     15  C   UNL A   1      38.248  32.844  32.146  1.00  0.00     0.074 A 
ATOM     16  C   UNL A   1      38.177  31.241  30.266  1.00  0.00     0.049 A 
ATOM     17  N   UNL A   1      39.300  32.413  32.795  1.00  0.00    -0.248 NA
ATOM     18  C   UNL A   1      37.604  34.018  32.758  1.00  0.00     0.031 C 
ATOM     19  C   UNL A   1      37.674  30.641  29.027  1.00  0.00     0.029 A 
ATOM     20  N   UNL A   1      39.252  30.462  30.602  1.00  0.00    -0.354 N 
ATOM     21  C   UNL A   1      39.459  33.271  33.876  1.00  0.00     0.074 A 
ATOM     22  C   UNL A   1      38.406  34.260  33.787  1.00  0.00     0.031 C 
ATOM     23  C   UNL A   1      38.412  29.561  28.732  1.00  0.00     0.029 A 
ATOM     24  C   UNL A   1      39.473  29.430  29.723  1.00  0.00     0.049 A 
ATOM     25  H   UNL A   1      39.811  30.625  31.395  1.00  0.00     0.167 HD
ATOM     26  C   UNL A   1      40.398  33.234  34.852  1.00  0.00     0.031 A 
ATOM     27  C   UNL A   1      40.435  28.490  29.702  1.00  0.00     0.031 A 
ATOM     28  C   UNL A   1      41.443  32.245  34.936  1.00  0.00     0.049 A 
ATOM     29  C   UNL A   1      41.472  28.486  30.785  1.00  0.00     0.074 A 
ATOM     30  C   UNL A   1      42.419  32.104  35.907  1.00  0.00     0.029 A 
ATOM     31  N   UNL A   1      41.651  31.234  34.010  1.00  0.00    -0.354 N 
ATOM     32  N   UNL A   1      41.586  29.284  31.818  1.00  0.00    -0.248 NA
ATOM     33  C   UNL A   1      42.510  27.452  30.698  1.00  0.00     0.031 C 
ATOM     34  C   UNL A   1      43.248  31.037  35.543  1.00  0.00     0.029 A 
ATOM     35  C   UNL A   1      42.755  30.481  34.374  1.00  0.00     0.049 A 
ATOM     36  H   UNL A   1      41.096  31.075  33.213  1.00  0.00     0.167 HD
ATOM     37  C   UNL A   1      42.702  28.842  32.513  1.00  0.00     0.074 A 
ATOM     38  C   UNL A   1      43.214  27.691  31.795  1.00  0.00     0.031 C 
ATOM     39  C   UNL A   1      43.257  29.347  33.642  1.00  0.00     0.031 A 
BRANCH  26  40
ATOM     40  C   UNL A   1      40.359  34.312  35.900  1.00  0.00    -0.014 A 
ATOM     41  C   UNL A   1      39.594  34.169  37.068  1.00  0.00     0.009 A 
ATOM     42  C   UNL A   1      41.144  35.464  35.740  1.00  0.00     0.009 A 
ATOM     43  C   UNL A   1      39.596  35.171  38.042  1.00  0.00     0.001 A 
ATOM     44  C   UNL A   1      41.164  36.453  36.725  1.00  0.00     0.001 A 
ATOM     45  C   UNL A   1      40.384  36.309  37.872  1.00  0.00     0.000 A 
ENDBRANCH  26  40
BRANCH  27  46
ATOM     46  C   UNL A   1      40.460  27.490  28.605  1.00  0.00    -0.014 A 
ATOM     47  C   UNL A   1      39.771  26.276  28.729  1.00  0.00     0.009 A 
ATOM     48  C   UNL A   1      41.154  27.762  27.415  1.00  0.00     0.009 A 
ATOM     49  C   UNL A   1      39.790  25.346  27.688  1.00  0.00     0.001 A 
ATOM     50  C   UNL A   1      41.146  26.842  26.365  1.00  0.00     0.001 A 
ATOM     51  C   UNL A   1      40.471  25.632  26.505  1.00  0.00     0.000 A 
ENDBRANCH  27  46
BRANCH  39  52
ATOM     52  C   UNL A   1      44.467  28.638  34.177  1.00  0.00    -0.014 A 
ATOM     53  C   UNL A   1      44.343  27.569  35.077  1.00  0.00     0.009 A 
ATOM     54  C   UNL A   1      45.746  29.033  33.757  1.00  0.00     0.009 A 
ATOM     55  C   UNL A   1      45.481  26.932  35.575  1.00  0.00     0.001 A 
ATOM     56  C   UNL A   1      46.881  28.377  34.234  1.00  0.00     0.001 A 
ATOM     57  C   UNL A   1      46.747  27.333  35.151  1.00  0.00     0.000 A 
ENDBRANCH  39  52
ENDBRANCH  13  14
ENDBRANCH   6   8
ENDBRANCH   3   4
ENDBRANCH   2   3
ENDBRANCH   1   2
BRANCH   1  58
ATOM     58  C   UNL A   1      32.399  29.667  27.113  1.00  0.00     0.116 C 
BRANCH  58  59
ATOM     59  N   UNL A   1      31.752  28.396  27.351  1.00  0.00    -0.354 N 
ATOM     60  C   UNL A   1      31.507  27.367  26.501  1.00  0.00     0.242 C 
ATOM     61  H   UNL A   1      31.439  28.255  28.274  1.00  0.00     0.163 HD
ATOM     62  O   UNL A   1      30.654  26.558  26.878  1.00  0.00    -0.273 OA
BRANCH  60  63
ATOM     63  C   UNL A   1      32.332  27.195  25.198  1.00  0.00     0.174 C 
ATOM     64  C   UNL A   1      33.662  26.511  25.543  1.00  0.00     0.035 C 
ATOM     65  N   UNL A   1      31.633  26.423  24.155  1.00  0.00    -0.331 N 
ATOM     66  C   UNL A   1      33.469  25.043  25.934  1.00  0.00     0.004 C 
ATOM     67  C   UNL A   1      31.343  25.033  24.510  1.00  0.00     0.120 C 
ATOM     68  C   UNL A   1      32.625  24.296  24.902  1.00  0.00     0.022 C 
BRANCH  65  69
ATOM     69  C   UNL A   1      31.445  27.004  22.911  1.00  0.00     0.223 C 
ATOM     70  O   UNL A   1      31.579  26.356  21.868  1.00  0.00    -0.275 OA
BRANCH  69  71
ATOM     71  C   UNL A   1      31.102  28.483  22.800  1.00  0.00     0.105 C 
BRANCH  71  72
ATOM     72  C   UNL A   1      29.672  28.821  23.242  1.00  0.00     0.047 C 
BRANCH  72  73
ATOM     73  C   UNL A   1      29.178  30.150  22.736  1.00  0.00    -0.029 A 
ATOM     74  C   UNL A   1      28.849  31.189  23.615  1.00  0.00     0.007 A 
ATOM     75  C   UNL A   1      28.973  30.376  21.379  1.00  0.00     0.114 A 
ATOM     76  C   UNL A   1      28.245  32.344  23.128  1.00  0.00     0.020 A 
ATOM     77  N   UNL A   1      28.403  31.496  20.877  1.00  0.00    -0.264 NA
ATOM     78  C   UNL A   1      28.033  32.443  21.765  1.00  0.00     0.111 A 
ENDBRANCH  72  73
ENDBRANCH  71  72
ENDBRANCH  69  71
ENDBRANCH  65  69
ENDBRANCH  60  63
ENDBRANCH  58  59
ENDBRANCH   1  58
TORSDOF 15
ENDMDL
