MODEL 1
REMARK VINA RESULT:      -9.3      0.000      0.000
REMARK SMILES COC[C@H](C)[C@H](CC(C)C)C(=O)NCCCCNC(=O)c1ccc(-c2c3nc(c(-c4ccccc4)c4ccc([nH]4)c(-c4ccccc4)c4nc(c(-c5ccccc5)c5ccc2[nH]5)C=C4)C=C3)cc1
REMARK SMILES IDX 15 1 14 2 13 3 11 4 12 5 6 7 4 8 5 9 3 10 2 11 1 12 7 13
REMARK SMILES IDX 8 14 9 15 10 16 16 17 17 18 18 19 19 20 20 22 21 23 22 24
REMARK SMILES IDX 68 25 23 26 67 27 24 28 25 29 26 30 61 31 27 32 66 33 60 34
REMARK SMILES IDX 62 35 28 36 65 37 59 38 58 39 29 41 51 42 36 43 50 44 37 45
REMARK SMILES IDX 40 46 49 47 63 48 38 49 39 50 48 52 64 53 41 54 30 55 31 56
REMARK SMILES IDX 35 57 32 58 34 59 33 60 52 61 53 62 57 63 54 64 56 65 55 66
REMARK SMILES IDX 42 67 43 68 47 69 44 70 46 71 45 72
REMARK H PARENT 13 6 18 21 62 40 40 51
REMARK Flexibility Score: inf
ROOT
ATOM      1  C   UNL A   1      33.155  26.986  26.324  1.00  0.00     0.023 C 
ENDROOT
BRANCH   1   2
ATOM      2  C   UNL A   1      31.913  26.214  25.902  1.00  0.00     0.116 C 
BRANCH   2   3
ATOM      3  N   UNL A   1      31.614  25.082  26.755  1.00  0.00    -0.356 N 
ATOM      4  C   UNL A   1      32.068  23.799  26.752  1.00  0.00     0.223 C 
ATOM      5  O   UNL A   1      31.753  23.103  27.724  1.00  0.00    -0.275 OA
ATOM      6  H   UNL A   1      30.962  25.275  27.467  1.00  0.00     0.163 HD
BRANCH   4   7
ATOM      7  C   UNL A   1      32.968  23.209  25.652  1.00  0.00     0.084 C 
BRANCH   7   8
ATOM      8  C   UNL A   1      32.274  21.995  24.967  1.00  0.00     0.024 C 
ATOM      9  C   UNL A   1      32.118  22.199  23.454  1.00  0.00     0.011 C 
BRANCH   8  10
ATOM     10  C   UNL A   1      32.936  20.632  25.215  1.00  0.00     0.163 C 
BRANCH  10  11
ATOM     11  O   UNL A   1      32.024  19.546  25.022  1.00  0.00    -0.384 OA
ATOM     12  C   UNL A   1      32.558  18.532  24.173  1.00  0.00     0.194 C 
ENDBRANCH  10  11
ENDBRANCH   8  10
ENDBRANCH   7   8
BRANCH   7  13
ATOM     13  C   UNL A   1      34.441  23.064  26.082  1.00  0.00     0.017 C 
BRANCH  13  14
ATOM     14  C   UNL A   1      35.502  23.908  25.343  1.00  0.00    -0.017 C 
ATOM     15  C   UNL A   1      36.897  23.837  25.962  1.00  0.00     0.007 C 
ATOM     16  C   UNL A   1      35.573  23.427  23.886  1.00  0.00     0.007 C 
ENDBRANCH  13  14
ENDBRANCH   7  13
ENDBRANCH   4   7
ENDBRANCH   2   3
ENDBRANCH   1   2
BRANCH   1  17
ATOM     17  C   UNL A   1      32.876  28.309  27.034  1.00  0.00     0.023 C 
BRANCH  17  18
ATOM     18  C   UNL A   1      33.797  29.471  26.669  1.00  0.00     0.116 C 
BRANCH  18  19
ATOM     19  N   UNL A   1      33.739  30.585  27.605  1.00  0.00    -0.352 N 
ATOM     20  C   UNL A   1      34.670  31.001  28.527  1.00  0.00     0.251 C 
ATOM     21  H   UNL A   1      32.913  31.119  27.573  1.00  0.00     0.163 HD
ATOM     22  O   UNL A   1      34.411  31.926  29.291  1.00  0.00    -0.269 OA
BRANCH  20  23
ATOM     23  C   UNL A   1      35.963  30.297  28.630  1.00  0.00     0.039 A 
ATOM     24  C   UNL A   1      36.844  30.359  27.550  1.00  0.00     0.014 A 
ATOM     25  C   UNL A   1      36.327  29.626  29.801  1.00  0.00     0.014 A 
ATOM     26  C   UNL A   1      38.127  29.825  27.676  1.00  0.00     0.010 A 
ATOM     27  C   UNL A   1      37.632  29.166  29.954  1.00  0.00     0.010 A 
ATOM     28  C   UNL A   1      38.549  29.272  28.897  1.00  0.00    -0.014 A 
BRANCH  28  29
ATOM     29  C   UNL A   1      39.956  28.837  29.086  1.00  0.00     0.031 A 
ATOM     30  C   UNL A   1      40.972  29.770  29.684  1.00  0.00     0.074 A 
ATOM     31  C   UNL A   1      40.328  27.609  28.674  1.00  0.00     0.049 A 
ATOM     32  N   UNL A   1      42.243  29.560  29.919  1.00  0.00    -0.248 NA
ATOM     33  C   UNL A   1      40.510  31.120  30.046  1.00  0.00     0.031 C 
ATOM     34  C   UNL A   1      39.453  26.629  28.025  1.00  0.00     0.029 A 
ATOM     35  N   UNL A   1      41.542  26.972  28.742  1.00  0.00    -0.354 N 
ATOM     36  C   UNL A   1      42.730  30.747  30.450  1.00  0.00     0.074 A 
ATOM     37  C   UNL A   1      41.635  31.692  30.450  1.00  0.00     0.031 C 
ATOM     38  C   UNL A   1      40.148  25.505  27.789  1.00  0.00     0.029 A 
ATOM     39  C   UNL A   1      41.524  25.695  28.235  1.00  0.00     0.049 A 
ATOM     40  H   UNL A   1      42.350  27.390  29.119  1.00  0.00     0.167 HD
ATOM     41  C   UNL A   1      43.971  31.020  30.921  1.00  0.00     0.031 A 
ATOM     42  C   UNL A   1      42.505  24.778  28.141  1.00  0.00     0.031 A 
ATOM     43  C   UNL A   1      45.062  30.083  30.926  1.00  0.00     0.049 A 
ATOM     44  C   UNL A   1      43.872  25.111  28.668  1.00  0.00     0.074 A 
ATOM     45  C   UNL A   1      46.343  30.254  31.422  1.00  0.00     0.029 A 
ATOM     46  N   UNL A   1      45.000  28.798  30.412  1.00  0.00    -0.354 N 
ATOM     47  N   UNL A   1      44.294  26.214  29.235  1.00  0.00    -0.248 NA
ATOM     48  C   UNL A   1      44.896  24.062  28.554  1.00  0.00     0.031 C 
ATOM     49  C   UNL A   1      47.071  29.087  31.166  1.00  0.00     0.029 A 
ATOM     50  C   UNL A   1      46.226  28.172  30.561  1.00  0.00     0.049 A 
ATOM     51  H   UNL A   1      44.203  28.390  30.001  1.00  0.00     0.167 HD
ATOM     52  C   UNL A   1      45.622  25.984  29.566  1.00  0.00     0.074 A 
ATOM     53  C   UNL A   1      45.928  24.627  29.162  1.00  0.00     0.031 C 
ATOM     54  C   UNL A   1      46.514  26.823  30.148  1.00  0.00     0.031 A 
BRANCH  41  55
ATOM     55  C   UNL A   1      44.211  32.395  31.482  1.00  0.00    -0.014 A 
ATOM     56  C   UNL A   1      44.011  32.663  32.846  1.00  0.00     0.009 A 
ATOM     57  C   UNL A   1      44.693  33.419  30.652  1.00  0.00     0.009 A 
ATOM     58  C   UNL A   1      44.262  33.935  33.361  1.00  0.00     0.001 A 
ATOM     59  C   UNL A   1      44.970  34.683  31.176  1.00  0.00     0.001 A 
ATOM     60  C   UNL A   1      44.747  34.942  32.528  1.00  0.00     0.000 A 
ENDBRANCH  41  55
BRANCH  42  61
ATOM     61  C   UNL A   1      42.234  23.446  27.534  1.00  0.00    -0.014 A 
ATOM     62  C   UNL A   1      41.755  22.388  28.321  1.00  0.00     0.009 A 
ATOM     63  C   UNL A   1      42.485  23.220  26.172  1.00  0.00     0.009 A 
ATOM     64  C   UNL A   1      41.571  21.119  27.764  1.00  0.00     0.001 A 
ATOM     65  C   UNL A   1      42.269  21.960  25.612  1.00  0.00     0.001 A 
ATOM     66  C   UNL A   1      41.825  20.908  26.410  1.00  0.00     0.000 A 
ENDBRANCH  42  61
BRANCH  54  67
ATOM     67  C   UNL A   1      47.893  26.281  30.405  1.00  0.00    -0.014 A 
ATOM     68  C   UNL A   1      48.885  26.317  29.412  1.00  0.00     0.009 A 
ATOM     69  C   UNL A   1      48.205  25.738  31.660  1.00  0.00     0.009 A 
ATOM     70  C   UNL A   1      50.149  25.778  29.658  1.00  0.00     0.001 A 
ATOM     71  C   UNL A   1      49.479  25.230  31.914  1.00  0.00     0.001 A 
ATOM     72  C   UNL A   1      50.446  25.239  30.910  1.00  0.00     0.000 A 
ENDBRANCH  54  67
ENDBRANCH  28  29
ENDBRANCH  20  23
ENDBRANCH  18  19
ENDBRANCH  17  18
ENDBRANCH   1  17
TORSDOF 16
ENDMDL
MODEL 2
REMARK VINA RESULT:      -9.1      3.058      4.812
REMARK SMILES COC[C@H](C)[C@H](CC(C)C)C(=O)NCCCCNC(=O)c1ccc(-c2c3nc(c(-c4ccccc4)c4ccc([nH]4)c(-c4ccccc4)c4nc(c(-c5ccccc5)c5ccc2[nH]5)C=C4)C=C3)cc1
REMARK SMILES IDX 15 1 14 2 13 3 11 4 12 5 6 7 4 8 5 9 3 10 2 11 1 12 7 13
REMARK SMILES IDX 8 14 9 15 10 16 16 17 17 18 18 19 19 20 20 22 21 23 22 24
REMARK SMILES IDX 68 25 23 26 67 27 24 28 25 29 26 30 61 31 27 32 66 33 60 34
REMARK SMILES IDX 62 35 28 36 65 37 59 38 58 39 29 41 51 42 36 43 50 44 37 45
REMARK SMILES IDX 40 46 49 47 63 48 38 49 39 50 48 52 64 53 41 54 30 55 31 56
REMARK SMILES IDX 35 57 32 58 34 59 33 60 52 61 53 62 57 63 54 64 56 65 55 66
REMARK SMILES IDX 42 67 43 68 47 69 44 70 46 71 45 72
REMARK H PARENT 13 6 18 21 62 40 40 51
REMARK Flexibility Score: inf
ROOT
ATOM      1  C   UNL A   1      32.062  29.654  26.600  1.00  0.00     0.023 C 
ENDROOT
BRANCH   1   2
ATOM      2  C   UNL A   1      33.501  29.328  26.231  1.00  0.00     0.116 C 
BRANCH   2   3
ATOM      3  N   UNL A   1      33.761  29.369  24.807  1.00  0.00    -0.356 N 
ATOM      4  C   UNL A   1      33.410  28.528  23.796  1.00  0.00     0.223 C 
ATOM      5  O   UNL A   1      33.636  28.926  22.648  1.00  0.00    -0.275 OA
ATOM      6  H   UNL A   1      34.290  30.147  24.516  1.00  0.00     0.163 HD
BRANCH   4   7
ATOM      7  C   UNL A   1      32.722  27.168  24.010  1.00  0.00     0.084 C 
BRANCH   7   8
ATOM      8  C   UNL A   1      33.764  26.012  23.970  1.00  0.00     0.024 C 
ATOM      9  C   UNL A   1      33.959  25.364  25.347  1.00  0.00     0.011 C 
BRANCH   8  10
ATOM     10  C   UNL A   1      33.485  24.909  22.939  1.00  0.00     0.163 C 
BRANCH  10  11
ATOM     11  O   UNL A   1      33.161  23.660  23.559  1.00  0.00    -0.384 OA
ATOM     12  C   UNL A   1      31.884  23.169  23.156  1.00  0.00     0.194 C 
ENDBRANCH  10  11
ENDBRANCH   8  10
ENDBRANCH   7   8
BRANCH   7  13
ATOM     13  C   UNL A   1      31.420  27.009  23.199  1.00  0.00     0.017 C 
BRANCH  13  14
ATOM     14  C   UNL A   1      30.110  27.549  23.813  1.00  0.00    -0.017 C 
ATOM     15  C   UNL A   1      29.405  28.597  22.954  1.00  0.00     0.007 C 
ATOM     16  C   UNL A   1      29.159  26.364  24.041  1.00  0.00     0.007 C 
ENDBRANCH  13  14
ENDBRANCH   7  13
ENDBRANCH   4   7
ENDBRANCH   2   3
ENDBRANCH   1   2
BRANCH   1  17
ATOM     17  C   UNL A   1      31.757  31.144  26.733  1.00  0.00     0.023 C 
BRANCH  17  18
ATOM     18  C   UNL A   1      32.931  32.032  27.142  1.00  0.00     0.116 C 
BRANCH  18  19
ATOM     19  N   UNL A   1      32.537  33.364  27.580  1.00  0.00    -0.352 N 
ATOM     20  C   UNL A   1      33.155  34.210  28.470  1.00  0.00     0.251 C 
ATOM     21  H   UNL A   1      31.706  33.710  27.181  1.00  0.00     0.163 HD
ATOM     22  O   UNL A   1      32.629  35.276  28.776  1.00  0.00    -0.269 OA
BRANCH  20  23
ATOM     23  C   UNL A   1      34.430  33.809  29.097  1.00  0.00     0.039 A 
ATOM     24  C   UNL A   1      34.388  33.008  30.239  1.00  0.00     0.014 A 
ATOM     25  C   UNL A   1      35.656  34.177  28.536  1.00  0.00     0.014 A 
ATOM     26  C   UNL A   1      35.576  32.499  30.767  1.00  0.00     0.010 A 
ATOM     27  C   UNL A   1      36.831  33.603  29.014  1.00  0.00     0.010 A 
ATOM     28  C   UNL A   1      36.801  32.749  30.126  1.00  0.00    -0.014 A 
BRANCH  28  29
ATOM     29  C   UNL A   1      38.048  32.091  30.594  1.00  0.00     0.031 A 
ATOM     30  C   UNL A   1      38.859  32.692  31.708  1.00  0.00     0.074 A 
ATOM     31  C   UNL A   1      38.473  30.969  29.979  1.00  0.00     0.049 A 
ATOM     32  N   UNL A   1      39.973  32.256  32.241  1.00  0.00    -0.248 NA
ATOM     33  C   UNL A   1      38.371  33.955  32.286  1.00  0.00     0.031 C 
ATOM     34  C   UNL A   1      37.808  30.317  28.847  1.00  0.00     0.029 A 
ATOM     35  N   UNL A   1      39.565  30.176  30.221  1.00  0.00    -0.354 N 
ATOM     36  C   UNL A   1      40.319  33.190  33.208  1.00  0.00     0.074 A 
ATOM     37  C   UNL A   1      39.331  34.245  33.152  1.00  0.00     0.031 C 
ATOM     38  C   UNL A   1      38.487  29.206  28.518  1.00  0.00     0.029 A 
ATOM     39  C   UNL A   1      39.650  29.085  29.389  1.00  0.00     0.049 A 
ATOM     40  H   UNL A   1      40.227  30.369  30.924  1.00  0.00     0.167 HD
ATOM     41  C   UNL A   1      41.351  33.161  34.085  1.00  0.00     0.031 A 
ATOM     42  C   UNL A   1      40.563  28.096  29.334  1.00  0.00     0.031 A 
ATOM     43  C   UNL A   1      42.334  32.113  34.147  1.00  0.00     0.049 A 
ATOM     44  C   UNL A   1      41.700  28.093  30.316  1.00  0.00     0.074 A 
ATOM     45  C   UNL A   1      43.392  31.974  35.030  1.00  0.00     0.029 A 
ATOM     46  N   UNL A   1      42.379  31.023  33.294  1.00  0.00    -0.354 N 
ATOM     47  N   UNL A   1      41.968  28.947  31.274  1.00  0.00    -0.248 NA
ATOM     48  C   UNL A   1      42.652  26.978  30.218  1.00  0.00     0.031 C 
ATOM     49  C   UNL A   1      44.105  30.822  34.681  1.00  0.00     0.029 A 
ATOM     50  C   UNL A   1      43.459  30.216  33.617  1.00  0.00     0.049 A 
ATOM     51  H   UNL A   1      41.740  30.846  32.566  1.00  0.00     0.167 HD
ATOM     52  C   UNL A   1      43.104  28.460  31.905  1.00  0.00     0.074 A 
ATOM     53  C   UNL A   1      43.457  27.222  31.242  1.00  0.00     0.031 C 
ATOM     54  C   UNL A   1      43.799  28.991  32.942  1.00  0.00     0.031 A 
BRANCH  41  55
ATOM     55  C   UNL A   1      41.463  34.300  35.061  1.00  0.00    -0.014 A 
ATOM     56  C   UNL A   1      42.158  35.473  34.724  1.00  0.00     0.009 A 
ATOM     57  C   UNL A   1      40.824  34.223  36.308  1.00  0.00     0.009 A 
ATOM     58  C   UNL A   1      42.235  36.534  35.627  1.00  0.00     0.001 A 
ATOM     59  C   UNL A   1      40.878  35.298  37.198  1.00  0.00     0.001 A 
ATOM     60  C   UNL A   1      41.590  36.448  36.860  1.00  0.00     0.000 A 
ENDBRANCH  41  55
BRANCH  42  61
ATOM     61  C   UNL A   1      40.439  27.014  28.320  1.00  0.00    -0.014 A 
ATOM     62  C   UNL A   1      41.070  27.130  27.072  1.00  0.00     0.009 A 
ATOM     63  C   UNL A   1      39.662  25.876  28.585  1.00  0.00     0.009 A 
ATOM     64  C   UNL A   1      40.893  26.146  26.095  1.00  0.00     0.001 A 
ATOM     65  C   UNL A   1      39.513  24.880  27.618  1.00  0.00     0.001 A 
ATOM     66  C   UNL A   1      40.117  25.022  26.370  1.00  0.00     0.000 A 
ENDBRANCH  42  61
BRANCH  54  67
ATOM     67  C   UNL A   1      44.991  28.218  33.431  1.00  0.00    -0.014 A 
ATOM     68  C   UNL A   1      44.859  27.221  34.411  1.00  0.00     0.009 A 
ATOM     69  C   UNL A   1      46.261  28.483  32.896  1.00  0.00     0.009 A 
ATOM     70  C   UNL A   1      45.983  26.536  34.876  1.00  0.00     0.001 A 
ATOM     71  C   UNL A   1      47.377  27.774  33.340  1.00  0.00     0.001 A 
ATOM     72  C   UNL A   1      47.240  26.811  34.338  1.00  0.00     0.000 A 
ENDBRANCH  54  67
ENDBRANCH  28  29
ENDBRANCH  20  23
ENDBRANCH  18  19
ENDBRANCH  17  18
ENDBRANCH   1  17
TORSDOF 16
ENDMDL
MODEL 3
REMARK VINA RESULT:      -9.1      1.966      7.311
REMARK SMILES COC[C@H](C)[C@H](CC(C)C)C(=O)NCCCCNC(=O)c1ccc(-c2c3nc(c(-c4ccccc4)c4ccc([nH]4)c(-c4ccccc4)c4nc(c(-c5ccccc5)c5ccc2[nH]5)C=C4)C=C3)cc1
REMARK SMILES IDX 15 1 14 2 13 3 11 4 12 5 6 7 4 8 5 9 3 10 2 11 1 12 7 13
REMARK SMILES IDX 8 14 9 15 10 16 16 17 17 18 18 19 19 20 20 22 21 23 22 24
REMARK SMILES IDX 68 25 23 26 67 27 24 28 25 29 26 30 61 31 27 32 66 33 60 34
REMARK SMILES IDX 62 35 28 36 65 37 59 38 58 39 29 41 51 42 36 43 50 44 37 45
REMARK SMILES IDX 40 46 49 47 63 48 38 49 39 50 48 52 64 53 41 54 30 55 31 56
REMARK SMILES IDX 35 57 32 58 34 59 33 60 52 61 53 62 57 63 54 64 56 65 55 66
REMARK SMILES IDX 42 67 43 68 47 69 44 70 46 71 45 72
REMARK H PARENT 13 6 18 21 62 40 40 51
REMARK Flexibility Score: inf
ROOT
ATOM      1  C   UNL A   1      36.827  21.684  24.406  1.00  0.00     0.023 C 
ENDROOT
BRANCH   1   2
ATOM      2  C   UNL A   1      36.808  22.879  25.347  1.00  0.00     0.116 C 
BRANCH   2   3
ATOM      3  N   UNL A   1      35.967  22.689  26.512  1.00  0.00    -0.356 N 
ATOM      4  C   UNL A   1      34.669  23.017  26.757  1.00  0.00     0.223 C 
ATOM      5  O   UNL A   1      34.176  22.565  27.796  1.00  0.00    -0.275 OA
ATOM      6  H   UNL A   1      36.417  22.242  27.265  1.00  0.00     0.163 HD
BRANCH   4   7
ATOM      7  C   UNL A   1      33.801  23.857  25.803  1.00  0.00     0.084 C 
BRANCH   7   8
ATOM      8  C   UNL A   1      33.061  22.943  24.784  1.00  0.00     0.024 C 
ATOM      9  C   UNL A   1      33.656  23.053  23.374  1.00  0.00     0.011 C 
BRANCH   8  10
ATOM     10  C   UNL A   1      32.976  21.459  25.169  1.00  0.00     0.163 C 
BRANCH  10  11
ATOM     11  O   UNL A   1      33.666  20.619  24.239  1.00  0.00    -0.384 OA
ATOM     12  C   UNL A   1      33.636  19.245  24.621  1.00  0.00     0.194 C 
ENDBRANCH  10  11
ENDBRANCH   8  10
ENDBRANCH   7   8
BRANCH   7  13
ATOM     13  C   UNL A   1      34.520  25.114  25.273  1.00  0.00     0.017 C 
BRANCH  13  14
ATOM     14  C   UNL A   1      33.807  26.476  25.416  1.00  0.00    -0.017 C 
ATOM     15  C   UNL A   1      33.487  27.155  24.086  1.00  0.00     0.007 C 
ATOM     16  C   UNL A   1      32.502  26.259  26.197  1.00  0.00     0.007 C 
ENDBRANCH  13  14
ENDBRANCH   7  13
ENDBRANCH   4   7
ENDBRANCH   2   3
ENDBRANCH   1   2
BRANCH   1  17
ATOM     17  C   UNL A   1      37.584  20.467  24.933  1.00  0.00     0.023 C 
BRANCH  17  18
ATOM     18  C   UNL A   1      38.840  20.763  25.750  1.00  0.00     0.116 C 
BRANCH  18  19
ATOM     19  N   UNL A   1      39.856  19.722  25.666  1.00  0.00    -0.352 N 
ATOM     20  C   UNL A   1      41.186  19.770  26.007  1.00  0.00     0.251 C 
ATOM     21  H   UNL A   1      39.544  18.857  25.314  1.00  0.00     0.163 HD
ATOM     22  O   UNL A   1      41.914  18.804  25.793  1.00  0.00    -0.269 OA
BRANCH  20  23
ATOM     23  C   UNL A   1      41.751  21.005  26.585  1.00  0.00     0.039 A 
ATOM     24  C   UNL A   1      42.240  21.984  25.718  1.00  0.00     0.014 A 
ATOM     25  C   UNL A   1      41.753  21.220  27.965  1.00  0.00     0.014 A 
ATOM     26  C   UNL A   1      42.646  23.217  26.230  1.00  0.00     0.010 A 
ATOM     27  C   UNL A   1      42.081  22.477  28.466  1.00  0.00     0.010 A 
ATOM     28  C   UNL A   1      42.519  23.492  27.602  1.00  0.00    -0.014 A 
BRANCH  28  29
ATOM     29  C   UNL A   1      42.809  24.848  28.132  1.00  0.00     0.031 A 
ATOM     30  C   UNL A   1      44.208  25.235  28.523  1.00  0.00     0.074 A 
ATOM     31  C   UNL A   1      41.796  25.720  28.304  1.00  0.00     0.049 A 
ATOM     32  N   UNL A   1      44.642  26.372  29.006  1.00  0.00    -0.248 NA
ATOM     33  C   UNL A   1      45.253  24.209  28.373  1.00  0.00     0.031 C 
ATOM     34  C   UNL A   1      40.383  25.449  28.019  1.00  0.00     0.029 A 
ATOM     35  N   UNL A   1      41.797  27.015  28.758  1.00  0.00    -0.354 N 
ATOM     36  C   UNL A   1      46.003  26.196  29.220  1.00  0.00     0.074 A 
ATOM     37  C   UNL A   1      46.314  24.827  28.870  1.00  0.00     0.031 C 
ATOM     38  C   UNL A   1      39.662  26.553  28.270  1.00  0.00     0.029 A 
ATOM     39  C   UNL A   1      40.552  27.597  28.767  1.00  0.00     0.049 A 
ATOM     40  H   UNL A   1      42.612  27.483  29.051  1.00  0.00     0.167 HD
ATOM     41  C   UNL A   1      46.919  27.100  29.645  1.00  0.00     0.031 A 
ATOM     42  C   UNL A   1      40.168  28.835  29.132  1.00  0.00     0.031 A 
ATOM     43  C   UNL A   1      46.615  28.462  29.990  1.00  0.00     0.049 A 
ATOM     44  C   UNL A   1      41.206  29.815  29.603  1.00  0.00     0.074 A 
ATOM     45  C   UNL A   1      47.484  29.464  30.389  1.00  0.00     0.029 A 
ATOM     46  N   UNL A   1      45.345  29.015  29.976  1.00  0.00    -0.354 N 
ATOM     47  N   UNL A   1      42.501  29.652  29.728  1.00  0.00    -0.248 NA
ATOM     48  C   UNL A   1      40.729  31.156  29.969  1.00  0.00     0.031 C 
ATOM     49  C   UNL A   1      46.732  30.612  30.661  1.00  0.00     0.029 A 
ATOM     50  C   UNL A   1      45.404  30.339  30.379  1.00  0.00     0.049 A 
ATOM     51  H   UNL A   1      44.523  28.538  29.720  1.00  0.00     0.167 HD
ATOM     52  C   UNL A   1      42.994  30.874  30.164  1.00  0.00     0.074 A 
ATOM     53  C   UNL A   1      41.864  31.776  30.254  1.00  0.00     0.031 C 
ATOM     54  C   UNL A   1      44.269  31.220  30.468  1.00  0.00     0.031 A 
BRANCH  41  55
ATOM     55  C   UNL A   1      48.347  26.640  29.749  1.00  0.00    -0.014 A 
ATOM     56  C   UNL A   1      49.247  26.830  28.688  1.00  0.00     0.009 A 
ATOM     57  C   UNL A   1      48.814  26.061  30.939  1.00  0.00     0.009 A 
ATOM     58  C   UNL A   1      50.576  26.423  28.805  1.00  0.00     0.001 A 
ATOM     59  C   UNL A   1      50.152  25.680  31.064  1.00  0.00     0.001 A 
ATOM     60  C   UNL A   1      51.029  25.855  29.995  1.00  0.00     0.000 A 
ENDBRANCH  41  55
BRANCH  42  61
ATOM     61  C   UNL A   1      38.736  29.232  29.057  1.00  0.00    -0.014 A 
ATOM     62  C   UNL A   1      37.902  29.109  30.179  1.00  0.00     0.009 A 
ATOM     63  C   UNL A   1      38.190  29.704  27.854  1.00  0.00     0.009 A 
ATOM     64  C   UNL A   1      36.541  29.414  30.087  1.00  0.00     0.001 A 
ATOM     65  C   UNL A   1      36.837  30.037  27.773  1.00  0.00     0.001 A 
ATOM     66  C   UNL A   1      36.011  29.880  28.885  1.00  0.00     0.000 A 
ENDBRANCH  42  61
BRANCH  54  67
ATOM     67  C   UNL A   1      44.505  32.641  30.899  1.00  0.00    -0.014 A 
ATOM     68  C   UNL A   1      44.780  33.649  29.962  1.00  0.00     0.009 A 
ATOM     69  C   UNL A   1      44.439  32.976  32.260  1.00  0.00     0.009 A 
ATOM     70  C   UNL A   1      45.029  34.956  30.385  1.00  0.00     0.001 A 
ATOM     71  C   UNL A   1      44.656  34.289  32.677  1.00  0.00     0.001 A 
ATOM     72  C   UNL A   1      44.963  35.275  31.741  1.00  0.00     0.000 A 
ENDBRANCH  54  67
ENDBRANCH  28  29
ENDBRANCH  20  23
ENDBRANCH  18  19
ENDBRANCH  17  18
ENDBRANCH   1  17
TORSDOF 16
ENDMDL
