MODEL 1
REMARK VINA RESULT:     -13.5      0.000      0.000
REMARK SMILES O=C(Cn1nc(C(=O)NCCCCNC(=O)c2ccc(-c3c4nc(c(-c5ccccc5)c5ccc([nH]5)c(-c5ccccc5)c5nc(c(-c6ccccc6)c6ccc3[nH]6)C=C5)C=C4)cc2)c2ccccc2c1=O)Nc1ccc2c(c1)C(=O)c1ccccc1C2=O
REMARK SMILES IDX 11 1 10 2 9 3 7 4 8 5 6 7 4 8 5 9 71 10 70 11 72 12 65 13
REMARK SMILES IDX 69 14 66 15 68 16 67 17 3 18 2 19 1 20 73 21 74 23 75 24
REMARK SMILES IDX 79 25 76 26 78 27 77 28 80 29 88 30 81 31 82 32 87 33 89 34
REMARK SMILES IDX 83 35 86 36 84 37 85 38 12 39 13 40 14 41 15 42 16 44 17 45
REMARK SMILES IDX 18 46 64 47 19 48 63 49 20 50 21 51 22 52 57 53 23 54 62 55
REMARK SMILES IDX 56 56 58 57 24 58 61 59 55 60 54 61 25 63 47 64 32 65 46 66
REMARK SMILES IDX 33 67 36 68 45 69 59 70 34 71 35 72 44 74 60 75 37 76 26 77
REMARK SMILES IDX 27 78 31 79 28 80 30 81 29 82 48 83 49 84 53 85 50 86 52 87
REMARK SMILES IDX 51 88 38 89 39 90 43 91 40 92 42 93 41 94
REMARK H PARENT 9 6 73 22 14 43 58 62 36 73
REMARK Flexibility Score: inf
ROOT
ATOM      1  C   UNL A   1      45.382  23.417  36.024  1.00  0.00     0.023 C 
ENDROOT
BRANCH   1   2
ATOM      2  C   UNL A   1      45.708  22.177  36.851  1.00  0.00     0.116 C 
BRANCH   2   3
ATOM      3  N   UNL A   1      45.565  20.938  36.111  1.00  0.00    -0.351 N 
ATOM      4  C   UNL A   1      46.024  19.668  36.381  1.00  0.00     0.272 C 
ATOM      5  O   UNL A   1      45.567  18.744  35.720  1.00  0.00    -0.267 OA
ATOM      6  H   UNL A   1      45.053  21.017  35.273  1.00  0.00     0.163 HD
BRANCH   4   7
ATOM      7  C   UNL A   1      47.087  19.409  37.468  1.00  0.00     0.156 A 
ATOM      8  N   UNL A   1      47.542  18.618  39.609  1.00  0.00    -0.219 N 
ATOM      9  N   UNL A   1      46.687  18.821  38.559  1.00  0.00    -0.163 NA
ATOM     10  C   UNL A   1      48.853  19.085  39.601  1.00  0.00     0.275 A 
ATOM     11  C   UNL A   1      49.379  19.583  38.320  1.00  0.00     0.051 A 
ATOM     12  O   UNL A   1      49.601  18.976  40.567  1.00  0.00    -0.267 OA
ATOM     13  C   UNL A   1      48.510  19.798  37.255  1.00  0.00     0.020 A 
ATOM     14  C   UNL A   1      50.762  19.800  38.183  1.00  0.00     0.014 A 
ATOM     15  C   UNL A   1      49.040  20.308  36.060  1.00  0.00     0.011 A 
ATOM     16  C   UNL A   1      51.278  20.273  36.980  1.00  0.00     0.001 A 
ATOM     17  C   UNL A   1      50.415  20.543  35.926  1.00  0.00     0.001 A 
BRANCH   8  18
ATOM     18  C   UNL A   1      46.934  18.052  40.846  1.00  0.00     0.248 C 
BRANCH  18  19
ATOM     19  C   UNL A   1      45.383  17.970  40.902  1.00  0.00     0.246 C 
ATOM     20  O   UNL A   1      44.683  18.891  41.310  1.00  0.00    -0.273 OA
ATOM     21  N   UNL A   1      44.937  16.703  40.656  1.00  0.00    -0.324 N 
ATOM     22  H   UNL A   1      45.640  16.096  40.328  1.00  0.00     0.169 HD
BRANCH  21  23
ATOM     23  C   UNL A   1      43.695  16.098  40.773  1.00  0.00     0.042 A 
ATOM     24  C   UNL A   1      42.972  15.527  39.730  1.00  0.00     0.027 A 
ATOM     25  C   UNL A   1      43.361  15.848  42.102  1.00  0.00     0.039 A 
ATOM     26  C   UNL A   1      42.055  14.506  40.039  1.00  0.00     0.015 A 
ATOM     27  C   UNL A   1      42.485  14.829  42.399  1.00  0.00     0.036 A 
ATOM     28  C   UNL A   1      41.901  14.095  41.374  1.00  0.00     0.034 A 
ATOM     29  C   UNL A   1      42.514  14.326  43.776  1.00  0.00     0.194 C 
ATOM     30  C   UNL A   1      41.410  12.738  41.706  1.00  0.00     0.194 C 
ATOM     31  O   UNL A   1      42.639  15.071  44.740  1.00  0.00    -0.289 OA
ATOM     32  C   UNL A   1      42.598  12.870  43.896  1.00  0.00     0.034 A 
ATOM     33  C   UNL A   1      42.060  12.082  42.876  1.00  0.00     0.034 A 
ATOM     34  O   UNL A   1      40.627  12.140  40.983  1.00  0.00    -0.289 OA
ATOM     35  C   UNL A   1      43.370  12.316  44.918  1.00  0.00     0.013 A 
ATOM     36  C   UNL A   1      42.285  10.707  42.887  1.00  0.00     0.013 A 
ATOM     37  C   UNL A   1      43.626  10.950  44.902  1.00  0.00     0.001 A 
ATOM     38  C   UNL A   1      43.083  10.148  43.892  1.00  0.00     0.001 A 
ENDBRANCH  21  23
ENDBRANCH  18  19
ENDBRANCH   8  18
ENDBRANCH   4   7
ENDBRANCH   2   3
ENDBRANCH   1   2
BRANCH   1  39
ATOM     39  C   UNL A   1      45.885  23.385  34.577  1.00  0.00     0.023 C 
BRANCH  39  40
ATOM     40  C   UNL A   1      46.491  24.683  34.046  1.00  0.00     0.116 C 
BRANCH  40  41
ATOM     41  N   UNL A   1      47.324  25.391  35.008  1.00  0.00    -0.352 N 
ATOM     42  C   UNL A   1      47.118  26.626  35.576  1.00  0.00     0.251 C 
ATOM     43  H   UNL A   1      48.144  24.924  35.288  1.00  0.00     0.163 HD
ATOM     44  O   UNL A   1      47.941  27.099  36.352  1.00  0.00    -0.269 OA
BRANCH  42  45
ATOM     45  C   UNL A   1      45.927  27.413  35.191  1.00  0.00     0.039 A 
ATOM     46  C   UNL A   1      44.648  27.030  35.599  1.00  0.00     0.014 A 
ATOM     47  C   UNL A   1      46.101  28.520  34.356  1.00  0.00     0.014 A 
ATOM     48  C   UNL A   1      43.535  27.654  35.043  1.00  0.00     0.010 A 
ATOM     49  C   UNL A   1      44.984  29.182  33.841  1.00  0.00     0.010 A 
ATOM     50  C   UNL A   1      43.695  28.716  34.137  1.00  0.00    -0.014 A 
BRANCH  50  51
ATOM     51  C   UNL A   1      42.503  29.284  33.465  1.00  0.00     0.031 A 
ATOM     52  C   UNL A   1      41.795  30.474  34.055  1.00  0.00     0.074 A 
ATOM     53  C   UNL A   1      42.102  28.782  32.283  1.00  0.00     0.049 A 
ATOM     54  N   UNL A   1      40.773  31.143  33.580  1.00  0.00    -0.248 NA
ATOM     55  C   UNL A   1      42.299  30.984  35.340  1.00  0.00     0.031 C 
ATOM     56  C   UNL A   1      42.722  27.650  31.594  1.00  0.00     0.029 A 
ATOM     57  N   UNL A   1      41.099  29.183  31.438  1.00  0.00    -0.354 N 
ATOM     58  C   UNL A   1      40.504  32.136  34.512  1.00  0.00     0.074 A 
ATOM     59  C   UNL A   1      41.456  31.977  35.589  1.00  0.00     0.031 C 
ATOM     60  C   UNL A   1      42.124  27.484  30.403  1.00  0.00     0.029 A 
ATOM     61  C   UNL A   1      41.055  28.470  30.267  1.00  0.00     0.049 A 
ATOM     62  H   UNL A   1      40.472  29.912  31.651  1.00  0.00     0.167 HD
ATOM     63  C   UNL A   1      39.553  33.099  34.474  1.00  0.00     0.031 A 
ATOM     64  C   UNL A   1      40.249  28.597  29.197  1.00  0.00     0.031 A 
ATOM     65  C   UNL A   1      38.613  33.275  33.401  1.00  0.00     0.049 A 
ATOM     66  C   UNL A   1      39.181  29.651  29.194  1.00  0.00     0.074 A 
ATOM     67  C   UNL A   1      37.617  34.229  33.277  1.00  0.00     0.029 A 
ATOM     68  N   UNL A   1      38.554  32.482  32.268  1.00  0.00    -0.354 N 
ATOM     69  N   UNL A   1      38.930  30.569  30.093  1.00  0.00    -0.248 NA
ATOM     70  C   UNL A   1      38.279  29.676  28.033  1.00  0.00     0.031 C 
ATOM     71  C   UNL A   1      36.939  33.997  32.076  1.00  0.00     0.029 A 
ATOM     72  C   UNL A   1      37.532  32.917  31.444  1.00  0.00     0.049 A 
ATOM     73  H   UNL A   1      39.151  31.723  32.077  1.00  0.00     0.167 HD
ATOM     74  C   UNL A   1      37.840  31.281  29.610  1.00  0.00     0.074 A 
ATOM     75  C   UNL A   1      37.490  30.700  28.330  1.00  0.00     0.031 C 
ATOM     76  C   UNL A   1      37.187  32.320  30.182  1.00  0.00     0.031 A 
BRANCH  63  77
ATOM     77  C   UNL A   1      39.473  34.039  35.639  1.00  0.00    -0.014 A 
ATOM     78  C   UNL A   1      40.152  35.266  35.593  1.00  0.00     0.009 A 
ATOM     79  C   UNL A   1      38.772  33.686  36.802  1.00  0.00     0.009 A 
ATOM     80  C   UNL A   1      40.132  36.125  36.693  1.00  0.00     0.001 A 
ATOM     81  C   UNL A   1      38.742  34.555  37.895  1.00  0.00     0.001 A 
ATOM     82  C   UNL A   1      39.424  35.771  37.841  1.00  0.00     0.000 A 
ENDBRANCH  63  77
BRANCH  64  83
ATOM     83  C   UNL A   1      40.435  27.697  28.034  1.00  0.00    -0.014 A 
ATOM     84  C   UNL A   1      39.834  26.431  28.009  1.00  0.00     0.009 A 
ATOM     85  C   UNL A   1      41.250  28.091  26.963  1.00  0.00     0.009 A 
ATOM     86  C   UNL A   1      40.056  25.567  26.936  1.00  0.00     0.001 A 
ATOM     87  C   UNL A   1      41.459  27.230  25.884  1.00  0.00     0.001 A 
ATOM     88  C   UNL A   1      40.867  25.967  25.873  1.00  0.00     0.000 A 
ENDBRANCH  64  83
BRANCH  76  89
ATOM     89  C   UNL A   1      36.022  32.893  29.435  1.00  0.00    -0.014 A 
ATOM     90  C   UNL A   1      36.154  34.113  28.755  1.00  0.00     0.009 A 
ATOM     91  C   UNL A   1      34.773  32.253  29.463  1.00  0.00     0.009 A 
ATOM     92  C   UNL A   1      35.054  34.683  28.114  1.00  0.00     0.001 A 
ATOM     93  C   UNL A   1      33.679  32.821  28.809  1.00  0.00     0.001 A 
ATOM     94  C   UNL A   1      33.819  34.036  28.139  1.00  0.00     0.000 A 
ENDBRANCH  76  89
ENDBRANCH  50  51
ENDBRANCH  42  45
ENDBRANCH  40  41
ENDBRANCH  39  40
ENDBRANCH   1  39
TORSDOF 14
ENDMDL
MODEL 2
REMARK VINA RESULT:     -13.3      1.245      5.530
REMARK SMILES O=C(Cn1nc(C(=O)NCCCCNC(=O)c2ccc(-c3c4nc(c(-c5ccccc5)c5ccc([nH]5)c(-c5ccccc5)c5nc(c(-c6ccccc6)c6ccc3[nH]6)C=C5)C=C4)cc2)c2ccccc2c1=O)Nc1ccc2c(c1)C(=O)c1ccccc1C2=O
REMARK SMILES IDX 11 1 10 2 9 3 7 4 8 5 6 7 4 8 5 9 71 10 70 11 72 12 65 13
REMARK SMILES IDX 69 14 66 15 68 16 67 17 3 18 2 19 1 20 73 21 74 23 75 24
REMARK SMILES IDX 79 25 76 26 78 27 77 28 80 29 88 30 81 31 82 32 87 33 89 34
REMARK SMILES IDX 83 35 86 36 84 37 85 38 12 39 13 40 14 41 15 42 16 44 17 45
REMARK SMILES IDX 18 46 64 47 19 48 63 49 20 50 21 51 22 52 57 53 23 54 62 55
REMARK SMILES IDX 56 56 58 57 24 58 61 59 55 60 54 61 25 63 47 64 32 65 46 66
REMARK SMILES IDX 33 67 36 68 45 69 59 70 34 71 35 72 44 74 60 75 37 76 26 77
REMARK SMILES IDX 27 78 31 79 28 80 30 81 29 82 48 83 49 84 53 85 50 86 52 87
REMARK SMILES IDX 51 88 38 89 39 90 43 91 40 92 42 93 41 94
REMARK H PARENT 9 6 73 22 14 43 58 62 36 73
REMARK Flexibility Score: inf
ROOT
ATOM      1  C   UNL A   1      46.769  24.081  39.360  1.00  0.00     0.023 C 
ENDROOT
BRANCH   1   2
ATOM      2  C   UNL A   1      45.685  23.022  39.186  1.00  0.00     0.116 C 
BRANCH   2   3
ATOM      3  N   UNL A   1      45.588  22.515  37.830  1.00  0.00    -0.351 N 
ATOM      4  C   UNL A   1      46.004  21.322  37.282  1.00  0.00     0.272 C 
ATOM      5  O   UNL A   1      45.591  21.034  36.164  1.00  0.00    -0.267 OA
ATOM      6  H   UNL A   1      45.152  23.127  37.193  1.00  0.00     0.163 HD
BRANCH   4   7
ATOM      7  C   UNL A   1      46.965  20.380  38.034  1.00  0.00     0.156 A 
ATOM      8  N   UNL A   1      47.257  18.879  39.789  1.00  0.00    -0.219 N 
ATOM      9  N   UNL A   1      46.464  19.684  39.015  1.00  0.00    -0.163 NA
ATOM     10  C   UNL A   1      48.636  18.811  39.620  1.00  0.00     0.275 A 
ATOM     11  C   UNL A   1      49.196  19.438  38.412  1.00  0.00     0.051 A 
ATOM     12  O   UNL A   1      49.362  18.152  40.357  1.00  0.00    -0.267 OA
ATOM     13  C   UNL A   1      48.394  20.263  37.630  1.00  0.00     0.020 A 
ATOM     14  C   UNL A   1      50.527  19.161  38.048  1.00  0.00     0.014 A 
ATOM     15  C   UNL A   1      48.970  20.874  36.506  1.00  0.00     0.011 A 
ATOM     16  C   UNL A   1      51.074  19.747  36.910  1.00  0.00     0.001 A 
ATOM     17  C   UNL A   1      50.301  20.615  36.150  1.00  0.00     0.001 A 
BRANCH   8  18
ATOM     18  C   UNL A   1      46.591  18.235  40.956  1.00  0.00     0.248 C 
BRANCH  18  19
ATOM     19  C   UNL A   1      45.630  17.049  40.661  1.00  0.00     0.246 C 
ATOM     20  O   UNL A   1      45.746  16.330  39.674  1.00  0.00    -0.273 OA
ATOM     21  N   UNL A   1      44.550  17.057  41.495  1.00  0.00    -0.324 N 
ATOM     22  H   UNL A   1      44.633  17.698  42.239  1.00  0.00     0.169 HD
BRANCH  21  23
ATOM     23  C   UNL A   1      43.360  16.346  41.509  1.00  0.00     0.042 A 
ATOM     24  C   UNL A   1      42.689  15.869  40.387  1.00  0.00     0.027 A 
ATOM     25  C   UNL A   1      43.041  15.890  42.786  1.00  0.00     0.039 A 
ATOM     26  C   UNL A   1      41.855  14.746  40.539  1.00  0.00     0.015 A 
ATOM     27  C   UNL A   1      42.248  14.774  42.928  1.00  0.00     0.036 A 
ATOM     28  C   UNL A   1      41.729  14.145  41.803  1.00  0.00     0.034 A 
ATOM     29  C   UNL A   1      42.312  14.090  44.223  1.00  0.00     0.194 C 
ATOM     30  C   UNL A   1      41.346  12.720  41.938  1.00  0.00     0.194 C 
ATOM     31  O   UNL A   1      42.372  14.703  45.282  1.00  0.00    -0.289 OA
ATOM     32  C   UNL A   1      42.511  12.643  44.144  1.00  0.00     0.034 A 
ATOM     33  C   UNL A   1      42.042  11.963  43.017  1.00  0.00     0.034 A 
ATOM     34  O   UNL A   1      40.617  12.168  41.129  1.00  0.00    -0.289 OA
ATOM     35  C   UNL A   1      43.320  12.016  45.092  1.00  0.00     0.013 A 
ATOM     36  C   UNL A   1      42.376  10.621  42.843  1.00  0.00     0.013 A 
ATOM     37  C   UNL A   1      43.686  10.689  44.893  1.00  0.00     0.001 A 
ATOM     38  C   UNL A   1      43.212   9.994  43.774  1.00  0.00     0.001 A 
ENDBRANCH  21  23
ENDBRANCH  18  19
ENDBRANCH   8  18
ENDBRANCH   4   7
ENDBRANCH   2   3
ENDBRANCH   1   2
BRANCH   1  39
ATOM     39  C   UNL A   1      46.333  25.517  39.046  1.00  0.00     0.023 C 
BRANCH  39  40
ATOM     40  C   UNL A   1      47.044  26.196  37.877  1.00  0.00     0.116 C 
BRANCH  40  41
ATOM     41  N   UNL A   1      47.406  25.295  36.793  1.00  0.00    -0.352 N 
ATOM     42  C   UNL A   1      46.876  25.221  35.525  1.00  0.00     0.251 C 
ATOM     43  H   UNL A   1      48.125  24.653  36.993  1.00  0.00     0.163 HD
ATOM     44  O   UNL A   1      47.275  24.374  34.733  1.00  0.00    -0.269 OA
BRANCH  42  45
ATOM     45  C   UNL A   1      45.772  26.127  35.146  1.00  0.00     0.039 A 
ATOM     46  C   UNL A   1      44.439  25.735  35.286  1.00  0.00     0.014 A 
ATOM     47  C   UNL A   1      46.090  27.367  34.586  1.00  0.00     0.014 A 
ATOM     48  C   UNL A   1      43.433  26.513  34.719  1.00  0.00     0.010 A 
ATOM     49  C   UNL A   1      45.074  28.173  34.066  1.00  0.00     0.010 A 
ATOM     50  C   UNL A   1      43.746  27.723  34.079  1.00  0.00    -0.014 A 
BRANCH  50  51
ATOM     51  C   UNL A   1      42.678  28.473  33.377  1.00  0.00     0.031 A 
ATOM     52  C   UNL A   1      42.356  28.167  31.939  1.00  0.00     0.074 A 
ATOM     53  C   UNL A   1      41.943  29.375  34.053  1.00  0.00     0.049 A 
ATOM     54  N   UNL A   1      41.418  28.677  31.179  1.00  0.00    -0.248 NA
ATOM     55  C   UNL A   1      43.188  27.156  31.267  1.00  0.00     0.031 C 
ATOM     56  C   UNL A   1      42.137  29.739  35.457  1.00  0.00     0.029 A 
ATOM     57  N   UNL A   1      40.863  30.121  33.657  1.00  0.00    -0.354 N 
ATOM     58  C   UNL A   1      41.559  28.064  29.941  1.00  0.00     0.074 A 
ATOM     59  C   UNL A   1      42.679  27.155  30.042  1.00  0.00     0.031 C 
ATOM     60  C   UNL A   1      41.170  30.596  35.822  1.00  0.00     0.029 A 
ATOM     61  C   UNL A   1      40.317  30.871  34.669  1.00  0.00     0.049 A 
ATOM     62  H   UNL A   1      40.513  30.120  32.736  1.00  0.00     0.167 HD
ATOM     63  C   UNL A   1      40.818  28.236  28.821  1.00  0.00     0.031 A 
ATOM     64  C   UNL A   1      39.246  31.684  34.672  1.00  0.00     0.031 A 
ATOM     65  C   UNL A   1      39.694  29.125  28.715  1.00  0.00     0.049 A 
ATOM     66  C   UNL A   1      38.462  31.884  33.409  1.00  0.00     0.074 A 
ATOM     67  C   UNL A   1      38.881  29.359  27.619  1.00  0.00     0.029 A 
ATOM     68  N   UNL A   1      39.222  29.922  29.743  1.00  0.00    -0.354 N 
ATOM     69  N   UNL A   1      38.621  31.309  32.243  1.00  0.00    -0.248 NA
ATOM     70  C   UNL A   1      37.359  32.854  33.461  1.00  0.00     0.031 C 
ATOM     71  C   UNL A   1      37.930  30.319  27.978  1.00  0.00     0.029 A 
ATOM     72  C   UNL A   1      38.136  30.659  29.305  1.00  0.00     0.049 A 
ATOM     73  H   UNL A   1      39.601  29.959  30.651  1.00  0.00     0.167 HD
ATOM     74  C   UNL A   1      37.642  31.848  31.421  1.00  0.00     0.074 A 
ATOM     75  C   UNL A   1      36.881  32.782  32.225  1.00  0.00     0.031 C 
ATOM     76  C   UNL A   1      37.400  31.594  30.112  1.00  0.00     0.031 A 
BRANCH  63  77
ATOM     77  C   UNL A   1      41.209  27.451  27.605  1.00  0.00    -0.014 A 
ATOM     78  C   UNL A   1      42.087  28.012  26.665  1.00  0.00     0.009 A 
ATOM     79  C   UNL A   1      40.666  26.180  27.362  1.00  0.00     0.009 A 
ATOM     80  C   UNL A   1      42.415  27.315  25.502  1.00  0.00     0.001 A 
ATOM     81  C   UNL A   1      41.008  25.479  26.204  1.00  0.00     0.001 A 
ATOM     82  C   UNL A   1      41.879  26.048  25.274  1.00  0.00     0.000 A 
ENDBRANCH  63  77
BRANCH  64  83
ATOM     83  C   UNL A   1      38.853  32.364  35.929  1.00  0.00    -0.014 A 
ATOM     84  C   UNL A   1      38.004  31.730  36.847  1.00  0.00     0.009 A 
ATOM     85  C   UNL A   1      39.296  33.669  36.192  1.00  0.00     0.009 A 
ATOM     86  C   UNL A   1      37.593  32.396  38.003  1.00  0.00     0.001 A 
ATOM     87  C   UNL A   1      38.896  34.326  37.357  1.00  0.00     0.001 A 
ATOM     88  C   UNL A   1      38.041  33.692  38.258  1.00  0.00     0.000 A 
ENDBRANCH  64  83
BRANCH  76  89
ATOM     89  C   UNL A   1      36.274  32.339  29.465  1.00  0.00    -0.014 A 
ATOM     90  C   UNL A   1      35.085  31.670  29.137  1.00  0.00     0.009 A 
ATOM     91  C   UNL A   1      36.419  33.691  29.119  1.00  0.00     0.009 A 
ATOM     92  C   UNL A   1      34.059  32.344  28.474  1.00  0.00     0.001 A 
ATOM     93  C   UNL A   1      35.386  34.365  28.468  1.00  0.00     0.001 A 
ATOM     94  C   UNL A   1      34.209  33.690  28.142  1.00  0.00     0.000 A 
ENDBRANCH  76  89
ENDBRANCH  50  51
ENDBRANCH  42  45
ENDBRANCH  40  41
ENDBRANCH  39  40
ENDBRANCH   1  39
TORSDOF 14
ENDMDL
MODEL 3
REMARK VINA RESULT:     -13.1     10.955     16.869
REMARK SMILES O=C(Cn1nc(C(=O)NCCCCNC(=O)c2ccc(-c3c4nc(c(-c5ccccc5)c5ccc([nH]5)c(-c5ccccc5)c5nc(c(-c6ccccc6)c6ccc3[nH]6)C=C5)C=C4)cc2)c2ccccc2c1=O)Nc1ccc2c(c1)C(=O)c1ccccc1C2=O
REMARK SMILES IDX 11 1 10 2 9 3 7 4 8 5 6 7 4 8 5 9 71 10 70 11 72 12 65 13
REMARK SMILES IDX 69 14 66 15 68 16 67 17 3 18 2 19 1 20 73 21 74 23 75 24
REMARK SMILES IDX 79 25 76 26 78 27 77 28 80 29 88 30 81 31 82 32 87 33 89 34
REMARK SMILES IDX 83 35 86 36 84 37 85 38 12 39 13 40 14 41 15 42 16 44 17 45
REMARK SMILES IDX 18 46 64 47 19 48 63 49 20 50 21 51 22 52 57 53 23 54 62 55
REMARK SMILES IDX 56 56 58 57 24 58 61 59 55 60 54 61 25 63 47 64 32 65 46 66
REMARK SMILES IDX 33 67 36 68 45 69 59 70 34 71 35 72 44 74 60 75 37 76 26 77
REMARK SMILES IDX 27 78 31 79 28 80 30 81 29 82 48 83 49 84 53 85 50 86 52 87
REMARK SMILES IDX 51 88 38 89 39 90 43 91 40 92 42 93 41 94
REMARK H PARENT 9 6 73 22 14 43 58 62 36 73
REMARK Flexibility Score: inf
ROOT
ATOM      1  C   UNL A   1      40.230  27.691  28.388  1.00  0.00     0.023 C 
ENDROOT
BRANCH   1   2
ATOM      2  C   UNL A   1      38.884  28.399  28.498  1.00  0.00     0.116 C 
BRANCH   2   3
ATOM      3  N   UNL A   1      38.360  28.434  29.850  1.00  0.00    -0.351 N 
ATOM      4  C   UNL A   1      37.417  29.253  30.431  1.00  0.00     0.272 C 
ATOM      5  O   UNL A   1      36.975  28.925  31.526  1.00  0.00    -0.267 OA
ATOM      6  H   UNL A   1      38.744  27.760  30.456  1.00  0.00     0.163 HD
BRANCH   4   7
ATOM      7  C   UNL A   1      36.936  30.546  29.742  1.00  0.00     0.156 A 
ATOM      8  N   UNL A   1      35.242  31.617  28.559  1.00  0.00    -0.219 N 
ATOM      9  N   UNL A   1      35.728  30.542  29.254  1.00  0.00    -0.163 NA
ATOM     10  C   UNL A   1      36.023  32.733  28.274  1.00  0.00     0.275 A 
ATOM     11  C   UNL A   1      37.317  32.840  28.966  1.00  0.00     0.051 A 
ATOM     12  O   UNL A   1      35.620  33.665  27.587  1.00  0.00    -0.267 OA
ATOM     13  C   UNL A   1      37.816  31.746  29.666  1.00  0.00     0.020 A 
ATOM     14  C   UNL A   1      38.013  34.062  28.938  1.00  0.00     0.014 A 
ATOM     15  C   UNL A   1      39.070  31.870  30.283  1.00  0.00     0.011 A 
ATOM     16  C   UNL A   1      39.239  34.181  29.584  1.00  0.00     0.001 A 
ATOM     17  C   UNL A   1      39.775  33.081  30.242  1.00  0.00     0.001 A 
BRANCH   8  18
ATOM     18  C   UNL A   1      33.896  31.441  27.943  1.00  0.00     0.248 C 
BRANCH  18  19
ATOM     19  C   UNL A   1      33.677  30.179  27.063  1.00  0.00     0.246 C 
ATOM     20  O   UNL A   1      34.600  29.573  26.529  1.00  0.00    -0.273 OA
ATOM     21  N   UNL A   1      32.354  29.978  26.792  1.00  0.00    -0.324 N 
ATOM     22  H   UNL A   1      31.754  30.552  27.321  1.00  0.00     0.169 HD
BRANCH  21  23
ATOM     23  C   UNL A   1      31.684  29.128  25.926  1.00  0.00     0.042 A 
ATOM     24  C   UNL A   1      31.340  29.420  24.610  1.00  0.00     0.027 A 
ATOM     25  C   UNL A   1      31.644  27.821  26.406  1.00  0.00     0.039 A 
ATOM     26  C   UNL A   1      31.186  28.350  23.710  1.00  0.00     0.015 A 
ATOM     27  C   UNL A   1      31.521  26.776  25.518  1.00  0.00     0.036 A 
ATOM     28  C   UNL A   1      31.385  27.034  24.160  1.00  0.00     0.034 A 
ATOM     29  C   UNL A   1      31.926  25.455  26.007  1.00  0.00     0.194 C 
ATOM     30  C   UNL A   1      31.772  25.954  23.223  1.00  0.00     0.194 C 
ATOM     31  O   UNL A   1      31.674  25.075  27.145  1.00  0.00    -0.289 OA
ATOM     32  C   UNL A   1      32.826  24.721  25.118  1.00  0.00     0.034 A 
ATOM     33  C   UNL A   1      32.759  24.967  23.745  1.00  0.00     0.034 A 
ATOM     34  O   UNL A   1      31.417  25.956  22.054  1.00  0.00    -0.289 OA
ATOM     35  C   UNL A   1      33.845  23.945  25.673  1.00  0.00     0.013 A 
ATOM     36  C   UNL A   1      33.723  24.411  22.905  1.00  0.00     0.013 A 
ATOM     37  C   UNL A   1      34.828  23.428  24.836  1.00  0.00     0.001 A 
ATOM     38  C   UNL A   1      34.765  23.657  23.458  1.00  0.00     0.001 A 
ENDBRANCH  21  23
ENDBRANCH  18  19
ENDBRANCH   8  18
ENDBRANCH   4   7
ENDBRANCH   2   3
ENDBRANCH   1   2
BRANCH   1  39
ATOM     39  C   UNL A   1      40.153  26.178  28.155  1.00  0.00     0.023 C 
BRANCH  39  40
ATOM     40  C   UNL A   1      40.105  25.723  26.698  1.00  0.00     0.116 C 
BRANCH  40  41
ATOM     41  N   UNL A   1      40.439  24.321  26.498  1.00  0.00    -0.352 N 
ATOM     42  C   UNL A   1      41.682  23.747  26.362  1.00  0.00     0.251 C 
ATOM     43  H   UNL A   1      39.676  23.702  26.453  1.00  0.00     0.163 HD
ATOM     44  O   UNL A   1      41.792  22.541  26.166  1.00  0.00    -0.269 OA
BRANCH  42  45
ATOM     45  C   UNL A   1      42.885  24.605  26.387  1.00  0.00     0.039 A 
ATOM     46  C   UNL A   1      43.549  24.878  27.585  1.00  0.00     0.014 A 
ATOM     47  C   UNL A   1      43.313  25.188  25.191  1.00  0.00     0.014 A 
ATOM     48  C   UNL A   1      44.537  25.859  27.612  1.00  0.00     0.010 A 
ATOM     49  C   UNL A   1      44.342  26.132  25.211  1.00  0.00     0.010 A 
ATOM     50  C   UNL A   1      44.921  26.515  26.430  1.00  0.00    -0.014 A 
BRANCH  50  51
ATOM     51  C   UNL A   1      45.884  27.638  26.501  1.00  0.00     0.031 A 
ATOM     52  C   UNL A   1      47.355  27.390  26.299  1.00  0.00     0.074 A 
ATOM     53  C   UNL A   1      45.432  28.894  26.669  1.00  0.00     0.049 A 
ATOM     54  N   UNL A   1      48.339  28.254  26.267  1.00  0.00    -0.248 NA
ATOM     55  C   UNL A   1      47.777  25.993  26.102  1.00  0.00     0.031 C 
ATOM     56  C   UNL A   1      44.028  29.268  26.847  1.00  0.00     0.029 A 
ATOM     57  N   UNL A   1      46.104  30.089  26.681  1.00  0.00    -0.354 N 
ATOM     58  C   UNL A   1      49.492  27.508  26.065  1.00  0.00     0.074 A 
ATOM     59  C   UNL A   1      49.093  26.120  25.996  1.00  0.00     0.031 C 
ATOM     60  C   UNL A   1      43.937  30.606  26.891  1.00  0.00     0.029 A 
ATOM     61  C   UNL A   1      45.276  31.179  26.787  1.00  0.00     0.049 A 
ATOM     62  H   UNL A   1      47.084  30.158  26.620  1.00  0.00     0.167 HD
ATOM     63  C   UNL A   1      50.769  27.939  25.941  1.00  0.00     0.031 A 
ATOM     64  C   UNL A   1      45.561  32.493  26.793  1.00  0.00     0.031 A 
ATOM     65  C   UNL A   1      51.174  29.317  25.993  1.00  0.00     0.049 A 
ATOM     66  C   UNL A   1      46.988  32.944  26.688  1.00  0.00     0.074 A 
ATOM     67  C   UNL A   1      52.448  29.846  25.871  1.00  0.00     0.029 A 
ATOM     68  N   UNL A   1      50.312  30.384  26.178  1.00  0.00    -0.354 N 
ATOM     69  N   UNL A   1      48.067  32.223  26.516  1.00  0.00    -0.248 NA
ATOM     70  C   UNL A   1      47.235  34.389  26.791  1.00  0.00     0.031 C 
ATOM     71  C   UNL A   1      52.358  31.235  26.007  1.00  0.00     0.029 A 
ATOM     72  C   UNL A   1      51.026  31.568  26.185  1.00  0.00     0.049 A 
ATOM     73  H   UNL A   1      49.336  30.310  26.286  1.00  0.00     0.167 HD
ATOM     74  C   UNL A   1      49.123  33.124  26.492  1.00  0.00     0.074 A 
ATOM     75  C   UNL A   1      48.553  34.446  26.649  1.00  0.00     0.031 C 
ATOM     76  C   UNL A   1      50.447  32.873  26.358  1.00  0.00     0.031 A 
BRANCH  63  77
ATOM     77  C   UNL A   1      51.834  26.901  25.748  1.00  0.00    -0.014 A 
ATOM     78  C   UNL A   1      52.215  26.527  24.450  1.00  0.00     0.009 A 
ATOM     79  C   UNL A   1      52.419  26.255  26.847  1.00  0.00     0.009 A 
ATOM     80  C   UNL A   1      53.165  25.523  24.256  1.00  0.00     0.001 A 
ATOM     81  C   UNL A   1      53.380  25.262  26.649  1.00  0.00     0.001 A 
ATOM     82  C   UNL A   1      53.749  24.894  25.354  1.00  0.00     0.000 A 
ENDBRANCH  63  77
BRANCH  64  83
ATOM     83  C   UNL A   1      44.457  33.477  26.895  1.00  0.00    -0.014 A 
ATOM     84  C   UNL A   1      43.924  34.072  25.744  1.00  0.00     0.009 A 
ATOM     85  C   UNL A   1      43.961  33.851  28.153  1.00  0.00     0.009 A 
ATOM     86  C   UNL A   1      42.922  35.038  25.849  1.00  0.00     0.001 A 
ATOM     87  C   UNL A   1      42.948  34.805  28.254  1.00  0.00     0.001 A 
ATOM     88  C   UNL A   1      42.433  35.402  27.103  1.00  0.00     0.000 A 
ENDBRANCH  64  83
BRANCH  76  89
ATOM     89  C   UNL A   1      51.374  34.050  26.382  1.00  0.00    -0.014 A 
ATOM     90  C   UNL A   1      51.708  34.705  25.187  1.00  0.00     0.009 A 
ATOM     91  C   UNL A   1      51.968  34.465  27.583  1.00  0.00     0.009 A 
ATOM     92  C   UNL A   1      52.622  35.760  25.196  1.00  0.00     0.001 A 
ATOM     93  C   UNL A   1      52.872  35.528  27.590  1.00  0.00     0.001 A 
ATOM     94  C   UNL A   1      53.201  36.171  26.396  1.00  0.00     0.000 A 
ENDBRANCH  76  89
ENDBRANCH  50  51
ENDBRANCH  42  45
ENDBRANCH  40  41
ENDBRANCH  39  40
ENDBRANCH   1  39
TORSDOF 14
ENDMDL
