MODEL 1
REMARK VINA RESULT:     -11.6      0.000      0.000
REMARK SMILES Cc1[nH]c2ccccc2c1/N=N\c1ccccc1C(=O)NCCCCNC(=O)c1ccc(-c2c3nc(c(-c4ccccc4)c4ccc([nH]4)c(-c4ccccc4)c4nc(c(-c5ccccc5)c5ccc2[nH]5)C=C4)C=C3)cc1
REMARK SMILES IDX 23 1 22 2 21 3 19 4 20 5 18 7 13 8 14 9 15 10 17 11 16 12
REMARK SMILES IDX 12 13 11 14 10 15 1 16 2 17 3 18 4 19 9 21 5 22 8 23 6 24
REMARK SMILES IDX 7 25 24 26 25 27 26 28 27 29 28 31 29 32 30 33 76 34 31 35
REMARK SMILES IDX 75 36 32 37 33 38 34 39 69 40 35 41 74 42 68 43 70 44 36 45
REMARK SMILES IDX 73 46 67 47 66 48 37 50 59 51 44 52 58 53 45 54 48 55 57 56
REMARK SMILES IDX 71 57 46 58 47 59 56 61 72 62 49 63 38 64 39 65 43 66 40 67
REMARK SMILES IDX 42 68 41 69 60 70 61 71 65 72 62 73 64 74 63 75 50 76 51 77
REMARK SMILES IDX 55 78 52 79 54 80 53 81
REMARK H PARENT 21 6 3 20 26 30 70 49 48 60
REMARK Flexibility Score: inf
ROOT
ATOM      1  C   UNL A   1      32.509  28.803  24.861  1.00  0.00     0.023 C 
ENDROOT
BRANCH   1   2
ATOM      2  C   UNL A   1      33.807  28.138  24.422  1.00  0.00     0.116 C 
BRANCH   2   3
ATOM      3  N   UNL A   1      33.654  27.225  23.306  1.00  0.00    -0.352 N 
ATOM      4  C   UNL A   1      33.186  25.933  23.305  1.00  0.00     0.253 C 
ATOM      5  O   UNL A   1      33.158  25.305  22.246  1.00  0.00    -0.269 OA
ATOM      6  H   UNL A   1      33.924  27.579  22.427  1.00  0.00     0.163 HD
BRANCH   4   7
ATOM      7  C   UNL A   1      32.798  25.243  24.558  1.00  0.00     0.067 A 
ATOM      8  C   UNL A   1      33.716  24.629  25.429  1.00  0.00     0.098 A 
ATOM      9  C   UNL A   1      33.216  23.967  26.565  1.00  0.00     0.031 A 
ATOM     10  C   UNL A   1      31.854  23.993  26.877  1.00  0.00     0.002 A 
ATOM     11  C   UNL A   1      31.435  25.300  24.899  1.00  0.00     0.016 A 
ATOM     12  C   UNL A   1      30.966  24.680  26.055  1.00  0.00     0.001 A 
BRANCH   8  13
ATOM     13  N   UNL A   1      35.113  24.632  25.196  1.00  0.00    -0.150 NA
ATOM     14  N   UNL A   1      35.491  23.878  24.267  1.00  0.00    -0.148 NA
BRANCH  14  15
ATOM     15  C   UNL A   1      35.463  22.505  24.566  1.00  0.00     0.114 A 
ATOM     16  C   UNL A   1      37.703  22.319  25.890  1.00  0.00     0.067 C 
ATOM     17  C   UNL A   1      36.444  21.845  25.273  1.00  0.00     0.041 A 
ATOM     18  N   UNL A   1      36.073  20.524  25.313  1.00  0.00    -0.357 N 
ATOM     19  C   UNL A   1      34.814  20.357  24.780  1.00  0.00     0.048 A 
ATOM     20  H   UNL A   1      36.631  19.796  25.672  1.00  0.00     0.166 HD
ATOM     21  C   UNL A   1      34.403  21.598  24.284  1.00  0.00     0.027 A 
ATOM     22  C   UNL A   1      34.020  19.206  24.713  1.00  0.00     0.027 A 
ATOM     23  C   UNL A   1      33.129  21.686  23.684  1.00  0.00     0.012 A 
ATOM     24  C   UNL A   1      32.754  19.326  24.136  1.00  0.00     0.002 A 
ATOM     25  C   UNL A   1      32.313  20.546  23.626  1.00  0.00     0.001 A 
ENDBRANCH  14  15
ENDBRANCH   8  13
ENDBRANCH   4   7
ENDBRANCH   2   3
ENDBRANCH   1   2
BRANCH   1  26
ATOM     26  C   UNL A   1      32.190  28.708  26.352  1.00  0.00     0.023 C 
BRANCH  26  27
ATOM     27  C   UNL A   1      33.354  28.950  27.308  1.00  0.00     0.116 C 
BRANCH  27  28
ATOM     28  N   UNL A   1      33.474  30.331  27.752  1.00  0.00    -0.352 N 
ATOM     29  C   UNL A   1      34.547  30.986  28.314  1.00  0.00     0.251 C 
ATOM     30  H   UNL A   1      32.667  30.879  27.632  1.00  0.00     0.163 HD
ATOM     31  O   UNL A   1      34.435  32.138  28.705  1.00  0.00    -0.269 OA
BRANCH  29  32
ATOM     32  C   UNL A   1      35.832  30.273  28.484  1.00  0.00     0.039 A 
ATOM     33  C   UNL A   1      36.743  30.272  27.425  1.00  0.00     0.014 A 
ATOM     34  C   UNL A   1      36.151  29.645  29.690  1.00  0.00     0.014 A 
ATOM     35  C   UNL A   1      38.015  29.725  27.610  1.00  0.00     0.010 A 
ATOM     36  C   UNL A   1      37.443  29.167  29.896  1.00  0.00     0.010 A 
ATOM     37  C   UNL A   1      38.391  29.215  28.863  1.00  0.00    -0.014 A 
BRANCH  37  38
ATOM     38  C   UNL A   1      39.780  28.754  29.117  1.00  0.00     0.031 A 
ATOM     39  C   UNL A   1      40.786  29.679  29.744  1.00  0.00     0.074 A 
ATOM     40  C   UNL A   1      40.156  27.523  28.718  1.00  0.00     0.049 A 
ATOM     41  N   UNL A   1      42.055  29.469  29.995  1.00  0.00    -0.248 NA
ATOM     42  C   UNL A   1      40.313  31.021  30.116  1.00  0.00     0.031 C 
ATOM     43  C   UNL A   1      39.293  26.544  28.054  1.00  0.00     0.029 A 
ATOM     44  N   UNL A   1      41.369  26.886  28.810  1.00  0.00    -0.354 N 
ATOM     45  C   UNL A   1      42.532  30.655  30.536  1.00  0.00     0.074 A 
ATOM     46  C   UNL A   1      41.431  31.595  30.534  1.00  0.00     0.031 C 
ATOM     47  C   UNL A   1      39.995  25.422  27.825  1.00  0.00     0.029 A 
ATOM     48  C   UNL A   1      41.365  25.613  28.291  1.00  0.00     0.049 A 
ATOM     49  H   UNL A   1      42.168  27.301  29.210  1.00  0.00     0.167 HD
ATOM     50  C   UNL A   1      43.769  30.934  31.011  1.00  0.00     0.031 A 
ATOM     51  C   UNL A   1      42.351  24.702  28.199  1.00  0.00     0.031 A 
ATOM     52  C   UNL A   1      44.863  30.000  31.028  1.00  0.00     0.049 A 
ATOM     53  C   UNL A   1      43.716  25.037  28.733  1.00  0.00     0.074 A 
ATOM     54  C   UNL A   1      46.137  30.173  31.540  1.00  0.00     0.029 A 
ATOM     55  N   UNL A   1      44.811  28.716  30.508  1.00  0.00    -0.354 N 
ATOM     56  N   UNL A   1      44.131  26.140  29.306  1.00  0.00    -0.248 NA
ATOM     57  C   UNL A   1      44.744  23.993  28.618  1.00  0.00     0.031 C 
ATOM     58  C   UNL A   1      46.869  29.008  31.292  1.00  0.00     0.029 A 
ATOM     59  C   UNL A   1      46.036  28.092  30.671  1.00  0.00     0.049 A 
ATOM     60  H   UNL A   1      44.020  28.309  30.085  1.00  0.00     0.167 HD
ATOM     61  C   UNL A   1      45.458  25.913  29.647  1.00  0.00     0.074 A 
ATOM     62  C   UNL A   1      45.774  24.562  29.228  1.00  0.00     0.031 C 
ATOM     63  C   UNL A   1      46.335  26.748  30.254  1.00  0.00     0.031 A 
BRANCH  50  64
ATOM     64  C   UNL A   1      44.003  32.316  31.554  1.00  0.00    -0.014 A 
ATOM     65  C   UNL A   1      44.425  33.361  30.716  1.00  0.00     0.009 A 
ATOM     66  C   UNL A   1      43.770  32.584  32.911  1.00  0.00     0.009 A 
ATOM     67  C   UNL A   1      44.645  34.638  31.236  1.00  0.00     0.001 A 
ATOM     68  C   UNL A   1      43.964  33.868  33.422  1.00  0.00     0.001 A 
ATOM     69  C   UNL A   1      44.409  34.892  32.587  1.00  0.00     0.000 A 
ENDBRANCH  50  64
BRANCH  51  70
ATOM     70  C   UNL A   1      42.084  23.371  27.596  1.00  0.00    -0.014 A 
ATOM     71  C   UNL A   1      42.391  23.129  26.247  1.00  0.00     0.009 A 
ATOM     72  C   UNL A   1      41.509  22.341  28.357  1.00  0.00     0.009 A 
ATOM     73  C   UNL A   1      42.101  21.893  25.667  1.00  0.00     0.001 A 
ATOM     74  C   UNL A   1      41.245  21.097  27.779  1.00  0.00     0.001 A 
ATOM     75  C   UNL A   1      41.532  20.877  26.433  1.00  0.00     0.000 A 
ENDBRANCH  51  70
BRANCH  63  76
ATOM     76  C   UNL A   1      47.709  26.211  30.538  1.00  0.00    -0.014 A 
ATOM     77  C   UNL A   1      48.705  26.195  29.549  1.00  0.00     0.009 A 
ATOM     78  C   UNL A   1      48.020  25.751  31.827  1.00  0.00     0.009 A 
ATOM     79  C   UNL A   1      49.977  25.696  29.838  1.00  0.00     0.001 A 
ATOM     80  C   UNL A   1      49.300  25.280  32.120  1.00  0.00     0.001 A 
ATOM     81  C   UNL A   1      50.275  25.244  31.124  1.00  0.00     0.000 A 
ENDBRANCH  63  76
ENDBRANCH  37  38
ENDBRANCH  29  32
ENDBRANCH  27  28
ENDBRANCH  26  27
ENDBRANCH   1  26
TORSDOF 13
ENDMDL
MODEL 2
REMARK VINA RESULT:     -11.5      1.154      2.060
REMARK SMILES Cc1[nH]c2ccccc2c1/N=N\c1ccccc1C(=O)NCCCCNC(=O)c1ccc(-c2c3nc(c(-c4ccccc4)c4ccc([nH]4)c(-c4ccccc4)c4nc(c(-c5ccccc5)c5ccc2[nH]5)C=C4)C=C3)cc1
REMARK SMILES IDX 23 1 22 2 21 3 19 4 20 5 18 7 13 8 14 9 15 10 17 11 16 12
REMARK SMILES IDX 12 13 11 14 10 15 1 16 2 17 3 18 4 19 9 21 5 22 8 23 6 24
REMARK SMILES IDX 7 25 24 26 25 27 26 28 27 29 28 31 29 32 30 33 76 34 31 35
REMARK SMILES IDX 75 36 32 37 33 38 34 39 69 40 35 41 74 42 68 43 70 44 36 45
REMARK SMILES IDX 73 46 67 47 66 48 37 50 59 51 44 52 58 53 45 54 48 55 57 56
REMARK SMILES IDX 71 57 46 58 47 59 56 61 72 62 49 63 38 64 39 65 43 66 40 67
REMARK SMILES IDX 42 68 41 69 60 70 61 71 65 72 62 73 64 74 63 75 50 76 51 77
REMARK SMILES IDX 55 78 52 79 54 80 53 81
REMARK H PARENT 21 6 3 20 26 30 70 49 48 60
REMARK Flexibility Score: inf
ROOT
ATOM      1  C   UNL A   1      33.739  27.439  25.229  1.00  0.00     0.023 C 
ENDROOT
BRANCH   1   2
ATOM      2  C   UNL A   1      33.223  26.320  26.124  1.00  0.00     0.116 C 
BRANCH   2   3
ATOM      3  N   UNL A   1      31.803  26.060  25.984  1.00  0.00    -0.352 N 
ATOM      4  C   UNL A   1      31.155  25.278  25.060  1.00  0.00     0.253 C 
ATOM      5  O   UNL A   1      29.927  25.206  25.089  1.00  0.00    -0.269 OA
ATOM      6  H   UNL A   1      31.223  26.508  26.643  1.00  0.00     0.163 HD
BRANCH   4   7
ATOM      7  C   UNL A   1      31.888  24.588  23.971  1.00  0.00     0.067 A 
ATOM      8  C   UNL A   1      32.218  23.221  23.993  1.00  0.00     0.098 A 
ATOM      9  C   UNL A   1      32.956  22.696  22.917  1.00  0.00     0.031 A 
ATOM     10  C   UNL A   1      33.276  23.483  21.806  1.00  0.00     0.002 A 
ATOM     11  C   UNL A   1      32.176  25.363  22.833  1.00  0.00     0.016 A 
ATOM     12  C   UNL A   1      32.865  24.811  21.754  1.00  0.00     0.001 A 
BRANCH   8  13
ATOM     13  N   UNL A   1      31.859  22.365  25.062  1.00  0.00    -0.150 NA
ATOM     14  N   UNL A   1      32.667  22.358  26.023  1.00  0.00    -0.148 NA
BRANCH  14  15
ATOM     15  C   UNL A   1      33.875  21.683  25.782  1.00  0.00     0.114 A 
ATOM     16  C   UNL A   1      32.927  19.324  25.196  1.00  0.00     0.067 C 
ATOM     17  C   UNL A   1      33.964  20.356  25.426  1.00  0.00     0.041 A 
ATOM     18  N   UNL A   1      35.303  20.067  25.326  1.00  0.00    -0.357 N 
ATOM     19  C   UNL A   1      36.056  21.213  25.464  1.00  0.00     0.048 A 
ATOM     20  H   UNL A   1      35.673  19.167  25.178  1.00  0.00     0.166 HD
ATOM     21  C   UNL A   1      35.178  22.256  25.768  1.00  0.00     0.027 A 
ATOM     22  C   UNL A   1      37.439  21.390  25.334  1.00  0.00     0.027 A 
ATOM     23  C   UNL A   1      35.717  23.547  25.955  1.00  0.00     0.012 A 
ATOM     24  C   UNL A   1      37.944  22.681  25.501  1.00  0.00     0.002 A 
ATOM     25  C   UNL A   1      37.099  23.745  25.810  1.00  0.00     0.001 A 
ENDBRANCH  14  15
ENDBRANCH   8  13
ENDBRANCH   4   7
ENDBRANCH   2   3
ENDBRANCH   1   2
BRANCH   1  26
ATOM     26  C   UNL A   1      33.603  28.852  25.793  1.00  0.00     0.023 C 
BRANCH  26  27
ATOM     27  C   UNL A   1      33.396  28.959  27.301  1.00  0.00     0.116 C 
BRANCH  27  28
ATOM     28  N   UNL A   1      33.512  30.316  27.817  1.00  0.00    -0.352 N 
ATOM     29  C   UNL A   1      34.582  30.945  28.412  1.00  0.00     0.251 C 
ATOM     30  H   UNL A   1      32.702  30.867  27.727  1.00  0.00     0.163 HD
ATOM     31  O   UNL A   1      34.467  32.074  28.863  1.00  0.00    -0.269 OA
BRANCH  29  32
ATOM     32  C   UNL A   1      35.870  30.228  28.543  1.00  0.00     0.039 A 
ATOM     33  C   UNL A   1      36.750  30.228  27.458  1.00  0.00     0.014 A 
ATOM     34  C   UNL A   1      36.223  29.597  29.738  1.00  0.00     0.014 A 
ATOM     35  C   UNL A   1      38.026  29.678  27.605  1.00  0.00     0.010 A 
ATOM     36  C   UNL A   1      37.519  29.116  29.906  1.00  0.00     0.010 A 
ATOM     37  C   UNL A   1      38.437  29.164  28.845  1.00  0.00    -0.014 A 
BRANCH  37  38
ATOM     38  C   UNL A   1      39.832  28.699  29.059  1.00  0.00     0.031 A 
ATOM     39  C   UNL A   1      40.864  29.628  29.635  1.00  0.00     0.074 A 
ATOM     40  C   UNL A   1      40.187  27.460  28.668  1.00  0.00     0.049 A 
ATOM     41  N   UNL A   1      42.139  29.415  29.844  1.00  0.00    -0.248 NA
ATOM     42  C   UNL A   1      40.411  30.979  30.000  1.00  0.00     0.031 C 
ATOM     43  C   UNL A   1      39.296  26.474  28.050  1.00  0.00     0.029 A 
ATOM     44  N   UNL A   1      41.399  26.817  28.728  1.00  0.00    -0.354 N 
ATOM     45  C   UNL A   1      42.641  30.608  30.348  1.00  0.00     0.074 A 
ATOM     46  C   UNL A   1      41.546  31.554  30.369  1.00  0.00     0.031 C 
ATOM     47  C   UNL A   1      39.984  25.345  27.816  1.00  0.00     0.029 A 
ATOM     48  C   UNL A   1      41.370  25.536  28.230  1.00  0.00     0.049 A 
ATOM     49  H   UNL A   1      42.213  27.235  29.092  1.00  0.00     0.167 HD
ATOM     50  C   UNL A   1      43.896  30.887  30.775  1.00  0.00     0.031 A 
ATOM     51  C   UNL A   1      42.348  24.618  28.119  1.00  0.00     0.031 A 
ATOM     52  C   UNL A   1      44.985  29.947  30.768  1.00  0.00     0.049 A 
ATOM     53  C   UNL A   1      43.732  24.954  28.599  1.00  0.00     0.074 A 
ATOM     54  C   UNL A   1      46.277  30.122  31.233  1.00  0.00     0.029 A 
ATOM     55  N   UNL A   1      44.908  28.656  30.273  1.00  0.00    -0.354 N 
ATOM     56  N   UNL A   1      44.173  26.063  29.139  1.00  0.00    -0.248 NA
ATOM     57  C   UNL A   1      44.751  23.902  28.466  1.00  0.00     0.031 C 
ATOM     58  C   UNL A   1      46.994  28.949  30.979  1.00  0.00     0.029 A 
ATOM     59  C   UNL A   1      46.135  28.028  30.403  1.00  0.00     0.049 A 
ATOM     60  H   UNL A   1      44.101  28.246  29.885  1.00  0.00     0.167 HD
ATOM     61  C   UNL A   1      45.510  25.834  29.436  1.00  0.00     0.074 A 
ATOM     62  C   UNL A   1      45.804  24.476  29.030  1.00  0.00     0.031 C 
ATOM     63  C   UNL A   1      46.412  26.675  29.998  1.00  0.00     0.031 A 
BRANCH  50  64
ATOM     64  C   UNL A   1      44.156  32.277  31.285  1.00  0.00    -0.014 A 
ATOM     65  C   UNL A   1      44.580  33.299  30.420  1.00  0.00     0.009 A 
ATOM     66  C   UNL A   1      43.946  32.575  32.640  1.00  0.00     0.009 A 
ATOM     67  C   UNL A   1      44.824  34.583  30.911  1.00  0.00     0.001 A 
ATOM     68  C   UNL A   1      44.164  33.867  33.122  1.00  0.00     0.001 A 
ATOM     69  C   UNL A   1      44.611  34.867  32.259  1.00  0.00     0.000 A 
ENDBRANCH  50  64
BRANCH  51  70
ATOM     70  C   UNL A   1      42.053  23.278  27.548  1.00  0.00    -0.014 A 
ATOM     71  C   UNL A   1      42.305  23.014  26.193  1.00  0.00     0.009 A 
ATOM     72  C   UNL A   1      41.506  22.263  28.348  1.00  0.00     0.009 A 
ATOM     73  C   UNL A   1      41.987  21.770  25.644  1.00  0.00     0.001 A 
ATOM     74  C   UNL A   1      41.215  21.011  27.801  1.00  0.00     0.001 A 
ATOM     75  C   UNL A   1      41.447  20.768  26.448  1.00  0.00     0.000 A 
ENDBRANCH  51  70
BRANCH  63  76
ATOM     76  C   UNL A   1      47.792  26.135  30.243  1.00  0.00    -0.014 A 
ATOM     77  C   UNL A   1      48.736  26.046  29.207  1.00  0.00     0.009 A 
ATOM     78  C   UNL A   1      48.165  25.746  31.540  1.00  0.00     0.009 A 
ATOM     79  C   UNL A   1      50.015  25.546  29.460  1.00  0.00     0.001 A 
ATOM     80  C   UNL A   1      49.452  25.274  31.794  1.00  0.00     0.001 A 
ATOM     81  C   UNL A   1      50.373  25.165  30.754  1.00  0.00     0.000 A 
ENDBRANCH  63  76
ENDBRANCH  37  38
ENDBRANCH  29  32
ENDBRANCH  27  28
ENDBRANCH  26  27
ENDBRANCH   1  26
TORSDOF 13
ENDMDL
MODEL 3
REMARK VINA RESULT:     -11.5      1.793      7.268
REMARK SMILES Cc1[nH]c2ccccc2c1/N=N\c1ccccc1C(=O)NCCCCNC(=O)c1ccc(-c2c3nc(c(-c4ccccc4)c4ccc([nH]4)c(-c4ccccc4)c4nc(c(-c5ccccc5)c5ccc2[nH]5)C=C4)C=C3)cc1
REMARK SMILES IDX 23 1 22 2 21 3 19 4 20 5 18 7 13 8 14 9 15 10 17 11 16 12
REMARK SMILES IDX 12 13 11 14 10 15 1 16 2 17 3 18 4 19 9 21 5 22 8 23 6 24
REMARK SMILES IDX 7 25 24 26 25 27 26 28 27 29 28 31 29 32 30 33 76 34 31 35
REMARK SMILES IDX 75 36 32 37 33 38 34 39 69 40 35 41 74 42 68 43 70 44 36 45
REMARK SMILES IDX 73 46 67 47 66 48 37 50 59 51 44 52 58 53 45 54 48 55 57 56
REMARK SMILES IDX 71 57 46 58 47 59 56 61 72 62 49 63 38 64 39 65 43 66 40 67
REMARK SMILES IDX 42 68 41 69 60 70 61 71 65 72 62 73 64 74 63 75 50 76 51 77
REMARK SMILES IDX 55 78 52 79 54 80 53 81
REMARK H PARENT 21 6 3 20 26 30 70 49 48 60
REMARK Flexibility Score: inf
ROOT
ATOM      1  C   UNL A   1      36.995  22.194  23.838  1.00  0.00     0.023 C 
ENDROOT
BRANCH   1   2
ATOM      2  C   UNL A   1      36.324  23.342  24.580  1.00  0.00     0.116 C 
BRANCH   2   3
ATOM      3  N   UNL A   1      35.211  23.937  23.866  1.00  0.00    -0.352 N 
ATOM      4  C   UNL A   1      33.924  23.474  23.733  1.00  0.00     0.253 C 
ATOM      5  O   UNL A   1      33.122  24.116  23.055  1.00  0.00    -0.269 OA
ATOM      6  H   UNL A   1      35.405  24.789  23.412  1.00  0.00     0.163 HD
BRANCH   4   7
ATOM      7  C   UNL A   1      33.498  22.177  24.310  1.00  0.00     0.067 A 
ATOM      8  C   UNL A   1      33.429  21.919  25.691  1.00  0.00     0.098 A 
ATOM      9  C   UNL A   1      33.052  20.631  26.110  1.00  0.00     0.031 A 
ATOM     10  C   UNL A   1      32.665  19.653  25.188  1.00  0.00     0.002 A 
ATOM     11  C   UNL A   1      33.069  21.203  23.390  1.00  0.00     0.016 A 
ATOM     12  C   UNL A   1      32.650  19.948  23.828  1.00  0.00     0.001 A 
BRANCH   8  13
ATOM     13  N   UNL A   1      33.744  22.894  26.668  1.00  0.00    -0.150 NA
ATOM     14  N   UNL A   1      32.770  23.271  27.365  1.00  0.00    -0.148 NA
BRANCH  14  15
ATOM     15  C   UNL A   1      31.854  24.110  26.708  1.00  0.00     0.114 A 
ATOM     16  C   UNL A   1      29.690  22.686  27.012  1.00  0.00     0.067 C 
ATOM     17  C   UNL A   1      30.514  23.830  26.562  1.00  0.00     0.041 A 
ATOM     18  N   UNL A   1      29.977  24.862  25.832  1.00  0.00    -0.357 N 
ATOM     19  C   UNL A   1      30.911  25.857  25.641  1.00  0.00     0.048 A 
ATOM     20  H   UNL A   1      29.054  24.887  25.492  1.00  0.00     0.166 HD
ATOM     21  C   UNL A   1      32.120  25.403  26.176  1.00  0.00     0.027 A 
ATOM     22  C   UNL A   1      30.764  27.115  25.044  1.00  0.00     0.027 A 
ATOM     23  C   UNL A   1      33.242  26.256  26.103  1.00  0.00     0.012 A 
ATOM     24  C   UNL A   1      31.883  27.948  25.007  1.00  0.00     0.002 A 
ATOM     25  C   UNL A   1      33.106  27.527  25.525  1.00  0.00     0.001 A 
ENDBRANCH  14  15
ENDBRANCH   8  13
ENDBRANCH   4   7
ENDBRANCH   2   3
ENDBRANCH   1   2
BRANCH   1  26
ATOM     26  C   UNL A   1      37.245  20.931  24.661  1.00  0.00     0.023 C 
BRANCH  26  27
ATOM     27  C   UNL A   1      38.372  21.008  25.687  1.00  0.00     0.116 C 
BRANCH  27  28
ATOM     28  N   UNL A   1      39.322  19.908  25.601  1.00  0.00    -0.352 N 
ATOM     29  C   UNL A   1      40.654  19.863  25.948  1.00  0.00     0.251 C 
ATOM     30  H   UNL A   1      38.957  19.069  25.239  1.00  0.00     0.163 HD
ATOM     31  O   UNL A   1      41.321  18.865  25.724  1.00  0.00    -0.269 OA
BRANCH  29  32
ATOM     32  C   UNL A   1      41.290  21.051  26.559  1.00  0.00     0.039 A 
ATOM     33  C   UNL A   1      41.892  21.993  25.722  1.00  0.00     0.014 A 
ATOM     34  C   UNL A   1      41.258  21.253  27.940  1.00  0.00     0.014 A 
ATOM     35  C   UNL A   1      42.377  23.187  26.262  1.00  0.00     0.010 A 
ATOM     36  C   UNL A   1      41.674  22.473  28.467  1.00  0.00     0.010 A 
ATOM     37  C   UNL A   1      42.225  23.457  27.631  1.00  0.00    -0.014 A 
BRANCH  37  38
ATOM     38  C   UNL A   1      42.610  24.774  28.200  1.00  0.00     0.031 A 
ATOM     39  C   UNL A   1      41.578  25.849  28.399  1.00  0.00     0.074 A 
ATOM     40  C   UNL A   1      43.906  25.028  28.473  1.00  0.00     0.049 A 
ATOM     41  N   UNL A   1      41.737  27.074  28.834  1.00  0.00    -0.248 NA
ATOM     42  C   UNL A   1      40.192  25.512  28.041  1.00  0.00     0.031 C 
ATOM     43  C   UNL A   1      45.015  24.090  28.280  1.00  0.00     0.029 A 
ATOM     44  N   UNL A   1      44.510  26.158  28.968  1.00  0.00    -0.354 N 
ATOM     45  C   UNL A   1      40.477  27.656  28.784  1.00  0.00     0.074 A 
ATOM     46  C   UNL A   1      39.575  26.668  28.235  1.00  0.00     0.031 C 
ATOM     47  C   UNL A   1      46.157  24.673  28.679  1.00  0.00     0.029 A 
ATOM     48  C   UNL A   1      45.870  26.034  29.120  1.00  0.00     0.049 A 
ATOM     49  H   UNL A   1      44.015  26.979  29.191  1.00  0.00     0.167 HD
ATOM     50  C   UNL A   1      40.100  28.895  29.180  1.00  0.00     0.031 A 
ATOM     51  C   UNL A   1      46.785  26.916  29.564  1.00  0.00     0.031 A 
ATOM     52  C   UNL A   1      40.990  29.877  29.739  1.00  0.00     0.049 A 
ATOM     53  C   UNL A   1      46.339  28.285  29.995  1.00  0.00     0.074 A 
ATOM     54  C   UNL A   1      40.689  31.139  30.221  1.00  0.00     0.029 A 
ATOM     55  N   UNL A   1      42.356  29.706  29.892  1.00  0.00    -0.354 N 
ATOM     56  N   UNL A   1      45.132  28.796  30.008  1.00  0.00    -0.248 NA
ATOM     57  C   UNL A   1      47.383  29.196  30.487  1.00  0.00     0.031 C 
ATOM     58  C   UNL A   1      41.880  31.748  30.626  1.00  0.00     0.029 A 
ATOM     59  C   UNL A   1      42.915  30.846  30.444  1.00  0.00     0.049 A 
ATOM     60  H   UNL A   1      42.855  28.893  29.645  1.00  0.00     0.167 HD
ATOM     61  C   UNL A   1      45.267  30.073  30.535  1.00  0.00     0.074 A 
ATOM     62  C   UNL A   1      46.671  30.255  30.842  1.00  0.00     0.031 C 
ATOM     63  C   UNL A   1      44.312  31.011  30.748  1.00  0.00     0.031 A 
BRANCH  50  64
ATOM     64  C   UNL A   1      38.650  29.258  29.016  1.00  0.00    -0.014 A 
ATOM     65  C   UNL A   1      37.752  29.158  30.092  1.00  0.00     0.009 A 
ATOM     66  C   UNL A   1      38.183  29.734  27.782  1.00  0.00     0.009 A 
ATOM     67  C   UNL A   1      36.407  29.492  29.922  1.00  0.00     0.001 A 
ATOM     68  C   UNL A   1      36.843  30.094  27.624  1.00  0.00     0.001 A 
ATOM     69  C   UNL A   1      35.955  29.964  28.690  1.00  0.00     0.000 A 
ENDBRANCH  50  64
BRANCH  51  70
ATOM     70  C   UNL A   1      48.216  26.529  29.647  1.00  0.00    -0.014 A 
ATOM     71  C   UNL A   1      48.708  25.867  30.783  1.00  0.00     0.009 A 
ATOM     72  C   UNL A   1      49.103  26.831  28.601  1.00  0.00     0.009 A 
ATOM     73  C   UNL A   1      50.062  25.542  30.883  1.00  0.00     0.001 A 
ATOM     74  C   UNL A   1      50.451  26.480  28.692  1.00  0.00     0.001 A 
ATOM     75  C   UNL A   1      50.932  25.844  29.837  1.00  0.00     0.000 A 
ENDBRANCH  51  70
BRANCH  63  76
ATOM     76  C   UNL A   1      44.748  32.303  31.377  1.00  0.00    -0.014 A 
ATOM     77  C   UNL A   1      44.733  32.479  32.770  1.00  0.00     0.009 A 
ATOM     78  C   UNL A   1      45.218  33.347  30.563  1.00  0.00     0.009 A 
ATOM     79  C   UNL A   1      45.149  33.687  33.332  1.00  0.00     0.001 A 
ATOM     80  C   UNL A   1      45.659  34.542  31.131  1.00  0.00     0.001 A 
ATOM     81  C   UNL A   1      45.616  34.716  32.513  1.00  0.00     0.000 A 
ENDBRANCH  63  76
ENDBRANCH  37  38
ENDBRANCH  29  32
ENDBRANCH  27  28
ENDBRANCH  26  27
ENDBRANCH   1  26
TORSDOF 13
ENDMDL
