MODEL 1
REMARK VINA RESULT:     -10.3      0.000      0.000
REMARK SMILES COc1ccccc1[C@H]([NH3+])c1nc(C(=O)NCCCCNC(=O)c2ccc(-c3c4nc(c(-c5ccccc5)c5ccc([nH]5)c(-c5ccccc5)c5nc(c(-c6ccccc6)c6ccc3[nH]6)C=C5)C=C4)cc2)c[nH]1
REMARK SMILES IDX 18 1 17 2 16 3 14 4 15 5 13 7 11 8 12 9 73 10 72 11 9 13
REMARK SMILES IDX 8 14 3 15 4 16 5 17 7 18 6 19 2 20 1 21 10 22 19 26 20 27
REMARK SMILES IDX 21 28 22 29 23 31 24 32 25 33 71 34 26 35 70 36 27 37 28 38
REMARK SMILES IDX 29 39 64 40 30 41 69 42 63 43 65 44 31 45 68 46 62 47 61 48
REMARK SMILES IDX 32 50 54 51 39 52 53 53 40 54 43 55 52 56 66 57 41 58 42 59
REMARK SMILES IDX 51 61 67 62 44 63 33 64 34 65 38 66 35 67 37 68 36 69 55 70
REMARK SMILES IDX 56 71 60 72 57 73 59 74 58 75 45 76 46 77 50 78 47 79 49 80
REMARK SMILES IDX 48 81
REMARK H PARENT 16 6 73 12 10 23 10 24 10 25 21 30 65 49 43 60
REMARK Flexibility Score: inf
ROOT
ATOM      1  C   UNL A   1      32.727  29.528  25.146  1.00  0.00     0.023 C 
ENDROOT
BRANCH   1   2
ATOM      2  C   UNL A   1      31.968  28.735  24.084  1.00  0.00     0.116 C 
BRANCH   2   3
ATOM      3  N   UNL A   1      32.812  28.417  22.944  1.00  0.00    -0.351 N 
ATOM      4  C   UNL A   1      33.387  27.216  22.597  1.00  0.00     0.271 C 
ATOM      5  O   UNL A   1      34.009  27.156  21.532  1.00  0.00    -0.267 OA
ATOM      6  H   UNL A   1      32.999  29.168  22.334  1.00  0.00     0.163 HD
BRANCH   4   7
ATOM      7  C   UNL A   1      33.219  26.050  23.467  1.00  0.00     0.146 A 
ATOM      8  C   UNL A   1      33.579  24.634  25.081  1.00  0.00     0.170 A 
ATOM      9  N   UNL A   1      34.091  25.686  24.472  1.00  0.00    -0.222 NA
ATOM     10  N   UNL A   1      32.407  24.269  24.455  1.00  0.00    -0.342 N 
ATOM     11  C   UNL A   1      32.188  25.134  23.418  1.00  0.00     0.118 A 
ATOM     12  H   UNL A   1      31.827  23.516  24.711  1.00  0.00     0.167 HD
BRANCH   8  13
ATOM     13  C   UNL A   1      34.211  23.890  26.244  1.00  0.00     0.283 C 
BRANCH  13  14
ATOM     14  C   UNL A   1      35.465  23.103  25.874  1.00  0.00     0.059 A 
ATOM     15  C   UNL A   1      35.481  21.808  25.329  1.00  0.00     0.128 A 
ATOM     16  C   UNL A   1      36.693  21.160  25.058  1.00  0.00     0.047 A 
ATOM     17  C   UNL A   1      37.906  21.809  25.282  1.00  0.00     0.004 A 
ATOM     18  C   UNL A   1      36.709  23.736  26.095  1.00  0.00     0.014 A 
ATOM     19  C   UNL A   1      37.914  23.101  25.795  1.00  0.00     0.001 A 
BRANCH  15  20
ATOM     20  O   UNL A   1      34.322  21.090  25.197  1.00  0.00    -0.496 OA
ATOM     21  C   UNL A   1      34.549  19.743  24.785  1.00  0.00     0.278 C 
ENDBRANCH  15  20
ENDBRANCH  13  14
BRANCH  13  22
ATOM     22  N   UNL A   1      33.196  23.103  26.959  1.00  0.00    -0.345 N 
ATOM     23  H   UNL A   1      33.083  22.197  26.503  1.00  0.00     0.345 HD
ATOM     24  H   UNL A   1      32.307  23.604  26.947  1.00  0.00     0.345 HD
ATOM     25  H   UNL A   1      33.492  22.962  27.925  1.00  0.00     0.345 HD
ENDBRANCH  13  22
ENDBRANCH   8  13
ENDBRANCH   4   7
ENDBRANCH   2   3
ENDBRANCH   1   2
BRANCH   1  26
ATOM     26  C   UNL A   1      33.674  28.673  25.991  1.00  0.00     0.023 C 
BRANCH  26  27
ATOM     27  C   UNL A   1      33.550  28.877  27.497  1.00  0.00     0.116 C 
BRANCH  27  28
ATOM     28  N   UNL A   1      33.596  30.278  27.895  1.00  0.00    -0.352 N 
ATOM     29  C   UNL A   1      34.649  30.965  28.449  1.00  0.00     0.251 C 
ATOM     30  H   UNL A   1      32.771  30.794  27.751  1.00  0.00     0.163 HD
ATOM     31  O   UNL A   1      34.514  32.116  28.853  1.00  0.00    -0.269 OA
BRANCH  29  32
ATOM     32  C   UNL A   1      35.950  30.281  28.585  1.00  0.00     0.039 A 
ATOM     33  C   UNL A   1      36.831  30.272  27.502  1.00  0.00     0.014 A 
ATOM     34  C   UNL A   1      36.316  29.705  29.804  1.00  0.00     0.014 A 
ATOM     35  C   UNL A   1      38.113  29.744  27.662  1.00  0.00     0.010 A 
ATOM     36  C   UNL A   1      37.618  29.255  29.985  1.00  0.00     0.010 A 
ATOM     37  C   UNL A   1      38.528  29.264  28.916  1.00  0.00    -0.014 A 
BRANCH  37  38
ATOM     38  C   UNL A   1      39.900  28.748  29.142  1.00  0.00     0.031 A 
ATOM     39  C   UNL A   1      40.957  29.664  29.695  1.00  0.00     0.074 A 
ATOM     40  C   UNL A   1      40.223  27.494  28.769  1.00  0.00     0.049 A 
ATOM     41  N   UNL A   1      42.239  29.453  29.847  1.00  0.00    -0.248 NA
ATOM     42  C   UNL A   1      40.515  31.008  30.101  1.00  0.00     0.031 C 
ATOM     43  C   UNL A   1      39.299  26.513  28.197  1.00  0.00     0.029 A 
ATOM     44  N   UNL A   1      41.427  26.836  28.803  1.00  0.00    -0.354 N 
ATOM     45  C   UNL A   1      42.758  30.643  30.340  1.00  0.00     0.074 A 
ATOM     46  C   UNL A   1      41.665  31.587  30.410  1.00  0.00     0.031 C 
ATOM     47  C   UNL A   1      39.966  25.373  27.951  1.00  0.00     0.029 A 
ATOM     48  C   UNL A   1      41.372  25.559  28.300  1.00  0.00     0.049 A 
ATOM     49  H   UNL A   1      42.253  27.242  29.155  1.00  0.00     0.167 HD
ATOM     50  C   UNL A   1      44.029  30.923  30.717  1.00  0.00     0.031 A 
ATOM     51  C   UNL A   1      42.346  24.646  28.124  1.00  0.00     0.031 A 
ATOM     52  C   UNL A   1      45.114  29.982  30.652  1.00  0.00     0.049 A 
ATOM     53  C   UNL A   1      43.756  24.988  28.520  1.00  0.00     0.074 A 
ATOM     54  C   UNL A   1      46.426  30.151  31.057  1.00  0.00     0.029 A 
ATOM     55  N   UNL A   1      45.013  28.694  30.146  1.00  0.00    -0.354 N 
ATOM     56  N   UNL A   1      44.223  26.099  29.037  1.00  0.00    -0.248 NA
ATOM     57  C   UNL A   1      44.772  23.945  28.317  1.00  0.00     0.031 C 
ATOM     58  C   UNL A   1      47.134  28.988  30.739  1.00  0.00     0.029 A 
ATOM     59  C   UNL A   1      46.245  28.067  30.203  1.00  0.00     0.049 A 
ATOM     60  H   UNL A   1      44.186  28.287  29.797  1.00  0.00     0.167 HD
ATOM     61  C   UNL A   1      45.576  25.876  29.257  1.00  0.00     0.074 A 
ATOM     62  C   UNL A   1      45.854  24.522  28.824  1.00  0.00     0.031 C 
ATOM     63  C   UNL A   1      46.505  26.716  29.776  1.00  0.00     0.031 A 
BRANCH  50  64
ATOM     64  C   UNL A   1      44.310  32.315  31.213  1.00  0.00    -0.014 A 
ATOM     65  C   UNL A   1      44.208  32.642  32.575  1.00  0.00     0.009 A 
ATOM     66  C   UNL A   1      44.703  33.311  30.306  1.00  0.00     0.009 A 
ATOM     67  C   UNL A   1      44.444  33.947  33.011  1.00  0.00     0.001 A 
ATOM     68  C   UNL A   1      44.973  34.608  30.749  1.00  0.00     0.001 A 
ATOM     69  C   UNL A   1      44.832  34.927  32.098  1.00  0.00     0.000 A 
ENDBRANCH  50  64
BRANCH  51  70
ATOM     70  C   UNL A   1      42.021  23.312  27.551  1.00  0.00    -0.014 A 
ATOM     71  C   UNL A   1      41.497  22.297  28.365  1.00  0.00     0.009 A 
ATOM     72  C   UNL A   1      42.237  23.045  26.189  1.00  0.00     0.009 A 
ATOM     73  C   UNL A   1      41.219  21.035  27.833  1.00  0.00     0.001 A 
ATOM     74  C   UNL A   1      41.929  21.792  25.654  1.00  0.00     0.001 A 
ATOM     75  C   UNL A   1      41.431  20.785  26.479  1.00  0.00     0.000 A 
ENDBRANCH  51  70
BRANCH  63  76
ATOM     76  C   UNL A   1      47.899  26.182  29.963  1.00  0.00    -0.014 A 
ATOM     77  C   UNL A   1      48.831  26.175  28.914  1.00  0.00     0.009 A 
ATOM     78  C   UNL A   1      48.298  25.732  31.231  1.00  0.00     0.009 A 
ATOM     79  C   UNL A   1      50.127  25.698  29.128  1.00  0.00     0.001 A 
ATOM     80  C   UNL A   1      49.603  25.289  31.449  1.00  0.00     0.001 A 
ATOM     81  C   UNL A   1      50.514  25.264  30.395  1.00  0.00     0.000 A 
ENDBRANCH  63  76
ENDBRANCH  37  38
ENDBRANCH  29  32
ENDBRANCH  27  28
ENDBRANCH  26  27
ENDBRANCH   1  26
TORSDOF 15
ENDMDL
MODEL 2
REMARK VINA RESULT:     -10.2      3.705      9.514
REMARK SMILES COc1ccccc1[C@H]([NH3+])c1nc(C(=O)NCCCCNC(=O)c2ccc(-c3c4nc(c(-c5ccccc5)c5ccc([nH]5)c(-c5ccccc5)c5nc(c(-c6ccccc6)c6ccc3[nH]6)C=C5)C=C4)cc2)c[nH]1
REMARK SMILES IDX 18 1 17 2 16 3 14 4 15 5 13 7 11 8 12 9 73 10 72 11 9 13
REMARK SMILES IDX 8 14 3 15 4 16 5 17 7 18 6 19 2 20 1 21 10 22 19 26 20 27
REMARK SMILES IDX 21 28 22 29 23 31 24 32 25 33 71 34 26 35 70 36 27 37 28 38
REMARK SMILES IDX 29 39 64 40 30 41 69 42 63 43 65 44 31 45 68 46 62 47 61 48
REMARK SMILES IDX 32 50 54 51 39 52 53 53 40 54 43 55 52 56 66 57 41 58 42 59
REMARK SMILES IDX 51 61 67 62 44 63 33 64 34 65 38 66 35 67 37 68 36 69 55 70
REMARK SMILES IDX 56 71 60 72 57 73 59 74 58 75 45 76 46 77 50 78 47 79 49 80
REMARK SMILES IDX 48 81
REMARK H PARENT 16 6 73 12 10 23 10 24 10 25 21 30 65 49 43 60
REMARK Flexibility Score: inf
ROOT
ATOM      1  C   UNL A   1      41.789  19.565  27.462  1.00  0.00     0.023 C 
ENDROOT
BRANCH   1   2
ATOM      2  C   UNL A   1      42.031  19.166  26.008  1.00  0.00     0.116 C 
BRANCH   2   3
ATOM      3  N   UNL A   1      43.270  18.422  25.853  1.00  0.00    -0.351 N 
ATOM      4  C   UNL A   1      44.475  18.839  25.336  1.00  0.00     0.271 C 
ATOM      5  O   UNL A   1      45.426  18.054  25.373  1.00  0.00    -0.267 OA
ATOM      6  H   UNL A   1      43.243  17.487  26.162  1.00  0.00     0.163 HD
BRANCH   4   7
ATOM      7  C   UNL A   1      44.606  20.194  24.796  1.00  0.00     0.146 A 
ATOM      8  C   UNL A   1      44.685  22.369  24.726  1.00  0.00     0.170 A 
ATOM      9  N   UNL A   1      44.412  21.352  25.520  1.00  0.00    -0.222 NA
ATOM     10  N   UNL A   1      45.006  21.896  23.472  1.00  0.00    -0.342 N 
ATOM     11  C   UNL A   1      44.928  20.530  23.497  1.00  0.00     0.118 A 
ATOM     12  H   UNL A   1      45.250  22.446  22.693  1.00  0.00     0.167 HD
BRANCH   8  13
ATOM     13  C   UNL A   1      44.592  23.837  25.103  1.00  0.00     0.283 C 
BRANCH  13  14
ATOM     14  C   UNL A   1      45.406  24.218  26.336  1.00  0.00     0.059 A 
ATOM     15  C   UNL A   1      44.984  24.065  27.667  1.00  0.00     0.128 A 
ATOM     16  C   UNL A   1      45.798  24.482  28.729  1.00  0.00     0.047 A 
ATOM     17  C   UNL A   1      47.062  25.014  28.482  1.00  0.00     0.004 A 
ATOM     18  C   UNL A   1      46.691  24.764  26.114  1.00  0.00     0.014 A 
ATOM     19  C   UNL A   1      47.512  25.150  27.173  1.00  0.00     0.001 A 
BRANCH  15  20
ATOM     20  O   UNL A   1      43.710  23.653  27.955  1.00  0.00    -0.496 OA
ATOM     21  C   UNL A   1      43.603  23.039  29.239  1.00  0.00     0.278 C 
ENDBRANCH  15  20
ENDBRANCH  13  14
BRANCH  13  22
ATOM     22  N   UNL A   1      43.186  24.262  25.154  1.00  0.00    -0.345 N 
ATOM     23  H   UNL A   1      43.136  25.280  25.118  1.00  0.00     0.345 HD
ATOM     24  H   UNL A   1      42.761  23.930  26.021  1.00  0.00     0.345 HD
ATOM     25  H   UNL A   1      42.683  23.870  24.358  1.00  0.00     0.345 HD
ENDBRANCH  13  22
ENDBRANCH   8  13
ENDBRANCH   4   7
ENDBRANCH   2   3
ENDBRANCH   1   2
BRANCH   1  26
ATOM     26  C   UNL A   1      40.944  20.832  27.619  1.00  0.00     0.023 C 
BRANCH  26  27
ATOM     27  C   UNL A   1      40.834  21.689  26.364  1.00  0.00     0.116 C 
BRANCH  27  28
ATOM     28  N   UNL A   1      39.461  21.891  25.921  1.00  0.00    -0.352 N 
ATOM     29  C   UNL A   1      38.674  23.007  26.086  1.00  0.00     0.251 C 
ATOM     30  H   UNL A   1      39.045  21.136  25.447  1.00  0.00     0.163 HD
ATOM     31  O   UNL A   1      37.489  23.000  25.771  1.00  0.00    -0.269 OA
BRANCH  29  32
ATOM     32  C   UNL A   1      39.275  24.215  26.685  1.00  0.00     0.039 A 
ATOM     33  C   UNL A   1      39.953  25.118  25.863  1.00  0.00     0.014 A 
ATOM     34  C   UNL A   1      39.110  24.479  28.047  1.00  0.00     0.014 A 
ATOM     35  C   UNL A   1      40.409  26.325  26.397  1.00  0.00     0.010 A 
ATOM     36  C   UNL A   1      39.490  25.714  28.556  1.00  0.00     0.010 A 
ATOM     37  C   UNL A   1      40.148  26.647  27.739  1.00  0.00    -0.014 A 
BRANCH  37  38
ATOM     38  C   UNL A   1      40.565  27.944  28.328  1.00  0.00     0.031 A 
ATOM     39  C   UNL A   1      41.997  28.145  28.741  1.00  0.00     0.074 A 
ATOM     40  C   UNL A   1      39.651  28.902  28.575  1.00  0.00     0.049 A 
ATOM     41  N   UNL A   1      42.540  29.145  29.386  1.00  0.00    -0.248 NA
ATOM     42  C   UNL A   1      42.936  27.060  28.410  1.00  0.00     0.031 C 
ATOM     43  C   UNL A   1      38.226  28.823  28.248  1.00  0.00     0.029 A 
ATOM     44  N   UNL A   1      39.785  30.128  29.178  1.00  0.00    -0.354 N 
ATOM     45  C   UNL A   1      43.873  28.797  29.562  1.00  0.00     0.074 A 
ATOM     46  C   UNL A   1      44.044  27.474  29.004  1.00  0.00     0.031 C 
ATOM     47  C   UNL A   1      37.623  29.958  28.635  1.00  0.00     0.029 A 
ATOM     48  C   UNL A   1      38.605  30.823  29.284  1.00  0.00     0.049 A 
ATOM     49  H   UNL A   1      40.647  30.476  29.503  1.00  0.00     0.167 HD
ATOM     50  C   UNL A   1      44.872  29.520  30.123  1.00  0.00     0.031 A 
ATOM     51  C   UNL A   1      38.339  32.013  29.854  1.00  0.00     0.031 A 
ATOM     52  C   UNL A   1      44.701  30.838  30.672  1.00  0.00     0.049 A 
ATOM     53  C   UNL A   1      39.457  32.786  30.498  1.00  0.00     0.074 A 
ATOM     54  C   UNL A   1      45.660  31.675  31.216  1.00  0.00     0.029 A 
ATOM     55  N   UNL A   1      43.491  31.510  30.750  1.00  0.00    -0.354 N 
ATOM     56  N   UNL A   1      40.726  32.471  30.607  1.00  0.00    -0.248 NA
ATOM     57  C   UNL A   1      39.108  34.086  31.090  1.00  0.00     0.031 C 
ATOM     58  C   UNL A   1      45.019  32.828  31.680  1.00  0.00     0.029 A 
ATOM     59  C   UNL A   1      43.673  32.740  31.357  1.00  0.00     0.049 A 
ATOM     60  H   UNL A   1      42.629  31.163  30.421  1.00  0.00     0.167 HD
ATOM     61  C   UNL A   1      41.332  33.546  31.244  1.00  0.00     0.074 A 
ATOM     62  C   UNL A   1      40.294  34.526  31.490  1.00  0.00     0.031 C 
ATOM     63  C   UNL A   1      42.632  33.709  31.589  1.00  0.00     0.031 A 
BRANCH  50  64
ATOM     64  C   UNL A   1      46.234  28.884  30.184  1.00  0.00    -0.014 A 
ATOM     65  C   UNL A   1      47.173  29.062  29.156  1.00  0.00     0.009 A 
ATOM     66  C   UNL A   1      46.589  28.108  31.299  1.00  0.00     0.009 A 
ATOM     67  C   UNL A   1      48.421  28.437  29.219  1.00  0.00     0.001 A 
ATOM     68  C   UNL A   1      47.851  27.514  31.376  1.00  0.00     0.001 A 
ATOM     69  C   UNL A   1      48.759  27.669  30.331  1.00  0.00     0.000 A 
ENDBRANCH  50  64
BRANCH  51  70
ATOM     70  C   UNL A   1      36.955  32.556  29.834  1.00  0.00    -0.014 A 
ATOM     71  C   UNL A   1      36.085  32.326  30.910  1.00  0.00     0.009 A 
ATOM     72  C   UNL A   1      36.494  33.304  28.738  1.00  0.00     0.009 A 
ATOM     73  C   UNL A   1      34.775  32.810  30.878  1.00  0.00     0.001 A 
ATOM     74  C   UNL A   1      35.194  33.814  28.723  1.00  0.00     0.001 A 
ATOM     75  C   UNL A   1      34.332  33.557  29.788  1.00  0.00     0.000 A 
ENDBRANCH  51  70
BRANCH  63  76
ATOM     76  C   UNL A   1      43.026  35.018  32.217  1.00  0.00    -0.014 A 
ATOM     77  C   UNL A   1      42.974  35.214  33.606  1.00  0.00     0.009 A 
ATOM     78  C   UNL A   1      43.513  36.053  31.402  1.00  0.00     0.009 A 
ATOM     79  C   UNL A   1      43.373  36.432  34.161  1.00  0.00     0.001 A 
ATOM     80  C   UNL A   1      43.943  37.256  31.963  1.00  0.00     0.001 A 
ATOM     81  C   UNL A   1      43.864  37.448  33.341  1.00  0.00     0.000 A 
ENDBRANCH  63  76
ENDBRANCH  37  38
ENDBRANCH  29  32
ENDBRANCH  27  28
ENDBRANCH  26  27
ENDBRANCH   1  26
TORSDOF 15
ENDMDL
MODEL 3
REMARK VINA RESULT:     -10.1      1.563      2.290
REMARK SMILES COc1ccccc1[C@H]([NH3+])c1nc(C(=O)NCCCCNC(=O)c2ccc(-c3c4nc(c(-c5ccccc5)c5ccc([nH]5)c(-c5ccccc5)c5nc(c(-c6ccccc6)c6ccc3[nH]6)C=C5)C=C4)cc2)c[nH]1
REMARK SMILES IDX 18 1 17 2 16 3 14 4 15 5 13 7 11 8 12 9 73 10 72 11 9 13
REMARK SMILES IDX 8 14 3 15 4 16 5 17 7 18 6 19 2 20 1 21 10 22 19 26 20 27
REMARK SMILES IDX 21 28 22 29 23 31 24 32 25 33 71 34 26 35 70 36 27 37 28 38
REMARK SMILES IDX 29 39 64 40 30 41 69 42 63 43 65 44 31 45 68 46 62 47 61 48
REMARK SMILES IDX 32 50 54 51 39 52 53 53 40 54 43 55 52 56 66 57 41 58 42 59
REMARK SMILES IDX 51 61 67 62 44 63 33 64 34 65 38 66 35 67 37 68 36 69 55 70
REMARK SMILES IDX 56 71 60 72 57 73 59 74 58 75 45 76 46 77 50 78 47 79 49 80
REMARK SMILES IDX 48 81
REMARK H PARENT 16 6 73 12 10 23 10 24 10 25 21 30 65 49 43 60
REMARK Flexibility Score: inf
ROOT
ATOM      1  C   UNL A   1      32.643  29.672  25.098  1.00  0.00     0.023 C 
ENDROOT
BRANCH   1   2
ATOM      2  C   UNL A   1      31.124  29.758  24.965  1.00  0.00     0.116 C 
BRANCH   2   3
ATOM      3  N   UNL A   1      30.717  29.990  23.589  1.00  0.00    -0.351 N 
ATOM      4  C   UNL A   1      30.159  29.112  22.689  1.00  0.00     0.271 C 
ATOM      5  O   UNL A   1      29.816  29.549  21.587  1.00  0.00    -0.267 OA
ATOM      6  H   UNL A   1      30.861  30.905  23.254  1.00  0.00     0.163 HD
BRANCH   4   7
ATOM      7  C   UNL A   1      29.956  27.712  23.067  1.00  0.00     0.146 A 
ATOM      8  C   UNL A   1      30.380  25.604  23.410  1.00  0.00     0.170 A 
ATOM      9  N   UNL A   1      30.882  26.706  22.888  1.00  0.00    -0.222 NA
ATOM     10  N   UNL A   1      29.111  25.860  23.883  1.00  0.00    -0.342 N 
ATOM     11  C   UNL A   1      28.822  27.176  23.643  1.00  0.00     0.118 A 
ATOM     12  H   UNL A   1      28.515  25.208  24.319  1.00  0.00     0.167 HD
BRANCH   8  13
ATOM     13  C   UNL A   1      31.054  24.243  23.426  1.00  0.00     0.283 C 
BRANCH  13  14
ATOM     14  C   UNL A   1      31.674  23.869  24.769  1.00  0.00     0.059 A 
ATOM     15  C   UNL A   1      32.981  24.185  25.177  1.00  0.00     0.128 A 
ATOM     16  C   UNL A   1      33.465  23.760  26.422  1.00  0.00     0.047 A 
ATOM     17  C   UNL A   1      32.639  23.056  27.297  1.00  0.00     0.004 A 
ATOM     18  C   UNL A   1      30.860  23.151  25.674  1.00  0.00     0.014 A 
ATOM     19  C   UNL A   1      31.333  22.756  26.925  1.00  0.00     0.001 A 
BRANCH  15  20
ATOM     20  O   UNL A   1      33.862  24.775  24.310  1.00  0.00    -0.496 OA
ATOM     21  C   UNL A   1      35.095  24.064  24.204  1.00  0.00     0.278 C 
ENDBRANCH  15  20
ENDBRANCH  13  14
BRANCH  13  22
ATOM     22  N   UNL A   1      31.970  24.115  22.283  1.00  0.00    -0.345 N 
ATOM     23  H   UNL A   1      31.445  24.213  21.413  1.00  0.00     0.345 HD
ATOM     24  H   UNL A   1      32.420  23.200  22.308  1.00  0.00     0.345 HD
ATOM     25  H   UNL A   1      32.681  24.845  22.333  1.00  0.00     0.345 HD
ENDBRANCH  13  22
ENDBRANCH   8  13
ENDBRANCH   4   7
ENDBRANCH   2   3
ENDBRANCH   1   2
BRANCH   1  26
ATOM     26  C   UNL A   1      33.125  28.418  25.832  1.00  0.00     0.023 C 
BRANCH  26  27
ATOM     27  C   UNL A   1      33.592  28.654  27.264  1.00  0.00     0.116 C 
BRANCH  27  28
ATOM     28  N   UNL A   1      33.587  30.059  27.649  1.00  0.00    -0.352 N 
ATOM     29  C   UNL A   1      34.603  30.781  28.229  1.00  0.00     0.251 C 
ATOM     30  H   UNL A   1      32.754  30.552  27.473  1.00  0.00     0.163 HD
ATOM     31  O   UNL A   1      34.425  31.931  28.615  1.00  0.00    -0.269 OA
BRANCH  29  32
ATOM     32  C   UNL A   1      35.917  30.133  28.412  1.00  0.00     0.039 A 
ATOM     33  C   UNL A   1      36.849  30.175  27.373  1.00  0.00     0.014 A 
ATOM     34  C   UNL A   1      36.243  29.542  29.636  1.00  0.00     0.014 A 
ATOM     35  C   UNL A   1      38.138  29.682  27.585  1.00  0.00     0.010 A 
ATOM     36  C   UNL A   1      37.547  29.128  29.870  1.00  0.00     0.010 A 
ATOM     37  C   UNL A   1      38.507  29.188  28.847  1.00  0.00    -0.014 A 
BRANCH  37  38
ATOM     38  C   UNL A   1      39.883  28.708  29.128  1.00  0.00     0.031 A 
ATOM     39  C   UNL A   1      40.881  29.642  29.756  1.00  0.00     0.074 A 
ATOM     40  C   UNL A   1      40.263  27.475  28.743  1.00  0.00     0.049 A 
ATOM     41  N   UNL A   1      42.160  29.467  29.966  1.00  0.00    -0.248 NA
ATOM     42  C   UNL A   1      40.377  30.961  30.172  1.00  0.00     0.031 C 
ATOM     43  C   UNL A   1      39.400  26.481  28.101  1.00  0.00     0.029 A 
ATOM     44  N   UNL A   1      41.484  26.853  28.820  1.00  0.00    -0.354 N 
ATOM     45  C   UNL A   1      42.616  30.659  30.512  1.00  0.00     0.074 A 
ATOM     46  C   UNL A   1      41.491  31.567  30.550  1.00  0.00     0.031 C 
ATOM     47  C   UNL A   1      40.114  25.369  27.862  1.00  0.00     0.029 A 
ATOM     48  C   UNL A   1      41.495  25.589  28.285  1.00  0.00     0.049 A 
ATOM     49  H   UNL A   1      42.278  27.275  29.222  1.00  0.00     0.167 HD
ATOM     50  C   UNL A   1      43.858  30.969  30.959  1.00  0.00     0.031 A 
ATOM     51  C   UNL A   1      42.505  24.711  28.135  1.00  0.00     0.031 A 
ATOM     52  C   UNL A   1      44.974  30.063  30.925  1.00  0.00     0.049 A 
ATOM     53  C   UNL A   1      43.882  25.086  28.609  1.00  0.00     0.074 A 
ATOM     54  C   UNL A   1      46.258  30.262  31.399  1.00  0.00     0.029 A 
ATOM     55  N   UNL A   1      44.938  28.787  30.384  1.00  0.00    -0.354 N 
ATOM     56  N   UNL A   1      44.288  26.197  29.176  1.00  0.00    -0.248 NA
ATOM     57  C   UNL A   1      44.940  24.080  28.432  1.00  0.00     0.031 C 
ATOM     58  C   UNL A   1      47.017  29.130  31.088  1.00  0.00     0.029 A 
ATOM     59  C   UNL A   1      46.186  28.196  30.488  1.00  0.00     0.049 A 
ATOM     60  H   UNL A   1      44.144  28.363  29.985  1.00  0.00     0.167 HD
ATOM     61  C   UNL A   1      45.635  26.011  29.457  1.00  0.00     0.074 A 
ATOM     62  C   UNL A   1      45.976  24.677  29.006  1.00  0.00     0.031 C 
ATOM     63  C   UNL A   1      46.510  26.865  30.042  1.00  0.00     0.031 A 
BRANCH  50  64
ATOM     64  C   UNL A   1      44.069  32.355  31.502  1.00  0.00    -0.014 A 
ATOM     65  C   UNL A   1      43.850  32.653  32.857  1.00  0.00     0.009 A 
ATOM     66  C   UNL A   1      44.515  33.377  30.648  1.00  0.00     0.009 A 
ATOM     67  C   UNL A   1      44.023  33.954  33.334  1.00  0.00     0.001 A 
ATOM     68  C   UNL A   1      44.723  34.669  31.136  1.00  0.00     0.001 A 
ATOM     69  C   UNL A   1      44.464  34.959  32.474  1.00  0.00     0.000 A 
ENDBRANCH  50  64
BRANCH  51  70
ATOM     70  C   UNL A   1      42.251  23.383  27.515  1.00  0.00    -0.014 A 
ATOM     71  C   UNL A   1      42.555  23.159  26.164  1.00  0.00     0.009 A 
ATOM     72  C   UNL A   1      41.702  22.333  28.269  1.00  0.00     0.009 A 
ATOM     73  C   UNL A   1      42.289  21.921  25.573  1.00  0.00     0.001 A 
ATOM     74  C   UNL A   1      41.467  21.087  27.684  1.00  0.00     0.001 A 
ATOM     75  C   UNL A   1      41.751  20.885  26.334  1.00  0.00     0.000 A 
ENDBRANCH  51  70
BRANCH  63  76
ATOM     76  C   UNL A   1      47.909  26.370  30.284  1.00  0.00    -0.014 A 
ATOM     77  C   UNL A   1      48.914  26.495  29.313  1.00  0.00     0.009 A 
ATOM     78  C   UNL A   1      48.236  25.820  31.534  1.00  0.00     0.009 A 
ATOM     79  C   UNL A   1      50.211  26.050  29.580  1.00  0.00     0.001 A 
ATOM     80  C   UNL A   1      49.541  25.408  31.810  1.00  0.00     0.001 A 
ATOM     81  C   UNL A   1      50.525  25.515  30.829  1.00  0.00     0.000 A 
ENDBRANCH  63  76
ENDBRANCH  37  38
ENDBRANCH  29  32
ENDBRANCH  27  28
ENDBRANCH  26  27
ENDBRANCH   1  26
TORSDOF 15
ENDMDL
