MODEL 1
REMARK VINA RESULT:     -12.3      0.000      0.000
REMARK SMILES Cc1ccc(C(=O)NCCCCNC(=O)c2ccc(-c3c4nc(c(-c5ccccc5)c5ccc([nH]5)c(-c5ccccc5)c5nc(c(-c6ccccc6)c6ccc3[nH]6)C=C5)C=C4)cc2)cc1O[C@@H](C)C(=O)N[C@@H]1CCS(=O)(=O)C1
REMARK SMILES IDX 9 1 8 2 6 3 7 4 5 6 1 7 2 8 3 9 65 10 4 11 64 12 66 13 67 14
REMARK SMILES IDX 68 15 69 16 70 17 71 18 72 20 73 21 78 22 74 23 75 24 76 25
REMARK SMILES IDX 77 26 10 27 11 28 12 29 13 30 14 31 15 33 16 34 17 35 63 36
REMARK SMILES IDX 18 37 62 38 19 39 20 40 21 41 56 42 22 43 61 44 55 45 57 46
REMARK SMILES IDX 23 47 60 48 54 49 53 50 24 52 46 53 31 54 45 55 32 56 35 57
REMARK SMILES IDX 44 58 58 59 33 60 34 61 43 63 59 64 36 65 25 66 26 67 30 68
REMARK SMILES IDX 27 69 29 70 28 71 47 72 48 73 52 74 49 75 51 76 50 77 37 78
REMARK SMILES IDX 38 79 42 80 39 81 41 82 40 83
REMARK H PARENT 8 5 71 19 13 32 57 51 35 62
REMARK Flexibility Score: inf
ROOT
ATOM      1  C   UNL A   1      32.867  29.514  24.792  1.00  0.00     0.116 C 
ENDROOT
BRANCH   1   2
ATOM      2  N   UNL A   1      31.536  29.426  24.210  1.00  0.00    -0.352 N 
ATOM      3  C   UNL A   1      30.807  28.410  23.631  1.00  0.00     0.251 C 
ATOM      4  O   UNL A   1      29.658  28.686  23.277  1.00  0.00    -0.269 OA
ATOM      5  H   UNL A   1      31.049  30.282  24.234  1.00  0.00     0.163 HD
BRANCH   3   6
ATOM      6  C   UNL A   1      31.327  27.040  23.313  1.00  0.00     0.043 A 
ATOM      7  C   UNL A   1      33.288  23.382  21.985  1.00  0.00     0.048 C 
ATOM      8  C   UNL A   1      32.641  24.635  22.500  1.00  0.00    -0.009 A 
ATOM      9  C   UNL A   1      32.064  25.510  21.560  1.00  0.00     0.008 A 
ATOM     10  C   UNL A   1      32.567  24.992  23.847  1.00  0.00     0.124 A 
ATOM     11  C   UNL A   1      31.465  26.713  21.957  1.00  0.00     0.014 A 
ATOM     12  C   UNL A   1      31.786  26.106  24.242  1.00  0.00     0.060 A 
BRANCH  10  13
ATOM     13  O   UNL A   1      33.211  24.431  24.898  1.00  0.00    -0.481 OA
BRANCH  13  14
ATOM     14  C   UNL A   1      32.982  23.161  25.481  1.00  0.00     0.258 C 
ATOM     15  C   UNL A   1      33.693  23.230  26.849  1.00  0.00     0.064 C 
BRANCH  14  16
ATOM     16  C   UNL A   1      31.829  22.049  25.557  1.00  0.00     0.261 C 
ATOM     17  O   UNL A   1      30.795  22.275  26.204  1.00  0.00    -0.271 OA
ATOM     18  N   UNL A   1      31.908  20.779  25.070  1.00  0.00    -0.349 N 
ATOM     19  H   UNL A   1      31.208  20.167  25.393  1.00  0.00     0.163 HD
BRANCH  18  20
ATOM     20  C   UNL A   1      32.857  20.187  24.153  1.00  0.00     0.098 C 
ATOM     21  C   UNL A   1      32.226  19.578  22.886  1.00  0.00     0.042 C 
ATOM     22  C   UNL A   1      33.748  19.163  24.821  1.00  0.00     0.161 C 
ATOM     23  C   UNL A   1      32.514  18.086  22.808  1.00  0.00     0.139 C 
ATOM     24  S   UNL A   1      33.127  17.585  24.380  1.00  0.00     0.152 S 
ATOM     25  O   UNL A   1      32.016  17.265  25.259  1.00  0.00    -0.229 OA
ATOM     26  O   UNL A   1      34.231  16.688  24.164  1.00  0.00    -0.229 OA
ENDBRANCH  18  20
ENDBRANCH  14  16
ENDBRANCH  13  14
ENDBRANCH  10  13
ENDBRANCH   3   6
ENDBRANCH   1   2
BRANCH   1  27
ATOM     27  C   UNL A   1      33.020  28.905  26.192  1.00  0.00     0.023 C 
BRANCH  27  28
ATOM     28  C   UNL A   1      34.401  28.853  26.821  1.00  0.00     0.023 C 
BRANCH  28  29
ATOM     29  C   UNL A   1      34.775  30.077  27.620  1.00  0.00     0.116 C 
BRANCH  29  30
ATOM     30  N   UNL A   1      33.925  31.241  27.427  1.00  0.00    -0.352 N 
ATOM     31  C   UNL A   1      33.896  32.441  28.120  1.00  0.00     0.251 C 
ATOM     32  H   UNL A   1      33.273  31.166  26.694  1.00  0.00     0.163 HD
ATOM     33  O   UNL A   1      33.005  33.250  27.868  1.00  0.00    -0.269 OA
BRANCH  31  34
ATOM     34  C   UNL A   1      35.026  32.852  29.006  1.00  0.00     0.039 A 
ATOM     35  C   UNL A   1      36.126  33.456  28.376  1.00  0.00     0.014 A 
ATOM     36  C   UNL A   1      35.210  32.237  30.230  1.00  0.00     0.014 A 
ATOM     37  C   UNL A   1      37.405  33.101  28.774  1.00  0.00     0.010 A 
ATOM     38  C   UNL A   1      36.427  31.673  30.465  1.00  0.00     0.010 A 
ATOM     39  C   UNL A   1      37.515  32.077  29.698  1.00  0.00    -0.014 A 
BRANCH  39  40
ATOM     40  C   UNL A   1      38.739  31.444  30.119  1.00  0.00     0.031 A 
ATOM     41  C   UNL A   1      39.026  30.155  29.480  1.00  0.00     0.074 A 
ATOM     42  C   UNL A   1      39.630  32.220  30.775  1.00  0.00     0.049 A 
ATOM     43  N   UNL A   1      39.979  29.372  29.821  1.00  0.00    -0.248 NA
ATOM     44  C   UNL A   1      38.204  29.612  28.389  1.00  0.00     0.031 C 
ATOM     45  C   UNL A   1      41.066  32.048  30.939  1.00  0.00     0.029 A 
ATOM     46  N   UNL A   1      39.316  33.265  31.644  1.00  0.00    -0.354 N 
ATOM     47  C   UNL A   1      40.122  28.458  28.801  1.00  0.00     0.074 A 
ATOM     48  C   UNL A   1      38.920  28.549  28.019  1.00  0.00     0.031 C 
ATOM     49  C   UNL A   1      41.459  32.710  32.045  1.00  0.00     0.029 A 
ATOM     50  C   UNL A   1      40.249  33.192  32.698  1.00  0.00     0.049 A 
ATOM     51  H   UNL A   1      38.589  33.921  31.543  1.00  0.00     0.167 HD
ATOM     52  C   UNL A   1      41.338  27.871  28.649  1.00  0.00     0.031 A 
ATOM     53  C   UNL A   1      39.820  32.778  33.933  1.00  0.00     0.031 A 
ATOM     54  C   UNL A   1      42.190  28.198  29.792  1.00  0.00     0.049 A 
ATOM     55  C   UNL A   1      40.416  31.433  34.299  1.00  0.00     0.074 A 
ATOM     56  C   UNL A   1      43.186  29.142  29.970  1.00  0.00     0.029 A 
ATOM     57  N   UNL A   1      41.766  27.818  31.062  1.00  0.00    -0.354 N 
ATOM     58  N   UNL A   1      40.759  30.519  33.429  1.00  0.00    -0.248 NA
ATOM     59  C   UNL A   1      40.743  31.055  35.670  1.00  0.00     0.031 C 
ATOM     60  C   UNL A   1      43.253  29.430  31.363  1.00  0.00     0.029 A 
ATOM     61  C   UNL A   1      42.333  28.632  32.024  1.00  0.00     0.049 A 
ATOM     62  H   UNL A   1      41.149  27.075  31.249  1.00  0.00     0.167 HD
ATOM     63  C   UNL A   1      41.408  29.501  34.074  1.00  0.00     0.074 A 
ATOM     64  C   UNL A   1      41.346  29.869  35.479  1.00  0.00     0.031 C 
ATOM     65  C   UNL A   1      41.993  28.448  33.429  1.00  0.00     0.031 A 
BRANCH  52  66
ATOM     66  C   UNL A   1      41.844  27.240  27.379  1.00  0.00    -0.014 A 
ATOM     67  C   UNL A   1      41.964  25.840  27.330  1.00  0.00     0.009 A 
ATOM     68  C   UNL A   1      42.314  27.936  26.250  1.00  0.00     0.009 A 
ATOM     69  C   UNL A   1      42.533  25.178  26.235  1.00  0.00     0.001 A 
ATOM     70  C   UNL A   1      42.871  27.281  25.143  1.00  0.00     0.001 A 
ATOM     71  C   UNL A   1      42.988  25.900  25.139  1.00  0.00     0.000 A 
ENDBRANCH  52  66
BRANCH  53  72
ATOM     72  C   UNL A   1      38.415  33.230  34.210  1.00  0.00    -0.014 A 
ATOM     73  C   UNL A   1      38.107  34.574  33.896  1.00  0.00     0.009 A 
ATOM     74  C   UNL A   1      37.363  32.305  34.267  1.00  0.00     0.009 A 
ATOM     75  C   UNL A   1      36.841  34.925  33.417  1.00  0.00     0.001 A 
ATOM     76  C   UNL A   1      36.080  32.680  33.839  1.00  0.00     0.001 A 
ATOM     77  C   UNL A   1      35.840  33.963  33.344  1.00  0.00     0.000 A 
ENDBRANCH  53  72
BRANCH  65  78
ATOM     78  C   UNL A   1      42.386  27.147  34.086  1.00  0.00    -0.014 A 
ATOM     79  C   UNL A   1      41.523  26.386  34.884  1.00  0.00     0.009 A 
ATOM     80  C   UNL A   1      43.633  26.564  33.768  1.00  0.00     0.009 A 
ATOM     81  C   UNL A   1      41.914  25.145  35.399  1.00  0.00     0.001 A 
ATOM     82  C   UNL A   1      44.000  25.297  34.221  1.00  0.00     0.001 A 
ATOM     83  C   UNL A   1      43.147  24.596  35.059  1.00  0.00     0.000 A 
ENDBRANCH  65  78
ENDBRANCH  39  40
ENDBRANCH  31  34
ENDBRANCH  29  30
ENDBRANCH  28  29
ENDBRANCH  27  28
ENDBRANCH   1  27
TORSDOF 15
ENDMDL
MODEL 2
REMARK VINA RESULT:     -11.9      3.339      5.028
REMARK SMILES Cc1ccc(C(=O)NCCCCNC(=O)c2ccc(-c3c4nc(c(-c5ccccc5)c5ccc([nH]5)c(-c5ccccc5)c5nc(c(-c6ccccc6)c6ccc3[nH]6)C=C5)C=C4)cc2)cc1O[C@@H](C)C(=O)N[C@@H]1CCS(=O)(=O)C1
REMARK SMILES IDX 9 1 8 2 6 3 7 4 5 6 1 7 2 8 3 9 65 10 4 11 64 12 66 13 67 14
REMARK SMILES IDX 68 15 69 16 70 17 71 18 72 20 73 21 78 22 74 23 75 24 76 25
REMARK SMILES IDX 77 26 10 27 11 28 12 29 13 30 14 31 15 33 16 34 17 35 63 36
REMARK SMILES IDX 18 37 62 38 19 39 20 40 21 41 56 42 22 43 61 44 55 45 57 46
REMARK SMILES IDX 23 47 60 48 54 49 53 50 24 52 46 53 31 54 45 55 32 56 35 57
REMARK SMILES IDX 44 58 58 59 33 60 34 61 43 63 59 64 36 65 25 66 26 67 30 68
REMARK SMILES IDX 27 69 29 70 28 71 47 72 48 73 52 74 49 75 51 76 50 77 37 78
REMARK SMILES IDX 38 79 42 80 39 81 41 82 40 83
REMARK H PARENT 8 5 71 19 13 32 57 51 35 62
REMARK Flexibility Score: inf
ROOT
ATOM      1  C   UNL A   1      34.411  30.439  27.222  1.00  0.00     0.116 C 
ENDROOT
BRANCH   1   2
ATOM      2  N   UNL A   1      33.191  29.767  27.642  1.00  0.00    -0.352 N 
ATOM      3  C   UNL A   1      32.550  28.610  27.254  1.00  0.00     0.251 C 
ATOM      4  O   UNL A   1      31.527  28.309  27.877  1.00  0.00    -0.269 OA
ATOM      5  H   UNL A   1      32.719  30.244  28.363  1.00  0.00     0.163 HD
BRANCH   3   6
ATOM      6  C   UNL A   1      32.936  27.753  26.086  1.00  0.00     0.043 A 
ATOM      7  C   UNL A   1      33.981  24.733  23.122  1.00  0.00     0.048 C 
ATOM      8  C   UNL A   1      33.564  25.782  24.114  1.00  0.00    -0.009 A 
ATOM      9  C   UNL A   1      34.300  25.884  25.310  1.00  0.00     0.008 A 
ATOM     10  C   UNL A   1      32.501  26.666  23.930  1.00  0.00     0.124 A 
ATOM     11  C   UNL A   1      33.959  26.817  26.297  1.00  0.00     0.014 A 
ATOM     12  C   UNL A   1      32.299  27.729  24.846  1.00  0.00     0.060 A 
BRANCH  10  13
ATOM     13  O   UNL A   1      31.539  26.633  22.978  1.00  0.00    -0.481 OA
BRANCH  13  14
ATOM     14  C   UNL A   1      30.175  26.284  23.131  1.00  0.00     0.258 C 
ATOM     15  C   UNL A   1      30.203  24.823  23.631  1.00  0.00     0.064 C 
BRANCH  14  16
ATOM     16  C   UNL A   1      28.793  26.956  23.588  1.00  0.00     0.261 C 
ATOM     17  O   UNL A   1      27.955  26.284  24.208  1.00  0.00    -0.271 OA
ATOM     18  N   UNL A   1      28.361  28.205  23.255  1.00  0.00    -0.349 N 
ATOM     19  H   UNL A   1      27.407  28.373  23.430  1.00  0.00     0.163 HD
BRANCH  18  20
ATOM     20  C   UNL A   1      29.081  29.321  22.685  1.00  0.00     0.098 C 
ATOM     21  C   UNL A   1      29.940  30.110  23.693  1.00  0.00     0.042 C 
ATOM     22  C   UNL A   1      28.176  30.273  21.933  1.00  0.00     0.161 C 
ATOM     23  C   UNL A   1      29.472  31.556  23.780  1.00  0.00     0.139 C 
ATOM     24  S   UNL A   1      27.907  31.651  22.981  1.00  0.00     0.152 S 
ATOM     25  O   UNL A   1      26.854  31.316  23.923  1.00  0.00    -0.229 OA
ATOM     26  O   UNL A   1      27.885  32.850  22.185  1.00  0.00    -0.229 OA
ENDBRANCH  18  20
ENDBRANCH  14  16
ENDBRANCH  13  14
ENDBRANCH  10  13
ENDBRANCH   3   6
ENDBRANCH   1   2
BRANCH   1  27
ATOM     27  C   UNL A   1      34.774  31.707  28.005  1.00  0.00     0.023 C 
BRANCH  27  28
ATOM     28  C   UNL A   1      33.821  32.889  27.969  1.00  0.00     0.023 C 
BRANCH  28  29
ATOM     29  C   UNL A   1      34.246  34.065  28.814  1.00  0.00     0.116 C 
BRANCH  29  30
ATOM     30  N   UNL A   1      33.678  34.121  30.151  1.00  0.00    -0.352 N 
ATOM     31  C   UNL A   1      34.304  34.037  31.384  1.00  0.00     0.251 C 
ATOM     32  H   UNL A   1      32.700  34.237  30.184  1.00  0.00     0.163 HD
ATOM     33  O   UNL A   1      33.611  33.984  32.399  1.00  0.00    -0.269 OA
BRANCH  31  34
ATOM     34  C   UNL A   1      35.781  34.215  31.516  1.00  0.00     0.039 A 
ATOM     35  C   UNL A   1      36.525  34.161  30.327  1.00  0.00     0.014 A 
ATOM     36  C   UNL A   1      36.411  33.936  32.714  1.00  0.00     0.014 A 
ATOM     37  C   UNL A   1      37.728  33.473  30.319  1.00  0.00     0.010 A 
ATOM     38  C   UNL A   1      37.437  33.042  32.683  1.00  0.00     0.010 A 
ATOM     39  C   UNL A   1      38.063  32.778  31.468  1.00  0.00    -0.014 A 
BRANCH  39  40
ATOM     40  C   UNL A   1      39.172  31.870  31.616  1.00  0.00     0.031 A 
ATOM     41  C   UNL A   1      39.034  30.595  30.902  1.00  0.00     0.074 A 
ATOM     42  C   UNL A   1      40.323  32.390  32.095  1.00  0.00     0.049 A 
ATOM     43  N   UNL A   1      39.835  29.606  31.023  1.00  0.00    -0.248 NA
ATOM     44  C   UNL A   1      37.917  30.317  29.989  1.00  0.00     0.031 C 
ATOM     45  C   UNL A   1      41.688  31.904  31.960  1.00  0.00     0.029 A 
ATOM     46  N   UNL A   1      40.425  33.416  33.035  1.00  0.00    -0.354 N 
ATOM     47  C   UNL A   1      39.571  28.754  29.975  1.00  0.00     0.074 A 
ATOM     48  C   UNL A   1      38.291  29.153  29.456  1.00  0.00     0.031 C 
ATOM     49  C   UNL A   1      42.425  32.390  32.978  1.00  0.00     0.029 A 
ATOM     50  C   UNL A   1      41.503  33.074  33.875  1.00  0.00     0.049 A 
ATOM     51  H   UNL A   1      39.858  34.219  33.099  1.00  0.00     0.167 HD
ATOM     52  C   UNL A   1      40.571  27.932  29.565  1.00  0.00     0.031 A 
ATOM     53  C   UNL A   1      41.239  32.679  35.161  1.00  0.00     0.031 A 
ATOM     54  C   UNL A   1      41.679  27.989  30.517  1.00  0.00     0.049 A 
ATOM     55  C   UNL A   1      41.579  31.216  35.367  1.00  0.00     0.074 A 
ATOM     56  C   UNL A   1      42.876  28.684  30.512  1.00  0.00     0.029 A 
ATOM     57  N   UNL A   1      41.434  27.624  31.838  1.00  0.00    -0.354 N 
ATOM     58  N   UNL A   1      41.533  30.311  34.423  1.00  0.00    -0.248 NA
ATOM     59  C   UNL A   1      42.071  30.683  36.633  1.00  0.00     0.031 C 
ATOM     60  C   UNL A   1      43.274  28.855  31.868  1.00  0.00     0.029 A 
ATOM     61  C   UNL A   1      42.344  28.230  32.683  1.00  0.00     0.049 A 
ATOM     62  H   UNL A   1      40.715  27.019  32.129  1.00  0.00     0.167 HD
ATOM     63  C   UNL A   1      42.051  29.135  34.899  1.00  0.00     0.074 A 
ATOM     64  C   UNL A   1      42.345  29.411  36.296  1.00  0.00     0.031 C 
ATOM     65  C   UNL A   1      42.249  28.028  34.123  1.00  0.00     0.031 A 
BRANCH  52  66
ATOM     66  C   UNL A   1      40.668  27.294  28.204  1.00  0.00    -0.014 A 
ATOM     67  C   UNL A   1      40.477  25.905  28.102  1.00  0.00     0.009 A 
ATOM     68  C   UNL A   1      41.039  27.952  27.017  1.00  0.00     0.009 A 
ATOM     69  C   UNL A   1      40.664  25.214  26.898  1.00  0.00     0.001 A 
ATOM     70  C   UNL A   1      41.213  27.271  25.804  1.00  0.00     0.001 A 
ATOM     71  C   UNL A   1      41.032  25.898  25.746  1.00  0.00     0.000 A 
ENDBRANCH  52  66
BRANCH  53  72
ATOM     72  C   UNL A   1      40.052  33.401  35.729  1.00  0.00    -0.014 A 
ATOM     73  C   UNL A   1      38.903  32.620  35.997  1.00  0.00     0.009 A 
ATOM     74  C   UNL A   1      40.212  34.605  36.428  1.00  0.00     0.009 A 
ATOM     75  C   UNL A   1      38.081  32.908  37.092  1.00  0.00     0.001 A 
ATOM     76  C   UNL A   1      39.348  34.916  37.490  1.00  0.00     0.001 A 
ATOM     77  C   UNL A   1      38.335  34.033  37.867  1.00  0.00     0.000 A 
ENDBRANCH  53  72
BRANCH  65  78
ATOM     78  C   UNL A   1      42.460  26.632  34.657  1.00  0.00    -0.014 A 
ATOM     79  C   UNL A   1      41.542  25.963  35.475  1.00  0.00     0.009 A 
ATOM     80  C   UNL A   1      43.562  25.877  34.193  1.00  0.00     0.009 A 
ATOM     81  C   UNL A   1      41.751  24.636  35.870  1.00  0.00     0.001 A 
ATOM     82  C   UNL A   1      43.738  24.535  34.528  1.00  0.00     0.001 A 
ATOM     83  C   UNL A   1      42.842  23.919  35.388  1.00  0.00     0.000 A 
ENDBRANCH  65  78
ENDBRANCH  39  40
ENDBRANCH  31  34
ENDBRANCH  29  30
ENDBRANCH  28  29
ENDBRANCH  27  28
ENDBRANCH   1  27
TORSDOF 15
ENDMDL
MODEL 3
REMARK VINA RESULT:     -11.2      3.348      7.528
REMARK SMILES Cc1ccc(C(=O)NCCCCNC(=O)c2ccc(-c3c4nc(c(-c5ccccc5)c5ccc([nH]5)c(-c5ccccc5)c5nc(c(-c6ccccc6)c6ccc3[nH]6)C=C5)C=C4)cc2)cc1O[C@@H](C)C(=O)N[C@@H]1CCS(=O)(=O)C1
REMARK SMILES IDX 9 1 8 2 6 3 7 4 5 6 1 7 2 8 3 9 65 10 4 11 64 12 66 13 67 14
REMARK SMILES IDX 68 15 69 16 70 17 71 18 72 20 73 21 78 22 74 23 75 24 76 25
REMARK SMILES IDX 77 26 10 27 11 28 12 29 13 30 14 31 15 33 16 34 17 35 63 36
REMARK SMILES IDX 18 37 62 38 19 39 20 40 21 41 56 42 22 43 61 44 55 45 57 46
REMARK SMILES IDX 23 47 60 48 54 49 53 50 24 52 46 53 31 54 45 55 32 56 35 57
REMARK SMILES IDX 44 58 58 59 33 60 34 61 43 63 59 64 36 65 25 66 26 67 30 68
REMARK SMILES IDX 27 69 29 70 28 71 47 72 48 73 52 74 49 75 51 76 50 77 37 78
REMARK SMILES IDX 38 79 42 80 39 81 41 82 40 83
REMARK H PARENT 8 5 71 19 13 32 57 51 35 62
REMARK Flexibility Score: inf
ROOT
ATOM      1  C   UNL A   1      39.203  24.222  27.376  1.00  0.00     0.116 C 
ENDROOT
BRANCH   1   2
ATOM      2  N   UNL A   1      39.109  22.876  26.830  1.00  0.00    -0.352 N 
ATOM      3  C   UNL A   1      38.326  22.287  25.860  1.00  0.00     0.251 C 
ATOM      4  O   UNL A   1      38.553  21.099  25.613  1.00  0.00    -0.269 OA
ATOM      5  H   UNL A   1      39.744  22.248  27.244  1.00  0.00     0.163 HD
BRANCH   3   6
ATOM      6  C   UNL A   1      37.171  22.940  25.161  1.00  0.00     0.043 A 
ATOM      7  C   UNL A   1      33.639  24.201  22.941  1.00  0.00     0.048 C 
ATOM      8  C   UNL A   1      34.825  23.779  23.761  1.00  0.00    -0.009 A 
ATOM      9  C   UNL A   1      35.845  23.055  23.116  1.00  0.00     0.008 A 
ATOM     10  C   UNL A   1      34.988  24.058  25.118  1.00  0.00     0.124 A 
ATOM     11  C   UNL A   1      36.971  22.601  23.816  1.00  0.00     0.014 A 
ATOM     12  C   UNL A   1      36.219  23.766  25.757  1.00  0.00     0.060 A 
BRANCH  10  13
ATOM     13  O   UNL A   1      34.074  24.550  25.988  1.00  0.00    -0.481 OA
BRANCH  13  14
ATOM     14  C   UNL A   1      32.752  24.096  26.208  1.00  0.00     0.258 C 
ATOM     15  C   UNL A   1      32.898  22.968  27.252  1.00  0.00     0.064 C 
BRANCH  14  16
ATOM     16  C   UNL A   1      31.263  24.686  26.297  1.00  0.00     0.261 C 
ATOM     17  O   UNL A   1      30.424  24.137  27.026  1.00  0.00    -0.271 OA
ATOM     18  N   UNL A   1      30.756  25.697  25.536  1.00  0.00    -0.349 N 
ATOM     19  H   UNL A   1      29.776  25.782  25.562  1.00  0.00     0.163 HD
BRANCH  18  20
ATOM     20  C   UNL A   1      31.428  26.663  24.697  1.00  0.00     0.098 C 
ATOM     21  C   UNL A   1      31.387  28.109  25.228  1.00  0.00     0.042 C 
ATOM     22  C   UNL A   1      30.937  26.631  23.266  1.00  0.00     0.161 C 
ATOM     23  C   UNL A   1      30.672  29.022  24.242  1.00  0.00     0.139 C 
ATOM     24  S   UNL A   1      29.852  27.993  23.073  1.00  0.00     0.152 S 
ATOM     25  O   UNL A   1      28.545  27.618  23.582  1.00  0.00    -0.229 OA
ATOM     26  O   UNL A   1      30.042  28.564  21.766  1.00  0.00    -0.229 OA
ENDBRANCH  18  20
ENDBRANCH  14  16
ENDBRANCH  13  14
ENDBRANCH  10  13
ENDBRANCH   3   6
ENDBRANCH   1   2
BRANCH   1  27
ATOM     27  C   UNL A   1      39.947  25.241  26.505  1.00  0.00     0.023 C 
BRANCH  27  28
ATOM     28  C   UNL A   1      41.433  25.456  26.735  1.00  0.00     0.023 C 
BRANCH  28  29
ATOM     29  C   UNL A   1      41.902  26.875  26.530  1.00  0.00     0.116 C 
BRANCH  29  30
ATOM     30  N   UNL A   1      40.858  27.885  26.476  1.00  0.00    -0.352 N 
ATOM     31  C   UNL A   1      40.153  28.487  27.506  1.00  0.00     0.251 C 
ATOM     32  H   UNL A   1      40.615  28.187  25.571  1.00  0.00     0.163 HD
ATOM     33  O   UNL A   1      39.217  29.234  27.227  1.00  0.00    -0.269 OA
BRANCH  31  34
ATOM     34  C   UNL A   1      40.631  28.410  28.919  1.00  0.00     0.039 A 
ATOM     35  C   UNL A   1      39.685  28.010  29.877  1.00  0.00     0.014 A 
ATOM     36  C   UNL A   1      41.724  29.151  29.326  1.00  0.00     0.014 A 
ATOM     37  C   UNL A   1      39.646  28.669  31.096  1.00  0.00     0.010 A 
ATOM     38  C   UNL A   1      41.549  29.986  30.387  1.00  0.00     0.010 A 
ATOM     39  C   UNL A   1      40.475  29.766  31.245  1.00  0.00    -0.014 A 
BRANCH  39  40
ATOM     40  C   UNL A   1      40.472  30.685  32.355  1.00  0.00     0.031 A 
ATOM     41  C   UNL A   1      41.221  30.239  33.535  1.00  0.00     0.074 A 
ATOM     42  C   UNL A   1      40.085  31.953  32.094  1.00  0.00     0.049 A 
ATOM     43  N   UNL A   1      41.218  30.839  34.665  1.00  0.00    -0.248 NA
ATOM     44  C   UNL A   1      42.033  29.014  33.540  1.00  0.00     0.031 C 
ATOM     45  C   UNL A   1      40.371  33.180  32.823  1.00  0.00     0.029 A 
ATOM     46  N   UNL A   1      39.119  32.335  31.163  1.00  0.00    -0.354 N 
ATOM     47  C   UNL A   1      42.271  30.323  35.388  1.00  0.00     0.074 A 
ATOM     48  C   UNL A   1      42.647  29.106  34.721  1.00  0.00     0.031 C 
ATOM     49  C   UNL A   1      39.411  34.083  32.547  1.00  0.00     0.029 A 
ATOM     50  C   UNL A   1      38.401  33.394  31.754  1.00  0.00     0.049 A 
ATOM     51  H   UNL A   1      38.967  31.943  30.272  1.00  0.00     0.167 HD
ATOM     52  C   UNL A   1      42.808  31.104  36.360  1.00  0.00     0.031 A 
ATOM     53  C   UNL A   1      37.113  33.170  32.166  1.00  0.00     0.031 A 
ATOM     54  C   UNL A   1      41.966  32.280  36.572  1.00  0.00     0.049 A 
ATOM     55  C   UNL A   1      37.001  33.233  33.676  1.00  0.00     0.074 A 
ATOM     56  C   UNL A   1      42.058  33.584  36.119  1.00  0.00     0.029 A 
ATOM     57  N   UNL A   1      40.644  32.084  36.961  1.00  0.00    -0.354 N 
ATOM     58  N   UNL A   1      37.972  32.930  34.499  1.00  0.00    -0.248 NA
ATOM     59  C   UNL A   1      35.811  33.720  34.367  1.00  0.00     0.031 C 
ATOM     60  C   UNL A   1      40.740  34.124  36.107  1.00  0.00     0.029 A 
ATOM     61  C   UNL A   1      39.866  33.164  36.590  1.00  0.00     0.049 A 
ATOM     62  H   UNL A   1      40.310  31.288  37.433  1.00  0.00     0.167 HD
ATOM     63  C   UNL A   1      37.597  33.247  35.777  1.00  0.00     0.074 A 
ATOM     64  C   UNL A   1      36.225  33.709  35.646  1.00  0.00     0.031 C 
ATOM     65  C   UNL A   1      38.433  33.156  36.855  1.00  0.00     0.031 A 
BRANCH  52  66
ATOM     66  C   UNL A   1      44.198  30.956  36.923  1.00  0.00    -0.014 A 
ATOM     67  C   UNL A   1      44.515  29.775  37.618  1.00  0.00     0.009 A 
ATOM     68  C   UNL A   1      45.196  31.947  36.908  1.00  0.00     0.009 A 
ATOM     69  C   UNL A   1      45.741  29.602  38.272  1.00  0.00     0.001 A 
ATOM     70  C   UNL A   1      46.432  31.776  37.548  1.00  0.00     0.001 A 
ATOM     71  C   UNL A   1      46.702  30.605  38.237  1.00  0.00     0.000 A 
ENDBRANCH  52  66
BRANCH  53  72
ATOM     72  C   UNL A   1      36.404  32.201  31.265  1.00  0.00    -0.014 A 
ATOM     73  C   UNL A   1      36.283  32.570  29.905  1.00  0.00     0.009 A 
ATOM     74  C   UNL A   1      36.337  30.839  31.589  1.00  0.00     0.009 A 
ATOM     75  C   UNL A   1      36.342  31.607  28.893  1.00  0.00     0.001 A 
ATOM     76  C   UNL A   1      36.338  29.876  30.567  1.00  0.00     0.001 A 
ATOM     77  C   UNL A   1      36.417  30.259  29.228  1.00  0.00     0.000 A 
ENDBRANCH  53  72
BRANCH  65  78
ATOM     78  C   UNL A   1      37.980  33.136  38.295  1.00  0.00    -0.014 A 
ATOM     79  C   UNL A   1      37.158  32.142  38.839  1.00  0.00     0.009 A 
ATOM     80  C   UNL A   1      38.528  34.071  39.202  1.00  0.00     0.009 A 
ATOM     81  C   UNL A   1      36.840  32.126  40.202  1.00  0.00     0.001 A 
ATOM     82  C   UNL A   1      38.269  34.019  40.571  1.00  0.00     0.001 A 
ATOM     83  C   UNL A   1      37.404  33.057  41.069  1.00  0.00     0.000 A 
ENDBRANCH  65  78
ENDBRANCH  39  40
ENDBRANCH  31  34
ENDBRANCH  29  30
ENDBRANCH  28  29
ENDBRANCH  27  28
ENDBRANCH   1  27
TORSDOF 15
ENDMDL
