MODEL 1
REMARK VINA RESULT:     -10.5      0.000      0.000
REMARK SMILES CCC(CC)(NC(=O)NC[C@@H]1CCCOC1)C(=O)NCCCCNC(=O)c1ccc(-c2c3nc(c(-c4ccccc4)c4ccc([nH]4)c(-c4ccccc4)c4nc(c(-c5ccccc5)c5ccc2[nH]5)C=C4)C=C3)cc1
REMARK SMILES IDX 21 1 20 2 19 3 17 4 18 5 3 7 2 8 1 9 4 10 5 11 6 12 7 13
REMARK SMILES IDX 8 15 9 16 10 18 11 19 12 20 16 21 13 22 15 23 14 24 22 25
REMARK SMILES IDX 23 26 24 27 25 28 26 30 27 31 28 32 74 33 29 34 73 35 30 36
REMARK SMILES IDX 31 37 32 38 67 39 33 40 72 41 66 42 68 43 34 44 71 45 65 46
REMARK SMILES IDX 64 47 35 49 57 50 42 51 56 52 43 53 46 54 55 55 69 56 44 57
REMARK SMILES IDX 45 58 54 60 70 61 47 62 36 63 37 64 41 65 38 66 40 67 39 68
REMARK SMILES IDX 58 69 59 70 63 71 60 72 62 73 61 74 48 75 49 76 53 77 50 78
REMARK SMILES IDX 52 79 51 80
REMARK H PARENT 19 6 6 14 9 17 24 29 68 48 46 59
REMARK Flexibility Score: inf
ROOT
ATOM      1  C   UNL A   1      31.412  30.788  25.762  1.00  0.00     0.023 C 
ENDROOT
BRANCH   1   2
ATOM      2  C   UNL A   1      32.515  29.706  25.840  1.00  0.00     0.116 C 
BRANCH   2   3
ATOM      3  N   UNL A   1      33.464  29.387  24.766  1.00  0.00    -0.354 N 
ATOM      4  C   UNL A   1      33.417  28.658  23.596  1.00  0.00     0.245 C 
ATOM      5  O   UNL A   1      34.133  29.067  22.675  1.00  0.00    -0.272 OA
ATOM      6  H   UNL A   1      34.349  29.793  24.917  1.00  0.00     0.163 HD
BRANCH   4   7
ATOM      7  C   UNL A   1      32.397  27.525  23.330  1.00  0.00     0.120 C 
BRANCH   7   8
ATOM      8  C   UNL A   1      30.868  27.824  23.299  1.00  0.00     0.035 C 
ATOM      9  C   UNL A   1      30.365  29.075  22.600  1.00  0.00     0.007 C 
ENDBRANCH   7   8
BRANCH   7  10
ATOM     10  C   UNL A   1      32.732  26.584  24.541  1.00  0.00     0.035 C 
ATOM     11  C   UNL A   1      34.063  25.861  24.621  1.00  0.00     0.007 C 
ENDBRANCH   7  10
BRANCH   7  12
ATOM     12  N   UNL A   1      32.721  27.021  21.993  1.00  0.00    -0.324 N 
ATOM     13  C   UNL A   1      32.488  25.828  21.403  1.00  0.00     0.315 C 
ATOM     14  H   UNL A   1      33.194  27.668  21.421  1.00  0.00     0.166 HD
ATOM     15  O   UNL A   1      33.058  25.625  20.326  1.00  0.00    -0.249 OA
ATOM     16  N   UNL A   1      31.618  24.881  21.814  1.00  0.00    -0.338 N 
ATOM     17  H   UNL A   1      31.304  24.345  21.051  1.00  0.00     0.165 HD
BRANCH  16  18
ATOM     18  C   UNL A   1      30.997  24.410  23.070  1.00  0.00     0.123 C 
BRANCH  18  19
ATOM     19  C   UNL A   1      31.508  23.071  23.727  1.00  0.00     0.034 C 
ATOM     20  C   UNL A   1      31.515  23.001  25.259  1.00  0.00     0.010 C 
ATOM     21  C   UNL A   1      32.817  22.581  23.078  1.00  0.00     0.165 C 
ATOM     22  C   UNL A   1      32.733  22.388  25.962  1.00  0.00     0.029 C 
ATOM     23  O   UNL A   1      33.472  21.575  23.852  1.00  0.00    -0.381 OA
ATOM     24  C   UNL A   1      33.927  22.113  25.081  1.00  0.00     0.160 C 
ENDBRANCH  18  19
ENDBRANCH  16  18
ENDBRANCH   7  12
ENDBRANCH   4   7
ENDBRANCH   2   3
ENDBRANCH   1   2
BRANCH   1  25
ATOM     25  C   UNL A   1      31.312  32.106  26.558  1.00  0.00     0.023 C 
BRANCH  25  26
ATOM     26  C   UNL A   1      32.517  32.822  27.175  1.00  0.00     0.116 C 
BRANCH  26  27
ATOM     27  N   UNL A   1      32.293  34.137  27.726  1.00  0.00    -0.352 N 
ATOM     28  C   UNL A   1      33.077  34.783  28.660  1.00  0.00     0.251 C 
ATOM     29  H   UNL A   1      31.499  34.622  27.404  1.00  0.00     0.163 HD
ATOM     30  O   UNL A   1      32.711  35.857  29.140  1.00  0.00    -0.269 OA
BRANCH  28  31
ATOM     31  C   UNL A   1      34.349  34.178  29.131  1.00  0.00     0.039 A 
ATOM     32  C   UNL A   1      34.353  33.420  30.305  1.00  0.00     0.014 A 
ATOM     33  C   UNL A   1      35.554  34.409  28.462  1.00  0.00     0.014 A 
ATOM     34  C   UNL A   1      35.547  32.854  30.776  1.00  0.00     0.010 A 
ATOM     35  C   UNL A   1      36.741  33.806  28.909  1.00  0.00     0.010 A 
ATOM     36  C   UNL A   1      36.754  33.018  30.073  1.00  0.00    -0.014 A 
BRANCH  36  37
ATOM     37  C   UNL A   1      38.006  32.351  30.544  1.00  0.00     0.031 A 
ATOM     38  C   UNL A   1      38.832  32.927  31.668  1.00  0.00     0.074 A 
ATOM     39  C   UNL A   1      38.425  31.214  29.949  1.00  0.00     0.049 A 
ATOM     40  N   UNL A   1      39.919  32.448  32.225  1.00  0.00    -0.248 NA
ATOM     41  C   UNL A   1      38.387  34.209  32.231  1.00  0.00     0.031 C 
ATOM     42  C   UNL A   1      37.757  30.553  28.827  1.00  0.00     0.029 A 
ATOM     43  N   UNL A   1      39.510  30.409  30.209  1.00  0.00    -0.354 N 
ATOM     44  C   UNL A   1      40.286  33.367  33.202  1.00  0.00     0.074 A 
ATOM     45  C   UNL A   1      39.335  34.457  33.125  1.00  0.00     0.031 C 
ATOM     46  C   UNL A   1      38.428  29.433  28.514  1.00  0.00     0.029 A 
ATOM     47  C   UNL A   1      39.591  29.308  29.389  1.00  0.00     0.049 A 
ATOM     48  H   UNL A   1      40.168  30.603  30.915  1.00  0.00     0.167 HD
ATOM     49  C   UNL A   1      41.307  33.308  34.094  1.00  0.00     0.031 A 
ATOM     50  C   UNL A   1      40.493  28.308  29.339  1.00  0.00     0.031 A 
ATOM     51  C   UNL A   1      42.268  32.239  34.175  1.00  0.00     0.049 A 
ATOM     52  C   UNL A   1      41.635  28.280  30.318  1.00  0.00     0.074 A 
ATOM     53  C   UNL A   1      43.307  32.079  35.079  1.00  0.00     0.029 A 
ATOM     54  N   UNL A   1      42.321  31.153  33.315  1.00  0.00    -0.354 N 
ATOM     55  N   UNL A   1      41.915  29.118  31.286  1.00  0.00    -0.248 NA
ATOM     56  C   UNL A   1      42.578  27.156  30.207  1.00  0.00     0.031 C 
ATOM     57  C   UNL A   1      44.022  30.928  34.730  1.00  0.00     0.029 A 
ATOM     58  C   UNL A   1      43.390  30.336  33.648  1.00  0.00     0.049 A 
ATOM     59  H   UNL A   1      41.691  30.988  32.576  1.00  0.00     0.167 HD
ATOM     60  C   UNL A   1      43.046  28.608  31.914  1.00  0.00     0.074 A 
ATOM     61  C   UNL A   1      43.390  27.380  31.230  1.00  0.00     0.031 C 
ATOM     62  C   UNL A   1      43.735  29.116  32.964  1.00  0.00     0.031 A 
BRANCH  49  63
ATOM     63  C   UNL A   1      41.443  34.452  35.067  1.00  0.00    -0.014 A 
ATOM     64  C   UNL A   1      42.254  35.561  34.774  1.00  0.00     0.009 A 
ATOM     65  C   UNL A   1      40.717  34.443  36.268  1.00  0.00     0.009 A 
ATOM     66  C   UNL A   1      42.367  36.615  35.683  1.00  0.00     0.001 A 
ATOM     67  C   UNL A   1      40.809  35.513  37.161  1.00  0.00     0.001 A 
ATOM     68  C   UNL A   1      41.642  36.593  36.873  1.00  0.00     0.000 A 
ENDBRANCH  49  63
BRANCH  50  69
ATOM     69  C   UNL A   1      40.351  27.229  28.324  1.00  0.00    -0.014 A 
ATOM     70  C   UNL A   1      39.634  26.058  28.618  1.00  0.00     0.009 A 
ATOM     71  C   UNL A   1      40.944  27.360  27.059  1.00  0.00     0.009 A 
ATOM     72  C   UNL A   1      39.538  25.031  27.675  1.00  0.00     0.001 A 
ATOM     73  C   UNL A   1      40.821  26.346  26.108  1.00  0.00     0.001 A 
ATOM     74  C   UNL A   1      40.127  25.178  26.420  1.00  0.00     0.000 A 
ENDBRANCH  50  69
BRANCH  62  75
ATOM     75  C   UNL A   1      44.916  28.330  33.466  1.00  0.00    -0.014 A 
ATOM     76  C   UNL A   1      44.769  27.324  34.434  1.00  0.00     0.009 A 
ATOM     77  C   UNL A   1      46.191  28.576  32.932  1.00  0.00     0.009 A 
ATOM     78  C   UNL A   1      45.881  26.605  34.881  1.00  0.00     0.001 A 
ATOM     79  C   UNL A   1      47.295  27.834  33.359  1.00  0.00     0.001 A 
ATOM     80  C   UNL A   1      47.141  26.857  34.339  1.00  0.00     0.000 A 
ENDBRANCH  62  75
ENDBRANCH  36  37
ENDBRANCH  28  31
ENDBRANCH  26  27
ENDBRANCH  25  26
ENDBRANCH   1  25
TORSDOF 16
ENDMDL
MODEL 2
REMARK VINA RESULT:     -10.5      1.547      3.375
REMARK SMILES CCC(CC)(NC(=O)NC[C@@H]1CCCOC1)C(=O)NCCCCNC(=O)c1ccc(-c2c3nc(c(-c4ccccc4)c4ccc([nH]4)c(-c4ccccc4)c4nc(c(-c5ccccc5)c5ccc2[nH]5)C=C4)C=C3)cc1
REMARK SMILES IDX 21 1 20 2 19 3 17 4 18 5 3 7 2 8 1 9 4 10 5 11 6 12 7 13
REMARK SMILES IDX 8 15 9 16 10 18 11 19 12 20 16 21 13 22 15 23 14 24 22 25
REMARK SMILES IDX 23 26 24 27 25 28 26 30 27 31 28 32 74 33 29 34 73 35 30 36
REMARK SMILES IDX 31 37 32 38 67 39 33 40 72 41 66 42 68 43 34 44 71 45 65 46
REMARK SMILES IDX 64 47 35 49 57 50 42 51 56 52 43 53 46 54 55 55 69 56 44 57
REMARK SMILES IDX 45 58 54 60 70 61 47 62 36 63 37 64 41 65 38 66 40 67 39 68
REMARK SMILES IDX 58 69 59 70 63 71 60 72 62 73 61 74 48 75 49 76 53 77 50 78
REMARK SMILES IDX 52 79 51 80
REMARK H PARENT 19 6 6 14 9 17 24 29 68 48 46 59
REMARK Flexibility Score: inf
ROOT
ATOM      1  C   UNL A   1      31.403  30.840  26.165  1.00  0.00     0.023 C 
ENDROOT
BRANCH   1   2
ATOM      2  C   UNL A   1      32.595  29.861  26.276  1.00  0.00     0.116 C 
BRANCH   2   3
ATOM      3  N   UNL A   1      33.438  29.424  25.156  1.00  0.00    -0.354 N 
ATOM      4  C   UNL A   1      33.377  28.418  24.214  1.00  0.00     0.245 C 
ATOM      5  O   UNL A   1      33.873  28.679  23.112  1.00  0.00    -0.272 OA
ATOM      6  H   UNL A   1      34.240  29.985  25.052  1.00  0.00     0.163 HD
BRANCH   4   7
ATOM      7  C   UNL A   1      32.568  27.112  24.400  1.00  0.00     0.120 C 
BRANCH   7   8
ATOM      8  C   UNL A   1      31.187  27.131  25.124  1.00  0.00     0.035 C 
ATOM      9  C   UNL A   1      30.638  25.847  25.721  1.00  0.00     0.007 C 
ENDBRANCH   7   8
BRANCH   7  10
ATOM     10  C   UNL A   1      33.600  26.284  25.244  1.00  0.00     0.035 C 
ATOM     11  C   UNL A   1      34.136  24.958  24.736  1.00  0.00     0.007 C 
ENDBRANCH   7  10
BRANCH   7  12
ATOM     12  N   UNL A   1      32.288  26.634  23.044  1.00  0.00    -0.324 N 
ATOM     13  C   UNL A   1      31.416  27.061  22.105  1.00  0.00     0.315 C 
ATOM     14  H   UNL A   1      32.835  25.864  22.767  1.00  0.00     0.166 HD
ATOM     15  O   UNL A   1      31.265  26.331  21.120  1.00  0.00    -0.249 OA
ATOM     16  N   UNL A   1      30.773  28.248  22.081  1.00  0.00    -0.338 N 
ATOM     17  H   UNL A   1      30.564  28.509  21.155  1.00  0.00     0.165 HD
BRANCH  16  18
ATOM     18  C   UNL A   1      30.290  29.271  23.031  1.00  0.00     0.123 C 
BRANCH  18  19
ATOM     19  C   UNL A   1      28.939  30.027  22.729  1.00  0.00     0.034 C 
ATOM     20  C   UNL A   1      28.568  30.236  21.256  1.00  0.00     0.010 C 
ATOM     21  C   UNL A   1      28.789  31.294  23.593  1.00  0.00     0.165 C 
ATOM     22  C   UNL A   1      28.017  31.600  20.823  1.00  0.00     0.029 C 
ATOM     23  O   UNL A   1      27.760  32.163  23.120  1.00  0.00    -0.381 OA
ATOM     24  C   UNL A   1      28.104  32.699  21.854  1.00  0.00     0.160 C 
ENDBRANCH  18  19
ENDBRANCH  16  18
ENDBRANCH   7  12
ENDBRANCH   4   7
ENDBRANCH   2   3
ENDBRANCH   1   2
BRANCH   1  25
ATOM     25  C   UNL A   1      31.366  32.340  26.523  1.00  0.00     0.023 C 
BRANCH  25  26
ATOM     26  C   UNL A   1      32.528  33.088  27.182  1.00  0.00     0.116 C 
BRANCH  26  27
ATOM     27  N   UNL A   1      32.248  34.392  27.733  1.00  0.00    -0.352 N 
ATOM     28  C   UNL A   1      32.933  35.020  28.753  1.00  0.00     0.251 C 
ATOM     29  H   UNL A   1      31.490  34.884  27.341  1.00  0.00     0.163 HD
ATOM     30  O   UNL A   1      32.519  36.085  29.213  1.00  0.00    -0.269 OA
BRANCH  28  31
ATOM     31  C   UNL A   1      34.153  34.406  29.338  1.00  0.00     0.039 A 
ATOM     32  C   UNL A   1      34.039  33.627  30.493  1.00  0.00     0.014 A 
ATOM     33  C   UNL A   1      35.418  34.648  28.797  1.00  0.00     0.014 A 
ATOM     34  C   UNL A   1      35.181  33.052  31.071  1.00  0.00     0.010 A 
ATOM     35  C   UNL A   1      36.555  34.037  29.350  1.00  0.00     0.010 A 
ATOM     36  C   UNL A   1      36.452  33.228  30.495  1.00  0.00    -0.014 A 
BRANCH  36  37
ATOM     37  C   UNL A   1      37.651  32.552  31.077  1.00  0.00     0.031 A 
ATOM     38  C   UNL A   1      38.299  33.049  32.346  1.00  0.00     0.074 A 
ATOM     39  C   UNL A   1      38.184  31.478  30.456  1.00  0.00     0.049 A 
ATOM     40  N   UNL A   1      39.317  32.550  33.006  1.00  0.00    -0.248 NA
ATOM     41  C   UNL A   1      37.740  34.270  32.944  1.00  0.00     0.031 C 
ATOM     42  C   UNL A   1      37.695  30.900  29.204  1.00  0.00     0.029 A 
ATOM     43  N   UNL A   1      39.251  30.679  30.795  1.00  0.00    -0.354 N 
ATOM     44  C   UNL A   1      39.520  33.391  34.094  1.00  0.00     0.074 A 
ATOM     45  C   UNL A   1      38.551  34.462  33.976  1.00  0.00     0.031 C 
ATOM     46  C   UNL A   1      38.439  29.825  28.896  1.00  0.00     0.029 A 
ATOM     47  C   UNL A   1      39.478  29.653  29.909  1.00  0.00     0.049 A 
ATOM     48  H   UNL A   1      39.801  30.828  31.598  1.00  0.00     0.167 HD
ATOM     49  C   UNL A   1      40.413  33.281  35.109  1.00  0.00     0.031 A 
ATOM     50  C   UNL A   1      40.411  28.681  29.902  1.00  0.00     0.031 A 
ATOM     51  C   UNL A   1      41.390  32.230  35.234  1.00  0.00     0.049 A 
ATOM     52  C   UNL A   1      41.412  28.596  31.022  1.00  0.00     0.074 A 
ATOM     53  C   UNL A   1      42.303  32.018  36.255  1.00  0.00     0.029 A 
ATOM     54  N   UNL A   1      41.594  31.222  34.305  1.00  0.00    -0.354 N 
ATOM     55  N   UNL A   1      41.532  29.356  32.083  1.00  0.00    -0.248 NA
ATOM     56  C   UNL A   1      42.399  27.507  30.950  1.00  0.00     0.031 C 
ATOM     57  C   UNL A   1      43.097  30.916  35.915  1.00  0.00     0.029 A 
ATOM     58  C   UNL A   1      42.636  30.404  34.714  1.00  0.00     0.049 A 
ATOM     59  H   UNL A   1      41.075  31.105  33.477  1.00  0.00     0.167 HD
ATOM     60  C   UNL A   1      42.585  28.820  32.816  1.00  0.00     0.074 A 
ATOM     61  C   UNL A   1      43.059  27.662  32.088  1.00  0.00     0.031 C 
ATOM     62  C   UNL A   1      43.110  29.253  33.988  1.00  0.00     0.031 A 
BRANCH  49  63
ATOM     63  C   UNL A   1      40.380  34.341  36.180  1.00  0.00    -0.014 A 
ATOM     64  C   UNL A   1      41.159  35.504  36.074  1.00  0.00     0.009 A 
ATOM     65  C   UNL A   1      39.524  34.198  37.284  1.00  0.00     0.009 A 
ATOM     66  C   UNL A   1      41.115  36.481  37.071  1.00  0.00     0.001 A 
ATOM     67  C   UNL A   1      39.460  35.191  38.264  1.00  0.00     0.001 A 
ATOM     68  C   UNL A   1      40.263  36.326  38.163  1.00  0.00     0.000 A 
ENDBRANCH  49  63
BRANCH  50  69
ATOM     69  C   UNL A   1      40.443  27.689  28.793  1.00  0.00    -0.014 A 
ATOM     70  C   UNL A   1      41.161  27.952  27.616  1.00  0.00     0.009 A 
ATOM     71  C   UNL A   1      39.742  26.478  28.901  1.00  0.00     0.009 A 
ATOM     72  C   UNL A   1      41.154  27.035  26.561  1.00  0.00     0.001 A 
ATOM     73  C   UNL A   1      39.762  25.550  27.859  1.00  0.00     0.001 A 
ATOM     74  C   UNL A   1      40.459  25.833  26.686  1.00  0.00     0.000 A 
ENDBRANCH  50  69
BRANCH  62  75
ATOM     75  C   UNL A   1      44.239  28.454  34.581  1.00  0.00    -0.014 A 
ATOM     76  C   UNL A   1      45.580  28.767  34.307  1.00  0.00     0.009 A 
ATOM     77  C   UNL A   1      43.954  27.394  35.457  1.00  0.00     0.009 A 
ATOM     78  C   UNL A   1      46.611  28.012  34.873  1.00  0.00     0.001 A 
ATOM     79  C   UNL A   1      44.988  26.661  36.044  1.00  0.00     0.001 A 
ATOM     80  C   UNL A   1      46.314  26.964  35.745  1.00  0.00     0.000 A 
ENDBRANCH  62  75
ENDBRANCH  36  37
ENDBRANCH  28  31
ENDBRANCH  26  27
ENDBRANCH  25  26
ENDBRANCH   1  25
TORSDOF 16
ENDMDL
MODEL 3
REMARK VINA RESULT:     -10.5      3.932      9.256
REMARK SMILES CCC(CC)(NC(=O)NC[C@@H]1CCCOC1)C(=O)NCCCCNC(=O)c1ccc(-c2c3nc(c(-c4ccccc4)c4ccc([nH]4)c(-c4ccccc4)c4nc(c(-c5ccccc5)c5ccc2[nH]5)C=C4)C=C3)cc1
REMARK SMILES IDX 21 1 20 2 19 3 17 4 18 5 3 7 2 8 1 9 4 10 5 11 6 12 7 13
REMARK SMILES IDX 8 15 9 16 10 18 11 19 12 20 16 21 13 22 15 23 14 24 22 25
REMARK SMILES IDX 23 26 24 27 25 28 26 30 27 31 28 32 74 33 29 34 73 35 30 36
REMARK SMILES IDX 31 37 32 38 67 39 33 40 72 41 66 42 68 43 34 44 71 45 65 46
REMARK SMILES IDX 64 47 35 49 57 50 42 51 56 52 43 53 46 54 55 55 69 56 44 57
REMARK SMILES IDX 45 58 54 60 70 61 47 62 36 63 37 64 41 65 38 66 40 67 39 68
REMARK SMILES IDX 58 69 59 70 63 71 60 72 62 73 61 74 48 75 49 76 53 77 50 78
REMARK SMILES IDX 52 79 51 80
REMARK H PARENT 19 6 6 14 9 17 24 29 68 48 46 59
REMARK Flexibility Score: inf
ROOT
ATOM      1  C   UNL A   1      36.600  20.367  25.000  1.00  0.00     0.023 C 
ENDROOT
BRANCH   1   2
ATOM      2  C   UNL A   1      36.344  21.861  25.306  1.00  0.00     0.116 C 
BRANCH   2   3
ATOM      3  N   UNL A   1      35.642  22.374  26.490  1.00  0.00    -0.354 N 
ATOM      4  C   UNL A   1      34.323  22.509  26.869  1.00  0.00     0.245 C 
ATOM      5  O   UNL A   1      34.096  22.404  28.079  1.00  0.00    -0.272 OA
ATOM      6  H   UNL A   1      36.264  22.701  27.179  1.00  0.00     0.163 HD
BRANCH   4   7
ATOM      7  C   UNL A   1      33.143  22.575  25.870  1.00  0.00     0.120 C 
BRANCH   7   8
ATOM      8  C   UNL A   1      32.897  21.417  24.855  1.00  0.00     0.035 C 
ATOM      9  C   UNL A   1      32.885  19.981  25.347  1.00  0.00     0.007 C 
ENDBRANCH   7   8
BRANCH   7  10
ATOM     10  C   UNL A   1      33.528  23.887  25.099  1.00  0.00     0.035 C 
ATOM     11  C   UNL A   1      33.771  25.186  25.844  1.00  0.00     0.007 C 
ENDBRANCH   7  10
BRANCH   7  12
ATOM     12  N   UNL A   1      31.937  22.626  26.700  1.00  0.00    -0.324 N 
ATOM     13  C   UNL A   1      30.717  23.160  26.477  1.00  0.00     0.315 C 
ATOM     14  H   UNL A   1      32.034  22.193  27.578  1.00  0.00     0.166 HD
ATOM     15  O   UNL A   1      29.957  23.223  27.449  1.00  0.00    -0.249 OA
ATOM     16  N   UNL A   1      30.207  23.536  25.285  1.00  0.00    -0.338 N 
ATOM     17  H   UNL A   1      29.224  23.473  25.294  1.00  0.00     0.165 HD
BRANCH  16  18
ATOM     18  C   UNL A   1      30.683  24.014  23.970  1.00  0.00     0.123 C 
BRANCH  18  19
ATOM     19  C   UNL A   1      30.495  25.531  23.587  1.00  0.00     0.034 C 
ATOM     20  C   UNL A   1      31.408  26.095  22.492  1.00  0.00     0.010 C 
ATOM     21  C   UNL A   1      30.399  26.427  24.837  1.00  0.00     0.165 C 
ATOM     22  C   UNL A   1      32.034  27.481  22.697  1.00  0.00     0.029 C 
ATOM     23  O   UNL A   1      30.560  27.814  24.534  1.00  0.00    -0.381 OA
ATOM     24  C   UNL A   1      31.875  28.073  24.076  1.00  0.00     0.160 C 
ENDBRANCH  18  19
ENDBRANCH  16  18
ENDBRANCH   7  12
ENDBRANCH   4   7
ENDBRANCH   2   3
ENDBRANCH   1   2
BRANCH   1  25
ATOM     25  C   UNL A   1      37.950  19.622  24.954  1.00  0.00     0.023 C 
BRANCH  25  26
ATOM     26  C   UNL A   1      39.166  20.008  25.800  1.00  0.00     0.116 C 
BRANCH  26  27
ATOM     27  N   UNL A   1      40.306  19.123  25.761  1.00  0.00    -0.352 N 
ATOM     28  C   UNL A   1      41.609  19.444  26.081  1.00  0.00     0.251 C 
ATOM     29  H   UNL A   1      40.137  18.196  25.476  1.00  0.00     0.163 HD
ATOM     30  O   UNL A   1      42.513  18.629  25.893  1.00  0.00    -0.269 OA
BRANCH  28  31
ATOM     31  C   UNL A   1      41.949  20.786  26.621  1.00  0.00     0.039 A 
ATOM     32  C   UNL A   1      42.422  21.772  25.751  1.00  0.00     0.014 A 
ATOM     33  C   UNL A   1      41.871  21.060  27.989  1.00  0.00     0.014 A 
ATOM     34  C   UNL A   1      42.764  23.042  26.242  1.00  0.00     0.010 A 
ATOM     35  C   UNL A   1      42.172  22.343  28.473  1.00  0.00     0.010 A 
ATOM     36  C   UNL A   1      42.621  23.354  27.606  1.00  0.00    -0.014 A 
BRANCH  36  37
ATOM     37  C   UNL A   1      42.921  24.730  28.107  1.00  0.00     0.031 A 
ATOM     38  C   UNL A   1      44.330  25.163  28.430  1.00  0.00     0.074 A 
ATOM     39  C   UNL A   1      41.914  25.610  28.292  1.00  0.00     0.049 A 
ATOM     40  N   UNL A   1      44.763  26.335  28.831  1.00  0.00    -0.248 NA
ATOM     41  C   UNL A   1      45.384  24.149  28.296  1.00  0.00     0.031 C 
ATOM     42  C   UNL A   1      40.496  25.331  28.060  1.00  0.00     0.029 A 
ATOM     43  N   UNL A   1      41.929  26.920  28.712  1.00  0.00    -0.354 N 
ATOM     44  C   UNL A   1      46.137  26.200  28.996  1.00  0.00     0.074 A 
ATOM     45  C   UNL A   1      46.456  24.818  28.701  1.00  0.00     0.031 C 
ATOM     46  C   UNL A   1      39.782  26.440  28.312  1.00  0.00     0.029 A 
ATOM     47  C   UNL A   1      40.684  27.502  28.754  1.00  0.00     0.049 A 
ATOM     48  H   UNL A   1      42.754  27.396  28.960  1.00  0.00     0.167 HD
ATOM     49  C   UNL A   1      47.055  27.136  29.343  1.00  0.00     0.031 A 
ATOM     50  C   UNL A   1      40.301  28.745  29.105  1.00  0.00     0.031 A 
ATOM     51  C   UNL A   1      46.753  28.510  29.652  1.00  0.00     0.049 A 
ATOM     52  C   UNL A   1      41.333  29.759  29.517  1.00  0.00     0.074 A 
ATOM     53  C   UNL A   1      47.629  29.536  29.968  1.00  0.00     0.029 A 
ATOM     54  N   UNL A   1      45.477  29.050  29.696  1.00  0.00    -0.354 N 
ATOM     55  N   UNL A   1      42.635  29.630  29.586  1.00  0.00    -0.248 NA
ATOM     56  C   UNL A   1      40.842  31.096  29.883  1.00  0.00     0.031 C 
ATOM     57  C   UNL A   1      46.879  30.682  30.260  1.00  0.00     0.029 A 
ATOM     58  C   UNL A   1      45.541  30.386  30.063  1.00  0.00     0.049 A 
ATOM     59  H   UNL A   1      44.649  28.558  29.497  1.00  0.00     0.167 HD
ATOM     60  C   UNL A   1      43.119  30.874  29.976  1.00  0.00     0.074 A 
ATOM     61  C   UNL A   1      41.973  31.749  30.111  1.00  0.00     0.031 C 
ATOM     62  C   UNL A   1      44.400  31.255  30.201  1.00  0.00     0.031 A 
BRANCH  49  63
ATOM     63  C   UNL A   1      48.496  26.700  29.414  1.00  0.00    -0.014 A 
ATOM     64  C   UNL A   1      49.031  26.152  30.591  1.00  0.00     0.009 A 
ATOM     65  C   UNL A   1      49.316  26.795  28.278  1.00  0.00     0.009 A 
ATOM     66  C   UNL A   1      50.368  25.748  30.641  1.00  0.00     0.001 A 
ATOM     67  C   UNL A   1      50.643  26.362  28.323  1.00  0.00     0.001 A 
ATOM     68  C   UNL A   1      51.171  25.849  29.506  1.00  0.00     0.000 A 
ENDBRANCH  49  63
BRANCH  50  69
ATOM     69  C   UNL A   1      38.859  29.115  29.075  1.00  0.00    -0.014 A 
ATOM     70  C   UNL A   1      38.067  29.007  30.230  1.00  0.00     0.009 A 
ATOM     71  C   UNL A   1      38.264  29.565  27.887  1.00  0.00     0.009 A 
ATOM     72  C   UNL A   1      36.705  29.316  30.187  1.00  0.00     0.001 A 
ATOM     73  C   UNL A   1      36.910  29.903  27.854  1.00  0.00     0.001 A 
ATOM     74  C   UNL A   1      36.129  29.769  29.001  1.00  0.00     0.000 A 
ENDBRANCH  50  69
BRANCH  62  75
ATOM     75  C   UNL A   1      44.641  32.689  30.586  1.00  0.00    -0.014 A 
ATOM     76  C   UNL A   1      44.831  33.686  29.616  1.00  0.00     0.009 A 
ATOM     77  C   UNL A   1      44.641  33.054  31.943  1.00  0.00     0.009 A 
ATOM     78  C   UNL A   1      45.050  35.012  29.999  1.00  0.00     0.001 A 
ATOM     79  C   UNL A   1      44.829  34.385  32.320  1.00  0.00     0.001 A 
ATOM     80  C   UNL A   1      45.043  35.361  31.350  1.00  0.00     0.000 A 
ENDBRANCH  62  75
ENDBRANCH  36  37
ENDBRANCH  28  31
ENDBRANCH  26  27
ENDBRANCH  25  26
ENDBRANCH   1  25
TORSDOF 16
ENDMDL
