MODEL 1
REMARK VINA RESULT:     -11.1      0.000      0.000
REMARK SMILES C[C@@H]1[C@@H](C(=O)NCCCCNC(=O)c2ccc(-c3c4nc(c(-c5ccccc5)c5ccc([nH]5)c(-c5ccccc5)c5nc(c(-c6ccccc6)c6ccc3[nH]6)C=C5)C=C4)cc2)CCN1C(=O)Nc1nccs1
REMARK SMILES IDX 8 1 7 2 6 3 4 4 5 5 3 7 1 8 2 9 64 10 62 11 63 12 65 13
REMARK SMILES IDX 66 14 67 15 68 17 69 18 72 19 70 20 71 21 9 22 10 23 11 24
REMARK SMILES IDX 12 25 13 27 14 28 15 29 61 30 16 31 60 32 17 33 18 34 19 35
REMARK SMILES IDX 54 36 20 37 59 38 53 39 55 40 21 41 58 42 52 43 51 44 22 46
REMARK SMILES IDX 44 47 29 48 43 49 30 50 33 51 42 52 56 53 31 54 32 55 41 57
REMARK SMILES IDX 57 58 34 59 23 60 24 61 28 62 25 63 27 64 26 65 45 66 46 67
REMARK SMILES IDX 50 68 47 69 49 70 48 71 35 72 36 73 40 74 37 75 39 76 38 77
REMARK H PARENT 6 6 67 16 11 26 55 45 33 56
REMARK Flexibility Score: inf
ROOT
ATOM      1  C   UNL A   1      37.001  20.386  24.626  1.00  0.00     0.023 C 
ENDROOT
BRANCH   1   2
ATOM      2  C   UNL A   1      36.970  21.616  25.522  1.00  0.00     0.116 C 
BRANCH   2   3
ATOM      3  N   UNL A   1      35.902  21.582  26.501  1.00  0.00    -0.356 N 
ATOM      4  C   UNL A   1      34.697  22.226  26.463  1.00  0.00     0.225 C 
ATOM      5  O   UNL A   1      33.908  22.016  27.383  1.00  0.00    -0.275 OA
ATOM      6  H   UNL A   1      36.066  21.023  27.295  1.00  0.00     0.163 HD
BRANCH   4   7
ATOM      7  C   UNL A   1      34.432  23.206  25.325  1.00  0.00     0.102 C 
ATOM      8  C   UNL A   1      34.036  25.648  24.896  1.00  0.00     0.032 C 
ATOM      9  C   UNL A   1      33.676  24.459  25.800  1.00  0.00     0.096 C 
ATOM     10  N   UNL A   1      32.256  24.109  25.658  1.00  0.00    -0.321 N 
ATOM     11  C   UNL A   1      33.495  22.648  24.251  1.00  0.00     0.037 C 
ATOM     12  C   UNL A   1      32.108  22.961  24.782  1.00  0.00     0.122 C 
BRANCH  10  13
ATOM     13  C   UNL A   1      31.157  24.493  26.371  1.00  0.00     0.323 C 
ATOM     14  O   UNL A   1      30.701  23.747  27.252  1.00  0.00    -0.248 OA
ATOM     15  N   UNL A   1      30.597  25.714  26.306  1.00  0.00    -0.283 N 
ATOM     16  H   UNL A   1      30.038  25.934  27.085  1.00  0.00     0.174 HD
BRANCH  15  17
ATOM     17  C   UNL A   1      30.649  26.702  25.376  1.00  0.00     0.190 A 
ATOM     18  N   UNL A   1      31.266  27.854  25.394  1.00  0.00    -0.228 NA
ATOM     19  S   UNL A   1      29.776  26.347  23.948  1.00  0.00    -0.105 S 
ATOM     20  C   UNL A   1      30.938  28.575  24.265  1.00  0.00     0.125 A 
ATOM     21  C   UNL A   1      30.095  27.937  23.384  1.00  0.00     0.088 A 
ENDBRANCH  15  17
ENDBRANCH  10  13
ENDBRANCH   4   7
ENDBRANCH   2   3
ENDBRANCH   1   2
BRANCH   1  22
ATOM     22  C   UNL A   1      38.040  19.333  25.001  1.00  0.00     0.023 C 
BRANCH  22  23
ATOM     23  C   UNL A   1      39.267  19.860  25.738  1.00  0.00     0.116 C 
BRANCH  23  24
ATOM     24  N   UNL A   1      40.338  18.881  25.830  1.00  0.00    -0.352 N 
ATOM     25  C   UNL A   1      41.683  19.066  26.063  1.00  0.00     0.251 C 
ATOM     26  H   UNL A   1      40.061  17.944  25.709  1.00  0.00     0.163 HD
ATOM     27  O   UNL A   1      42.460  18.128  25.962  1.00  0.00    -0.269 OA
BRANCH  25  28
ATOM     28  C   UNL A   1      42.188  20.413  26.405  1.00  0.00     0.039 A 
ATOM     29  C   UNL A   1      42.616  21.255  25.377  1.00  0.00     0.014 A 
ATOM     30  C   UNL A   1      42.223  20.849  27.731  1.00  0.00     0.014 A 
ATOM     31  C   UNL A   1      43.007  22.563  25.673  1.00  0.00     0.010 A 
ATOM     32  C   UNL A   1      42.519  22.178  28.012  1.00  0.00     0.010 A 
ATOM     33  C   UNL A   1      42.923  23.048  26.988  1.00  0.00    -0.014 A 
BRANCH  33  34
ATOM     34  C   UNL A   1      43.267  24.454  27.319  1.00  0.00     0.031 A 
ATOM     35  C   UNL A   1      44.701  24.908  27.277  1.00  0.00     0.074 A 
ATOM     36  C   UNL A   1      42.303  25.306  27.721  1.00  0.00     0.049 A 
ATOM     37  N   UNL A   1      45.209  26.073  27.593  1.00  0.00    -0.248 NA
ATOM     38  C   UNL A   1      45.699  23.914  26.851  1.00  0.00     0.031 C 
ATOM     39  C   UNL A   1      40.879  24.984  27.842  1.00  0.00     0.029 A 
ATOM     40  N   UNL A   1      42.378  26.621  28.108  1.00  0.00    -0.354 N 
ATOM     41  C   UNL A   1      46.582  25.943  27.423  1.00  0.00     0.074 A 
ATOM     42  C   UNL A   1      46.834  24.573  27.036  1.00  0.00     0.031 C 
ATOM     43  C   UNL A   1      40.212  26.080  28.240  1.00  0.00     0.029 A 
ATOM     44  C   UNL A   1      41.164  27.167  28.446  1.00  0.00     0.049 A 
ATOM     45  H   UNL A   1      43.223  27.125  28.139  1.00  0.00     0.167 HD
ATOM     46  C   UNL A   1      47.548  26.883  27.553  1.00  0.00     0.031 A 
ATOM     47  C   UNL A   1      40.851  28.403  28.879  1.00  0.00     0.031 A 
ATOM     48  C   UNL A   1      47.299  28.248  27.932  1.00  0.00     0.049 A 
ATOM     49  C   UNL A   1      41.944  29.424  29.039  1.00  0.00     0.074 A 
ATOM     50  C   UNL A   1      48.203  29.290  28.044  1.00  0.00     0.029 A 
ATOM     51  N   UNL A   1      46.055  28.760  28.264  1.00  0.00    -0.354 N 
ATOM     52  N   UNL A   1      43.229  29.304  28.812  1.00  0.00    -0.248 NA
ATOM     53  C   UNL A   1      41.537  30.758  29.502  1.00  0.00     0.031 C 
ATOM     54  C   UNL A   1      47.514  30.418  28.499  1.00  0.00     0.029 A 
ATOM     55  C   UNL A   1      46.170  30.098  28.602  1.00  0.00     0.049 A 
ATOM     56  H   UNL A   1      45.213  28.248  28.258  1.00  0.00     0.167 HD
ATOM     57  C   UNL A   1      43.779  30.554  29.068  1.00  0.00     0.074 A 
ATOM     58  C   UNL A   1      42.685  31.419  29.456  1.00  0.00     0.031 C 
ATOM     59  C   UNL A   1      45.072  30.949  28.984  1.00  0.00     0.031 A 
BRANCH  46  60
ATOM     60  C   UNL A   1      48.967  26.456  27.291  1.00  0.00    -0.014 A 
ATOM     61  C   UNL A   1      49.515  26.495  25.999  1.00  0.00     0.009 A 
ATOM     62  C   UNL A   1      49.774  26.025  28.356  1.00  0.00     0.009 A 
ATOM     63  C   UNL A   1      50.825  26.069  25.771  1.00  0.00     0.001 A 
ATOM     64  C   UNL A   1      51.095  25.633  28.131  1.00  0.00     0.001 A 
ATOM     65  C   UNL A   1      51.615  25.643  26.837  1.00  0.00     0.000 A 
ENDBRANCH  46  60
BRANCH  47  66
ATOM     66  C   UNL A   1      39.436  28.756  29.173  1.00  0.00    -0.014 A 
ATOM     67  C   UNL A   1      38.602  29.255  28.160  1.00  0.00     0.009 A 
ATOM     68  C   UNL A   1      38.914  28.605  30.467  1.00  0.00     0.009 A 
ATOM     69  C   UNL A   1      37.285  29.625  28.444  1.00  0.00     0.001 A 
ATOM     70  C   UNL A   1      37.587  28.944  30.741  1.00  0.00     0.001 A 
ATOM     71  C   UNL A   1      36.777  29.464  29.732  1.00  0.00     0.000 A 
ENDBRANCH  47  66
BRANCH  59  72
ATOM     72  C   UNL A   1      45.371  32.396  29.267  1.00  0.00    -0.014 A 
ATOM     73  C   UNL A   1      45.746  32.834  30.546  1.00  0.00     0.009 A 
ATOM     74  C   UNL A   1      45.314  33.329  28.219  1.00  0.00     0.009 A 
ATOM     75  C   UNL A   1      46.020  34.183  30.777  1.00  0.00     0.001 A 
ATOM     76  C   UNL A   1      45.620  34.671  28.445  1.00  0.00     0.001 A 
ATOM     77  C   UNL A   1      45.962  35.099  29.727  1.00  0.00     0.000 A 
ENDBRANCH  59  72
ENDBRANCH  33  34
ENDBRANCH  25  28
ENDBRANCH  23  24
ENDBRANCH  22  23
ENDBRANCH   1  22
TORSDOF 13
ENDMDL
MODEL 2
REMARK VINA RESULT:     -11.1      1.414      1.912
REMARK SMILES C[C@@H]1[C@@H](C(=O)NCCCCNC(=O)c2ccc(-c3c4nc(c(-c5ccccc5)c5ccc([nH]5)c(-c5ccccc5)c5nc(c(-c6ccccc6)c6ccc3[nH]6)C=C5)C=C4)cc2)CCN1C(=O)Nc1nccs1
REMARK SMILES IDX 8 1 7 2 6 3 4 4 5 5 3 7 1 8 2 9 64 10 62 11 63 12 65 13
REMARK SMILES IDX 66 14 67 15 68 17 69 18 72 19 70 20 71 21 9 22 10 23 11 24
REMARK SMILES IDX 12 25 13 27 14 28 15 29 61 30 16 31 60 32 17 33 18 34 19 35
REMARK SMILES IDX 54 36 20 37 59 38 53 39 55 40 21 41 58 42 52 43 51 44 22 46
REMARK SMILES IDX 44 47 29 48 43 49 30 50 33 51 42 52 56 53 31 54 32 55 41 57
REMARK SMILES IDX 57 58 34 59 23 60 24 61 28 62 25 63 27 64 26 65 45 66 46 67
REMARK SMILES IDX 50 68 47 69 49 70 48 71 35 72 36 73 40 74 37 75 39 76 38 77
REMARK H PARENT 6 6 67 16 11 26 55 45 33 56
REMARK Flexibility Score: inf
ROOT
ATOM      1  C   UNL A   1      36.768  20.821  24.615  1.00  0.00     0.023 C 
ENDROOT
BRANCH   1   2
ATOM      2  C   UNL A   1      35.884  21.288  25.763  1.00  0.00     0.116 C 
BRANCH   2   3
ATOM      3  N   UNL A   1      34.570  20.677  25.756  1.00  0.00    -0.356 N 
ATOM      4  C   UNL A   1      33.452  21.082  25.082  1.00  0.00     0.225 C 
ATOM      5  O   UNL A   1      32.443  20.383  25.176  1.00  0.00    -0.275 OA
ATOM      6  H   UNL A   1      34.471  19.867  26.306  1.00  0.00     0.163 HD
BRANCH   4   7
ATOM      7  C   UNL A   1      33.502  22.398  24.314  1.00  0.00     0.102 C 
ATOM      8  C   UNL A   1      34.105  24.818  24.610  1.00  0.00     0.032 C 
ATOM      9  C   UNL A   1      33.379  23.619  25.242  1.00  0.00     0.096 C 
ATOM     10  N   UNL A   1      31.934  23.873  25.328  1.00  0.00    -0.321 N 
ATOM     11  C   UNL A   1      32.318  22.590  23.363  1.00  0.00     0.037 C 
ATOM     12  C   UNL A   1      31.242  23.199  24.244  1.00  0.00     0.122 C 
BRANCH  10  13
ATOM     13  C   UNL A   1      31.166  24.382  26.336  1.00  0.00     0.323 C 
ATOM     14  O   UNL A   1      30.868  23.667  27.304  1.00  0.00    -0.248 OA
ATOM     15  N   UNL A   1      30.820  25.676  26.448  1.00  0.00    -0.283 N 
ATOM     16  H   UNL A   1      30.554  25.937  27.359  1.00  0.00     0.174 HD
BRANCH  15  17
ATOM     17  C   UNL A   1      30.765  26.695  25.552  1.00  0.00     0.190 A 
ATOM     18  N   UNL A   1      30.044  26.839  24.472  1.00  0.00    -0.228 NA
ATOM     19  S   UNL A   1      31.801  28.003  25.936  1.00  0.00    -0.105 S 
ATOM     20  C   UNL A   1      30.410  27.998  23.820  1.00  0.00     0.125 A 
ATOM     21  C   UNL A   1      31.390  28.739  24.440  1.00  0.00     0.088 A 
ENDBRANCH  15  17
ENDBRANCH  10  13
ENDBRANCH   4   7
ENDBRANCH   2   3
ENDBRANCH   1   2
BRANCH   1  22
ATOM     22  C   UNL A   1      37.812  19.770  24.983  1.00  0.00     0.023 C 
BRANCH  22  23
ATOM     23  C   UNL A   1      39.027  20.295  25.739  1.00  0.00     0.116 C 
BRANCH  23  24
ATOM     24  N   UNL A   1      40.130  19.347  25.772  1.00  0.00    -0.352 N 
ATOM     25  C   UNL A   1      41.453  19.546  26.093  1.00  0.00     0.251 C 
ATOM     26  H   UNL A   1      39.894  18.422  25.528  1.00  0.00     0.163 HD
ATOM     27  O   UNL A   1      42.270  18.651  25.923  1.00  0.00    -0.269 OA
BRANCH  25  28
ATOM     28  C   UNL A   1      41.891  20.858  26.616  1.00  0.00     0.039 A 
ATOM     29  C   UNL A   1      42.370  21.816  25.720  1.00  0.00     0.014 A 
ATOM     30  C   UNL A   1      41.812  21.149  27.980  1.00  0.00     0.014 A 
ATOM     31  C   UNL A   1      42.699  23.093  26.184  1.00  0.00     0.010 A 
ATOM     32  C   UNL A   1      42.046  22.445  28.423  1.00  0.00     0.010 A 
ATOM     33  C   UNL A   1      42.500  23.430  27.532  1.00  0.00    -0.014 A 
BRANCH  33  34
ATOM     34  C   UNL A   1      42.776  24.799  28.038  1.00  0.00     0.031 A 
ATOM     35  C   UNL A   1      44.174  25.186  28.437  1.00  0.00     0.074 A 
ATOM     36  C   UNL A   1      41.763  25.672  28.200  1.00  0.00     0.049 A 
ATOM     37  N   UNL A   1      44.603  26.307  28.960  1.00  0.00    -0.248 NA
ATOM     38  C   UNL A   1      45.222  24.170  28.253  1.00  0.00     0.031 C 
ATOM     39  C   UNL A   1      40.355  25.412  27.887  1.00  0.00     0.029 A 
ATOM     40  N   UNL A   1      41.762  26.961  28.676  1.00  0.00    -0.354 N 
ATOM     41  C   UNL A   1      45.962  26.122  29.182  1.00  0.00     0.074 A 
ATOM     42  C   UNL A   1      46.274  24.764  28.796  1.00  0.00     0.031 C 
ATOM     43  C   UNL A   1      39.635  26.516  28.147  1.00  0.00     0.029 A 
ATOM     44  C   UNL A   1      40.519  27.545  28.686  1.00  0.00     0.049 A 
ATOM     45  H   UNL A   1      42.577  27.422  28.980  1.00  0.00     0.167 HD
ATOM     46  C   UNL A   1      46.877  27.007  29.643  1.00  0.00     0.031 A 
ATOM     47  C   UNL A   1      40.132  28.769  29.090  1.00  0.00     0.031 A 
ATOM     48  C   UNL A   1      46.571  28.361  30.022  1.00  0.00     0.049 A 
ATOM     49  C   UNL A   1      41.161  29.728  29.621  1.00  0.00     0.074 A 
ATOM     50  C   UNL A   1      47.434  29.351  30.454  1.00  0.00     0.029 A 
ATOM     51  N   UNL A   1      45.299  28.913  30.015  1.00  0.00    -0.354 N 
ATOM     52  N   UNL A   1      42.453  29.559  29.764  1.00  0.00    -0.248 NA
ATOM     53  C   UNL A   1      40.678  31.054  30.032  1.00  0.00     0.031 C 
ATOM     54  C   UNL A   1      46.677  30.486  30.764  1.00  0.00     0.029 A 
ATOM     55  C   UNL A   1      45.352  30.224  30.458  1.00  0.00     0.049 A 
ATOM     56  H   UNL A   1      44.480  28.442  29.736  1.00  0.00     0.167 HD
ATOM     57  C   UNL A   1      42.943  30.767  30.247  1.00  0.00     0.074 A 
ATOM     58  C   UNL A   1      41.810  31.661  30.360  1.00  0.00     0.031 C 
ATOM     59  C   UNL A   1      44.216  31.104  30.562  1.00  0.00     0.031 A 
BRANCH  46  60
ATOM     60  C   UNL A   1      48.298  26.528  29.773  1.00  0.00    -0.014 A 
ATOM     61  C   UNL A   1      48.739  25.855  30.924  1.00  0.00     0.009 A 
ATOM     62  C   UNL A   1      49.204  26.734  28.720  1.00  0.00     0.009 A 
ATOM     63  C   UNL A   1      50.068  25.441  31.037  1.00  0.00     0.001 A 
ATOM     64  C   UNL A   1      50.522  26.288  28.822  1.00  0.00     0.001 A 
ATOM     65  C   UNL A   1      50.957  25.654  29.985  1.00  0.00     0.000 A 
ENDBRANCH  46  60
BRANCH  47  66
ATOM     66  C   UNL A   1      38.703  29.172  28.987  1.00  0.00    -0.014 A 
ATOM     67  C   UNL A   1      37.846  29.043  30.091  1.00  0.00     0.009 A 
ATOM     68  C   UNL A   1      38.186  29.679  27.784  1.00  0.00     0.009 A 
ATOM     69  C   UNL A   1      36.495  29.383  29.984  1.00  0.00     0.001 A 
ATOM     70  C   UNL A   1      36.843  30.050  27.690  1.00  0.00     0.001 A 
ATOM     71  C   UNL A   1      35.996  29.891  28.786  1.00  0.00     0.000 A 
ENDBRANCH  47  66
BRANCH  59  72
ATOM     72  C   UNL A   1      44.465  32.518  31.011  1.00  0.00    -0.014 A 
ATOM     73  C   UNL A   1      44.734  33.546  30.094  1.00  0.00     0.009 A 
ATOM     74  C   UNL A   1      44.388  32.831  32.378  1.00  0.00     0.009 A 
ATOM     75  C   UNL A   1      44.958  34.850  30.540  1.00  0.00     0.001 A 
ATOM     76  C   UNL A   1      44.579  34.141  32.819  1.00  0.00     0.001 A 
ATOM     77  C   UNL A   1      44.876  35.147  31.901  1.00  0.00     0.000 A 
ENDBRANCH  59  72
ENDBRANCH  33  34
ENDBRANCH  25  28
ENDBRANCH  23  24
ENDBRANCH  22  23
ENDBRANCH   1  22
TORSDOF 13
ENDMDL
MODEL 3
REMARK VINA RESULT:     -11.0      0.613      6.055
REMARK SMILES C[C@@H]1[C@@H](C(=O)NCCCCNC(=O)c2ccc(-c3c4nc(c(-c5ccccc5)c5ccc([nH]5)c(-c5ccccc5)c5nc(c(-c6ccccc6)c6ccc3[nH]6)C=C5)C=C4)cc2)CCN1C(=O)Nc1nccs1
REMARK SMILES IDX 8 1 7 2 6 3 4 4 5 5 3 7 1 8 2 9 64 10 62 11 63 12 65 13
REMARK SMILES IDX 66 14 67 15 68 17 69 18 72 19 70 20 71 21 9 22 10 23 11 24
REMARK SMILES IDX 12 25 13 27 14 28 15 29 61 30 16 31 60 32 17 33 18 34 19 35
REMARK SMILES IDX 54 36 20 37 59 38 53 39 55 40 21 41 58 42 52 43 51 44 22 46
REMARK SMILES IDX 44 47 29 48 43 49 30 50 33 51 42 52 56 53 31 54 32 55 41 57
REMARK SMILES IDX 57 58 34 59 23 60 24 61 28 62 25 63 27 64 26 65 45 66 46 67
REMARK SMILES IDX 50 68 47 69 49 70 48 71 35 72 36 73 40 74 37 75 39 76 38 77
REMARK H PARENT 6 6 67 16 11 26 55 45 33 56
REMARK Flexibility Score: inf
ROOT
ATOM      1  C   UNL A   1      36.931  20.885  24.913  1.00  0.00     0.023 C 
ENDROOT
BRANCH   1   2
ATOM      2  C   UNL A   1      35.501  20.367  24.954  1.00  0.00     0.116 C 
BRANCH   2   3
ATOM      3  N   UNL A   1      34.807  20.705  26.181  1.00  0.00    -0.356 N 
ATOM      4  C   UNL A   1      34.077  21.827  26.459  1.00  0.00     0.225 C 
ATOM      5  O   UNL A   1      33.523  21.891  27.556  1.00  0.00    -0.275 OA
ATOM      6  H   UNL A   1      34.868  20.041  26.905  1.00  0.00     0.163 HD
BRANCH   4   7
ATOM      7  C   UNL A   1      34.048  22.950  25.428  1.00  0.00     0.102 C 
ATOM      8  C   UNL A   1      34.021  25.456  25.261  1.00  0.00     0.032 C 
ATOM      9  C   UNL A   1      33.426  24.240  25.990  1.00  0.00     0.096 C 
ATOM     10  N   UNL A   1      31.991  24.114  25.703  1.00  0.00    -0.321 N 
ATOM     11  C   UNL A   1      33.147  22.649  24.229  1.00  0.00     0.037 C 
ATOM     12  C   UNL A   1      31.771  23.097  24.689  1.00  0.00     0.122 C 
BRANCH  10  13
ATOM     13  C   UNL A   1      30.892  24.571  26.372  1.00  0.00     0.323 C 
ATOM     14  O   UNL A   1      30.368  23.870  27.250  1.00  0.00    -0.248 OA
ATOM     15  N   UNL A   1      30.405  25.820  26.266  1.00  0.00    -0.283 N 
ATOM     16  H   UNL A   1      29.834  26.087  27.023  1.00  0.00     0.174 HD
BRANCH  15  17
ATOM     17  C   UNL A   1      30.543  26.786  25.322  1.00  0.00     0.190 A 
ATOM     18  N   UNL A   1      31.290  27.858  25.305  1.00  0.00    -0.228 NA
ATOM     19  S   UNL A   1      29.590  26.521  23.926  1.00  0.00    -0.105 S 
ATOM     20  C   UNL A   1      31.012  28.600  24.176  1.00  0.00     0.125 A 
ATOM     21  C   UNL A   1      30.073  28.056  23.330  1.00  0.00     0.088 A 
ENDBRANCH  15  17
ENDBRANCH  10  13
ENDBRANCH   4   7
ENDBRANCH   2   3
ENDBRANCH   1   2
BRANCH   1  22
ATOM     22  C   UNL A   1      38.015  19.813  25.001  1.00  0.00     0.023 C 
BRANCH  22  23
ATOM     23  C   UNL A   1      39.241  20.192  25.824  1.00  0.00     0.116 C 
BRANCH  23  24
ATOM     24  N   UNL A   1      40.226  19.125  25.900  1.00  0.00    -0.352 N 
ATOM     25  C   UNL A   1      41.587  19.194  26.099  1.00  0.00     0.251 C 
ATOM     26  H   UNL A   1      39.866  18.214  25.794  1.00  0.00     0.163 HD
ATOM     27  O   UNL A   1      42.278  18.191  25.988  1.00  0.00    -0.269 OA
BRANCH  25  28
ATOM     28  C   UNL A   1      42.214  20.495  26.417  1.00  0.00     0.039 A 
ATOM     29  C   UNL A   1      42.739  21.264  25.376  1.00  0.00     0.014 A 
ATOM     30  C   UNL A   1      42.270  20.961  27.732  1.00  0.00     0.014 A 
ATOM     31  C   UNL A   1      43.250  22.536  25.646  1.00  0.00     0.010 A 
ATOM     32  C   UNL A   1      42.689  22.262  27.985  1.00  0.00     0.010 A 
ATOM     33  C   UNL A   1      43.192  23.062  26.947  1.00  0.00    -0.014 A 
BRANCH  33  34
ATOM     34  C   UNL A   1      43.665  24.436  27.250  1.00  0.00     0.031 A 
ATOM     35  C   UNL A   1      42.685  25.491  27.687  1.00  0.00     0.074 A 
ATOM     36  C   UNL A   1      44.962  24.756  27.070  1.00  0.00     0.049 A 
ATOM     37  N   UNL A   1      42.892  26.760  27.934  1.00  0.00    -0.248 NA
ATOM     38  C   UNL A   1      41.282  25.071  27.837  1.00  0.00     0.031 C 
ATOM     39  C   UNL A   1      46.010  23.838  26.615  1.00  0.00     0.029 A 
ATOM     40  N   UNL A   1      45.621  25.948  27.246  1.00  0.00    -0.354 N 
ATOM     41  C   UNL A   1      41.647  27.289  28.249  1.00  0.00     0.074 A 
ATOM     42  C   UNL A   1      40.683  26.222  28.103  1.00  0.00     0.031 C 
ATOM     43  C   UNL A   1      47.182  24.492  26.580  1.00  0.00     0.029 A 
ATOM     44  C   UNL A   1      46.964  25.882  26.966  1.00  0.00     0.049 A 
ATOM     45  H   UNL A   1      45.172  26.771  27.545  1.00  0.00     0.167 HD
ATOM     46  C   UNL A   1      41.332  28.545  28.648  1.00  0.00     0.031 A 
ATOM     47  C   UNL A   1      47.913  26.836  27.008  1.00  0.00     0.031 A 
ATOM     48  C   UNL A   1      42.290  29.607  28.800  1.00  0.00     0.049 A 
ATOM     49  C   UNL A   1      47.537  28.230  27.431  1.00  0.00     0.074 A 
ATOM     50  C   UNL A   1      42.081  30.899  29.246  1.00  0.00     0.029 A 
ATOM     51  N   UNL A   1      43.641  29.498  28.508  1.00  0.00    -0.354 N 
ATOM     52  N   UNL A   1      46.366  28.698  27.788  1.00  0.00    -0.248 NA
ATOM     53  C   UNL A   1      48.620  29.222  27.471  1.00  0.00     0.031 C 
ATOM     54  C   UNL A   1      43.295  31.590  29.169  1.00  0.00     0.029 A 
ATOM     55  C   UNL A   1      44.273  30.707  28.742  1.00  0.00     0.049 A 
ATOM     56  H   UNL A   1      44.085  28.681  28.183  1.00  0.00     0.167 HD
ATOM     57  C   UNL A   1      46.577  30.028  28.130  1.00  0.00     0.074 A 
ATOM     58  C   UNL A   1      47.990  30.286  27.949  1.00  0.00     0.031 C 
ATOM     59  C   UNL A   1      45.682  30.950  28.560  1.00  0.00     0.031 A 
BRANCH  46  60
ATOM     60  C   UNL A   1      39.884  28.835  28.936  1.00  0.00    -0.014 A 
ATOM     61  C   UNL A   1      39.029  29.340  27.943  1.00  0.00     0.009 A 
ATOM     62  C   UNL A   1      39.362  28.582  30.215  1.00  0.00     0.009 A 
ATOM     63  C   UNL A   1      37.695  29.629  28.236  1.00  0.00     0.001 A 
ATOM     64  C   UNL A   1      38.018  28.839  30.495  1.00  0.00     0.001 A 
ATOM     65  C   UNL A   1      37.189  29.374  29.510  1.00  0.00     0.000 A 
ENDBRANCH  46  60
BRANCH  47  66
ATOM     66  C   UNL A   1      49.322  26.504  26.662  1.00  0.00    -0.014 A 
ATOM     67  C   UNL A   1      49.793  26.679  25.352  1.00  0.00     0.009 A 
ATOM     68  C   UNL A   1      50.199  26.002  27.636  1.00  0.00     0.009 A 
ATOM     69  C   UNL A   1      51.103  26.330  25.017  1.00  0.00     0.001 A 
ATOM     70  C   UNL A   1      51.519  25.685  27.306  1.00  0.00     0.001 A 
ATOM     71  C   UNL A   1      51.966  25.839  25.994  1.00  0.00     0.000 A 
ENDBRANCH  47  66
BRANCH  59  72
ATOM     72  C   UNL A   1      46.211  32.312  28.916  1.00  0.00    -0.014 A 
ATOM     73  C   UNL A   1      46.287  33.343  27.968  1.00  0.00     0.009 A 
ATOM     74  C   UNL A   1      46.604  32.575  30.239  1.00  0.00     0.009 A 
ATOM     75  C   UNL A   1      46.780  34.599  28.329  1.00  0.00     0.001 A 
ATOM     76  C   UNL A   1      47.065  33.840  30.605  1.00  0.00     0.001 A 
ATOM     77  C   UNL A   1      47.164  34.847  29.647  1.00  0.00     0.000 A 
ENDBRANCH  59  72
ENDBRANCH  33  34
ENDBRANCH  25  28
ENDBRANCH  23  24
ENDBRANCH  22  23
ENDBRANCH   1  22
TORSDOF 13
ENDMDL
