MODEL 1
REMARK VINA RESULT:      -9.6      0.000      0.000
REMARK SMILES COc1cccc(-c2ccc(Nc3cccc(C(=O)NCCCCNC(=O)c4ccc(-c5c6nc(c(-c7ccccc7)c7ccc([nH]7)c(-c7ccccc7)c7nc(c(-c8ccccc8)c8ccc5[nH]8)C=C7)C=C6)cc4)c3)nn2)c1
REMARK SMILES IDX 21 1 20 2 18 3 19 4 17 6 13 7 14 8 76 9 15 10 16 11 12 12
REMARK SMILES IDX 11 14 8 15 9 16 78 17 10 18 77 19 7 20 3 21 4 22 79 23 5 24
REMARK SMILES IDX 6 25 2 26 1 27 22 28 23 29 24 30 25 31 26 32 27 34 28 35
REMARK SMILES IDX 29 36 75 37 30 38 74 39 31 40 32 41 33 42 68 43 34 44 73 45
REMARK SMILES IDX 67 46 69 47 35 48 72 49 66 50 65 51 36 53 58 54 43 55 57 56
REMARK SMILES IDX 44 57 47 58 56 59 70 60 45 61 46 62 55 64 71 65 48 66 37 67
REMARK SMILES IDX 38 68 42 69 39 70 41 71 40 72 59 73 60 74 64 75 61 76 63 77
REMARK SMILES IDX 62 78 49 79 50 80 54 81 51 82 53 83 52 84
REMARK H PARENT 20 5 12 13 25 33 69 52 47 63
REMARK Flexibility Score: inf
ROOT
ATOM      1  C   UNL A   1      44.348  23.541  28.674  1.00  0.00     0.116 C 
ENDROOT
BRANCH   1   2
ATOM      2  N   UNL A   1      45.195  22.890  27.685  1.00  0.00    -0.352 N 
ATOM      3  C   UNL A   1      45.630  23.315  26.446  1.00  0.00     0.251 C 
ATOM      4  O   UNL A   1      46.335  22.563  25.776  1.00  0.00    -0.269 OA
ATOM      5  H   UNL A   1      45.510  21.993  27.944  1.00  0.00     0.163 HD
BRANCH   3   6
ATOM      6  C   UNL A   1      45.208  24.622  25.873  1.00  0.00     0.041 A 
ATOM      7  C   UNL A   1      45.565  27.016  25.591  1.00  0.00     0.040 A 
ATOM      8  C   UNL A   1      44.250  27.133  25.126  1.00  0.00     0.026 A 
ATOM      9  C   UNL A   1      46.053  25.732  25.862  1.00  0.00     0.040 A 
ATOM     10  C   UNL A   1      43.440  26.002  24.975  1.00  0.00     0.003 A 
ATOM     11  C   UNL A   1      43.909  24.750  25.373  1.00  0.00     0.014 A 
BRANCH   7  12
ATOM     12  N   UNL A   1      46.326  28.166  25.864  1.00  0.00    -0.339 N 
ATOM     13  H   UNL A   1      47.294  28.085  25.704  1.00  0.00     0.168 HD
BRANCH  12  14
ATOM     14  C   UNL A   1      45.893  29.415  26.337  1.00  0.00     0.153 A 
ATOM     15  C   UNL A   1      45.125  31.886  27.296  1.00  0.00     0.093 A 
ATOM     16  C   UNL A   1      44.985  30.773  28.110  1.00  0.00     0.035 A 
ATOM     17  N   UNL A   1      45.651  31.761  26.061  1.00  0.00    -0.148 NA
ATOM     18  C   UNL A   1      45.368  29.521  27.620  1.00  0.00     0.051 A 
ATOM     19  N   UNL A   1      46.043  30.528  25.592  1.00  0.00    -0.132 NA
BRANCH  15  20
ATOM     20  C   UNL A   1      44.674  33.232  27.660  1.00  0.00     0.006 A 
ATOM     21  C   UNL A   1      43.527  35.322  27.163  1.00  0.00     0.119 A 
ATOM     22  C   UNL A   1      43.878  35.823  28.415  1.00  0.00     0.046 A 
ATOM     23  C   UNL A   1      43.939  34.043  26.777  1.00  0.00     0.056 A 
ATOM     24  C   UNL A   1      44.594  35.033  29.308  1.00  0.00     0.005 A 
ATOM     25  C   UNL A   1      44.980  33.745  28.935  1.00  0.00     0.011 A 
BRANCH  21  26
ATOM     26  O   UNL A   1      42.825  36.177  26.355  1.00  0.00    -0.497 OA
ATOM     27  C   UNL A   1      42.902  37.547  26.750  1.00  0.00     0.278 C 
ENDBRANCH  21  26
ENDBRANCH  15  20
ENDBRANCH  12  14
ENDBRANCH   7  12
ENDBRANCH   3   6
ENDBRANCH   1   2
BRANCH   1  28
ATOM     28  C   UNL A   1      42.852  23.387  28.429  1.00  0.00     0.023 C 
BRANCH  28  29
ATOM     29  C   UNL A   1      42.411  22.137  27.680  1.00  0.00     0.023 C 
BRANCH  29  30
ATOM     30  C   UNL A   1      41.965  22.339  26.238  1.00  0.00     0.116 C 
BRANCH  30  31
ATOM     31  N   UNL A   1      40.564  22.019  25.995  1.00  0.00    -0.352 N 
ATOM     32  C   UNL A   1      39.432  22.759  26.257  1.00  0.00     0.251 C 
ATOM     33  H   UNL A   1      40.402  21.140  25.582  1.00  0.00     0.163 HD
ATOM     34  O   UNL A   1      38.323  22.292  26.030  1.00  0.00    -0.269 OA
BRANCH  32  35
ATOM     35  C   UNL A   1      39.557  24.107  26.860  1.00  0.00     0.039 A 
ATOM     36  C   UNL A   1      39.132  24.298  28.178  1.00  0.00     0.014 A 
ATOM     37  C   UNL A   1      40.122  25.166  26.147  1.00  0.00     0.014 A 
ATOM     38  C   UNL A   1      39.361  25.524  28.809  1.00  0.00     0.010 A 
ATOM     39  C   UNL A   1      40.424  26.357  26.802  1.00  0.00     0.010 A 
ATOM     40  C   UNL A   1      40.054  26.548  28.142  1.00  0.00    -0.014 A 
BRANCH  40  41
ATOM     41  C   UNL A   1      40.412  27.817  28.828  1.00  0.00     0.031 A 
ATOM     42  C   UNL A   1      41.748  27.965  29.501  1.00  0.00     0.074 A 
ATOM     43  C   UNL A   1      39.506  28.812  28.914  1.00  0.00     0.049 A 
ATOM     44  N   UNL A   1      42.212  28.966  30.206  1.00  0.00    -0.248 NA
ATOM     45  C   UNL A   1      42.678  26.829  29.389  1.00  0.00     0.031 C 
ATOM     46  C   UNL A   1      38.154  28.783  28.349  1.00  0.00     0.029 A 
ATOM     47  N   UNL A   1      39.584  30.041  29.520  1.00  0.00    -0.354 N 
ATOM     48  C   UNL A   1      43.472  28.571  30.638  1.00  0.00     0.074 A 
ATOM     49  C   UNL A   1      43.681  27.224  30.156  1.00  0.00     0.031 C 
ATOM     50  C   UNL A   1      37.544  29.950  28.609  1.00  0.00     0.029 A 
ATOM     51  C   UNL A   1      38.442  30.794  29.392  1.00  0.00     0.049 A 
ATOM     52  H   UNL A   1      40.384  30.355  30.000  1.00  0.00     0.167 HD
ATOM     53  C   UNL A   1      44.383  29.273  31.354  1.00  0.00     0.031 A 
ATOM     54  C   UNL A   1      38.147  32.024  29.854  1.00  0.00     0.031 A 
ATOM     55  C   UNL A   1      44.189  30.619  31.821  1.00  0.00     0.049 A 
ATOM     56  C   UNL A   1      39.175  32.781  30.646  1.00  0.00     0.074 A 
ATOM     57  C   UNL A   1      45.078  31.432  32.502  1.00  0.00     0.029 A 
ATOM     58  N   UNL A   1      43.023  31.349  31.656  1.00  0.00    -0.354 N 
ATOM     59  N   UNL A   1      40.387  32.418  30.987  1.00  0.00    -0.248 NA
ATOM     60  C   UNL A   1      38.795  34.125  31.109  1.00  0.00     0.031 C 
ATOM     61  C   UNL A   1      44.435  32.642  32.785  1.00  0.00     0.029 A 
ATOM     62  C   UNL A   1      43.164  32.598  32.237  1.00  0.00     0.049 A 
ATOM     63  H   UNL A   1      42.216  31.028  31.193  1.00  0.00     0.167 HD
ATOM     64  C   UNL A   1      40.924  33.497  31.678  1.00  0.00     0.074 A 
ATOM     65  C   UNL A   1      39.911  34.532  31.696  1.00  0.00     0.031 C 
ATOM     66  C   UNL A   1      42.148  33.618  32.245  1.00  0.00     0.031 A 
BRANCH  53  67
ATOM     67  C   UNL A   1      45.681  28.587  31.676  1.00  0.00    -0.014 A 
ATOM     68  C   UNL A   1      46.800  28.719  30.837  1.00  0.00     0.009 A 
ATOM     69  C   UNL A   1      45.797  27.819  32.846  1.00  0.00     0.009 A 
ATOM     70  C   UNL A   1      47.995  28.067  31.143  1.00  0.00     0.001 A 
ATOM     71  C   UNL A   1      47.002  27.191  33.163  1.00  0.00     0.001 A 
ATOM     72  C   UNL A   1      48.096  27.306  32.307  1.00  0.00     0.000 A 
ENDBRANCH  53  67
BRANCH  54  73
ATOM     73  C   UNL A   1      36.823  32.634  29.560  1.00  0.00    -0.014 A 
ATOM     74  C   UNL A   1      35.769  32.515  30.478  1.00  0.00     0.009 A 
ATOM     75  C   UNL A   1      36.603  33.325  28.359  1.00  0.00     0.009 A 
ATOM     76  C   UNL A   1      34.513  33.052  30.188  1.00  0.00     0.001 A 
ATOM     77  C   UNL A   1      35.353  33.886  28.084  1.00  0.00     0.001 A 
ATOM     78  C   UNL A   1      34.308  33.741  28.994  1.00  0.00     0.000 A 
ENDBRANCH  54  73
BRANCH  66  79
ATOM     79  C   UNL A   1      42.474  34.929  32.902  1.00  0.00    -0.014 A 
ATOM     80  C   UNL A   1      43.245  35.901  32.247  1.00  0.00     0.009 A 
ATOM     81  C   UNL A   1      41.969  35.209  34.182  1.00  0.00     0.009 A 
ATOM     82  C   UNL A   1      43.529  37.116  32.873  1.00  0.00     0.001 A 
ATOM     83  C   UNL A   1      42.232  36.434  34.795  1.00  0.00     0.001 A 
ATOM     84  C   UNL A   1      43.019  37.384  34.144  1.00  0.00     0.000 A 
ENDBRANCH  66  79
ENDBRANCH  40  41
ENDBRANCH  32  35
ENDBRANCH  30  31
ENDBRANCH  29  30
ENDBRANCH  28  29
ENDBRANCH   1  28
TORSDOF 15
ENDMDL
MODEL 2
REMARK VINA RESULT:      -9.3      3.336     10.179
REMARK SMILES COc1cccc(-c2ccc(Nc3cccc(C(=O)NCCCCNC(=O)c4ccc(-c5c6nc(c(-c7ccccc7)c7ccc([nH]7)c(-c7ccccc7)c7nc(c(-c8ccccc8)c8ccc5[nH]8)C=C7)C=C6)cc4)c3)nn2)c1
REMARK SMILES IDX 21 1 20 2 18 3 19 4 17 6 13 7 14 8 76 9 15 10 16 11 12 12
REMARK SMILES IDX 11 14 8 15 9 16 78 17 10 18 77 19 7 20 3 21 4 22 79 23 5 24
REMARK SMILES IDX 6 25 2 26 1 27 22 28 23 29 24 30 25 31 26 32 27 34 28 35
REMARK SMILES IDX 29 36 75 37 30 38 74 39 31 40 32 41 33 42 68 43 34 44 73 45
REMARK SMILES IDX 67 46 69 47 35 48 72 49 66 50 65 51 36 53 58 54 43 55 57 56
REMARK SMILES IDX 44 57 47 58 56 59 70 60 45 61 46 62 55 64 71 65 48 66 37 67
REMARK SMILES IDX 38 68 42 69 39 70 41 71 40 72 59 73 60 74 64 75 61 76 63 77
REMARK SMILES IDX 62 78 49 79 50 80 54 81 51 82 53 83 52 84
REMARK H PARENT 20 5 12 13 25 33 69 52 47 63
REMARK Flexibility Score: inf
ROOT
ATOM      1  C   UNL A   1      34.997  33.270  30.944  1.00  0.00     0.116 C 
ENDROOT
BRANCH   1   2
ATOM      2  N   UNL A   1      34.616  33.348  32.347  1.00  0.00    -0.352 N 
ATOM      3  C   UNL A   1      35.386  33.374  33.492  1.00  0.00     0.251 C 
ATOM      4  O   UNL A   1      34.821  33.424  34.583  1.00  0.00    -0.269 OA
ATOM      5  H   UNL A   1      33.645  33.390  32.505  1.00  0.00     0.163 HD
BRANCH   3   6
ATOM      6  C   UNL A   1      36.869  33.266  33.443  1.00  0.00     0.041 A 
ATOM      7  C   UNL A   1      38.952  32.387  34.352  1.00  0.00     0.040 A 
ATOM      8  C   UNL A   1      39.653  33.338  33.602  1.00  0.00     0.026 A 
ATOM      9  C   UNL A   1      37.566  32.305  34.175  1.00  0.00     0.040 A 
ATOM     10  C   UNL A   1      38.979  34.205  32.733  1.00  0.00     0.003 A 
ATOM     11  C   UNL A   1      37.586  34.186  32.673  1.00  0.00     0.014 A 
BRANCH   7  12
ATOM     12  N   UNL A   1      39.619  31.612  35.317  1.00  0.00    -0.339 N 
ATOM     13  H   UNL A   1      39.686  32.014  36.214  1.00  0.00     0.168 HD
BRANCH  12  14
ATOM     14  C   UNL A   1      40.206  30.345  35.174  1.00  0.00     0.153 A 
ATOM     15  C   UNL A   1      41.441  27.892  34.908  1.00  0.00     0.093 A 
ATOM     16  C   UNL A   1      41.209  28.657  33.775  1.00  0.00     0.035 A 
ATOM     17  N   UNL A   1      41.087  28.355  36.123  1.00  0.00    -0.148 NA
ATOM     18  C   UNL A   1      40.577  29.896  33.912  1.00  0.00     0.051 A 
ATOM     19  N   UNL A   1      40.481  29.584  36.251  1.00  0.00    -0.132 NA
BRANCH  15  20
ATOM     20  C   UNL A   1      42.008  26.540  34.883  1.00  0.00     0.006 A 
ATOM     21  C   UNL A   1      43.682  24.926  34.160  1.00  0.00     0.119 A 
ATOM     22  C   UNL A   1      43.017  23.914  34.850  1.00  0.00     0.046 A 
ATOM     23  C   UNL A   1      43.172  26.228  34.157  1.00  0.00     0.056 A 
ATOM     24  C   UNL A   1      41.872  24.206  35.585  1.00  0.00     0.005 A 
ATOM     25  C   UNL A   1      41.380  25.510  35.608  1.00  0.00     0.011 A 
BRANCH  21  26
ATOM     26  O   UNL A   1      44.796  24.538  33.464  1.00  0.00    -0.497 OA
ATOM     27  C   UNL A   1      45.450  23.390  34.004  1.00  0.00     0.278 C 
ENDBRANCH  21  26
ENDBRANCH  15  20
ENDBRANCH  12  14
ENDBRANCH   7  12
ENDBRANCH   3   6
ENDBRANCH   1   2
BRANCH   1  28
ATOM     28  C   UNL A   1      34.869  34.580  30.177  1.00  0.00     0.023 C 
BRANCH  28  29
ATOM     29  C   UNL A   1      34.872  34.481  28.658  1.00  0.00     0.023 C 
BRANCH  29  30
ATOM     30  C   UNL A   1      35.386  33.174  28.069  1.00  0.00     0.116 C 
BRANCH  30  31
ATOM     31  N   UNL A   1      34.348  32.180  27.825  1.00  0.00    -0.352 N 
ATOM     32  C   UNL A   1      34.426  30.805  27.829  1.00  0.00     0.251 C 
ATOM     33  H   UNL A   1      33.457  32.547  27.626  1.00  0.00     0.163 HD
ATOM     34  O   UNL A   1      33.446  30.129  27.543  1.00  0.00    -0.269 OA
BRANCH  32  35
ATOM     35  C   UNL A   1      35.716  30.142  28.135  1.00  0.00     0.039 A 
ATOM     36  C   UNL A   1      36.693  30.075  27.138  1.00  0.00     0.014 A 
ATOM     37  C   UNL A   1      35.976  29.621  29.405  1.00  0.00     0.014 A 
ATOM     38  C   UNL A   1      37.962  29.574  27.443  1.00  0.00     0.010 A 
ATOM     39  C   UNL A   1      37.263  29.200  29.729  1.00  0.00     0.010 A 
ATOM     40  C   UNL A   1      38.273  29.178  28.754  1.00  0.00    -0.014 A 
BRANCH  40  41
ATOM     41  C   UNL A   1      39.646  28.751  29.131  1.00  0.00     0.031 A 
ATOM     42  C   UNL A   1      40.553  29.687  29.880  1.00  0.00     0.074 A 
ATOM     43  C   UNL A   1      40.107  27.548  28.733  1.00  0.00     0.049 A 
ATOM     44  N   UNL A   1      41.803  29.519  30.234  1.00  0.00    -0.248 NA
ATOM     45  C   UNL A   1      39.992  30.993  30.260  1.00  0.00     0.031 C 
ATOM     46  C   UNL A   1      39.350  26.560  27.959  1.00  0.00     0.029 A 
ATOM     47  N   UNL A   1      41.331  26.954  28.918  1.00  0.00    -0.354 N 
ATOM     48  C   UNL A   1      42.180  30.703  30.855  1.00  0.00     0.074 A 
ATOM     49  C   UNL A   1      41.045  31.597  30.788  1.00  0.00     0.031 C 
ATOM     50  C   UNL A   1      40.116  25.475  27.763  1.00  0.00     0.029 A 
ATOM     51  C   UNL A   1      41.428  25.703  28.360  1.00  0.00     0.049 A 
ATOM     52  H   UNL A   1      42.069  27.385  29.407  1.00  0.00     0.167 HD
ATOM     53  C   UNL A   1      43.359  31.015  31.446  1.00  0.00     0.031 A 
ATOM     54  C   UNL A   1      42.458  24.835  28.329  1.00  0.00     0.031 A 
ATOM     55  C   UNL A   1      44.485  30.125  31.532  1.00  0.00     0.049 A 
ATOM     56  C   UNL A   1      43.755  25.205  28.992  1.00  0.00     0.074 A 
ATOM     57  C   UNL A   1      45.699  30.330  32.164  1.00  0.00     0.029 A 
ATOM     58  N   UNL A   1      44.536  28.861  30.967  1.00  0.00    -0.354 N 
ATOM     59  N   UNL A   1      44.071  26.302  29.633  1.00  0.00    -0.248 NA
ATOM     60  C   UNL A   1      44.835  24.207  28.933  1.00  0.00     0.031 C 
ATOM     61  C   UNL A   1      46.500  29.204  31.946  1.00  0.00     0.029 A 
ATOM     62  C   UNL A   1      45.766  28.281  31.220  1.00  0.00     0.049 A 
ATOM     63  H   UNL A   1      43.804  28.439  30.461  1.00  0.00     0.167 HD
ATOM     64  C   UNL A   1      45.374  26.117  30.079  1.00  0.00     0.074 A 
ATOM     65  C   UNL A   1      45.783  24.797  29.647  1.00  0.00     0.031 C 
ATOM     66  C   UNL A   1      46.159  26.966  30.786  1.00  0.00     0.031 A 
BRANCH  53  67
ATOM     67  C   UNL A   1      43.485  32.385  32.050  1.00  0.00    -0.014 A 
ATOM     68  C   UNL A   1      43.869  33.489  31.271  1.00  0.00     0.009 A 
ATOM     69  C   UNL A   1      43.191  32.582  33.409  1.00  0.00     0.009 A 
ATOM     70  C   UNL A   1      43.992  34.754  31.849  1.00  0.00     0.001 A 
ATOM     71  C   UNL A   1      43.288  33.853  33.977  1.00  0.00     0.001 A 
ATOM     72  C   UNL A   1      43.699  34.935  33.200  1.00  0.00     0.000 A 
ENDBRANCH  53  67
BRANCH  54  73
ATOM     73  C   UNL A   1      42.301  23.515  27.664  1.00  0.00    -0.014 A 
ATOM     74  C   UNL A   1      42.598  23.369  26.300  1.00  0.00     0.009 A 
ATOM     75  C   UNL A   1      41.843  22.400  28.382  1.00  0.00     0.009 A 
ATOM     76  C   UNL A   1      42.415  22.140  25.663  1.00  0.00     0.001 A 
ATOM     77  C   UNL A   1      41.687  21.165  27.748  1.00  0.00     0.001 A 
ATOM     78  C   UNL A   1      41.964  21.039  26.388  1.00  0.00     0.000 A 
ENDBRANCH  54  73
BRANCH  66  79
ATOM     79  C   UNL A   1      47.528  26.478  31.167  1.00  0.00    -0.014 A 
ATOM     80  C   UNL A   1      47.767  25.877  32.413  1.00  0.00     0.009 A 
ATOM     81  C   UNL A   1      48.584  26.589  30.250  1.00  0.00     0.009 A 
ATOM     82  C   UNL A   1      49.045  25.424  32.743  1.00  0.00     0.001 A 
ATOM     83  C   UNL A   1      49.855  26.111  30.572  1.00  0.00     0.001 A 
ATOM     84  C   UNL A   1      50.087  25.537  31.821  1.00  0.00     0.000 A 
ENDBRANCH  66  79
ENDBRANCH  40  41
ENDBRANCH  32  35
ENDBRANCH  30  31
ENDBRANCH  29  30
ENDBRANCH  28  29
ENDBRANCH   1  28
TORSDOF 15
ENDMDL
MODEL 3
REMARK VINA RESULT:      -9.2      4.280      7.741
REMARK SMILES COc1cccc(-c2ccc(Nc3cccc(C(=O)NCCCCNC(=O)c4ccc(-c5c6nc(c(-c7ccccc7)c7ccc([nH]7)c(-c7ccccc7)c7nc(c(-c8ccccc8)c8ccc5[nH]8)C=C7)C=C6)cc4)c3)nn2)c1
REMARK SMILES IDX 21 1 20 2 18 3 19 4 17 6 13 7 14 8 76 9 15 10 16 11 12 12
REMARK SMILES IDX 11 14 8 15 9 16 78 17 10 18 77 19 7 20 3 21 4 22 79 23 5 24
REMARK SMILES IDX 6 25 2 26 1 27 22 28 23 29 24 30 25 31 26 32 27 34 28 35
REMARK SMILES IDX 29 36 75 37 30 38 74 39 31 40 32 41 33 42 68 43 34 44 73 45
REMARK SMILES IDX 67 46 69 47 35 48 72 49 66 50 65 51 36 53 58 54 43 55 57 56
REMARK SMILES IDX 44 57 47 58 56 59 70 60 45 61 46 62 55 64 71 65 48 66 37 67
REMARK SMILES IDX 38 68 42 69 39 70 41 71 40 72 59 73 60 74 64 75 61 76 63 77
REMARK SMILES IDX 62 78 49 79 50 80 54 81 51 82 53 83 52 84
REMARK H PARENT 20 5 12 13 25 33 69 52 47 63
REMARK Flexibility Score: inf
ROOT
ATOM      1  C   UNL A   1      33.985  21.958  26.614  1.00  0.00     0.116 C 
ENDROOT
BRANCH   1   2
ATOM      2  N   UNL A   1      33.475  20.598  26.710  1.00  0.00    -0.352 N 
ATOM      3  C   UNL A   1      32.903  19.778  25.758  1.00  0.00     0.251 C 
ATOM      4  O   UNL A   1      32.526  18.656  26.092  1.00  0.00    -0.269 OA
ATOM      5  H   UNL A   1      33.550  20.195  27.606  1.00  0.00     0.163 HD
BRANCH   3   6
ATOM      6  C   UNL A   1      32.664  20.242  24.365  1.00  0.00     0.041 A 
ATOM      7  C   UNL A   1      32.064  22.017  22.807  1.00  0.00     0.040 A 
ATOM      8  C   UNL A   1      31.855  21.047  21.820  1.00  0.00     0.026 A 
ATOM      9  C   UNL A   1      32.567  21.596  24.043  1.00  0.00     0.040 A 
ATOM     10  C   UNL A   1      32.107  19.695  22.079  1.00  0.00     0.003 A 
ATOM     11  C   UNL A   1      32.486  19.290  23.358  1.00  0.00     0.014 A 
BRANCH   7  12
ATOM     12  N   UNL A   1      31.684  23.352  22.581  1.00  0.00    -0.339 N 
ATOM     13  H   UNL A   1      31.112  23.505  21.794  1.00  0.00     0.168 HD
BRANCH  12  14
ATOM     14  C   UNL A   1      32.013  24.497  23.324  1.00  0.00     0.153 A 
ATOM     15  C   UNL A   1      32.594  26.793  24.740  1.00  0.00     0.093 A 
ATOM     16  C   UNL A   1      33.287  26.529  23.568  1.00  0.00     0.035 A 
ATOM     17  N   UNL A   1      31.634  25.948  25.164  1.00  0.00    -0.148 NA
ATOM     18  C   UNL A   1      32.996  25.362  22.857  1.00  0.00     0.051 A 
ATOM     19  N   UNL A   1      31.340  24.810  24.448  1.00  0.00    -0.132 NA
BRANCH  15  20
ATOM     20  C   UNL A   1      32.873  27.931  25.620  1.00  0.00     0.006 A 
ATOM     21  C   UNL A   1      32.373  30.154  26.482  1.00  0.00     0.119 A 
ATOM     22  C   UNL A   1      33.493  30.094  27.309  1.00  0.00     0.046 A 
ATOM     23  C   UNL A   1      32.073  29.089  25.626  1.00  0.00     0.056 A 
ATOM     24  C   UNL A   1      34.288  28.953  27.328  1.00  0.00     0.005 A 
ATOM     25  C   UNL A   1      33.973  27.879  26.496  1.00  0.00     0.011 A 
BRANCH  21  26
ATOM     26  O   UNL A   1      31.656  31.320  26.533  1.00  0.00    -0.497 OA
ATOM     27  C   UNL A   1      30.703  31.466  25.482  1.00  0.00     0.278 C 
ENDBRANCH  21  26
ENDBRANCH  15  20
ENDBRANCH  12  14
ENDBRANCH   7  12
ENDBRANCH   3   6
ENDBRANCH   1   2
BRANCH   1  28
ATOM     28  C   UNL A   1      35.495  22.058  26.439  1.00  0.00     0.023 C 
BRANCH  28  29
ATOM     29  C   UNL A   1      35.992  22.559  25.090  1.00  0.00     0.023 C 
BRANCH  29  30
ATOM     30  C   UNL A   1      37.302  23.337  25.102  1.00  0.00     0.116 C 
BRANCH  30  31
ATOM     31  N   UNL A   1      38.470  22.533  25.436  1.00  0.00    -0.352 N 
ATOM     32  C   UNL A   1      39.578  22.858  26.187  1.00  0.00     0.251 C 
ATOM     33  H   UNL A   1      38.467  21.619  25.070  1.00  0.00     0.163 HD
ATOM     34  O   UNL A   1      40.496  22.057  26.314  1.00  0.00    -0.269 OA
BRANCH  32  35
ATOM     35  C   UNL A   1      39.680  24.201  26.805  1.00  0.00     0.039 A 
ATOM     36  C   UNL A   1      39.133  24.402  28.076  1.00  0.00     0.014 A 
ATOM     37  C   UNL A   1      40.338  25.247  26.155  1.00  0.00     0.014 A 
ATOM     38  C   UNL A   1      39.331  25.620  28.732  1.00  0.00     0.010 A 
ATOM     39  C   UNL A   1      40.607  26.428  26.842  1.00  0.00     0.010 A 
ATOM     40  C   UNL A   1      40.112  26.627  28.140  1.00  0.00    -0.014 A 
BRANCH  40  41
ATOM     41  C   UNL A   1      40.435  27.885  28.863  1.00  0.00     0.031 A 
ATOM     42  C   UNL A   1      41.750  28.033  29.577  1.00  0.00     0.074 A 
ATOM     43  C   UNL A   1      39.514  28.867  28.943  1.00  0.00     0.049 A 
ATOM     44  N   UNL A   1      42.180  29.024  30.317  1.00  0.00    -0.248 NA
ATOM     45  C   UNL A   1      42.695  26.911  29.468  1.00  0.00     0.031 C 
ATOM     46  C   UNL A   1      38.181  28.835  28.337  1.00  0.00     0.029 A 
ATOM     47  N   UNL A   1      39.560  30.084  29.576  1.00  0.00    -0.354 N 
ATOM     48  C   UNL A   1      43.431  28.635  30.777  1.00  0.00     0.074 A 
ATOM     49  C   UNL A   1      43.671  27.301  30.273  1.00  0.00     0.031 C 
ATOM     50  C   UNL A   1      37.549  29.989  28.605  1.00  0.00     0.029 A 
ATOM     51  C   UNL A   1      38.413  30.826  29.431  1.00  0.00     0.049 A 
ATOM     52  H   UNL A   1      40.343  30.397  30.086  1.00  0.00     0.167 HD
ATOM     53  C   UNL A   1      44.313  29.331  31.534  1.00  0.00     0.031 A 
ATOM     54  C   UNL A   1      38.090  32.042  29.910  1.00  0.00     0.031 A 
ATOM     55  C   UNL A   1      44.089  30.665  32.024  1.00  0.00     0.049 A 
ATOM     56  C   UNL A   1      39.085  32.794  30.748  1.00  0.00     0.074 A 
ATOM     57  C   UNL A   1      44.948  31.473  32.748  1.00  0.00     0.029 A 
ATOM     58  N   UNL A   1      42.920  31.385  31.840  1.00  0.00    -0.354 N 
ATOM     59  N   UNL A   1      40.291  32.438  31.116  1.00  0.00    -0.248 NA
ATOM     60  C   UNL A   1      38.675  34.123  31.228  1.00  0.00     0.031 C 
ATOM     61  C   UNL A   1      44.282  32.669  33.037  1.00  0.00     0.029 A 
ATOM     62  C   UNL A   1      43.028  32.622  32.451  1.00  0.00     0.049 A 
ATOM     63  H   UNL A   1      42.130  31.065  31.346  1.00  0.00     0.167 HD
ATOM     64  C   UNL A   1      40.795  33.507  31.846  1.00  0.00     0.074 A 
ATOM     65  C   UNL A   1      39.770  34.531  31.856  1.00  0.00     0.031 C 
ATOM     66  C   UNL A   1      42.001  33.631  32.451  1.00  0.00     0.031 A 
BRANCH  53  67
ATOM     67  C   UNL A   1      45.609  28.654  31.879  1.00  0.00    -0.014 A 
ATOM     68  C   UNL A   1      46.737  28.779  31.051  1.00  0.00     0.009 A 
ATOM     69  C   UNL A   1      45.715  27.902  33.060  1.00  0.00     0.009 A 
ATOM     70  C   UNL A   1      47.931  28.134  31.379  1.00  0.00     0.001 A 
ATOM     71  C   UNL A   1      46.918  27.282  33.399  1.00  0.00     0.001 A 
ATOM     72  C   UNL A   1      48.021  27.389  32.554  1.00  0.00     0.000 A 
ENDBRANCH  53  67
BRANCH  54  73
ATOM     73  C   UNL A   1      36.768  32.643  29.590  1.00  0.00    -0.014 A 
ATOM     74  C   UNL A   1      35.707  32.546  30.503  1.00  0.00     0.009 A 
ATOM     75  C   UNL A   1      36.557  33.304  28.370  1.00  0.00     0.009 A 
ATOM     76  C   UNL A   1      34.453  33.075  30.190  1.00  0.00     0.001 A 
ATOM     77  C   UNL A   1      35.309  33.855  28.072  1.00  0.00     0.001 A 
ATOM     78  C   UNL A   1      34.257  33.732  28.977  1.00  0.00     0.000 A 
ENDBRANCH  54  73
BRANCH  66  79
ATOM     79  C   UNL A   1      42.291  34.931  33.145  1.00  0.00    -0.014 A 
ATOM     80  C   UNL A   1      41.798  35.197  34.431  1.00  0.00     0.009 A 
ATOM     81  C   UNL A   1      43.102  35.888  32.515  1.00  0.00     0.009 A 
ATOM     82  C   UNL A   1      42.088  36.409  35.061  1.00  0.00     0.001 A 
ATOM     83  C   UNL A   1      43.412  37.088  33.156  1.00  0.00     0.001 A 
ATOM     84  C   UNL A   1      42.897  37.351  34.425  1.00  0.00     0.000 A 
ENDBRANCH  66  79
ENDBRANCH  40  41
ENDBRANCH  32  35
ENDBRANCH  30  31
ENDBRANCH  29  30
ENDBRANCH  28  29
ENDBRANCH   1  28
TORSDOF 15
ENDMDL
