MODEL 1
REMARK VINA RESULT:      -9.9      0.000      0.000
REMARK SMILES C[C@H](CO)CSc1cc(Cl)ccc1C(=O)NCCCCNC(=O)c1ccc(-c2c3nc(c(-c4ccccc4)c4ccc([nH]4)c(-c4ccccc4)c4nc(c(-c5ccccc5)c5ccc2[nH]5)C=C4)C=C3)cc1
REMARK SMILES IDX 17 1 16 2 14 3 15 4 13 6 7 7 8 8 9 9 12 10 10 11 11 12 6 13
REMARK SMILES IDX 5 14 2 15 1 16 3 17 4 18 18 20 19 21 20 22 21 23 22 24 23 26
REMARK SMILES IDX 24 27 25 28 71 29 26 30 70 31 27 32 28 33 29 34 64 35 30 36
REMARK SMILES IDX 69 37 63 38 65 39 31 40 68 41 62 42 61 43 32 45 54 46 39 47
REMARK SMILES IDX 53 48 40 49 43 50 52 51 66 52 41 53 42 54 51 56 67 57 44 58
REMARK SMILES IDX 33 59 34 60 38 61 35 62 37 63 36 64 55 65 56 66 60 67 57 68
REMARK SMILES IDX 59 69 58 70 45 71 46 72 50 73 47 74 49 75 48 76
REMARK H PARENT 16 5 4 19 21 25 65 44 43 55
REMARK Flexibility Score: inf
ROOT
ATOM      1  C   UNL A   1      34.130  29.489  27.472  1.00  0.00     0.116 C 
ENDROOT
BRANCH   1   2
ATOM      2  N   UNL A   1      32.792  28.949  27.641  1.00  0.00    -0.352 N 
ATOM      3  C   UNL A   1      32.170  27.845  27.115  1.00  0.00     0.252 C 
ATOM      4  O   UNL A   1      31.053  27.553  27.543  1.00  0.00    -0.269 OA
ATOM      5  H   UNL A   1      32.223  29.475  28.248  1.00  0.00     0.163 HD
BRANCH   3   6
ATOM      6  C   UNL A   1      32.776  26.968  26.082  1.00  0.00     0.053 A 
ATOM      7  C   UNL A   1      33.273  27.370  24.829  1.00  0.00     0.021 A 
ATOM      8  C   UNL A   1      33.874  26.408  23.993  1.00  0.00     0.036 A 
ATOM      9  C   UNL A   1      33.813  25.054  24.303  1.00  0.00     0.042 A 
ATOM     10  C   UNL A   1      32.685  25.587  26.356  1.00  0.00     0.016 A 
ATOM     11  Cl  UNL A   1      34.457  23.899  23.205  1.00  0.00    -0.084 Cl
ATOM     12  C   UNL A   1      33.175  24.635  25.460  1.00  0.00     0.021 A 
BRANCH   7  13
ATOM     13  S   UNL A   1      33.067  28.942  24.001  1.00  0.00    -0.125 SA
BRANCH  13  14
ATOM     14  C   UNL A   1      31.800  28.564  22.737  1.00  0.00     0.080 C 
BRANCH  14  15
ATOM     15  C   UNL A   1      30.390  28.808  23.277  1.00  0.00     0.022 C 
ATOM     16  C   UNL A   1      29.709  27.458  23.523  1.00  0.00     0.011 C 
BRANCH  15  17
ATOM     17  C   UNL A   1      29.591  29.674  22.294  1.00  0.00     0.160 C 
BRANCH  17  18
ATOM     18  O   UNL A   1      30.403  30.158  21.231  1.00  0.00    -0.396 OA
ATOM     19  H   UNL A   1      30.659  29.420  20.656  1.00  0.00     0.210 HD
ENDBRANCH  17  18
ENDBRANCH  15  17
ENDBRANCH  14  15
ENDBRANCH  13  14
ENDBRANCH   7  13
ENDBRANCH   3   6
ENDBRANCH   1   2
BRANCH   1  20
ATOM     20  C   UNL A   1      34.164  31.015  27.341  1.00  0.00     0.023 C 
BRANCH  20  21
ATOM     21  C   UNL A   1      32.851  31.747  27.623  1.00  0.00     0.023 C 
BRANCH  21  22
ATOM     22  C   UNL A   1      32.797  33.137  27.020  1.00  0.00     0.116 C 
BRANCH  22  23
ATOM     23  N   UNL A   1      32.550  34.152  28.036  1.00  0.00    -0.352 N 
ATOM     24  C   UNL A   1      33.223  34.415  29.193  1.00  0.00     0.251 C 
ATOM     25  H   UNL A   1      31.779  34.739  27.859  1.00  0.00     0.163 HD
ATOM     26  O   UNL A   1      32.729  35.173  30.031  1.00  0.00    -0.269 OA
BRANCH  24  27
ATOM     27  C   UNL A   1      34.534  33.795  29.440  1.00  0.00     0.039 A 
ATOM     28  C   UNL A   1      34.659  32.865  30.473  1.00  0.00     0.014 A 
ATOM     29  C   UNL A   1      35.646  34.159  28.674  1.00  0.00     0.014 A 
ATOM     30  C   UNL A   1      35.900  32.291  30.728  1.00  0.00     0.010 A 
ATOM     31  C   UNL A   1      36.852  33.503  28.852  1.00  0.00     0.010 A 
ATOM     32  C   UNL A   1      37.000  32.603  29.910  1.00  0.00    -0.014 A 
BRANCH  32  33
ATOM     33  C   UNL A   1      38.334  32.039  30.196  1.00  0.00     0.031 A 
ATOM     34  C   UNL A   1      39.258  32.760  31.137  1.00  0.00     0.074 A 
ATOM     35  C   UNL A   1      38.705  30.901  29.585  1.00  0.00     0.049 A 
ATOM     36  N   UNL A   1      40.449  32.411  31.550  1.00  0.00    -0.248 NA
ATOM     37  C   UNL A   1      38.805  34.063  31.657  1.00  0.00     0.031 C 
ATOM     38  C   UNL A   1      37.907  30.169  28.597  1.00  0.00     0.029 A 
ATOM     39  N   UNL A   1      39.841  30.149  29.718  1.00  0.00    -0.354 N 
ATOM     40  C   UNL A   1      40.888  33.457  32.352  1.00  0.00     0.074 A 
ATOM     41  C   UNL A   1      39.872  34.483  32.316  1.00  0.00     0.031 C 
ATOM     42  C   UNL A   1      38.552  29.042  28.261  1.00  0.00     0.029 A 
ATOM     43  C   UNL A   1      39.814  28.987  28.988  1.00  0.00     0.049 A 
ATOM     44  H   UNL A   1      40.602  30.416  30.281  1.00  0.00     0.167 HD
ATOM     45  C   UNL A   1      42.024  33.540  33.084  1.00  0.00     0.031 A 
ATOM     46  C   UNL A   1      40.701  27.979  28.942  1.00  0.00     0.031 A 
ATOM     47  C   UNL A   1      43.009  32.495  33.132  1.00  0.00     0.049 A 
ATOM     48  C   UNL A   1      41.922  28.062  29.812  1.00  0.00     0.074 A 
ATOM     49  C   UNL A   1      44.171  32.434  33.879  1.00  0.00     0.029 A 
ATOM     50  N   UNL A   1      42.933  31.318  32.403  1.00  0.00    -0.354 N 
ATOM     51  N   UNL A   1      42.290  29.023  30.628  1.00  0.00    -0.248 NA
ATOM     52  C   UNL A   1      42.833  26.913  29.777  1.00  0.00     0.031 C 
ATOM     53  C   UNL A   1      44.817  31.230  33.573  1.00  0.00     0.029 A 
ATOM     54  C   UNL A   1      44.032  30.524  32.674  1.00  0.00     0.049 A 
ATOM     55  H   UNL A   1      42.204  31.083  31.785  1.00  0.00     0.167 HD
ATOM     56  C   UNL A   1      43.467  28.586  31.218  1.00  0.00     0.074 A 
ATOM     57  C   UNL A   1      43.731  27.262  30.687  1.00  0.00     0.031 C 
ATOM     58  C   UNL A   1      44.266  29.217  32.114  1.00  0.00     0.031 A 
BRANCH  45  59
ATOM     59  C   UNL A   1      42.243  34.798  33.880  1.00  0.00    -0.014 A 
ATOM     60  C   UNL A   1      42.876  35.918  33.315  1.00  0.00     0.009 A 
ATOM     61  C   UNL A   1      41.813  34.867  35.214  1.00  0.00     0.009 A 
ATOM     62  C   UNL A   1      43.114  37.061  34.081  1.00  0.00     0.001 A 
ATOM     63  C   UNL A   1      42.025  36.023  35.969  1.00  0.00     0.001 A 
ATOM     64  C   UNL A   1      42.685  37.114  35.405  1.00  0.00     0.000 A 
ENDBRANCH  45  59
BRANCH  46  65
ATOM     65  C   UNL A   1      40.429  26.787  28.097  1.00  0.00    -0.014 A 
ATOM     66  C   UNL A   1      40.985  26.684  26.813  1.00  0.00     0.009 A 
ATOM     67  C   UNL A   1      39.632  25.737  28.577  1.00  0.00     0.009 A 
ATOM     68  C   UNL A   1      40.726  25.567  26.016  1.00  0.00     0.001 A 
ATOM     69  C   UNL A   1      39.398  24.608  27.788  1.00  0.00     0.001 A 
ATOM     70  C   UNL A   1      39.937  24.528  26.505  1.00  0.00     0.000 A 
ENDBRANCH  46  65
BRANCH  58  71
ATOM     71  C   UNL A   1      45.480  28.467  32.576  1.00  0.00    -0.014 A 
ATOM     72  C   UNL A   1      46.706  28.589  31.902  1.00  0.00     0.009 A 
ATOM     73  C   UNL A   1      45.397  27.638  33.703  1.00  0.00     0.009 A 
ATOM     74  C   UNL A   1      47.814  27.855  32.323  1.00  0.00     0.001 A 
ATOM     75  C   UNL A   1      46.516  26.930  34.141  1.00  0.00     0.001 A 
ATOM     76  C   UNL A   1      47.719  27.028  33.443  1.00  0.00     0.000 A 
ENDBRANCH  58  71
ENDBRANCH  32  33
ENDBRANCH  24  27
ENDBRANCH  22  23
ENDBRANCH  21  22
ENDBRANCH  20  21
ENDBRANCH   1  20
TORSDOF 16
ENDMDL
MODEL 2
REMARK VINA RESULT:      -9.9      2.792      7.518
REMARK SMILES C[C@H](CO)CSc1cc(Cl)ccc1C(=O)NCCCCNC(=O)c1ccc(-c2c3nc(c(-c4ccccc4)c4ccc([nH]4)c(-c4ccccc4)c4nc(c(-c5ccccc5)c5ccc2[nH]5)C=C4)C=C3)cc1
REMARK SMILES IDX 17 1 16 2 14 3 15 4 13 6 7 7 8 8 9 9 12 10 10 11 11 12 6 13
REMARK SMILES IDX 5 14 2 15 1 16 3 17 4 18 18 20 19 21 20 22 21 23 22 24 23 26
REMARK SMILES IDX 24 27 25 28 71 29 26 30 70 31 27 32 28 33 29 34 64 35 30 36
REMARK SMILES IDX 69 37 63 38 65 39 31 40 68 41 62 42 61 43 32 45 54 46 39 47
REMARK SMILES IDX 53 48 40 49 43 50 52 51 66 52 41 53 42 54 51 56 67 57 44 58
REMARK SMILES IDX 33 59 34 60 38 61 35 62 37 63 36 64 55 65 56 66 60 67 57 68
REMARK SMILES IDX 59 69 58 70 45 71 46 72 50 73 47 74 49 75 48 76
REMARK H PARENT 16 5 4 19 21 25 65 44 43 55
REMARK Flexibility Score: inf
ROOT
ATOM      1  C   UNL A   1      33.393  23.070  24.327  1.00  0.00     0.116 C 
ENDROOT
BRANCH   1   2
ATOM      2  N   UNL A   1      33.666  23.938  23.194  1.00  0.00    -0.352 N 
ATOM      3  C   UNL A   1      33.578  25.296  23.032  1.00  0.00     0.252 C 
ATOM      4  O   UNL A   1      34.006  25.782  21.984  1.00  0.00    -0.269 OA
ATOM      5  H   UNL A   1      33.973  23.460  22.391  1.00  0.00     0.163 HD
BRANCH   3   6
ATOM      6  C   UNL A   1      33.024  26.218  24.055  1.00  0.00     0.053 A 
ATOM      7  C   UNL A   1      31.844  26.977  23.947  1.00  0.00     0.021 A 
ATOM      8  C   UNL A   1      31.431  27.756  25.046  1.00  0.00     0.036 A 
ATOM      9  C   UNL A   1      32.260  27.933  26.149  1.00  0.00     0.042 A 
ATOM     10  C   UNL A   1      33.868  26.445  25.162  1.00  0.00     0.016 A 
ATOM     11  Cl  UNL A   1      31.772  28.980  27.421  1.00  0.00    -0.084 Cl
ATOM     12  C   UNL A   1      33.502  27.318  26.188  1.00  0.00     0.021 A 
BRANCH   7  13
ATOM     13  S   UNL A   1      30.848  27.286  22.494  1.00  0.00    -0.125 SA
BRANCH  13  14
ATOM     14  C   UNL A   1      29.268  27.866  23.210  1.00  0.00     0.080 C 
BRANCH  14  15
ATOM     15  C   UNL A   1      28.654  28.982  22.364  1.00  0.00     0.022 C 
ATOM     16  C   UNL A   1      29.705  30.074  22.139  1.00  0.00     0.011 C 
BRANCH  15  17
ATOM     17  C   UNL A   1      27.401  29.537  23.052  1.00  0.00     0.160 C 
BRANCH  17  18
ATOM     18  O   UNL A   1      26.320  28.613  23.014  1.00  0.00    -0.396 OA
ATOM     19  H   UNL A   1      26.665  27.716  22.889  1.00  0.00     0.210 HD
ENDBRANCH  17  18
ENDBRANCH  15  17
ENDBRANCH  14  15
ENDBRANCH  13  14
ENDBRANCH   7  13
ENDBRANCH   3   6
ENDBRANCH   1   2
BRANCH   1  20
ATOM     20  C   UNL A   1      34.642  22.386  24.892  1.00  0.00     0.023 C 
BRANCH  20  21
ATOM     21  C   UNL A   1      35.380  23.137  26.001  1.00  0.00     0.023 C 
BRANCH  21  22
ATOM     22  C   UNL A   1      36.743  23.648  25.576  1.00  0.00     0.116 C 
BRANCH  22  23
ATOM     23  N   UNL A   1      37.792  22.680  25.866  1.00  0.00    -0.352 N 
ATOM     24  C   UNL A   1      39.044  22.871  26.372  1.00  0.00     0.251 C 
ATOM     25  H   UNL A   1      37.562  21.743  25.666  1.00  0.00     0.163 HD
ATOM     26  O   UNL A   1      39.866  21.952  26.340  1.00  0.00    -0.269 OA
BRANCH  24  27
ATOM     27  C   UNL A   1      39.413  24.170  26.955  1.00  0.00     0.039 A 
ATOM     28  C   UNL A   1      40.064  25.110  26.156  1.00  0.00     0.014 A 
ATOM     29  C   UNL A   1      39.145  24.445  28.300  1.00  0.00     0.014 A 
ATOM     30  C   UNL A   1      40.436  26.333  26.706  1.00  0.00     0.010 A 
ATOM     31  C   UNL A   1      39.411  25.703  28.814  1.00  0.00     0.010 A 
ATOM     32  C   UNL A   1      40.101  26.636  28.036  1.00  0.00    -0.014 A 
BRANCH  32  33
ATOM     33  C   UNL A   1      40.530  27.909  28.649  1.00  0.00     0.031 A 
ATOM     34  C   UNL A   1      41.972  28.103  29.025  1.00  0.00     0.074 A 
ATOM     35  C   UNL A   1      39.611  28.861  28.883  1.00  0.00     0.049 A 
ATOM     36  N   UNL A   1      42.556  29.157  29.534  1.00  0.00    -0.248 NA
ATOM     37  C   UNL A   1      42.875  26.952  28.843  1.00  0.00     0.031 C 
ATOM     38  C   UNL A   1      38.174  28.736  28.622  1.00  0.00     0.029 A 
ATOM     39  N   UNL A   1      39.751  30.131  29.374  1.00  0.00    -0.354 N 
ATOM     40  C   UNL A   1      43.877  28.786  29.748  1.00  0.00     0.074 A 
ATOM     41  C   UNL A   1      43.998  27.394  29.384  1.00  0.00     0.031 C 
ATOM     42  C   UNL A   1      37.575  29.904  28.899  1.00  0.00     0.029 A 
ATOM     43  C   UNL A   1      38.579  30.846  29.377  1.00  0.00     0.049 A 
ATOM     44  H   UNL A   1      40.607  30.495  29.694  1.00  0.00     0.167 HD
ATOM     45  C   UNL A   1      44.909  29.549  30.180  1.00  0.00     0.031 A 
ATOM     46  C   UNL A   1      38.356  32.131  29.703  1.00  0.00     0.031 A 
ATOM     47  C   UNL A   1      44.776  30.942  30.509  1.00  0.00     0.049 A 
ATOM     48  C   UNL A   1      39.526  32.977  30.115  1.00  0.00     0.074 A 
ATOM     49  C   UNL A   1      45.755  31.836  30.900  1.00  0.00     0.029 A 
ATOM     50  N   UNL A   1      43.579  31.641  30.471  1.00  0.00    -0.354 N 
ATOM     51  N   UNL A   1      40.788  32.635  30.241  1.00  0.00    -0.248 NA
ATOM     52  C   UNL A   1      39.248  34.388  30.402  1.00  0.00     0.031 C 
ATOM     53  C   UNL A   1      45.140  33.072  31.133  1.00  0.00     0.029 A 
ATOM     54  C   UNL A   1      43.790  32.957  30.840  1.00  0.00     0.049 A 
ATOM     55  H   UNL A   1      42.709  31.257  30.218  1.00  0.00     0.167 HD
ATOM     56  C   UNL A   1      41.458  33.794  30.605  1.00  0.00     0.074 A 
ATOM     57  C   UNL A   1      40.465  34.851  30.648  1.00  0.00     0.031 C 
ATOM     58  C   UNL A   1      42.773  33.976  30.884  1.00  0.00     0.031 A 
BRANCH  45  59
ATOM     59  C   UNL A   1      46.252  28.885  30.312  1.00  0.00    -0.014 A 
ATOM     60  C   UNL A   1      47.151  28.838  29.231  1.00  0.00     0.009 A 
ATOM     61  C   UNL A   1      46.628  28.296  31.528  1.00  0.00     0.009 A 
ATOM     62  C   UNL A   1      48.375  28.177  29.354  1.00  0.00     0.001 A 
ATOM     63  C   UNL A   1      47.866  27.663  31.658  1.00  0.00     0.001 A 
ATOM     64  C   UNL A   1      48.733  27.593  30.568  1.00  0.00     0.000 A 
ENDBRANCH  45  59
BRANCH  46  65
ATOM     65  C   UNL A   1      36.989  32.701  29.584  1.00  0.00    -0.014 A 
ATOM     66  C   UNL A   1      36.551  33.251  28.369  1.00  0.00     0.009 A 
ATOM     67  C   UNL A   1      36.106  32.679  30.675  1.00  0.00     0.009 A 
ATOM     68  C   UNL A   1      35.269  33.792  28.258  1.00  0.00     0.001 A 
ATOM     69  C   UNL A   1      34.815  33.194  30.552  1.00  0.00     0.001 A 
ATOM     70  C   UNL A   1      34.400  33.760  29.347  1.00  0.00     0.000 A 
ENDBRANCH  46  65
BRANCH  58  71
ATOM     71  C   UNL A   1      43.196  35.370  31.241  1.00  0.00    -0.014 A 
ATOM     72  C   UNL A   1      43.553  36.295  30.248  1.00  0.00     0.009 A 
ATOM     73  C   UNL A   1      43.227  35.762  32.587  1.00  0.00     0.009 A 
ATOM     74  C   UNL A   1      43.980  37.575  30.602  1.00  0.00     0.001 A 
ATOM     75  C   UNL A   1      43.623  37.052  32.936  1.00  0.00     0.001 A 
ATOM     76  C   UNL A   1      44.012  37.953  31.945  1.00  0.00     0.000 A 
ENDBRANCH  58  71
ENDBRANCH  32  33
ENDBRANCH  24  27
ENDBRANCH  22  23
ENDBRANCH  21  22
ENDBRANCH  20  21
ENDBRANCH   1  20
TORSDOF 16
ENDMDL
MODEL 3
REMARK VINA RESULT:      -9.7      4.539      9.390
REMARK SMILES C[C@H](CO)CSc1cc(Cl)ccc1C(=O)NCCCCNC(=O)c1ccc(-c2c3nc(c(-c4ccccc4)c4ccc([nH]4)c(-c4ccccc4)c4nc(c(-c5ccccc5)c5ccc2[nH]5)C=C4)C=C3)cc1
REMARK SMILES IDX 17 1 16 2 14 3 15 4 13 6 7 7 8 8 9 9 12 10 10 11 11 12 6 13
REMARK SMILES IDX 5 14 2 15 1 16 3 17 4 18 18 20 19 21 20 22 21 23 22 24 23 26
REMARK SMILES IDX 24 27 25 28 71 29 26 30 70 31 27 32 28 33 29 34 64 35 30 36
REMARK SMILES IDX 69 37 63 38 65 39 31 40 68 41 62 42 61 43 32 45 54 46 39 47
REMARK SMILES IDX 53 48 40 49 43 50 52 51 66 52 41 53 42 54 51 56 67 57 44 58
REMARK SMILES IDX 33 59 34 60 38 61 35 62 37 63 36 64 55 65 56 66 60 67 57 68
REMARK SMILES IDX 59 69 58 70 45 71 46 72 50 73 47 74 49 75 48 76
REMARK H PARENT 16 5 4 19 21 25 65 44 43 55
REMARK Flexibility Score: inf
ROOT
ATOM      1  C   UNL A   1      37.075  21.940  25.501  1.00  0.00     0.116 C 
ENDROOT
BRANCH   1   2
ATOM      2  N   UNL A   1      36.085  22.000  26.563  1.00  0.00    -0.352 N 
ATOM      3  C   UNL A   1      34.776  22.404  26.581  1.00  0.00     0.252 C 
ATOM      4  O   UNL A   1      34.128  22.219  27.612  1.00  0.00    -0.269 OA
ATOM      5  H   UNL A   1      36.419  21.690  27.436  1.00  0.00     0.163 HD
BRANCH   3   6
ATOM      6  C   UNL A   1      34.085  23.026  25.423  1.00  0.00     0.053 A 
ATOM      7  C   UNL A   1      32.989  22.496  24.718  1.00  0.00     0.021 A 
ATOM      8  C   UNL A   1      32.416  23.254  23.678  1.00  0.00     0.036 A 
ATOM      9  C   UNL A   1      33.027  24.416  23.220  1.00  0.00     0.042 A 
ATOM     10  C   UNL A   1      34.715  24.182  24.915  1.00  0.00     0.016 A 
ATOM     11  Cl  UNL A   1      32.362  25.255  21.875  1.00  0.00    -0.084 Cl
ATOM     12  C   UNL A   1      34.205  24.856  23.803  1.00  0.00     0.021 A 
BRANCH   7  13
ATOM     13  S   UNL A   1      32.306  20.845  24.799  1.00  0.00    -0.125 SA
BRANCH  13  14
ATOM     14  C   UNL A   1      33.771  19.792  24.499  1.00  0.00     0.080 C 
BRANCH  14  15
ATOM     15  C   UNL A   1      33.372  18.328  24.316  1.00  0.00     0.022 C 
ATOM     16  C   UNL A   1      32.475  18.207  23.079  1.00  0.00     0.011 C 
BRANCH  15  17
ATOM     17  C   UNL A   1      32.668  17.810  25.577  1.00  0.00     0.160 C 
BRANCH  17  18
ATOM     18  O   UNL A   1      33.368  16.721  26.167  1.00  0.00    -0.396 OA
ATOM     19  H   UNL A   1      34.215  17.034  26.519  1.00  0.00     0.210 HD
ENDBRANCH  17  18
ENDBRANCH  15  17
ENDBRANCH  14  15
ENDBRANCH  13  14
ENDBRANCH   7  13
ENDBRANCH   3   6
ENDBRANCH   1   2
BRANCH   1  20
ATOM     20  C   UNL A   1      37.021  20.646  24.682  1.00  0.00     0.023 C 
BRANCH  20  21
ATOM     21  C   UNL A   1      38.105  19.610  24.983  1.00  0.00     0.023 C 
BRANCH  21  22
ATOM     22  C   UNL A   1      39.198  20.132  25.894  1.00  0.00     0.116 C 
BRANCH  22  23
ATOM     23  N   UNL A   1      40.382  19.283  25.851  1.00  0.00    -0.352 N 
ATOM     24  C   UNL A   1      41.697  19.607  26.012  1.00  0.00     0.251 C 
ATOM     25  H   UNL A   1      40.205  18.329  25.680  1.00  0.00     0.163 HD
ATOM     26  O   UNL A   1      42.571  18.786  25.721  1.00  0.00    -0.269 OA
BRANCH  24  27
ATOM     27  C   UNL A   1      42.072  20.931  26.531  1.00  0.00     0.039 A 
ATOM     28  C   UNL A   1      42.112  21.128  27.913  1.00  0.00     0.014 A 
ATOM     29  C   UNL A   1      42.349  21.984  25.655  1.00  0.00     0.014 A 
ATOM     30  C   UNL A   1      42.444  22.384  28.413  1.00  0.00     0.010 A 
ATOM     31  C   UNL A   1      42.791  23.199  26.152  1.00  0.00     0.010 A 
ATOM     32  C   UNL A   1      42.794  23.421  27.532  1.00  0.00    -0.014 A 
BRANCH  32  33
ATOM     33  C   UNL A   1      43.102  24.771  28.044  1.00  0.00     0.031 A 
ATOM     34  C   UNL A   1      44.536  25.190  28.213  1.00  0.00     0.074 A 
ATOM     35  C   UNL A   1      42.090  25.590  28.374  1.00  0.00     0.049 A 
ATOM     36  N   UNL A   1      45.016  26.342  28.607  1.00  0.00    -0.248 NA
ATOM     37  C   UNL A   1      45.570  24.175  27.941  1.00  0.00     0.031 C 
ATOM     38  C   UNL A   1      40.666  25.245  28.316  1.00  0.00     0.029 A 
ATOM     39  N   UNL A   1      42.100  26.889  28.805  1.00  0.00    -0.354 N 
ATOM     40  C   UNL A   1      46.395  26.177  28.649  1.00  0.00     0.074 A 
ATOM     41  C   UNL A   1      46.675  24.801  28.311  1.00  0.00     0.031 C 
ATOM     42  C   UNL A   1      39.940  26.325  28.639  1.00  0.00     0.029 A 
ATOM     43  C   UNL A   1      40.845  27.426  28.949  1.00  0.00     0.049 A 
ATOM     44  H   UNL A   1      42.927  27.388  28.995  1.00  0.00     0.167 HD
ATOM     45  C   UNL A   1      47.348  27.102  28.913  1.00  0.00     0.031 A 
ATOM     46  C   UNL A   1      40.476  28.678  29.265  1.00  0.00     0.031 A 
ATOM     47  C   UNL A   1      47.052  28.474  29.218  1.00  0.00     0.049 A 
ATOM     48  C   UNL A   1      41.549  29.704  29.489  1.00  0.00     0.074 A 
ATOM     49  C   UNL A   1      47.927  29.519  29.446  1.00  0.00     0.029 A 
ATOM     50  N   UNL A   1      45.768  28.990  29.324  1.00  0.00    -0.354 N 
ATOM     51  N   UNL A   1      42.853  29.556  29.450  1.00  0.00    -0.248 NA
ATOM     52  C   UNL A   1      41.102  31.073  29.771  1.00  0.00     0.031 C 
ATOM     53  C   UNL A   1      47.169  30.663  29.726  1.00  0.00     0.029 A 
ATOM     54  C   UNL A   1      45.825  30.338  29.623  1.00  0.00     0.049 A 
ATOM     55  H   UNL A   1      44.940  28.472  29.203  1.00  0.00     0.167 HD
ATOM     56  C   UNL A   1      43.384  30.816  29.686  1.00  0.00     0.074 A 
ATOM     57  C   UNL A   1      42.257  31.718  29.835  1.00  0.00     0.031 C 
ATOM     58  C   UNL A   1      44.681  31.200  29.777  1.00  0.00     0.031 A 
BRANCH  45  59
ATOM     59  C   UNL A   1      48.781  26.647  28.878  1.00  0.00    -0.014 A 
ATOM     60  C   UNL A   1      49.449  26.250  30.050  1.00  0.00     0.009 A 
ATOM     61  C   UNL A   1      49.477  26.615  27.661  1.00  0.00     0.009 A 
ATOM     62  C   UNL A   1      50.794  25.875  30.009  1.00  0.00     0.001 A 
ATOM     63  C   UNL A   1      50.813  26.210  27.617  1.00  0.00     0.001 A 
ATOM     64  C   UNL A   1      51.473  25.852  28.792  1.00  0.00     0.000 A 
ENDBRANCH  45  59
BRANCH  46  65
ATOM     65  C   UNL A   1      39.035  29.038  29.318  1.00  0.00    -0.014 A 
ATOM     66  C   UNL A   1      38.374  29.497  28.169  1.00  0.00     0.009 A 
ATOM     67  C   UNL A   1      38.307  28.902  30.511  1.00  0.00     0.009 A 
ATOM     68  C   UNL A   1      37.021  29.840  28.220  1.00  0.00     0.001 A 
ATOM     69  C   UNL A   1      36.947  29.218  30.550  1.00  0.00     0.001 A 
ATOM     70  C   UNL A   1      36.308  29.697  29.408  1.00  0.00     0.000 A 
ENDBRANCH  46  65
BRANCH  58  71
ATOM     71  C   UNL A   1      44.933  32.656  30.033  1.00  0.00    -0.014 A 
ATOM     72  C   UNL A   1      45.055  33.151  31.341  1.00  0.00     0.009 A 
ATOM     73  C   UNL A   1      45.059  33.540  28.952  1.00  0.00     0.009 A 
ATOM     74  C   UNL A   1      45.252  34.514  31.561  1.00  0.00     0.001 A 
ATOM     75  C   UNL A   1      45.288  34.897  29.174  1.00  0.00     0.001 A 
ATOM     76  C   UNL A   1      45.370  35.385  30.478  1.00  0.00     0.000 A 
ENDBRANCH  58  71
ENDBRANCH  32  33
ENDBRANCH  24  27
ENDBRANCH  22  23
ENDBRANCH  21  22
ENDBRANCH  20  21
ENDBRANCH   1  20
TORSDOF 16
ENDMDL
