MODEL 1
REMARK VINA RESULT:     -12.1      0.000      0.000
REMARK SMILES Cc1ccc(C)c([C@H]2[NH2+][C@@H](C(=O)NCCCCNC(=O)c3ccc(-c4c5nc(c(-c6ccccc6)c6ccc([nH]6)c(-c6ccccc6)c6nc(c(-c7ccccc7)c7ccc4[nH]7)C=C6)C=C5)cc3)Cc3c2[nH]c2ccccc32)c1
REMARK SMILES IDX 16 1 15 2 14 3 13 4 11 5 12 6 10 8 8 9 9 10 71 11 70 14
REMARK SMILES IDX 72 15 69 16 78 17 73 18 77 20 74 21 76 22 75 23 7 24 1 25
REMARK SMILES IDX 2 26 3 27 79 28 4 29 5 30 6 31 17 32 18 33 19 34 20 36 21 37
REMARK SMILES IDX 22 38 68 39 23 40 67 41 24 42 25 43 26 44 61 45 27 46 66 47
REMARK SMILES IDX 60 48 62 49 28 50 65 51 59 52 58 53 29 55 51 56 36 57 50 58
REMARK SMILES IDX 37 59 40 60 49 61 63 62 38 63 39 64 48 66 64 67 41 68 30 69
REMARK SMILES IDX 31 70 35 71 32 72 34 73 33 74 52 75 53 76 57 77 54 78 56 79
REMARK SMILES IDX 55 80 42 81 43 82 47 83 44 84 46 85 45 86
REMARK H PARENT 13 7 9 12 9 13 72 19 18 35 62 54 40 65
REMARK Flexibility Score: inf
ROOT
ATOM      1  C   UNL A   1      46.456  25.646  27.220  1.00  0.00     0.023 C 
ENDROOT
BRANCH   1   2
ATOM      2  C   UNL A   1      46.634  24.298  26.502  1.00  0.00     0.023 C 
BRANCH   2   3
ATOM      3  C   UNL A   1      46.568  24.383  24.978  1.00  0.00     0.116 C 
BRANCH   3   4
ATOM      4  N   UNL A   1      45.778  23.347  24.361  1.00  0.00    -0.351 N 
ATOM      5  C   UNL A   1      44.493  22.944  24.461  1.00  0.00     0.278 C 
ATOM      6  O   UNL A   1      44.157  22.067  23.647  1.00  0.00    -0.268 OA
ATOM      7  H   UNL A   1      46.296  22.808  23.720  1.00  0.00     0.163 HD
BRANCH   5   8
ATOM      8  C   UNL A   1      43.424  23.509  25.421  1.00  0.00     0.277 C 
ATOM      9  C   UNL A   1      41.322  22.704  26.544  1.00  0.00     0.262 C 
ATOM     10  N   UNL A   1      42.366  22.475  25.518  1.00  0.00    -0.325 N 
ATOM     11  C   UNL A   1      41.020  24.184  26.656  1.00  0.00     0.083 A 
ATOM     12  H   UNL A   1      41.903  22.417  24.610  1.00  0.00     0.347 HD
ATOM     13  H   UNL A   1      42.845  21.619  25.800  1.00  0.00     0.347 HD
ATOM     14  C   UNL A   1      41.739  25.188  26.044  1.00  0.00    -0.006 A 
ATOM     15  N   UNL A   1      40.053  24.798  27.418  1.00  0.00    -0.353 N 
ATOM     16  C   UNL A   1      42.818  24.867  25.087  1.00  0.00     0.114 C 
ATOM     17  C   UNL A   1      41.206  26.438  26.412  1.00  0.00     0.003 A 
ATOM     18  C   UNL A   1      40.130  26.175  27.259  1.00  0.00     0.046 A 
ATOM     19  H   UNL A   1      39.404  24.330  27.993  1.00  0.00     0.166 HD
ATOM     20  C   UNL A   1      41.528  27.767  26.076  1.00  0.00     0.010 A 
ATOM     21  C   UNL A   1      39.339  27.211  27.777  1.00  0.00     0.026 A 
ATOM     22  C   UNL A   1      40.751  28.805  26.588  1.00  0.00     0.001 A 
ATOM     23  C   UNL A   1      39.670  28.527  27.422  1.00  0.00     0.002 A 
BRANCH   9  24
ATOM     24  C   UNL A   1      40.163  21.772  26.171  1.00  0.00     0.019 A 
ATOM     25  C   UNL A   1      36.698  22.034  24.545  1.00  0.00     0.044 C 
ATOM     26  C   UNL A   1      37.940  21.458  25.156  1.00  0.00    -0.051 A 
ATOM     27  C   UNL A   1      38.140  20.081  25.144  1.00  0.00     0.004 A 
ATOM     28  C   UNL A   1      38.954  22.292  25.655  1.00  0.00     0.014 A 
ATOM     29  C   UNL A   1      39.320  19.541  25.649  1.00  0.00     0.004 A 
ATOM     30  C   UNL A   1      40.340  20.362  26.158  1.00  0.00    -0.042 A 
ATOM     31  C   UNL A   1      41.637  19.680  26.513  1.00  0.00     0.045 C 
ENDBRANCH   9  24
ENDBRANCH   5   8
ENDBRANCH   3   4
ENDBRANCH   2   3
ENDBRANCH   1   2
BRANCH   1  32
ATOM     32  C   UNL A   1      46.399  25.614  28.760  1.00  0.00     0.116 C 
BRANCH  32  33
ATOM     33  N   UNL A   1      45.495  24.591  29.325  1.00  0.00    -0.352 N 
ATOM     34  C   UNL A   1      44.562  24.681  30.351  1.00  0.00     0.251 C 
ATOM     35  H   UNL A   1      45.564  23.703  28.907  1.00  0.00     0.163 HD
ATOM     36  O   UNL A   1      44.221  23.660  30.975  1.00  0.00    -0.269 OA
BRANCH  34  37
ATOM     37  C   UNL A   1      43.906  25.963  30.667  1.00  0.00     0.039 A 
ATOM     38  C   UNL A   1      44.122  26.775  31.781  1.00  0.00     0.014 A 
ATOM     39  C   UNL A   1      42.933  26.341  29.779  1.00  0.00     0.014 A 
ATOM     40  C   UNL A   1      43.335  27.929  31.929  1.00  0.00     0.010 A 
ATOM     41  C   UNL A   1      42.628  27.657  29.677  1.00  0.00     0.010 A 
ATOM     42  C   UNL A   1      42.539  28.345  30.857  1.00  0.00    -0.014 A 
BRANCH  42  43
ATOM     43  C   UNL A   1      41.713  29.540  30.814  1.00  0.00     0.031 A 
ATOM     44  C   UNL A   1      42.421  30.714  30.274  1.00  0.00     0.074 A 
ATOM     45  C   UNL A   1      40.361  29.535  30.918  1.00  0.00     0.049 A 
ATOM     46  N   UNL A   1      42.915  31.700  30.940  1.00  0.00    -0.248 NA
ATOM     47  C   UNL A   1      42.791  30.697  28.848  1.00  0.00     0.031 C 
ATOM     48  C   UNL A   1      39.440  28.390  31.017  1.00  0.00     0.029 A 
ATOM     49  N   UNL A   1      39.502  30.588  30.833  1.00  0.00    -0.354 N 
ATOM     50  C   UNL A   1      43.450  32.551  29.984  1.00  0.00     0.074 A 
ATOM     51  C   UNL A   1      43.583  31.768  28.783  1.00  0.00     0.031 C 
ATOM     52  C   UNL A   1      38.173  28.800  30.762  1.00  0.00     0.029 A 
ATOM     53  C   UNL A   1      38.167  30.248  30.641  1.00  0.00     0.049 A 
ATOM     54  H   UNL A   1      39.804  31.522  30.903  1.00  0.00     0.167 HD
ATOM     55  C   UNL A   1      43.437  33.901  30.161  1.00  0.00     0.031 A 
ATOM     56  C   UNL A   1      37.152  31.103  30.352  1.00  0.00     0.031 A 
ATOM     57  C   UNL A   1      43.070  34.252  31.514  1.00  0.00     0.049 A 
ATOM     58  C   UNL A   1      37.601  32.470  30.712  1.00  0.00     0.074 A 
ATOM     59  C   UNL A   1      43.548  33.918  32.769  1.00  0.00     0.029 A 
ATOM     60  N   UNL A   1      41.786  34.708  31.716  1.00  0.00    -0.354 N 
ATOM     61  N   UNL A   1      37.826  32.852  31.936  1.00  0.00    -0.248 NA
ATOM     62  C   UNL A   1      38.257  33.261  29.681  1.00  0.00     0.031 C 
ATOM     63  C   UNL A   1      42.378  33.712  33.561  1.00  0.00     0.029 A 
ATOM     64  C   UNL A   1      41.264  34.019  32.779  1.00  0.00     0.049 A 
ATOM     65  H   UNL A   1      41.328  35.403  31.191  1.00  0.00     0.167 HD
ATOM     66  C   UNL A   1      38.988  33.608  31.858  1.00  0.00     0.074 A 
ATOM     67  C   UNL A   1      39.149  33.910  30.436  1.00  0.00     0.031 C 
ATOM     68  C   UNL A   1      39.867  33.659  32.902  1.00  0.00     0.031 A 
BRANCH  55  69
ATOM     69  C   UNL A   1      43.315  34.888  29.025  1.00  0.00    -0.014 A 
ATOM     70  C   UNL A   1      42.027  35.283  28.624  1.00  0.00     0.009 A 
ATOM     71  C   UNL A   1      44.376  35.241  28.168  1.00  0.00     0.009 A 
ATOM     72  C   UNL A   1      41.808  35.919  27.397  1.00  0.00     0.001 A 
ATOM     73  C   UNL A   1      44.167  35.917  26.964  1.00  0.00     0.001 A 
ATOM     74  C   UNL A   1      42.878  36.228  26.564  1.00  0.00     0.000 A 
ENDBRANCH  55  69
BRANCH  56  75
ATOM     75  C   UNL A   1      35.983  30.882  29.470  1.00  0.00    -0.014 A 
ATOM     76  C   UNL A   1      35.027  31.891  29.263  1.00  0.00     0.009 A 
ATOM     77  C   UNL A   1      35.967  29.780  28.596  1.00  0.00     0.009 A 
ATOM     78  C   UNL A   1      34.119  31.818  28.196  1.00  0.00     0.001 A 
ATOM     79  C   UNL A   1      35.070  29.713  27.525  1.00  0.00     0.001 A 
ATOM     80  C   UNL A   1      34.155  30.739  27.315  1.00  0.00     0.000 A 
ENDBRANCH  56  75
BRANCH  68  81
ATOM     81  C   UNL A   1      39.440  33.060  34.223  1.00  0.00    -0.014 A 
ATOM     82  C   UNL A   1      38.820  33.802  35.245  1.00  0.00     0.009 A 
ATOM     83  C   UNL A   1      39.527  31.668  34.378  1.00  0.00     0.009 A 
ATOM     84  C   UNL A   1      38.331  33.173  36.396  1.00  0.00     0.001 A 
ATOM     85  C   UNL A   1      39.021  31.038  35.517  1.00  0.00     0.001 A 
ATOM     86  C   UNL A   1      38.428  31.790  36.527  1.00  0.00     0.000 A 
ENDBRANCH  68  81
ENDBRANCH  42  43
ENDBRANCH  34  37
ENDBRANCH  32  33
ENDBRANCH   1  32
TORSDOF 12
ENDMDL
MODEL 2
REMARK VINA RESULT:     -12.0      3.745      8.820
REMARK SMILES Cc1ccc(C)c([C@H]2[NH2+][C@@H](C(=O)NCCCCNC(=O)c3ccc(-c4c5nc(c(-c6ccccc6)c6ccc([nH]6)c(-c6ccccc6)c6nc(c(-c7ccccc7)c7ccc4[nH]7)C=C6)C=C5)cc3)Cc3c2[nH]c2ccccc32)c1
REMARK SMILES IDX 16 1 15 2 14 3 13 4 11 5 12 6 10 8 8 9 9 10 71 11 70 14
REMARK SMILES IDX 72 15 69 16 78 17 73 18 77 20 74 21 76 22 75 23 7 24 1 25
REMARK SMILES IDX 2 26 3 27 79 28 4 29 5 30 6 31 17 32 18 33 19 34 20 36 21 37
REMARK SMILES IDX 22 38 68 39 23 40 67 41 24 42 25 43 26 44 61 45 27 46 66 47
REMARK SMILES IDX 60 48 62 49 28 50 65 51 59 52 58 53 29 55 51 56 36 57 50 58
REMARK SMILES IDX 37 59 40 60 49 61 63 62 38 63 39 64 48 66 64 67 41 68 30 69
REMARK SMILES IDX 31 70 35 71 32 72 34 73 33 74 52 75 53 76 57 77 54 78 56 79
REMARK SMILES IDX 55 80 42 81 43 82 47 83 44 84 46 85 45 86
REMARK H PARENT 13 7 9 12 9 13 72 19 18 35 62 54 40 65
REMARK Flexibility Score: inf
ROOT
ATOM      1  C   UNL A   1      32.982  29.653  25.739  1.00  0.00     0.023 C 
ENDROOT
BRANCH   1   2
ATOM      2  C   UNL A   1      33.966  28.687  25.060  1.00  0.00     0.023 C 
BRANCH   2   3
ATOM      3  C   UNL A   1      33.357  27.864  23.924  1.00  0.00     0.116 C 
BRANCH   3   4
ATOM      4  N   UNL A   1      32.386  26.889  24.355  1.00  0.00    -0.351 N 
ATOM      5  C   UNL A   1      32.428  25.573  24.654  1.00  0.00     0.278 C 
ATOM      6  O   UNL A   1      31.373  25.110  25.119  1.00  0.00    -0.268 OA
ATOM      7  H   UNL A   1      31.484  27.272  24.452  1.00  0.00     0.163 HD
BRANCH   5   8
ATOM      8  C   UNL A   1      33.654  24.642  24.536  1.00  0.00     0.277 C 
ATOM      9  C   UNL A   1      34.106  22.218  24.042  1.00  0.00     0.262 C 
ATOM     10  N   UNL A   1      33.118  23.270  24.377  1.00  0.00    -0.325 N 
ATOM     11  C   UNL A   1      35.420  22.497  24.743  1.00  0.00     0.083 A 
ATOM     12  H   UNL A   1      32.668  23.007  25.255  1.00  0.00     0.347 HD
ATOM     13  H   UNL A   1      32.484  23.314  23.579  1.00  0.00     0.347 HD
ATOM     14  C   UNL A   1      35.721  23.654  25.431  1.00  0.00    -0.006 A 
ATOM     15  N   UNL A   1      36.551  21.716  24.769  1.00  0.00    -0.353 N 
ATOM     16  C   UNL A   1      34.690  24.688  25.654  1.00  0.00     0.114 C 
ATOM     17  C   UNL A   1      37.044  23.587  25.904  1.00  0.00     0.003 A 
ATOM     18  C   UNL A   1      37.547  22.350  25.501  1.00  0.00     0.046 A 
ATOM     19  H   UNL A   1      36.643  20.838  24.333  1.00  0.00     0.166 HD
ATOM     20  C   UNL A   1      37.848  24.457  26.665  1.00  0.00     0.010 A 
ATOM     21  C   UNL A   1      38.840  21.938  25.852  1.00  0.00     0.026 A 
ATOM     22  C   UNL A   1      39.137  24.060  27.017  1.00  0.00     0.001 A 
ATOM     23  C   UNL A   1      39.621  22.816  26.620  1.00  0.00     0.002 A 
BRANCH   9  24
ATOM     24  C   UNL A   1      33.412  20.884  24.347  1.00  0.00     0.019 A 
ATOM     25  C   UNL A   1      32.298  17.744  22.446  1.00  0.00     0.044 C 
ATOM     26  C   UNL A   1      32.583  18.700  23.565  1.00  0.00    -0.051 A 
ATOM     27  C   UNL A   1      32.459  18.275  24.884  1.00  0.00     0.004 A 
ATOM     28  C   UNL A   1      33.070  19.992  23.306  1.00  0.00     0.014 A 
ATOM     29  C   UNL A   1      32.785  19.134  25.930  1.00  0.00     0.004 A 
ATOM     30  C   UNL A   1      33.266  20.432  25.686  1.00  0.00    -0.042 A 
ATOM     31  C   UNL A   1      33.751  21.205  26.887  1.00  0.00     0.045 C 
ENDBRANCH   9  24
ENDBRANCH   5   8
ENDBRANCH   3   4
ENDBRANCH   2   3
ENDBRANCH   1   2
BRANCH   1  32
ATOM     32  C   UNL A   1      33.226  29.965  27.228  1.00  0.00     0.116 C 
BRANCH  32  33
ATOM     33  N   UNL A   1      33.737  31.324  27.501  1.00  0.00    -0.352 N 
ATOM     34  C   UNL A   1      34.841  31.742  28.233  1.00  0.00     0.251 C 
ATOM     35  H   UNL A   1      33.210  32.052  27.098  1.00  0.00     0.163 HD
ATOM     36  O   UNL A   1      34.872  32.888  28.717  1.00  0.00    -0.269 OA
BRANCH  34  37
ATOM     37  C   UNL A   1      36.021  30.871  28.387  1.00  0.00     0.039 A 
ATOM     38  C   UNL A   1      36.145  29.535  28.007  1.00  0.00     0.014 A 
ATOM     39  C   UNL A   1      37.079  31.452  29.037  1.00  0.00     0.014 A 
ATOM     40  C   UNL A   1      37.341  28.862  28.311  1.00  0.00     0.010 A 
ATOM     41  C   UNL A   1      38.323  30.967  28.807  1.00  0.00     0.010 A 
ATOM     42  C   UNL A   1      38.437  29.605  28.763  1.00  0.00    -0.014 A 
BRANCH  42  43
ATOM     43  C   UNL A   1      39.759  29.085  29.066  1.00  0.00     0.031 A 
ATOM     44  C   UNL A   1      40.023  28.982  30.512  1.00  0.00     0.074 A 
ATOM     45  C   UNL A   1      40.546  28.437  28.171  1.00  0.00     0.049 A 
ATOM     46  N   UNL A   1      40.733  29.780  31.233  1.00  0.00    -0.248 NA
ATOM     47  C   UNL A   1      39.256  27.987  31.281  1.00  0.00     0.031 C 
ATOM     48  C   UNL A   1      40.251  28.053  26.781  1.00  0.00     0.029 A 
ATOM     49  N   UNL A   1      41.766  27.868  28.374  1.00  0.00    -0.354 N 
ATOM     50  C   UNL A   1      40.694  29.244  32.511  1.00  0.00     0.074 A 
ATOM     51  C   UNL A   1      39.580  28.331  32.528  1.00  0.00     0.031 C 
ATOM     52  C   UNL A   1      41.158  27.139  26.357  1.00  0.00     0.029 A 
ATOM     53  C   UNL A   1      42.182  26.991  27.377  1.00  0.00     0.049 A 
ATOM     54  H   UNL A   1      42.314  28.064  29.168  1.00  0.00     0.167 HD
ATOM     55  C   UNL A   1      41.765  29.345  33.347  1.00  0.00     0.031 A 
ATOM     56  C   UNL A   1      43.264  26.171  27.426  1.00  0.00     0.031 A 
ATOM     57  C   UNL A   1      42.749  30.270  32.833  1.00  0.00     0.049 A 
ATOM     58  C   UNL A   1      44.161  26.678  28.494  1.00  0.00     0.074 A 
ATOM     59  C   UNL A   1      42.722  31.592  32.426  1.00  0.00     0.029 A 
ATOM     60  N   UNL A   1      43.876  29.728  32.255  1.00  0.00    -0.354 N 
ATOM     61  N   UNL A   1      44.790  27.815  28.423  1.00  0.00    -0.248 NA
ATOM     62  C   UNL A   1      43.983  26.146  29.837  1.00  0.00     0.031 C 
ATOM     63  C   UNL A   1      43.524  31.627  31.246  1.00  0.00     0.029 A 
ATOM     64  C   UNL A   1      44.067  30.356  31.052  1.00  0.00     0.049 A 
ATOM     65  H   UNL A   1      44.440  29.017  32.637  1.00  0.00     0.167 HD
ATOM     66  C   UNL A   1      44.673  28.359  29.695  1.00  0.00     0.074 A 
ATOM     67  C   UNL A   1      44.257  27.244  30.547  1.00  0.00     0.031 C 
ATOM     68  C   UNL A   1      44.625  29.711  29.882  1.00  0.00     0.031 A 
BRANCH  55  69
ATOM     69  C   UNL A   1      42.122  28.296  34.373  1.00  0.00    -0.014 A 
ATOM     70  C   UNL A   1      42.677  27.087  33.921  1.00  0.00     0.009 A 
ATOM     71  C   UNL A   1      41.702  28.332  35.717  1.00  0.00     0.009 A 
ATOM     72  C   UNL A   1      42.730  25.956  34.743  1.00  0.00     0.001 A 
ATOM     73  C   UNL A   1      41.796  27.219  36.556  1.00  0.00     0.001 A 
ATOM     74  C   UNL A   1      42.281  26.021  36.058  1.00  0.00     0.000 A 
ENDBRANCH  55  69
BRANCH  56  75
ATOM     75  C   UNL A   1      43.410  24.803  26.880  1.00  0.00    -0.014 A 
ATOM     76  C   UNL A   1      43.250  23.672  27.699  1.00  0.00     0.009 A 
ATOM     77  C   UNL A   1      43.412  24.605  25.488  1.00  0.00     0.009 A 
ATOM     78  C   UNL A   1      43.057  22.399  27.142  1.00  0.00     0.001 A 
ATOM     79  C   UNL A   1      43.207  23.337  24.932  1.00  0.00     0.001 A 
ATOM     80  C   UNL A   1      43.015  22.236  25.759  1.00  0.00     0.000 A 
ENDBRANCH  56  75
BRANCH  68  81
ATOM     81  C   UNL A   1      44.930  30.604  28.701  1.00  0.00    -0.014 A 
ATOM     82  C   UNL A   1      43.961  31.001  27.761  1.00  0.00     0.009 A 
ATOM     83  C   UNL A   1      46.203  31.187  28.623  1.00  0.00     0.009 A 
ATOM     84  C   UNL A   1      44.269  31.930  26.760  1.00  0.00     0.001 A 
ATOM     85  C   UNL A   1      46.504  32.128  27.637  1.00  0.00     0.001 A 
ATOM     86  C   UNL A   1      45.540  32.496  26.702  1.00  0.00     0.000 A 
ENDBRANCH  68  81
ENDBRANCH  42  43
ENDBRANCH  34  37
ENDBRANCH  32  33
ENDBRANCH   1  32
TORSDOF 12
ENDMDL
MODEL 3
REMARK VINA RESULT:     -11.8      3.029     10.608
REMARK SMILES Cc1ccc(C)c([C@H]2[NH2+][C@@H](C(=O)NCCCCNC(=O)c3ccc(-c4c5nc(c(-c6ccccc6)c6ccc([nH]6)c(-c6ccccc6)c6nc(c(-c7ccccc7)c7ccc4[nH]7)C=C6)C=C5)cc3)Cc3c2[nH]c2ccccc32)c1
REMARK SMILES IDX 16 1 15 2 14 3 13 4 11 5 12 6 10 8 8 9 9 10 71 11 70 14
REMARK SMILES IDX 72 15 69 16 78 17 73 18 77 20 74 21 76 22 75 23 7 24 1 25
REMARK SMILES IDX 2 26 3 27 79 28 4 29 5 30 6 31 17 32 18 33 19 34 20 36 21 37
REMARK SMILES IDX 22 38 68 39 23 40 67 41 24 42 25 43 26 44 61 45 27 46 66 47
REMARK SMILES IDX 60 48 62 49 28 50 65 51 59 52 58 53 29 55 51 56 36 57 50 58
REMARK SMILES IDX 37 59 40 60 49 61 63 62 38 63 39 64 48 66 64 67 41 68 30 69
REMARK SMILES IDX 31 70 35 71 32 72 34 73 33 74 52 75 53 76 57 77 54 78 56 79
REMARK SMILES IDX 55 80 42 81 43 82 47 83 44 84 46 85 45 86
REMARK H PARENT 13 7 9 12 9 13 72 19 18 35 62 54 40 65
REMARK Flexibility Score: inf
ROOT
ATOM      1  C   UNL A   1      38.902  33.642  34.180  1.00  0.00     0.023 C 
ENDROOT
BRANCH   1   2
ATOM      2  C   UNL A   1      37.535  34.259  33.846  1.00  0.00     0.023 C 
BRANCH   2   3
ATOM      3  C   UNL A   1      36.404  33.828  34.780  1.00  0.00     0.116 C 
BRANCH   3   4
ATOM      4  N   UNL A   1      35.100  33.820  34.166  1.00  0.00    -0.351 N 
ATOM      5  C   UNL A   1      34.593  33.321  33.017  1.00  0.00     0.278 C 
ATOM      6  O   UNL A   1      33.359  33.418  32.907  1.00  0.00    -0.268 OA
ATOM      7  H   UNL A   1      34.423  34.286  34.709  1.00  0.00     0.163 HD
BRANCH   5   8
ATOM      8  C   UNL A   1      35.381  32.605  31.899  1.00  0.00     0.277 C 
ATOM      9  C   UNL A   1      35.217  32.311  29.406  1.00  0.00     0.262 C 
ATOM     10  N   UNL A   1      34.570  32.748  30.666  1.00  0.00    -0.325 N 
ATOM     11  C   UNL A   1      36.093  31.102  29.664  1.00  0.00     0.083 A 
ATOM     12  H   UNL A   1      33.719  32.197  30.786  1.00  0.00     0.347 HD
ATOM     13  H   UNL A   1      34.409  33.749  30.558  1.00  0.00     0.347 HD
ATOM     14  C   UNL A   1      36.402  30.599  30.910  1.00  0.00    -0.006 A 
ATOM     15  N   UNL A   1      36.784  30.343  28.748  1.00  0.00    -0.353 N 
ATOM     16  C   UNL A   1      35.764  31.147  32.124  1.00  0.00     0.114 C 
ATOM     17  C   UNL A   1      37.279  29.507  30.770  1.00  0.00     0.003 A 
ATOM     18  C   UNL A   1      37.491  29.342  29.402  1.00  0.00     0.046 A 
ATOM     19  H   UNL A   1      36.779  30.489  27.775  1.00  0.00     0.166 HD
ATOM     20  C   UNL A   1      37.886  28.626  31.686  1.00  0.00     0.010 A 
ATOM     21  C   UNL A   1      38.289  28.301  28.907  1.00  0.00     0.026 A 
ATOM     22  C   UNL A   1      38.684  27.589  31.206  1.00  0.00     0.001 A 
ATOM     23  C   UNL A   1      38.876  27.428  29.836  1.00  0.00     0.002 A 
BRANCH   9  24
ATOM     24  C   UNL A   1      34.080  32.156  28.388  1.00  0.00     0.019 A 
ATOM     25  C   UNL A   1      32.069  29.322  26.764  1.00  0.00     0.044 C 
ATOM     26  C   UNL A   1      32.531  30.695  27.151  1.00  0.00    -0.051 A 
ATOM     27  C   UNL A   1      31.771  31.805  26.793  1.00  0.00     0.004 A 
ATOM     28  C   UNL A   1      33.668  30.876  27.954  1.00  0.00     0.014 A 
ATOM     29  C   UNL A   1      32.155  33.078  27.203  1.00  0.00     0.004 A 
ATOM     30  C   UNL A   1      33.295  33.275  28.001  1.00  0.00    -0.042 A 
ATOM     31  C   UNL A   1      33.513  34.671  28.529  1.00  0.00     0.045 C 
ENDBRANCH   9  24
ENDBRANCH   5   8
ENDBRANCH   3   4
ENDBRANCH   2   3
ENDBRANCH   1   2
BRANCH   1  32
ATOM     32  C   UNL A   1      40.043  33.887  33.174  1.00  0.00     0.116 C 
BRANCH  32  33
ATOM     33  N   UNL A   1      39.602  34.308  31.828  1.00  0.00    -0.352 N 
ATOM     34  C   UNL A   1      40.160  34.061  30.580  1.00  0.00     0.251 C 
ATOM     35  H   UNL A   1      38.780  34.849  31.813  1.00  0.00     0.163 HD
ATOM     36  O   UNL A   1      39.926  34.830  29.629  1.00  0.00    -0.269 OA
BRANCH  34  37
ATOM     37  C   UNL A   1      40.972  32.855  30.338  1.00  0.00     0.039 A 
ATOM     38  C   UNL A   1      42.352  32.784  30.146  1.00  0.00     0.014 A 
ATOM     39  C   UNL A   1      40.252  31.694  30.233  1.00  0.00     0.014 A 
ATOM     40  C   UNL A   1      42.923  31.534  29.856  1.00  0.00     0.010 A 
ATOM     41  C   UNL A   1      40.874  30.521  30.503  1.00  0.00     0.010 A 
ATOM     42  C   UNL A   1      42.140  30.384  30.001  1.00  0.00    -0.014 A 
BRANCH  42  43
ATOM     43  C   UNL A   1      42.582  29.014  29.804  1.00  0.00     0.031 A 
ATOM     44  C   UNL A   1      43.042  28.371  31.047  1.00  0.00     0.074 A 
ATOM     45  C   UNL A   1      42.295  28.273  28.705  1.00  0.00     0.049 A 
ATOM     46  N   UNL A   1      44.260  28.169  31.415  1.00  0.00    -0.248 NA
ATOM     47  C   UNL A   1      42.038  28.091  32.088  1.00  0.00     0.031 C 
ATOM     48  C   UNL A   1      41.456  28.615  27.546  1.00  0.00     0.029 A 
ATOM     49  N   UNL A   1      42.613  26.972  28.457  1.00  0.00    -0.354 N 
ATOM     50  C   UNL A   1      44.167  27.515  32.634  1.00  0.00     0.074 A 
ATOM     51  C   UNL A   1      42.825  27.740  33.106  1.00  0.00     0.031 C 
ATOM     52  C   UNL A   1      41.159  27.490  26.849  1.00  0.00     0.029 A 
ATOM     53  C   UNL A   1      41.909  26.381  27.413  1.00  0.00     0.049 A 
ATOM     54  H   UNL A   1      43.293  26.486  28.978  1.00  0.00     0.167 HD
ATOM     55  C   UNL A   1      45.086  26.579  33.000  1.00  0.00     0.031 A 
ATOM     56  C   UNL A   1      41.912  25.063  27.084  1.00  0.00     0.031 A 
ATOM     57  C   UNL A   1      46.230  26.590  32.117  1.00  0.00     0.049 A 
ATOM     58  C   UNL A   1      43.107  24.448  27.714  1.00  0.00     0.074 A 
ATOM     59  C   UNL A   1      47.126  27.557  31.697  1.00  0.00     0.029 A 
ATOM     60  N   UNL A   1      46.305  25.583  31.179  1.00  0.00    -0.354 N 
ATOM     61  N   UNL A   1      44.328  24.732  27.365  1.00  0.00    -0.248 NA
ATOM     62  C   UNL A   1      42.954  23.880  29.045  1.00  0.00     0.031 C 
ATOM     63  C   UNL A   1      47.299  27.313  30.301  1.00  0.00     0.029 A 
ATOM     64  C   UNL A   1      46.578  26.165  29.968  1.00  0.00     0.049 A 
ATOM     65  H   UNL A   1      46.185  24.621  31.349  1.00  0.00     0.167 HD
ATOM     66  C   UNL A   1      45.021  24.822  28.565  1.00  0.00     0.074 A 
ATOM     67  C   UNL A   1      44.150  24.188  29.555  1.00  0.00     0.031 C 
ATOM     68  C   UNL A   1      46.088  25.664  28.702  1.00  0.00     0.031 A 
BRANCH  55  69
ATOM     69  C   UNL A   1      44.758  25.380  33.858  1.00  0.00    -0.014 A 
ATOM     70  C   UNL A   1      44.152  24.271  33.243  1.00  0.00     0.009 A 
ATOM     71  C   UNL A   1      44.771  25.389  35.266  1.00  0.00     0.009 A 
ATOM     72  C   UNL A   1      43.524  23.273  33.996  1.00  0.00     0.001 A 
ATOM     73  C   UNL A   1      44.186  24.372  36.023  1.00  0.00     0.001 A 
ATOM     74  C   UNL A   1      43.535  23.329  35.386  1.00  0.00     0.000 A 
ENDBRANCH  55  69
BRANCH  56  75
ATOM     75  C   UNL A   1      40.794  24.235  26.579  1.00  0.00    -0.014 A 
ATOM     76  C   UNL A   1      40.932  22.846  26.417  1.00  0.00     0.009 A 
ATOM     77  C   UNL A   1      39.493  24.769  26.539  1.00  0.00     0.009 A 
ATOM     78  C   UNL A   1      39.807  22.021  26.264  1.00  0.00     0.001 A 
ATOM     79  C   UNL A   1      38.371  23.946  26.399  1.00  0.00     0.001 A 
ATOM     80  C   UNL A   1      38.527  22.570  26.276  1.00  0.00     0.000 A 
ENDBRANCH  56  75
BRANCH  68  81
ATOM     81  C   UNL A   1      46.636  26.326  27.458  1.00  0.00    -0.014 A 
ATOM     82  C   UNL A   1      47.701  25.796  26.706  1.00  0.00     0.009 A 
ATOM     83  C   UNL A   1      45.954  27.439  26.945  1.00  0.00     0.009 A 
ATOM     84  C   UNL A   1      48.086  26.381  25.494  1.00  0.00     0.001 A 
ATOM     85  C   UNL A   1      46.325  28.010  25.725  1.00  0.00     0.001 A 
ATOM     86  C   UNL A   1      47.394  27.485  25.003  1.00  0.00     0.000 A 
ENDBRANCH  68  81
ENDBRANCH  42  43
ENDBRANCH  34  37
ENDBRANCH  32  33
ENDBRANCH   1  32
TORSDOF 12
ENDMDL
