MODEL 1
REMARK VINA RESULT:     -12.3      0.000      0.000
REMARK SMILES O=C(NCCCCNC(=O)c1cc(-c2ccc(C(F)(F)F)cc2)cc([N+](=O)[O-])c1)c1ccc(-c2c3nc(c(-c4ccccc4)c4ccc([nH]4)c(-c4ccccc4)c4nc(c(-c5ccccc5)c5ccc2[nH]5)C=C4)C=C3)cc1
REMARK SMILES IDX 5 1 4 2 3 3 1 4 2 5 30 7 31 8 77 9 32 10 76 11 33 12 34 13
REMARK SMILES IDX 35 14 70 15 36 16 75 17 69 18 71 19 37 20 74 21 68 22 67 23
REMARK SMILES IDX 38 25 60 26 45 27 59 28 46 29 49 30 58 31 72 32 47 33 48 34
REMARK SMILES IDX 57 36 73 37 50 38 39 39 40 40 44 41 41 42 43 43 42 44 61 45
REMARK SMILES IDX 62 46 66 47 63 48 65 49 64 50 51 51 52 52 56 53 53 54 55 55
REMARK SMILES IDX 54 56 6 57 7 58 8 59 9 60 10 62 11 63 12 64 29 65 13 66
REMARK SMILES IDX 25 67 24 68 14 69 15 70 23 71 16 72 22 73 17 74 18 75 19 76
REMARK SMILES IDX 20 77 21 78 26 79 27 80 28 81
REMARK H PARENT 3 6 71 24 49 35 8 61
REMARK Flexibility Score: inf
ROOT
ATOM      1  C   UNL A   1      33.355  27.580  26.468  1.00  0.00     0.023 C 
ENDROOT
BRANCH   1   2
ATOM      2  C   UNL A   1      34.278  28.733  26.104  1.00  0.00     0.116 C 
BRANCH   2   3
ATOM      3  N   UNL A   1      33.856  30.003  26.679  1.00  0.00    -0.352 N 
ATOM      4  O   UNL A   1      33.890  31.729  28.138  1.00  0.00    -0.269 OA
ATOM      5  C   UNL A   1      34.458  30.748  27.663  1.00  0.00     0.251 C 
ATOM      6  H   UNL A   1      33.025  30.380  26.309  1.00  0.00     0.163 HD
BRANCH   5   7
ATOM      7  C   UNL A   1      35.784  30.342  28.168  1.00  0.00     0.039 A 
ATOM      8  C   UNL A   1      36.930  30.611  27.418  1.00  0.00     0.014 A 
ATOM      9  C   UNL A   1      35.880  29.659  29.383  1.00  0.00     0.014 A 
ATOM     10  C   UNL A   1      38.144  30.052  27.795  1.00  0.00     0.010 A 
ATOM     11  C   UNL A   1      37.124  29.192  29.817  1.00  0.00     0.010 A 
ATOM     12  C   UNL A   1      38.260  29.359  29.010  1.00  0.00    -0.014 A 
BRANCH  12  13
ATOM     13  C   UNL A   1      39.603  28.903  29.447  1.00  0.00     0.031 A 
ATOM     14  C   UNL A   1      40.433  29.701  30.413  1.00  0.00     0.074 A 
ATOM     15  C   UNL A   1      40.054  27.722  28.980  1.00  0.00     0.049 A 
ATOM     16  N   UNL A   1      41.611  29.416  30.911  1.00  0.00    -0.248 NA
ATOM     17  C   UNL A   1      39.882  30.984  30.876  1.00  0.00     0.031 C 
ATOM     18  C   UNL A   1      39.336  26.861  28.034  1.00  0.00     0.029 A 
ATOM     19  N   UNL A   1      41.204  27.028  29.250  1.00  0.00    -0.354 N 
ATOM     20  C   UNL A   1      41.949  30.486  31.730  1.00  0.00     0.074 A 
ATOM     21  C   UNL A   1      40.863  31.440  31.643  1.00  0.00     0.031 C 
ATOM     22  C   UNL A   1      40.033  25.731  27.851  1.00  0.00     0.029 A 
ATOM     23  C   UNL A   1      41.280  25.822  28.598  1.00  0.00     0.049 A 
ATOM     24  H   UNL A   1      41.907  27.362  29.853  1.00  0.00     0.167 HD
ATOM     25  C   UNL A   1      43.061  30.653  32.486  1.00  0.00     0.031 A 
ATOM     26  C   UNL A   1      42.255  24.896  28.581  1.00  0.00     0.031 A 
ATOM     27  C   UNL A   1      44.142  29.703  32.561  1.00  0.00     0.049 A 
ATOM     28  C   UNL A   1      43.494  25.135  29.389  1.00  0.00     0.074 A 
ATOM     29  C   UNL A   1      45.298  29.770  33.319  1.00  0.00     0.029 A 
ATOM     30  N   UNL A   1      44.204  28.516  31.846  1.00  0.00    -0.354 N 
ATOM     31  N   UNL A   1      43.779  26.136  30.186  1.00  0.00    -0.248 NA
ATOM     32  C   UNL A   1      44.546  24.115  29.294  1.00  0.00     0.031 C 
ATOM     33  C   UNL A   1      46.087  28.655  33.017  1.00  0.00     0.029 A 
ATOM     34  C   UNL A   1      45.392  27.859  32.122  1.00  0.00     0.049 A 
ATOM     35  H   UNL A   1      43.507  28.188  31.234  1.00  0.00     0.167 HD
ATOM     36  C   UNL A   1      45.036  25.857  30.704  1.00  0.00     0.074 A 
ATOM     37  C   UNL A   1      45.443  24.580  30.151  1.00  0.00     0.031 C 
ATOM     38  C   UNL A   1      45.788  26.594  31.557  1.00  0.00     0.031 A 
BRANCH  25  39
ATOM     39  C   UNL A   1      43.187  31.929  33.275  1.00  0.00    -0.014 A 
ATOM     40  C   UNL A   1      43.757  33.083  32.715  1.00  0.00     0.009 A 
ATOM     41  C   UNL A   1      42.670  31.995  34.579  1.00  0.00     0.009 A 
ATOM     42  C   UNL A   1      43.831  34.267  33.454  1.00  0.00     0.001 A 
ATOM     43  C   UNL A   1      42.720  33.186  35.306  1.00  0.00     0.001 A 
ATOM     44  C   UNL A   1      43.308  34.319  34.746  1.00  0.00     0.000 A 
ENDBRANCH  25  39
BRANCH  26  45
ATOM     45  C   UNL A   1      42.104  23.676  27.746  1.00  0.00    -0.014 A 
ATOM     46  C   UNL A   1      41.513  22.518  28.268  1.00  0.00     0.009 A 
ATOM     47  C   UNL A   1      42.552  23.669  26.415  1.00  0.00     0.009 A 
ATOM     48  C   UNL A   1      41.400  21.367  27.484  1.00  0.00     0.001 A 
ATOM     49  C   UNL A   1      42.405  22.530  25.621  1.00  0.00     0.001 A 
ATOM     50  C   UNL A   1      41.841  21.377  26.161  1.00  0.00     0.000 A 
ENDBRANCH  26  45
BRANCH  38  51
ATOM     51  C   UNL A   1      47.113  26.016  31.966  1.00  0.00    -0.014 A 
ATOM     52  C   UNL A   1      48.264  26.205  31.185  1.00  0.00     0.009 A 
ATOM     53  C   UNL A   1      47.214  25.284  33.159  1.00  0.00     0.009 A 
ATOM     54  C   UNL A   1      49.480  25.637  31.570  1.00  0.00     0.001 A 
ATOM     55  C   UNL A   1      48.437  24.746  33.559  1.00  0.00     0.001 A 
ATOM     56  C   UNL A   1      49.566  24.912  32.758  1.00  0.00     0.000 A 
ENDBRANCH  38  51
ENDBRANCH  12  13
ENDBRANCH   5   7
ENDBRANCH   2   3
ENDBRANCH   1   2
BRANCH   1  57
ATOM     57  C   UNL A   1      31.869  27.910  26.412  1.00  0.00     0.023 C 
BRANCH  57  58
ATOM     58  C   UNL A   1      31.005  26.859  25.726  1.00  0.00     0.116 C 
BRANCH  58  59
ATOM     59  N   UNL A   1      30.641  25.766  26.616  1.00  0.00    -0.352 N 
ATOM     60  C   UNL A   1      30.674  24.415  26.386  1.00  0.00     0.251 C 
ATOM     61  H   UNL A   1      30.326  26.035  27.508  1.00  0.00     0.163 HD
ATOM     62  O   UNL A   1      30.174  23.635  27.194  1.00  0.00    -0.269 OA
BRANCH  60  63
ATOM     63  C   UNL A   1      31.303  23.894  25.157  1.00  0.00     0.047 A 
ATOM     64  C   UNL A   1      31.578  22.525  25.064  1.00  0.00     0.023 A 
ATOM     65  C   UNL A   1      31.665  24.763  24.124  1.00  0.00     0.099 A 
ATOM     66  C   UNL A   1      32.176  21.999  23.908  1.00  0.00    -0.011 A 
ATOM     67  C   UNL A   1      32.180  24.234  22.942  1.00  0.00     0.270 A 
ATOM     68  C   UNL A   1      32.427  22.862  22.825  1.00  0.00     0.094 A 
BRANCH  66  69
ATOM     69  C   UNL A   1      32.647  20.612  23.860  1.00  0.00    -0.018 A 
ATOM     70  C   UNL A   1      32.095  19.649  23.007  1.00  0.00     0.009 A 
ATOM     71  C   UNL A   1      33.688  20.224  24.721  1.00  0.00     0.009 A 
ATOM     72  C   UNL A   1      32.583  18.336  23.009  1.00  0.00     0.014 A 
ATOM     73  C   UNL A   1      34.174  18.918  24.726  1.00  0.00     0.014 A 
ATOM     74  C   UNL A   1      33.628  17.959  23.868  1.00  0.00     0.056 A 
BRANCH  74  75
ATOM     75  C   UNL A   1      34.151  16.543  23.869  1.00  0.00     0.416 C 
ATOM     76  F   UNL A   1      34.523  16.124  22.628  1.00  0.00    -0.166 F 
ATOM     77  F   UNL A   1      35.248  16.394  24.661  1.00  0.00    -0.166 F 
ATOM     78  F   UNL A   1      33.244  15.629  24.314  1.00  0.00    -0.166 F 
ENDBRANCH  74  75
ENDBRANCH  66  69
BRANCH  67  79
ATOM     79  N   UNL A   1      32.466  25.129  21.816  1.00  0.00     0.062 N 
ATOM     80  O   UNL A   1      33.189  24.700  20.908  1.00  0.00    -0.258 OA
ATOM     81  O   UNL A   1      31.951  26.257  21.838  1.00  0.00    -0.258 OA
ENDBRANCH  67  79
ENDBRANCH  60  63
ENDBRANCH  58  59
ENDBRANCH  57  58
ENDBRANCH   1  57
TORSDOF 14
ENDMDL
MODEL 2
REMARK VINA RESULT:     -12.2      1.023      5.969
REMARK SMILES O=C(NCCCCNC(=O)c1cc(-c2ccc(C(F)(F)F)cc2)cc([N+](=O)[O-])c1)c1ccc(-c2c3nc(c(-c4ccccc4)c4ccc([nH]4)c(-c4ccccc4)c4nc(c(-c5ccccc5)c5ccc2[nH]5)C=C4)C=C3)cc1
REMARK SMILES IDX 5 1 4 2 3 3 1 4 2 5 30 7 31 8 77 9 32 10 76 11 33 12 34 13
REMARK SMILES IDX 35 14 70 15 36 16 75 17 69 18 71 19 37 20 74 21 68 22 67 23
REMARK SMILES IDX 38 25 60 26 45 27 59 28 46 29 49 30 58 31 72 32 47 33 48 34
REMARK SMILES IDX 57 36 73 37 50 38 39 39 40 40 44 41 41 42 43 43 42 44 61 45
REMARK SMILES IDX 62 46 66 47 63 48 65 49 64 50 51 51 52 52 56 53 53 54 55 55
REMARK SMILES IDX 54 56 6 57 7 58 8 59 9 60 10 62 11 63 12 64 29 65 13 66
REMARK SMILES IDX 25 67 24 68 14 69 15 70 23 71 16 72 22 73 17 74 18 75 19 76
REMARK SMILES IDX 20 77 21 78 26 79 27 80 28 81
REMARK H PARENT 3 6 71 24 49 35 8 61
REMARK Flexibility Score: inf
ROOT
ATOM      1  C   UNL A   1      33.049  28.299  25.761  1.00  0.00     0.023 C 
ENDROOT
BRANCH   1   2
ATOM      2  C   UNL A   1      33.734  28.504  27.104  1.00  0.00     0.116 C 
BRANCH   2   3
ATOM      3  N   UNL A   1      33.626  29.870  27.596  1.00  0.00    -0.352 N 
ATOM      4  O   UNL A   1      34.252  31.712  28.748  1.00  0.00    -0.269 OA
ATOM      5  C   UNL A   1      34.556  30.620  28.273  1.00  0.00     0.251 C 
ATOM      6  H   UNL A   1      32.768  30.319  27.416  1.00  0.00     0.163 HD
BRANCH   5   7
ATOM      7  C   UNL A   1      35.922  30.089  28.452  1.00  0.00     0.039 A 
ATOM      8  C   UNL A   1      36.304  29.539  29.676  1.00  0.00     0.014 A 
ATOM      9  C   UNL A   1      36.836  30.171  27.398  1.00  0.00     0.014 A 
ATOM     10  C   UNL A   1      37.639  29.231  29.903  1.00  0.00     0.010 A 
ATOM     11  C   UNL A   1      38.156  29.755  27.595  1.00  0.00     0.010 A 
ATOM     12  C   UNL A   1      38.574  29.309  28.859  1.00  0.00    -0.014 A 
BRANCH  12  13
ATOM     13  C   UNL A   1      39.958  28.832  29.101  1.00  0.00     0.031 A 
ATOM     14  C   UNL A   1      40.407  27.463  28.675  1.00  0.00     0.074 A 
ATOM     15  C   UNL A   1      40.826  29.679  29.688  1.00  0.00     0.049 A 
ATOM     16  N   UNL A   1      41.594  26.918  28.790  1.00  0.00    -0.248 NA
ATOM     17  C   UNL A   1      39.405  26.589  28.047  1.00  0.00     0.031 C 
ATOM     18  C   UNL A   1      40.501  31.034  30.148  1.00  0.00     0.029 A 
ATOM     19  N   UNL A   1      42.159  29.544  29.977  1.00  0.00    -0.354 N 
ATOM     20  C   UNL A   1      41.477  25.636  28.268  1.00  0.00     0.074 A 
ATOM     21  C   UNL A   1      40.098  25.474  27.856  1.00  0.00     0.031 C 
ATOM     22  C   UNL A   1      41.614  31.623  30.604  1.00  0.00     0.029 A 
ATOM     23  C   UNL A   1      42.711  30.665  30.546  1.00  0.00     0.049 A 
ATOM     24  H   UNL A   1      42.670  28.723  29.793  1.00  0.00     0.167 HD
ATOM     25  C   UNL A   1      42.434  24.685  28.140  1.00  0.00     0.031 A 
ATOM     26  C   UNL A   1      43.956  30.895  30.996  1.00  0.00     0.031 A 
ATOM     27  C   UNL A   1      43.804  24.850  28.559  1.00  0.00     0.049 A 
ATOM     28  C   UNL A   1      44.979  29.805  30.886  1.00  0.00     0.074 A 
ATOM     29  C   UNL A   1      44.853  23.955  28.447  1.00  0.00     0.029 A 
ATOM     30  N   UNL A   1      44.311  25.983  29.178  1.00  0.00    -0.354 N 
ATOM     31  N   UNL A   1      44.860  28.613  30.355  1.00  0.00    -0.248 NA
ATOM     32  C   UNL A   1      46.309  30.094  31.438  1.00  0.00     0.031 C 
ATOM     33  C   UNL A   1      45.980  24.522  29.052  1.00  0.00     0.029 A 
ATOM     34  C   UNL A   1      45.650  25.797  29.481  1.00  0.00     0.049 A 
ATOM     35  H   UNL A   1      43.797  26.799  29.372  1.00  0.00     0.167 HD
ATOM     36  C   UNL A   1      46.104  28.014  30.491  1.00  0.00     0.074 A 
ATOM     37  C   UNL A   1      46.969  28.987  31.129  1.00  0.00     0.031 C 
ATOM     38  C   UNL A   1      46.495  26.770  30.125  1.00  0.00     0.031 A 
BRANCH  25  39
ATOM     39  C   UNL A   1      42.032  23.360  27.548  1.00  0.00    -0.014 A 
ATOM     40  C   UNL A   1      42.238  23.073  26.190  1.00  0.00     0.009 A 
ATOM     41  C   UNL A   1      41.497  22.362  28.377  1.00  0.00     0.009 A 
ATOM     42  C   UNL A   1      41.890  21.822  25.670  1.00  0.00     0.001 A 
ATOM     43  C   UNL A   1      41.175  21.105  27.862  1.00  0.00     0.001 A 
ATOM     44  C   UNL A   1      41.365  20.838  26.507  1.00  0.00     0.000 A 
ENDBRANCH  25  39
BRANCH  26  45
ATOM     45  C   UNL A   1      44.290  32.203  31.618  1.00  0.00    -0.014 A 
ATOM     46  C   UNL A   1      44.070  32.425  32.985  1.00  0.00     0.009 A 
ATOM     47  C   UNL A   1      44.834  33.238  30.841  1.00  0.00     0.009 A 
ATOM     48  C   UNL A   1      44.362  33.667  33.554  1.00  0.00     0.001 A 
ATOM     49  C   UNL A   1      45.160  34.466  31.420  1.00  0.00     0.001 A 
ATOM     50  C   UNL A   1      44.912  34.683  32.773  1.00  0.00     0.000 A 
ENDBRANCH  26  45
BRANCH  38  51
ATOM     51  C   UNL A   1      47.931  26.407  30.379  1.00  0.00    -0.014 A 
ATOM     52  C   UNL A   1      48.336  25.844  31.600  1.00  0.00     0.009 A 
ATOM     53  C   UNL A   1      48.889  26.619  29.377  1.00  0.00     0.009 A 
ATOM     54  C   UNL A   1      49.680  25.540  31.825  1.00  0.00     0.001 A 
ATOM     55  C   UNL A   1      50.226  26.283  29.591  1.00  0.00     0.001 A 
ATOM     56  C   UNL A   1      50.622  25.755  30.819  1.00  0.00     0.000 A 
ENDBRANCH  38  51
ENDBRANCH  12  13
ENDBRANCH   5   7
ENDBRANCH   2   3
ENDBRANCH   1   2
BRANCH   1  57
ATOM     57  C   UNL A   1      31.527  28.335  25.808  1.00  0.00     0.023 C 
BRANCH  57  58
ATOM     58  C   UNL A   1      30.841  27.066  25.320  1.00  0.00     0.116 C 
BRANCH  58  59
ATOM     59  N   UNL A   1      30.709  26.063  26.367  1.00  0.00    -0.352 N 
ATOM     60  C   UNL A   1      30.990  24.722  26.322  1.00  0.00     0.251 C 
ATOM     61  H   UNL A   1      30.369  26.395  27.229  1.00  0.00     0.163 HD
ATOM     62  O   UNL A   1      30.664  23.987  27.252  1.00  0.00    -0.269 OA
BRANCH  60  63
ATOM     63  C   UNL A   1      31.678  24.155  25.146  1.00  0.00     0.047 A 
ATOM     64  C   UNL A   1      31.903  22.775  25.092  1.00  0.00     0.023 A 
ATOM     65  C   UNL A   1      32.144  24.991  24.127  1.00  0.00     0.099 A 
ATOM     66  C   UNL A   1      32.554  22.206  23.986  1.00  0.00    -0.011 A 
ATOM     67  C   UNL A   1      32.714  24.421  22.990  1.00  0.00     0.270 A 
ATOM     68  C   UNL A   1      32.912  23.039  22.910  1.00  0.00     0.094 A 
BRANCH  66  69
ATOM     69  C   UNL A   1      32.970  20.800  23.991  1.00  0.00    -0.018 A 
ATOM     70  C   UNL A   1      34.096  20.342  24.686  1.00  0.00     0.009 A 
ATOM     71  C   UNL A   1      32.217  19.872  23.253  1.00  0.00     0.009 A 
ATOM     72  C   UNL A   1      34.449  18.986  24.651  1.00  0.00     0.014 A 
ATOM     73  C   UNL A   1      32.567  18.523  23.214  1.00  0.00     0.014 A 
ATOM     74  C   UNL A   1      33.687  18.065  23.916  1.00  0.00     0.056 A 
BRANCH  74  75
ATOM     75  C   UNL A   1      34.069  16.605  23.879  1.00  0.00     0.416 C 
ATOM     76  F   UNL A   1      35.092  16.312  24.728  1.00  0.00    -0.166 F 
ATOM     77  F   UNL A   1      33.040  15.788  24.234  1.00  0.00    -0.166 F 
ATOM     78  F   UNL A   1      34.473  16.181  22.648  1.00  0.00    -0.166 F 
ENDBRANCH  74  75
ENDBRANCH  66  69
BRANCH  67  79
ATOM     79  N   UNL A   1      33.111  25.284  21.873  1.00  0.00     0.062 N 
ATOM     80  O   UNL A   1      33.260  26.492  22.102  1.00  0.00    -0.258 OA
ATOM     81  O   UNL A   1      33.288  24.746  20.771  1.00  0.00    -0.258 OA
ENDBRANCH  67  79
ENDBRANCH  60  63
ENDBRANCH  58  59
ENDBRANCH  57  58
ENDBRANCH   1  57
TORSDOF 14
ENDMDL
MODEL 3
REMARK VINA RESULT:     -12.2      0.966      1.363
REMARK SMILES O=C(NCCCCNC(=O)c1cc(-c2ccc(C(F)(F)F)cc2)cc([N+](=O)[O-])c1)c1ccc(-c2c3nc(c(-c4ccccc4)c4ccc([nH]4)c(-c4ccccc4)c4nc(c(-c5ccccc5)c5ccc2[nH]5)C=C4)C=C3)cc1
REMARK SMILES IDX 5 1 4 2 3 3 1 4 2 5 30 7 31 8 77 9 32 10 76 11 33 12 34 13
REMARK SMILES IDX 35 14 70 15 36 16 75 17 69 18 71 19 37 20 74 21 68 22 67 23
REMARK SMILES IDX 38 25 60 26 45 27 59 28 46 29 49 30 58 31 72 32 47 33 48 34
REMARK SMILES IDX 57 36 73 37 50 38 39 39 40 40 44 41 41 42 43 43 42 44 61 45
REMARK SMILES IDX 62 46 66 47 63 48 65 49 64 50 51 51 52 52 56 53 53 54 55 55
REMARK SMILES IDX 54 56 6 57 7 58 8 59 9 60 10 62 11 63 12 64 29 65 13 66
REMARK SMILES IDX 25 67 24 68 14 69 15 70 23 71 16 72 22 73 17 74 18 75 19 76
REMARK SMILES IDX 20 77 21 78 26 79 27 80 28 81
REMARK H PARENT 3 6 71 24 49 35 8 61
REMARK Flexibility Score: inf
ROOT
ATOM      1  C   UNL A   1      33.493  28.127  25.803  1.00  0.00     0.023 C 
ENDROOT
BRANCH   1   2
ATOM      2  C   UNL A   1      34.012  28.448  27.196  1.00  0.00     0.116 C 
BRANCH   2   3
ATOM      3  N   UNL A   1      33.745  29.822  27.601  1.00  0.00    -0.352 N 
ATOM      4  O   UNL A   1      34.126  31.777  28.670  1.00  0.00    -0.269 OA
ATOM      5  C   UNL A   1      34.561  30.697  28.276  1.00  0.00     0.251 C 
ATOM      6  H   UNL A   1      32.858  30.171  27.356  1.00  0.00     0.163 HD
BRANCH   5   7
ATOM      7  C   UNL A   1      35.961  30.317  28.548  1.00  0.00     0.039 A 
ATOM      8  C   UNL A   1      36.943  30.520  27.577  1.00  0.00     0.014 A 
ATOM      9  C   UNL A   1      36.288  29.723  29.770  1.00  0.00     0.014 A 
ATOM     10  C   UNL A   1      38.208  29.977  27.757  1.00  0.00     0.010 A 
ATOM     11  C   UNL A   1      37.594  29.277  29.993  1.00  0.00     0.010 A 
ATOM     12  C   UNL A   1      38.556  29.375  28.976  1.00  0.00    -0.014 A 
BRANCH  12  13
ATOM     13  C   UNL A   1      39.959  28.939  29.184  1.00  0.00     0.031 A 
ATOM     14  C   UNL A   1      40.969  29.822  29.861  1.00  0.00     0.074 A 
ATOM     15  C   UNL A   1      40.305  27.702  28.777  1.00  0.00     0.049 A 
ATOM     16  N   UNL A   1      42.224  29.566  30.141  1.00  0.00    -0.248 NA
ATOM     17  C   UNL A   1      40.524  31.162  30.273  1.00  0.00     0.031 C 
ATOM     18  C   UNL A   1      39.409  26.755  28.103  1.00  0.00     0.029 A 
ATOM     19  N   UNL A   1      41.486  27.015  28.888  1.00  0.00    -0.354 N 
ATOM     20  C   UNL A   1      42.721  30.715  30.744  1.00  0.00     0.074 A 
ATOM     21  C   UNL A   1      41.641  31.679  30.767  1.00  0.00     0.031 C 
ATOM     22  C   UNL A   1      40.053  25.595  27.916  1.00  0.00     0.029 A 
ATOM     23  C   UNL A   1      41.427  25.740  28.381  1.00  0.00     0.049 A 
ATOM     24  H   UNL A   1      42.297  27.399  29.294  1.00  0.00     0.167 HD
ATOM     25  C   UNL A   1      43.964  30.941  31.235  1.00  0.00     0.031 A 
ATOM     26  C   UNL A   1      42.377  24.796  28.275  1.00  0.00     0.031 A 
ATOM     27  C   UNL A   1      45.037  29.979  31.201  1.00  0.00     0.049 A 
ATOM     28  C   UNL A   1      43.755  25.095  28.783  1.00  0.00     0.074 A 
ATOM     29  C   UNL A   1      46.324  30.105  31.697  1.00  0.00     0.029 A 
ATOM     30  N   UNL A   1      44.952  28.717  30.632  1.00  0.00    -0.354 N 
ATOM     31  N   UNL A   1      44.197  26.173  29.383  1.00  0.00    -0.248 NA
ATOM     32  C   UNL A   1      44.765  24.045  28.598  1.00  0.00     0.031 C 
ATOM     33  C   UNL A   1      47.034  28.944  31.374  1.00  0.00     0.029 A 
ATOM     34  C   UNL A   1      46.171  28.067  30.738  1.00  0.00     0.049 A 
ATOM     35  H   UNL A   1      44.145  28.338  30.216  1.00  0.00     0.167 HD
ATOM     36  C   UNL A   1      45.533  25.925  29.665  1.00  0.00     0.074 A 
ATOM     37  C   UNL A   1      45.818  24.584  29.194  1.00  0.00     0.031 C 
ATOM     38  C   UNL A   1      46.443  26.736  30.256  1.00  0.00     0.031 A 
BRANCH  25  39
ATOM     39  C   UNL A   1      44.249  32.295  31.827  1.00  0.00    -0.014 A 
ATOM     40  C   UNL A   1      44.692  33.364  31.032  1.00  0.00     0.009 A 
ATOM     41  C   UNL A   1      44.010  32.521  33.192  1.00  0.00     0.009 A 
ATOM     42  C   UNL A   1      44.916  34.622  31.597  1.00  0.00     0.001 A 
ATOM     43  C   UNL A   1      44.208  33.786  33.749  1.00  0.00     0.001 A 
ATOM     44  C   UNL A   1      44.668  34.834  32.953  1.00  0.00     0.000 A 
ENDBRANCH  25  39
BRANCH  26  45
ATOM     45  C   UNL A   1      42.059  23.492  27.636  1.00  0.00    -0.014 A 
ATOM     46  C   UNL A   1      42.353  23.265  26.284  1.00  0.00     0.009 A 
ATOM     47  C   UNL A   1      41.458  22.465  28.383  1.00  0.00     0.009 A 
ATOM     48  C   UNL A   1      42.025  22.046  25.686  1.00  0.00     0.001 A 
ATOM     49  C   UNL A   1      41.165  21.235  27.792  1.00  0.00     0.001 A 
ATOM     50  C   UNL A   1      41.438  21.031  26.442  1.00  0.00     0.000 A 
ENDBRANCH  26  45
BRANCH  38  51
ATOM     51  C   UNL A   1      47.823  26.177  30.454  1.00  0.00    -0.014 A 
ATOM     52  C   UNL A   1      48.229  25.655  31.692  1.00  0.00     0.009 A 
ATOM     53  C   UNL A   1      48.727  26.161  29.381  1.00  0.00     0.009 A 
ATOM     54  C   UNL A   1      49.526  25.165  31.861  1.00  0.00     0.001 A 
ATOM     55  C   UNL A   1      50.011  25.640  29.543  1.00  0.00     0.001 A 
ATOM     56  C   UNL A   1      50.413  25.154  30.786  1.00  0.00     0.000 A 
ENDBRANCH  38  51
ENDBRANCH  12  13
ENDBRANCH   5   7
ENDBRANCH   2   3
ENDBRANCH   1   2
BRANCH   1  57
ATOM     57  C   UNL A   1      32.018  28.439  25.583  1.00  0.00     0.023 C 
BRANCH  57  58
ATOM     58  C   UNL A   1      31.137  27.222  25.334  1.00  0.00     0.116 C 
BRANCH  58  59
ATOM     59  N   UNL A   1      31.193  26.258  26.422  1.00  0.00    -0.352 N 
ATOM     60  C   UNL A   1      31.475  24.917  26.377  1.00  0.00     0.251 C 
ATOM     61  H   UNL A   1      31.001  26.619  27.317  1.00  0.00     0.163 HD
ATOM     62  O   UNL A   1      31.318  24.215  27.374  1.00  0.00    -0.269 OA
BRANCH  60  63
ATOM     63  C   UNL A   1      31.960  24.310  25.122  1.00  0.00     0.047 A 
ATOM     64  C   UNL A   1      32.096  22.919  25.049  1.00  0.00     0.023 A 
ATOM     65  C   UNL A   1      32.325  25.117  24.041  1.00  0.00     0.099 A 
ATOM     66  C   UNL A   1      32.554  22.313  23.869  1.00  0.00    -0.011 A 
ATOM     67  C   UNL A   1      32.698  24.514  22.841  1.00  0.00     0.270 A 
ATOM     68  C   UNL A   1      32.805  23.123  22.746  1.00  0.00     0.094 A 
BRANCH  66  69
ATOM     69  C   UNL A   1      32.887  20.885  23.829  1.00  0.00    -0.018 A 
ATOM     70  C   UNL A   1      32.209  19.968  23.018  1.00  0.00     0.009 A 
ATOM     71  C   UNL A   1      33.922  20.412  24.653  1.00  0.00     0.009 A 
ATOM     72  C   UNL A   1      32.567  18.614  23.025  1.00  0.00     0.014 A 
ATOM     73  C   UNL A   1      34.279  19.065  24.664  1.00  0.00     0.014 A 
ATOM     74  C   UNL A   1      33.607  18.150  23.847  1.00  0.00     0.056 A 
BRANCH  74  75
ATOM     75  C   UNL A   1      33.991  16.691  23.854  1.00  0.00     0.416 C 
ATOM     76  F   UNL A   1      34.365  16.244  22.623  1.00  0.00    -0.166 F 
ATOM     77  F   UNL A   1      35.040  16.432  24.682  1.00  0.00    -0.166 F 
ATOM     78  F   UNL A   1      32.985  15.866  24.259  1.00  0.00    -0.166 F 
ENDBRANCH  74  75
ENDBRANCH  66  69
BRANCH  67  79
ATOM     79  N   UNL A   1      32.984  25.352  21.671  1.00  0.00     0.062 N 
ATOM     80  O   UNL A   1      32.261  25.218  20.676  1.00  0.00    -0.258 OA
ATOM     81  O   UNL A   1      33.924  26.155  21.760  1.00  0.00    -0.258 OA
ENDBRANCH  67  79
ENDBRANCH  60  63
ENDBRANCH  58  59
ENDBRANCH  57  58
ENDBRANCH   1  57
TORSDOF 14
ENDMDL
