MODEL 1
REMARK VINA RESULT:     -11.6      0.000      0.000
REMARK SMILES CCc1n[nH]c(C(=O)N[C@@]2(C(=O)NCCCCNC(=O)c3ccc(-c4c5nc(c(-c6ccccc6)c6ccc([nH]6)c(-c6ccccc6)c6nc(c(-c7ccccc7)c7ccc4[nH]7)C=C6)C=C5)cc3)CCCC[C@H]2C)n1
REMARK SMILES IDX 15 1 14 2 13 3 11 4 12 5 10 7 69 8 73 9 70 10 72 11 74 12
REMARK SMILES IDX 71 13 9 14 7 15 8 16 6 18 3 19 4 20 75 21 5 22 2 24 1 25
REMARK SMILES IDX 16 26 17 27 18 28 19 29 20 31 21 32 22 33 68 34 23 35 67 36
REMARK SMILES IDX 24 37 25 38 26 39 61 40 27 41 66 42 60 43 62 44 28 45 65 46
REMARK SMILES IDX 59 47 58 48 29 50 51 51 36 52 50 53 37 54 40 55 49 56 63 57
REMARK SMILES IDX 38 58 39 59 48 61 64 62 41 63 30 64 31 65 35 66 32 67 34 68
REMARK SMILES IDX 33 69 52 70 53 71 57 72 54 73 56 74 55 75 42 76 43 77 47 78
REMARK SMILES IDX 44 79 46 80 45 81
REMARK H PARENT 13 6 9 17 5 23 18 30 62 49 40 60
REMARK Flexibility Score: inf
ROOT
ATOM      1  C   UNL A   1      36.649  20.340  24.996  1.00  0.00     0.023 C 
ENDROOT
BRANCH   1   2
ATOM      2  C   UNL A   1      35.340  20.943  24.495  1.00  0.00     0.116 C 
BRANCH   2   3
ATOM      3  N   UNL A   1      34.138  20.214  24.875  1.00  0.00    -0.354 N 
ATOM      4  C   UNL A   1      32.892  20.679  25.236  1.00  0.00     0.246 C 
ATOM      5  O   UNL A   1      31.996  19.840  25.390  1.00  0.00    -0.272 OA
ATOM      6  H   UNL A   1      34.230  19.234  24.873  1.00  0.00     0.163 HD
BRANCH   4   7
ATOM      7  C   UNL A   1      32.623  22.216  25.523  1.00  0.00     0.122 C 
ATOM      8  C   UNL A   1      32.329  22.881  24.165  1.00  0.00     0.039 C 
ATOM      9  C   UNL A   1      33.877  22.676  26.319  1.00  0.00     0.021 C 
ATOM     10  C   UNL A   1      33.164  24.099  23.781  1.00  0.00     0.003 C 
ATOM     11  C   UNL A   1      34.185  24.153  26.186  1.00  0.00     0.006 C 
ATOM     12  C   UNL A   1      33.886  22.215  27.786  1.00  0.00     0.011 C 
ATOM     13  C   UNL A   1      34.281  24.561  24.722  1.00  0.00     0.000 C 
BRANCH   7  14
ATOM     14  N   UNL A   1      31.391  22.269  26.370  1.00  0.00    -0.335 N 
ATOM     15  C   UNL A   1      30.511  23.252  26.772  1.00  0.00     0.289 C 
ATOM     16  O   UNL A   1      29.569  22.877  27.478  1.00  0.00    -0.266 OA
ATOM     17  H   UNL A   1      31.149  21.385  26.728  1.00  0.00     0.165 HD
BRANCH  15  18
ATOM     18  C   UNL A   1      30.598  24.643  26.365  1.00  0.00     0.214 A 
ATOM     19  C   UNL A   1      31.026  26.713  26.071  1.00  0.00     0.151 A 
ATOM     20  N   UNL A   1      30.133  26.456  25.109  1.00  0.00    -0.158 NA
ATOM     21  N   UNL A   1      31.321  25.627  26.858  1.00  0.00    -0.207 NA
ATOM     22  N   UNL A   1      29.859  25.156  25.334  1.00  0.00    -0.255 N 
ATOM     23  H   UNL A   1      29.205  24.635  24.815  1.00  0.00     0.192 HD
BRANCH  19  24
ATOM     24  C   UNL A   1      31.591  28.076  26.307  1.00  0.00     0.076 C 
ATOM     25  C   UNL A   1      33.085  28.107  26.604  1.00  0.00     0.012 C 
ENDBRANCH  19  24
ENDBRANCH  15  18
ENDBRANCH   7  14
ENDBRANCH   4   7
ENDBRANCH   2   3
ENDBRANCH   1   2
BRANCH   1  26
ATOM     26  C   UNL A   1      37.840  21.283  24.968  1.00  0.00     0.023 C 
BRANCH  26  27
ATOM     27  C   UNL A   1      38.880  21.056  26.059  1.00  0.00     0.116 C 
BRANCH  27  28
ATOM     28  N   UNL A   1      39.760  19.918  25.826  1.00  0.00    -0.352 N 
ATOM     29  C   UNL A   1      41.124  19.839  26.024  1.00  0.00     0.251 C 
ATOM     30  H   UNL A   1      39.327  19.103  25.484  1.00  0.00     0.163 HD
ATOM     31  O   UNL A   1      41.749  18.834  25.723  1.00  0.00    -0.269 OA
BRANCH  29  32
ATOM     32  C   UNL A   1      41.827  21.026  26.555  1.00  0.00     0.039 A 
ATOM     33  C   UNL A   1      42.369  21.945  25.655  1.00  0.00     0.014 A 
ATOM     34  C   UNL A   1      41.831  21.285  27.929  1.00  0.00     0.014 A 
ATOM     35  C   UNL A   1      42.810  23.184  26.126  1.00  0.00     0.010 A 
ATOM     36  C   UNL A   1      42.194  22.548  28.382  1.00  0.00     0.010 A 
ATOM     37  C   UNL A   1      42.662  23.518  27.482  1.00  0.00    -0.014 A 
BRANCH  37  38
ATOM     38  C   UNL A   1      42.926  24.892  27.976  1.00  0.00     0.031 A 
ATOM     39  C   UNL A   1      44.304  25.285  28.421  1.00  0.00     0.074 A 
ATOM     40  C   UNL A   1      41.900  25.755  28.118  1.00  0.00     0.049 A 
ATOM     41  N   UNL A   1      44.704  26.400  28.978  1.00  0.00    -0.248 NA
ATOM     42  C   UNL A   1      45.369  24.284  28.239  1.00  0.00     0.031 C 
ATOM     43  C   UNL A   1      40.503  25.482  27.765  1.00  0.00     0.029 A 
ATOM     44  N   UNL A   1      41.869  27.035  28.614  1.00  0.00    -0.354 N 
ATOM     45  C   UNL A   1      46.060  26.229  29.228  1.00  0.00     0.074 A 
ATOM     46  C   UNL A   1      46.404  24.888  28.804  1.00  0.00     0.031 C 
ATOM     47  C   UNL A   1      39.760  26.568  28.035  1.00  0.00     0.029 A 
ATOM     48  C   UNL A   1      40.614  27.594  28.623  1.00  0.00     0.049 A 
ATOM     49  H   UNL A   1      42.672  27.507  28.934  1.00  0.00     0.167 HD
ATOM     50  C   UNL A   1      46.942  27.113  29.750  1.00  0.00     0.031 A 
ATOM     51  C   UNL A   1      40.192  28.791  29.070  1.00  0.00     0.031 A 
ATOM     52  C   UNL A   1      46.602  28.448  30.166  1.00  0.00     0.049 A 
ATOM     53  C   UNL A   1      41.186  29.743  29.675  1.00  0.00     0.074 A 
ATOM     54  C   UNL A   1      47.441  29.441  30.641  1.00  0.00     0.029 A 
ATOM     55  N   UNL A   1      45.320  28.973  30.163  1.00  0.00    -0.354 N 
ATOM     56  N   UNL A   1      42.478  29.592  29.838  1.00  0.00    -0.248 NA
ATOM     57  C   UNL A   1      40.661  31.027  30.161  1.00  0.00     0.031 C 
ATOM     58  C   UNL A   1      46.657  30.549  30.979  1.00  0.00     0.029 A 
ATOM     59  C   UNL A   1      45.338  30.264  30.664  1.00  0.00     0.049 A 
ATOM     60  H   UNL A   1      44.515  28.498  29.852  1.00  0.00     0.167 HD
ATOM     61  C   UNL A   1      42.923  30.767  30.429  1.00  0.00     0.074 A 
ATOM     62  C   UNL A   1      41.768  31.628  30.577  1.00  0.00     0.031 C 
ATOM     63  C   UNL A   1      44.178  31.102  30.818  1.00  0.00     0.031 A 
BRANCH  50  64
ATOM     64  C   UNL A   1      48.365  26.657  29.906  1.00  0.00    -0.014 A 
ATOM     65  C   UNL A   1      48.786  25.974  31.058  1.00  0.00     0.009 A 
ATOM     66  C   UNL A   1      49.288  26.883  28.874  1.00  0.00     0.009 A 
ATOM     67  C   UNL A   1      50.112  25.556  31.187  1.00  0.00     0.001 A 
ATOM     68  C   UNL A   1      50.606  26.440  28.994  1.00  0.00     0.001 A 
ATOM     69  C   UNL A   1      51.019  25.785  30.154  1.00  0.00     0.000 A 
ENDBRANCH  50  64
BRANCH  51  70
ATOM     70  C   UNL A   1      38.757  29.163  28.968  1.00  0.00    -0.014 A 
ATOM     71  C   UNL A   1      38.244  29.699  27.778  1.00  0.00     0.009 A 
ATOM     72  C   UNL A   1      37.894  28.989  30.063  1.00  0.00     0.009 A 
ATOM     73  C   UNL A   1      36.902  30.076  27.692  1.00  0.00     0.001 A 
ATOM     74  C   UNL A   1      36.546  29.341  29.964  1.00  0.00     0.001 A 
ATOM     75  C   UNL A   1      36.053  29.892  28.782  1.00  0.00     0.000 A 
ENDBRANCH  51  70
BRANCH  63  76
ATOM     76  C   UNL A   1      44.364  32.459  31.431  1.00  0.00    -0.014 A 
ATOM     77  C   UNL A   1      44.620  33.585  30.634  1.00  0.00     0.009 A 
ATOM     78  C   UNL A   1      44.242  32.621  32.820  1.00  0.00     0.009 A 
ATOM     79  C   UNL A   1      44.779  34.842  31.219  1.00  0.00     0.001 A 
ATOM     80  C   UNL A   1      44.374  33.883  33.400  1.00  0.00     0.001 A 
ATOM     81  C   UNL A   1      44.651  34.991  32.599  1.00  0.00     0.000 A 
ENDBRANCH  63  76
ENDBRANCH  37  38
ENDBRANCH  29  32
ENDBRANCH  27  28
ENDBRANCH  26  27
ENDBRANCH   1  26
TORSDOF 14
ENDMDL
MODEL 2
REMARK VINA RESULT:     -11.6      3.804      8.838
REMARK SMILES CCc1n[nH]c(C(=O)N[C@@]2(C(=O)NCCCCNC(=O)c3ccc(-c4c5nc(c(-c6ccccc6)c6ccc([nH]6)c(-c6ccccc6)c6nc(c(-c7ccccc7)c7ccc4[nH]7)C=C6)C=C5)cc3)CCCC[C@H]2C)n1
REMARK SMILES IDX 15 1 14 2 13 3 11 4 12 5 10 7 69 8 73 9 70 10 72 11 74 12
REMARK SMILES IDX 71 13 9 14 7 15 8 16 6 18 3 19 4 20 75 21 5 22 2 24 1 25
REMARK SMILES IDX 16 26 17 27 18 28 19 29 20 31 21 32 22 33 68 34 23 35 67 36
REMARK SMILES IDX 24 37 25 38 26 39 61 40 27 41 66 42 60 43 62 44 28 45 65 46
REMARK SMILES IDX 59 47 58 48 29 50 51 51 36 52 50 53 37 54 40 55 49 56 63 57
REMARK SMILES IDX 38 58 39 59 48 61 64 62 41 63 30 64 31 65 35 66 32 67 34 68
REMARK SMILES IDX 33 69 52 70 53 71 57 72 54 73 56 74 55 75 42 76 43 77 47 78
REMARK SMILES IDX 44 79 46 80 45 81
REMARK H PARENT 13 6 9 17 5 23 18 30 62 49 40 60
REMARK Flexibility Score: inf
ROOT
ATOM      1  C   UNL A   1      31.617  30.695  25.863  1.00  0.00     0.023 C 
ENDROOT
BRANCH   1   2
ATOM      2  C   UNL A   1      31.116  29.387  25.257  1.00  0.00     0.116 C 
BRANCH   2   3
ATOM      3  N   UNL A   1      30.758  29.455  23.847  1.00  0.00    -0.354 N 
ATOM      4  C   UNL A   1      30.966  28.548  22.832  1.00  0.00     0.246 C 
ATOM      5  O   UNL A   1      30.445  28.792  21.737  1.00  0.00    -0.272 OA
ATOM      6  H   UNL A   1      30.294  30.280  23.577  1.00  0.00     0.163 HD
BRANCH   4   7
ATOM      7  C   UNL A   1      31.897  27.277  23.022  1.00  0.00     0.122 C 
ATOM      8  C   UNL A   1      31.061  26.215  23.759  1.00  0.00     0.039 C 
ATOM      9  C   UNL A   1      33.166  27.841  23.721  1.00  0.00     0.021 C 
ATOM     10  C   UNL A   1      31.644  25.623  25.039  1.00  0.00     0.003 C 
ATOM     11  C   UNL A   1      33.915  26.822  24.556  1.00  0.00     0.006 C 
ATOM     12  C   UNL A   1      34.104  28.616  22.780  1.00  0.00     0.011 C 
ATOM     13  C   UNL A   1      32.986  26.149  25.558  1.00  0.00     0.000 C 
BRANCH   7  14
ATOM     14  N   UNL A   1      32.209  26.783  21.644  1.00  0.00    -0.335 N 
ATOM     15  C   UNL A   1      32.762  25.640  21.106  1.00  0.00     0.289 C 
ATOM     16  O   UNL A   1      32.830  25.601  19.874  1.00  0.00    -0.266 OA
ATOM     17  H   UNL A   1      31.958  27.435  20.951  1.00  0.00     0.165 HD
BRANCH  15  18
ATOM     18  C   UNL A   1      33.188  24.493  21.888  1.00  0.00     0.214 A 
ATOM     19  C   UNL A   1      34.174  23.035  23.095  1.00  0.00     0.151 A 
ATOM     20  N   UNL A   1      32.970  22.488  22.894  1.00  0.00    -0.158 NA
ATOM     21  N   UNL A   1      34.337  24.255  22.486  1.00  0.00    -0.207 NA
ATOM     22  N   UNL A   1      32.381  23.411  22.110  1.00  0.00    -0.255 N 
ATOM     23  H   UNL A   1      31.473  23.318  21.739  1.00  0.00     0.192 HD
BRANCH  19  24
ATOM     24  C   UNL A   1      35.260  22.344  23.854  1.00  0.00     0.076 C 
ATOM     25  C   UNL A   1      36.666  22.855  23.569  1.00  0.00     0.012 C 
ENDBRANCH  19  24
ENDBRANCH  15  18
ENDBRANCH   7  14
ENDBRANCH   4   7
ENDBRANCH   2   3
ENDBRANCH   1   2
BRANCH   1  26
ATOM     26  C   UNL A   1      32.550  30.534  27.051  1.00  0.00     0.023 C 
BRANCH  26  27
ATOM     27  C   UNL A   1      33.511  31.693  27.290  1.00  0.00     0.116 C 
BRANCH  27  28
ATOM     28  N   UNL A   1      32.861  32.961  27.596  1.00  0.00    -0.352 N 
ATOM     29  C   UNL A   1      33.290  33.955  28.453  1.00  0.00     0.251 C 
ATOM     30  H   UNL A   1      32.009  33.131  27.134  1.00  0.00     0.163 HD
ATOM     31  O   UNL A   1      32.608  34.945  28.664  1.00  0.00    -0.269 OA
BRANCH  29  32
ATOM     32  C   UNL A   1      34.574  33.767  29.161  1.00  0.00     0.039 A 
ATOM     33  C   UNL A   1      34.587  33.028  30.346  1.00  0.00     0.014 A 
ATOM     34  C   UNL A   1      35.767  34.209  28.583  1.00  0.00     0.014 A 
ATOM     35  C   UNL A   1      35.810  32.628  30.889  1.00  0.00     0.010 A 
ATOM     36  C   UNL A   1      36.978  33.742  29.081  1.00  0.00     0.010 A 
ATOM     37  C   UNL A   1      37.009  32.926  30.223  1.00  0.00    -0.014 A 
BRANCH  37  38
ATOM     38  C   UNL A   1      38.303  32.344  30.658  1.00  0.00     0.031 A 
ATOM     39  C   UNL A   1      38.791  31.055  30.066  1.00  0.00     0.074 A 
ATOM     40  C   UNL A   1      38.988  32.927  31.663  1.00  0.00     0.049 A 
ATOM     41  N   UNL A   1      39.838  30.341  30.393  1.00  0.00    -0.248 NA
ATOM     42  C   UNL A   1      37.982  30.479  28.978  1.00  0.00     0.031 C 
ATOM     43  C   UNL A   1      38.600  34.159  32.356  1.00  0.00     0.029 A 
ATOM     44  N   UNL A   1      40.151  32.550  32.288  1.00  0.00    -0.354 N 
ATOM     45  C   UNL A   1      39.805  29.225  29.566  1.00  0.00     0.074 A 
ATOM     46  C   UNL A   1      38.612  29.334  28.753  1.00  0.00     0.031 C 
ATOM     47  C   UNL A   1      39.518  34.446  33.293  1.00  0.00     0.029 A 
ATOM     48  C   UNL A   1      40.533  33.397  33.301  1.00  0.00     0.049 A 
ATOM     49  H   UNL A   1      40.663  31.748  32.035  1.00  0.00     0.167 HD
ATOM     50  C   UNL A   1      40.696  28.210  29.479  1.00  0.00     0.031 A 
ATOM     51  C   UNL A   1      41.572  33.331  34.153  1.00  0.00     0.031 A 
ATOM     52  C   UNL A   1      41.886  28.104  30.281  1.00  0.00     0.049 A 
ATOM     53  C   UNL A   1      42.529  32.175  34.058  1.00  0.00     0.074 A 
ATOM     54  C   UNL A   1      42.885  27.149  30.217  1.00  0.00     0.029 A 
ATOM     55  N   UNL A   1      42.232  28.980  31.298  1.00  0.00    -0.354 N 
ATOM     56  N   UNL A   1      42.523  31.166  33.221  1.00  0.00    -0.248 NA
ATOM     57  C   UNL A   1      43.633  32.150  35.027  1.00  0.00     0.031 C 
ATOM     58  C   UNL A   1      43.808  27.414  31.234  1.00  0.00     0.029 A 
ATOM     59  C   UNL A   1      43.411  28.566  31.895  1.00  0.00     0.049 A 
ATOM     60  H   UNL A   1      41.716  29.777  31.558  1.00  0.00     0.167 HD
ATOM     61  C   UNL A   1      43.628  30.395  33.552  1.00  0.00     0.074 A 
ATOM     62  C   UNL A   1      44.295  31.063  34.651  1.00  0.00     0.031 C 
ATOM     63  C   UNL A   1      44.053  29.234  32.996  1.00  0.00     0.031 A 
BRANCH  50  64
ATOM     64  C   UNL A   1      40.410  27.124  28.481  1.00  0.00    -0.014 A 
ATOM     65  C   UNL A   1      39.611  26.021  28.819  1.00  0.00     0.009 A 
ATOM     66  C   UNL A   1      40.915  27.224  27.176  1.00  0.00     0.009 A 
ATOM     67  C   UNL A   1      39.353  25.020  27.878  1.00  0.00     0.001 A 
ATOM     68  C   UNL A   1      40.634  26.237  26.231  1.00  0.00     0.001 A 
ATOM     69  C   UNL A   1      39.860  25.132  26.585  1.00  0.00     0.000 A 
ENDBRANCH  50  64
BRANCH  51  70
ATOM     70  C   UNL A   1      41.766  34.389  35.179  1.00  0.00    -0.014 A 
ATOM     71  C   UNL A   1      41.160  34.276  36.439  1.00  0.00     0.009 A 
ATOM     72  C   UNL A   1      42.552  35.519  34.901  1.00  0.00     0.009 A 
ATOM     73  C   UNL A   1      41.317  35.284  37.392  1.00  0.00     0.001 A 
ATOM     74  C   UNL A   1      42.729  36.512  35.866  1.00  0.00     0.001 A 
ATOM     75  C   UNL A   1      42.105  36.399  37.108  1.00  0.00     0.000 A 
ENDBRANCH  51  70
BRANCH  63  76
ATOM     76  C   UNL A   1      45.300  28.620  33.564  1.00  0.00    -0.014 A 
ATOM     77  C   UNL A   1      45.233  27.646  34.572  1.00  0.00     0.009 A 
ATOM     78  C   UNL A   1      46.555  28.990  33.056  1.00  0.00     0.009 A 
ATOM     79  C   UNL A   1      46.401  27.077  35.081  1.00  0.00     0.001 A 
ATOM     80  C   UNL A   1      47.719  28.399  33.547  1.00  0.00     0.001 A 
ATOM     81  C   UNL A   1      47.642  27.449  34.565  1.00  0.00     0.000 A 
ENDBRANCH  63  76
ENDBRANCH  37  38
ENDBRANCH  29  32
ENDBRANCH  27  28
ENDBRANCH  26  27
ENDBRANCH   1  26
TORSDOF 14
ENDMDL
MODEL 3
REMARK VINA RESULT:     -11.6      0.673      5.952
REMARK SMILES CCc1n[nH]c(C(=O)N[C@@]2(C(=O)NCCCCNC(=O)c3ccc(-c4c5nc(c(-c6ccccc6)c6ccc([nH]6)c(-c6ccccc6)c6nc(c(-c7ccccc7)c7ccc4[nH]7)C=C6)C=C5)cc3)CCCC[C@H]2C)n1
REMARK SMILES IDX 15 1 14 2 13 3 11 4 12 5 10 7 69 8 73 9 70 10 72 11 74 12
REMARK SMILES IDX 71 13 9 14 7 15 8 16 6 18 3 19 4 20 75 21 5 22 2 24 1 25
REMARK SMILES IDX 16 26 17 27 18 28 19 29 20 31 21 32 22 33 68 34 23 35 67 36
REMARK SMILES IDX 24 37 25 38 26 39 61 40 27 41 66 42 60 43 62 44 28 45 65 46
REMARK SMILES IDX 59 47 58 48 29 50 51 51 36 52 50 53 37 54 40 55 49 56 63 57
REMARK SMILES IDX 38 58 39 59 48 61 64 62 41 63 30 64 31 65 35 66 32 67 34 68
REMARK SMILES IDX 33 69 52 70 53 71 57 72 54 73 56 74 55 75 42 76 43 77 47 78
REMARK SMILES IDX 44 79 46 80 45 81
REMARK H PARENT 13 6 9 17 5 23 18 30 62 49 40 60
REMARK Flexibility Score: inf
ROOT
ATOM      1  C   UNL A   1      36.719  20.499  24.991  1.00  0.00     0.023 C 
ENDROOT
BRANCH   1   2
ATOM      2  C   UNL A   1      35.364  20.897  24.415  1.00  0.00     0.116 C 
BRANCH   2   3
ATOM      3  N   UNL A   1      34.225  20.159  24.945  1.00  0.00    -0.354 N 
ATOM      4  C   UNL A   1      32.995  20.608  25.371  1.00  0.00     0.246 C 
ATOM      5  O   UNL A   1      32.147  19.754  25.659  1.00  0.00    -0.272 OA
ATOM      6  H   UNL A   1      34.356  19.186  25.010  1.00  0.00     0.163 HD
BRANCH   4   7
ATOM      7  C   UNL A   1      32.687  22.153  25.562  1.00  0.00     0.122 C 
ATOM      8  C   UNL A   1      32.355  22.720  24.170  1.00  0.00     0.039 C 
ATOM      9  C   UNL A   1      33.939  22.697  26.307  1.00  0.00     0.021 C 
ATOM     10  C   UNL A   1      33.151  23.933  23.695  1.00  0.00     0.003 C 
ATOM     11  C   UNL A   1      34.204  24.170  26.074  1.00  0.00     0.006 C 
ATOM     12  C   UNL A   1      33.982  22.332  27.800  1.00  0.00     0.011 C 
ATOM     13  C   UNL A   1      34.268  24.485  24.585  1.00  0.00     0.000 C 
BRANCH   7  14
ATOM     14  N   UNL A   1      31.466  22.228  26.424  1.00  0.00    -0.335 N 
ATOM     15  C   UNL A   1      30.570  23.213  26.783  1.00  0.00     0.289 C 
ATOM     16  O   UNL A   1      29.646  22.859  27.523  1.00  0.00    -0.266 OA
ATOM     17  H   UNL A   1      31.249  21.361  26.836  1.00  0.00     0.165 HD
BRANCH  15  18
ATOM     18  C   UNL A   1      30.619  24.579  26.296  1.00  0.00     0.214 A 
ATOM     19  C   UNL A   1      30.990  26.640  25.883  1.00  0.00     0.151 A 
ATOM     20  N   UNL A   1      30.110  26.302  24.935  1.00  0.00    -0.158 NA
ATOM     21  N   UNL A   1      31.313  25.611  26.732  1.00  0.00    -0.207 NA
ATOM     22  N   UNL A   1      29.872  25.011  25.234  1.00  0.00    -0.255 N 
ATOM     23  H   UNL A   1      29.235  24.442  24.744  1.00  0.00     0.192 HD
BRANCH  19  24
ATOM     24  C   UNL A   1      31.516  28.030  26.040  1.00  0.00     0.076 C 
ATOM     25  C   UNL A   1      31.696  28.487  27.482  1.00  0.00     0.012 C 
ENDBRANCH  19  24
ENDBRANCH  15  18
ENDBRANCH   7  14
ENDBRANCH   4   7
ENDBRANCH   2   3
ENDBRANCH   1   2
BRANCH   1  26
ATOM     26  C   UNL A   1      37.741  21.621  25.057  1.00  0.00     0.023 C 
BRANCH  26  27
ATOM     27  C   UNL A   1      38.878  21.413  26.050  1.00  0.00     0.116 C 
BRANCH  27  28
ATOM     28  N   UNL A   1      39.655  20.199  25.831  1.00  0.00    -0.352 N 
ATOM     29  C   UNL A   1      41.003  19.998  26.046  1.00  0.00     0.251 C 
ATOM     30  H   UNL A   1      39.155  19.425  25.486  1.00  0.00     0.163 HD
ATOM     31  O   UNL A   1      41.539  18.940  25.756  1.00  0.00    -0.269 OA
BRANCH  29  32
ATOM     32  C   UNL A   1      41.804  21.119  26.584  1.00  0.00     0.039 A 
ATOM     33  C   UNL A   1      42.326  22.060  25.694  1.00  0.00     0.014 A 
ATOM     34  C   UNL A   1      41.922  21.300  27.964  1.00  0.00     0.014 A 
ATOM     35  C   UNL A   1      42.863  23.248  26.193  1.00  0.00     0.010 A 
ATOM     36  C   UNL A   1      42.383  22.517  28.454  1.00  0.00     0.010 A 
ATOM     37  C   UNL A   1      42.833  23.512  27.572  1.00  0.00    -0.014 A 
BRANCH  37  38
ATOM     38  C   UNL A   1      43.203  24.843  28.115  1.00  0.00     0.031 A 
ATOM     39  C   UNL A   1      42.148  25.881  28.361  1.00  0.00     0.074 A 
ATOM     40  C   UNL A   1      44.505  25.149  28.291  1.00  0.00     0.049 A 
ATOM     41  N   UNL A   1      42.289  27.129  28.729  1.00  0.00    -0.248 NA
ATOM     42  C   UNL A   1      40.752  25.470  28.138  1.00  0.00     0.031 C 
ATOM     43  C   UNL A   1      45.632  24.245  28.047  1.00  0.00     0.029 A 
ATOM     44  N   UNL A   1      45.101  26.315  28.703  1.00  0.00    -0.354 N 
ATOM     45  C   UNL A   1      41.004  27.656  28.766  1.00  0.00     0.074 A 
ATOM     46  C   UNL A   1      40.102  26.607  28.341  1.00  0.00     0.031 C 
ATOM     47  C   UNL A   1      46.779  24.883  28.334  1.00  0.00     0.029 A 
ATOM     48  C   UNL A   1      46.473  26.252  28.735  1.00  0.00     0.049 A 
ATOM     49  H   UNL A   1      44.592  27.121  28.951  1.00  0.00     0.167 HD
ATOM     50  C   UNL A   1      40.610  28.897  29.137  1.00  0.00     0.031 A 
ATOM     51  C   UNL A   1      47.387  27.193  29.037  1.00  0.00     0.031 A 
ATOM     52  C   UNL A   1      41.505  29.938  29.567  1.00  0.00     0.049 A 
ATOM     53  C   UNL A   1      46.924  28.573  29.413  1.00  0.00     0.074 A 
ATOM     54  C   UNL A   1      41.193  31.205  30.028  1.00  0.00     0.029 A 
ATOM     55  N   UNL A   1      42.886  29.834  29.580  1.00  0.00    -0.354 N 
ATOM     56  N   UNL A   1      45.701  29.034  29.513  1.00  0.00    -0.248 NA
ATOM     57  C   UNL A   1      47.969  29.561  29.715  1.00  0.00     0.031 C 
ATOM     58  C   UNL A   1      42.390  31.889  30.268  1.00  0.00     0.029 A 
ATOM     59  C   UNL A   1      43.445  31.029  30.006  1.00  0.00     0.049 A 
ATOM     60  H   UNL A   1      43.396  29.032  29.324  1.00  0.00     0.167 HD
ATOM     61  C   UNL A   1      45.828  30.360  29.905  1.00  0.00     0.074 A 
ATOM     62  C   UNL A   1      47.245  30.624  30.044  1.00  0.00     0.031 C 
ATOM     63  C   UNL A   1      44.857  31.279  30.126  1.00  0.00     0.031 A 
BRANCH  50  64
ATOM     64  C   UNL A   1      39.139  29.197  29.085  1.00  0.00    -0.014 A 
ATOM     65  C   UNL A   1      38.531  29.649  27.903  1.00  0.00     0.009 A 
ATOM     66  C   UNL A   1      38.344  28.992  30.223  1.00  0.00     0.009 A 
ATOM     67  C   UNL A   1      37.162  29.922  27.872  1.00  0.00     0.001 A 
ATOM     68  C   UNL A   1      36.971  29.240  30.181  1.00  0.00     0.001 A 
ATOM     69  C   UNL A   1      36.383  29.713  29.008  1.00  0.00     0.000 A 
ENDBRANCH  50  64
BRANCH  51  70
ATOM     70  C   UNL A   1      48.836  26.869  28.993  1.00  0.00    -0.014 A 
ATOM     71  C   UNL A   1      49.489  26.376  30.132  1.00  0.00     0.009 A 
ATOM     72  C   UNL A   1      49.575  27.058  27.814  1.00  0.00     0.009 A 
ATOM     73  C   UNL A   1      50.858  26.099  30.099  1.00  0.00     0.001 A 
ATOM     74  C   UNL A   1      50.938  26.754  27.776  1.00  0.00     0.001 A 
ATOM     75  C   UNL A   1      51.580  26.283  28.921  1.00  0.00     0.000 A 
ENDBRANCH  51  70
BRANCH  63  76
ATOM     76  C   UNL A   1      45.296  32.650  30.550  1.00  0.00    -0.014 A 
ATOM     77  C   UNL A   1      45.521  33.663  29.605  1.00  0.00     0.009 A 
ATOM     78  C   UNL A   1      45.449  32.944  31.914  1.00  0.00     0.009 A 
ATOM     79  C   UNL A   1      45.918  34.936  30.017  1.00  0.00     0.001 A 
ATOM     80  C   UNL A   1      45.819  34.226  32.324  1.00  0.00     0.001 A 
ATOM     81  C   UNL A   1      46.062  35.218  31.375  1.00  0.00     0.000 A 
ENDBRANCH  63  76
ENDBRANCH  37  38
ENDBRANCH  29  32
ENDBRANCH  27  28
ENDBRANCH  26  27
ENDBRANCH   1  26
TORSDOF 14
ENDMDL
