MODEL 1
REMARK VINA RESULT:     -11.2      0.000      0.000
REMARK SMILES N#CCCn1cc(C(=O)NCCCCNC(=O)c2ccc(-c3c4nc(c(-c5ccccc5)c5ccc([nH]5)c(-c5ccccc5)c5nc(c(-c6ccccc6)c6ccc3[nH]6)C=C5)C=C4)cc2)c(-c2cccc([N+](=O)[O-])c2)n1
REMARK SMILES IDX 12 1 11 2 10 3 8 4 9 5 7 7 5 8 6 9 76 10 66 11 4 12 3 13
REMARK SMILES IDX 2 14 1 15 67 16 68 17 75 18 69 19 71 20 70 21 72 22 73 23
REMARK SMILES IDX 74 24 13 25 14 26 15 27 16 28 17 30 18 31 19 32 65 33 20 34
REMARK SMILES IDX 64 35 21 36 22 37 23 38 58 39 24 40 63 41 57 42 59 43 25 44
REMARK SMILES IDX 62 45 56 46 55 47 26 49 48 50 33 51 47 52 34 53 37 54 46 55
REMARK SMILES IDX 60 56 35 57 36 58 45 60 61 61 38 62 27 63 28 64 32 65 29 66
REMARK SMILES IDX 31 67 30 68 49 69 50 70 54 71 51 72 53 73 52 74 39 75 40 76
REMARK SMILES IDX 44 77 41 78 43 79 42 80
REMARK H PARENT 10 6 15 29 59 48 37 59
REMARK Flexibility Score: inf
ROOT
ATOM      1  C   UNL A   1      33.908  29.042  26.716  1.00  0.00     0.023 C 
ENDROOT
BRANCH   1   2
ATOM      2  C   UNL A   1      33.187  28.004  25.854  1.00  0.00     0.116 C 
BRANCH   2   3
ATOM      3  N   UNL A   1      33.553  28.123  24.461  1.00  0.00    -0.352 N 
ATOM      4  C   UNL A   1      32.804  28.255  23.323  1.00  0.00     0.255 C 
ATOM      5  O   UNL A   1      33.449  28.370  22.273  1.00  0.00    -0.269 OA
ATOM      6  H   UNL A   1      34.523  28.106  24.300  1.00  0.00     0.163 HD
BRANCH   4   7
ATOM      7  C   UNL A   1      31.352  28.334  23.361  1.00  0.00     0.085 A 
ATOM      8  N   UNL A   1      29.264  28.976  23.104  1.00  0.00    -0.270 N 
ATOM      9  C   UNL A   1      30.530  29.441  23.274  1.00  0.00     0.123 A 
ATOM     10  N   UNL A   1      29.164  27.649  23.243  1.00  0.00    -0.172 NA
ATOM     11  C   UNL A   1      30.418  27.251  23.526  1.00  0.00     0.105 A 
BRANCH   8  12
ATOM     12  C   UNL A   1      28.127  29.806  22.748  1.00  0.00     0.159 C 
BRANCH  12  13
ATOM     13  C   UNL A   1      27.877  30.993  23.653  1.00  0.00     0.144 C 
BRANCH  13  14
ATOM     14  C   UNL A   1      28.060  32.283  22.869  1.00  0.00     0.064 C 
ATOM     15  N   UNL A   1      28.213  33.352  22.220  1.00  0.00    -0.198 NA
ENDBRANCH  13  14
ENDBRANCH  12  13
ENDBRANCH   8  12
BRANCH  11  16
ATOM     16  C   UNL A   1      30.697  25.866  23.912  1.00  0.00     0.010 A 
ATOM     17  C   UNL A   1      31.074  24.929  22.935  1.00  0.00     0.011 A 
ATOM     18  C   UNL A   1      30.589  25.456  25.245  1.00  0.00     0.096 A 
ATOM     19  C   UNL A   1      31.277  23.586  23.263  1.00  0.00     0.008 A 
ATOM     20  C   UNL A   1      30.794  24.106  25.569  1.00  0.00     0.270 A 
ATOM     21  C   UNL A   1      31.128  23.167  24.582  1.00  0.00     0.085 A 
BRANCH  20  22
ATOM     22  N   UNL A   1      30.630  23.661  26.957  1.00  0.00     0.062 N 
ATOM     23  O   UNL A   1      29.477  23.489  27.377  1.00  0.00    -0.258 OA
ATOM     24  O   UNL A   1      31.654  23.492  27.636  1.00  0.00    -0.258 OA
ENDBRANCH  20  22
ENDBRANCH  11  16
ENDBRANCH   4   7
ENDBRANCH   2   3
ENDBRANCH   1   2
BRANCH   1  25
ATOM     25  C   UNL A   1      33.501  30.499  26.438  1.00  0.00     0.023 C 
BRANCH  25  26
ATOM     26  C   UNL A   1      32.339  31.013  27.281  1.00  0.00     0.116 C 
BRANCH  26  27
ATOM     27  N   UNL A   1      32.141  32.460  27.163  1.00  0.00    -0.352 N 
ATOM     28  C   UNL A   1      32.781  33.465  27.862  1.00  0.00     0.251 C 
ATOM     29  H   UNL A   1      31.469  32.752  26.505  1.00  0.00     0.163 HD
ATOM     30  O   UNL A   1      32.278  34.578  27.983  1.00  0.00    -0.269 OA
BRANCH  28  31
ATOM     31  C   UNL A   1      34.107  33.186  28.433  1.00  0.00     0.039 A 
ATOM     32  C   UNL A   1      34.281  32.474  29.620  1.00  0.00     0.014 A 
ATOM     33  C   UNL A   1      35.203  33.637  27.705  1.00  0.00     0.014 A 
ATOM     34  C   UNL A   1      35.578  32.158  30.018  1.00  0.00     0.010 A 
ATOM     35  C   UNL A   1      36.453  33.166  27.991  1.00  0.00     0.010 A 
ATOM     36  C   UNL A   1      36.659  32.494  29.184  1.00  0.00    -0.014 A 
BRANCH  36  37
ATOM     37  C   UNL A   1      38.015  32.066  29.487  1.00  0.00     0.031 A 
ATOM     38  C   UNL A   1      38.288  30.638  29.193  1.00  0.00     0.074 A 
ATOM     39  C   UNL A   1      39.008  32.924  29.809  1.00  0.00     0.049 A 
ATOM     40  N   UNL A   1      38.464  29.693  30.051  1.00  0.00    -0.248 NA
ATOM     41  C   UNL A   1      38.216  30.173  27.798  1.00  0.00     0.031 C 
ATOM     42  C   UNL A   1      38.994  34.391  29.829  1.00  0.00     0.029 A 
ATOM     43  N   UNL A   1      40.306  32.640  30.087  1.00  0.00    -0.354 N 
ATOM     44  C   UNL A   1      38.731  28.546  29.315  1.00  0.00     0.074 A 
ATOM     45  C   UNL A   1      38.389  28.858  27.949  1.00  0.00     0.031 C 
ATOM     46  C   UNL A   1      40.264  34.857  29.859  1.00  0.00     0.029 A 
ATOM     47  C   UNL A   1      41.162  33.733  30.042  1.00  0.00     0.049 A 
ATOM     48  H   UNL A   1      40.616  31.732  30.305  1.00  0.00     0.167 HD
ATOM     49  C   UNL A   1      39.447  27.519  29.852  1.00  0.00     0.031 A 
ATOM     50  C   UNL A   1      42.516  33.702  30.125  1.00  0.00     0.031 A 
ATOM     51  C   UNL A   1      39.570  27.654  31.284  1.00  0.00     0.049 A 
ATOM     52  C   UNL A   1      42.884  32.415  30.762  1.00  0.00     0.074 A 
ATOM     53  C   UNL A   1      38.668  27.750  32.327  1.00  0.00     0.029 A 
ATOM     54  N   UNL A   1      40.757  28.159  31.767  1.00  0.00    -0.354 N 
ATOM     55  N   UNL A   1      42.597  32.130  32.000  1.00  0.00    -0.248 NA
ATOM     56  C   UNL A   1      43.119  31.269  29.895  1.00  0.00     0.031 C 
ATOM     57  C   UNL A   1      39.204  28.765  33.174  1.00  0.00     0.029 A 
ATOM     58  C   UNL A   1      40.441  29.154  32.657  1.00  0.00     0.049 A 
ATOM     59  H   UNL A   1      41.662  27.860  31.520  1.00  0.00     0.167 HD
ATOM     60  C   UNL A   1      42.164  30.812  31.965  1.00  0.00     0.074 A 
ATOM     61  C   UNL A   1      42.596  30.306  30.660  1.00  0.00     0.031 C 
ATOM     62  C   UNL A   1      41.244  30.341  32.860  1.00  0.00     0.031 A 
BRANCH  49  63
ATOM     63  C   UNL A   1      40.376  26.640  29.056  1.00  0.00    -0.014 A 
ATOM     64  C   UNL A   1      39.842  25.515  28.402  1.00  0.00     0.009 A 
ATOM     65  C   UNL A   1      41.777  26.710  29.155  1.00  0.00     0.009 A 
ATOM     66  C   UNL A   1      40.667  24.479  27.948  1.00  0.00     0.001 A 
ATOM     67  C   UNL A   1      42.606  25.697  28.666  1.00  0.00     0.001 A 
ATOM     68  C   UNL A   1      42.048  24.568  28.088  1.00  0.00     0.000 A 
ENDBRANCH  49  63
BRANCH  50  69
ATOM     69  C   UNL A   1      43.506  34.568  29.447  1.00  0.00    -0.014 A 
ATOM     70  C   UNL A   1      43.592  34.610  28.045  1.00  0.00     0.009 A 
ATOM     71  C   UNL A   1      44.181  35.569  30.171  1.00  0.00     0.009 A 
ATOM     72  C   UNL A   1      44.292  35.638  27.396  1.00  0.00     0.001 A 
ATOM     73  C   UNL A   1      44.880  36.594  29.523  1.00  0.00     0.001 A 
ATOM     74  C   UNL A   1      44.922  36.637  28.133  1.00  0.00     0.000 A 
ENDBRANCH  50  69
BRANCH  62  75
ATOM     75  C   UNL A   1      40.848  31.230  34.017  1.00  0.00    -0.014 A 
ATOM     76  C   UNL A   1      39.816  32.184  33.947  1.00  0.00     0.009 A 
ATOM     77  C   UNL A   1      41.428  30.980  35.270  1.00  0.00     0.009 A 
ATOM     78  C   UNL A   1      39.402  32.882  35.088  1.00  0.00     0.001 A 
ATOM     79  C   UNL A   1      41.001  31.660  36.412  1.00  0.00     0.001 A 
ATOM     80  C   UNL A   1      39.992  32.615  36.321  1.00  0.00     0.000 A 
ENDBRANCH  62  75
ENDBRANCH  36  37
ENDBRANCH  28  31
ENDBRANCH  26  27
ENDBRANCH  25  26
ENDBRANCH   1  25
TORSDOF 16
ENDMDL
MODEL 2
REMARK VINA RESULT:     -11.0      3.432      8.290
REMARK SMILES N#CCCn1cc(C(=O)NCCCCNC(=O)c2ccc(-c3c4nc(c(-c5ccccc5)c5ccc([nH]5)c(-c5ccccc5)c5nc(c(-c6ccccc6)c6ccc3[nH]6)C=C5)C=C4)cc2)c(-c2cccc([N+](=O)[O-])c2)n1
REMARK SMILES IDX 12 1 11 2 10 3 8 4 9 5 7 7 5 8 6 9 76 10 66 11 4 12 3 13
REMARK SMILES IDX 2 14 1 15 67 16 68 17 75 18 69 19 71 20 70 21 72 22 73 23
REMARK SMILES IDX 74 24 13 25 14 26 15 27 16 28 17 30 18 31 19 32 65 33 20 34
REMARK SMILES IDX 64 35 21 36 22 37 23 38 58 39 24 40 63 41 57 42 59 43 25 44
REMARK SMILES IDX 62 45 56 46 55 47 26 49 48 50 33 51 47 52 34 53 37 54 46 55
REMARK SMILES IDX 60 56 35 57 36 58 45 60 61 61 38 62 27 63 28 64 32 65 29 66
REMARK SMILES IDX 31 67 30 68 49 69 50 70 54 71 51 72 53 73 52 74 39 75 40 76
REMARK SMILES IDX 44 77 41 78 43 79 42 80
REMARK H PARENT 10 6 15 29 59 48 37 59
REMARK Flexibility Score: inf
ROOT
ATOM      1  C   UNL A   1      38.205  22.416  25.761  1.00  0.00     0.023 C 
ENDROOT
BRANCH   1   2
ATOM      2  C   UNL A   1      36.822  21.981  25.273  1.00  0.00     0.116 C 
BRANCH   2   3
ATOM      3  N   UNL A   1      35.853  21.990  26.345  1.00  0.00    -0.352 N 
ATOM      4  C   UNL A   1      34.580  21.497  26.435  1.00  0.00     0.255 C 
ATOM      5  O   UNL A   1      34.029  21.646  27.534  1.00  0.00    -0.269 OA
ATOM      6  H   UNL A   1      36.169  22.434  27.165  1.00  0.00     0.163 HD
BRANCH   4   7
ATOM      7  C   UNL A   1      33.952  20.779  25.337  1.00  0.00     0.085 A 
ATOM      8  N   UNL A   1      33.109  19.207  24.049  1.00  0.00    -0.270 N 
ATOM      9  C   UNL A   1      34.081  19.454  24.968  1.00  0.00     0.123 A 
ATOM     10  N   UNL A   1      32.459  20.310  23.657  1.00  0.00    -0.172 NA
ATOM     11  C   UNL A   1      33.049  21.304  24.348  1.00  0.00     0.105 A 
BRANCH   8  12
ATOM     12  C   UNL A   1      32.752  17.885  23.568  1.00  0.00     0.159 C 
BRANCH  12  13
ATOM     13  C   UNL A   1      33.898  16.905  23.440  1.00  0.00     0.144 C 
BRANCH  13  14
ATOM     14  C   UNL A   1      33.767  15.822  24.498  1.00  0.00     0.064 C 
ATOM     15  N   UNL A   1      33.657  14.923  25.375  1.00  0.00    -0.198 NA
ENDBRANCH  13  14
ENDBRANCH  12  13
ENDBRANCH   8  12
BRANCH  11  16
ATOM     16  C   UNL A   1      32.724  22.705  24.071  1.00  0.00     0.010 A 
ATOM     17  C   UNL A   1      33.472  23.422  23.122  1.00  0.00     0.011 A 
ATOM     18  C   UNL A   1      31.680  23.347  24.744  1.00  0.00     0.096 A 
ATOM     19  C   UNL A   1      33.231  24.779  22.889  1.00  0.00     0.008 A 
ATOM     20  C   UNL A   1      31.443  24.710  24.507  1.00  0.00     0.270 A 
ATOM     21  C   UNL A   1      32.221  25.431  23.588  1.00  0.00     0.085 A 
BRANCH  20  22
ATOM     22  N   UNL A   1      30.383  25.402  25.248  1.00  0.00     0.062 N 
ATOM     23  O   UNL A   1      29.531  26.021  24.595  1.00  0.00    -0.258 OA
ATOM     24  O   UNL A   1      30.406  25.339  26.486  1.00  0.00    -0.258 OA
ENDBRANCH  20  22
ENDBRANCH  11  16
ENDBRANCH   4   7
ENDBRANCH   2   3
ENDBRANCH   1   2
BRANCH   1  25
ATOM     25  C   UNL A   1      39.236  21.280  25.863  1.00  0.00     0.023 C 
BRANCH  25  26
ATOM     26  C   UNL A   1      40.429  21.573  26.766  1.00  0.00     0.116 C 
BRANCH  26  27
ATOM     27  N   UNL A   1      41.670  21.801  26.021  1.00  0.00    -0.352 N 
ATOM     28  C   UNL A   1      42.286  23.006  25.743  1.00  0.00     0.251 C 
ATOM     29  H   UNL A   1      42.121  20.996  25.678  1.00  0.00     0.163 HD
ATOM     30  O   UNL A   1      43.067  23.121  24.803  1.00  0.00    -0.269 OA
BRANCH  28  31
ATOM     31  C   UNL A   1      42.013  24.151  26.623  1.00  0.00     0.039 A 
ATOM     32  C   UNL A   1      42.644  24.321  27.856  1.00  0.00     0.014 A 
ATOM     33  C   UNL A   1      41.110  25.097  26.148  1.00  0.00     0.014 A 
ATOM     34  C   UNL A   1      42.408  25.497  28.564  1.00  0.00     0.010 A 
ATOM     35  C   UNL A   1      41.028  26.323  26.746  1.00  0.00     0.010 A 
ATOM     36  C   UNL A   1      41.610  26.502  27.990  1.00  0.00    -0.014 A 
BRANCH  36  37
ATOM     37  C   UNL A   1      41.446  27.799  28.626  1.00  0.00     0.031 A 
ATOM     38  C   UNL A   1      42.463  28.807  28.236  1.00  0.00     0.074 A 
ATOM     39  C   UNL A   1      40.354  28.139  29.345  1.00  0.00     0.049 A 
ATOM     40  N   UNL A   1      43.418  29.263  28.971  1.00  0.00    -0.248 NA
ATOM     41  C   UNL A   1      42.521  29.253  26.835  1.00  0.00     0.031 C 
ATOM     42  C   UNL A   1      39.114  27.383  29.559  1.00  0.00     0.029 A 
ATOM     43  N   UNL A   1      40.086  29.319  29.959  1.00  0.00    -0.354 N 
ATOM     44  C   UNL A   1      44.080  30.210  28.202  1.00  0.00     0.074 A 
ATOM     45  C   UNL A   1      43.605  30.033  26.851  1.00  0.00     0.031 C 
ATOM     46  C   UNL A   1      38.154  28.210  30.032  1.00  0.00     0.029 A 
ATOM     47  C   UNL A   1      38.758  29.497  30.323  1.00  0.00     0.049 A 
ATOM     48  H   UNL A   1      40.780  29.995  30.135  1.00  0.00     0.167 HD
ATOM     49  C   UNL A   1      44.777  31.224  28.784  1.00  0.00     0.031 A 
ATOM     50  C   UNL A   1      38.197  30.635  30.804  1.00  0.00     0.031 A 
ATOM     51  C   UNL A   1      44.988  30.980  30.192  1.00  0.00     0.049 A 
ATOM     52  C   UNL A   1      39.299  31.469  31.341  1.00  0.00     0.074 A 
ATOM     53  C   UNL A   1      45.589  29.969  30.917  1.00  0.00     0.029 A 
ATOM     54  N   UNL A   1      44.152  31.629  31.073  1.00  0.00    -0.354 N 
ATOM     55  N   UNL A   1      40.000  31.129  32.386  1.00  0.00    -0.248 NA
ATOM     56  C   UNL A   1      39.940  32.414  30.438  1.00  0.00     0.031 C 
ATOM     57  C   UNL A   1      44.707  29.742  32.015  1.00  0.00     0.029 A 
ATOM     58  C   UNL A   1      43.682  30.688  31.953  1.00  0.00     0.049 A 
ATOM     59  H   UNL A   1      43.934  32.589  31.072  1.00  0.00     0.167 HD
ATOM     60  C   UNL A   1      41.310  31.436  32.043  1.00  0.00     0.074 A 
ATOM     61  C   UNL A   1      41.200  32.310  30.873  1.00  0.00     0.031 C 
ATOM     62  C   UNL A   1      42.363  30.725  32.547  1.00  0.00     0.031 A 
BRANCH  49  63
ATOM     63  C   UNL A   1      44.898  32.605  28.193  1.00  0.00    -0.014 A 
ATOM     64  C   UNL A   1      46.179  33.167  28.052  1.00  0.00     0.009 A 
ATOM     65  C   UNL A   1      43.803  33.475  28.036  1.00  0.00     0.009 A 
ATOM     66  C   UNL A   1      46.352  34.541  27.847  1.00  0.00     0.001 A 
ATOM     67  C   UNL A   1      43.972  34.840  27.791  1.00  0.00     0.001 A 
ATOM     68  C   UNL A   1      45.247  35.378  27.725  1.00  0.00     0.000 A 
ENDBRANCH  49  63
BRANCH  50  69
ATOM     69  C   UNL A   1      36.834  31.164  30.580  1.00  0.00    -0.014 A 
ATOM     70  C   UNL A   1      36.038  31.594  31.655  1.00  0.00     0.009 A 
ATOM     71  C   UNL A   1      36.416  31.512  29.282  1.00  0.00     0.009 A 
ATOM     72  C   UNL A   1      34.893  32.375  31.439  1.00  0.00     0.001 A 
ATOM     73  C   UNL A   1      35.273  32.291  29.066  1.00  0.00     0.001 A 
ATOM     74  C   UNL A   1      34.520  32.736  30.147  1.00  0.00     0.000 A 
ENDBRANCH  50  69
BRANCH  62  75
ATOM     75  C   UNL A   1      42.090  29.717  33.641  1.00  0.00    -0.014 A 
ATOM     76  C   UNL A   1      41.692  28.390  33.394  1.00  0.00     0.009 A 
ATOM     77  C   UNL A   1      42.407  30.074  34.961  1.00  0.00     0.009 A 
ATOM     78  C   UNL A   1      41.587  27.464  34.439  1.00  0.00     0.001 A 
ATOM     79  C   UNL A   1      42.323  29.145  35.999  1.00  0.00     0.001 A 
ATOM     80  C   UNL A   1      41.908  27.841  35.740  1.00  0.00     0.000 A 
ENDBRANCH  62  75
ENDBRANCH  36  37
ENDBRANCH  28  31
ENDBRANCH  26  27
ENDBRANCH  25  26
ENDBRANCH   1  25
TORSDOF 16
ENDMDL
MODEL 3
REMARK VINA RESULT:     -11.0      4.398      8.807
REMARK SMILES N#CCCn1cc(C(=O)NCCCCNC(=O)c2ccc(-c3c4nc(c(-c5ccccc5)c5ccc([nH]5)c(-c5ccccc5)c5nc(c(-c6ccccc6)c6ccc3[nH]6)C=C5)C=C4)cc2)c(-c2cccc([N+](=O)[O-])c2)n1
REMARK SMILES IDX 12 1 11 2 10 3 8 4 9 5 7 7 5 8 6 9 76 10 66 11 4 12 3 13
REMARK SMILES IDX 2 14 1 15 67 16 68 17 75 18 69 19 71 20 70 21 72 22 73 23
REMARK SMILES IDX 74 24 13 25 14 26 15 27 16 28 17 30 18 31 19 32 65 33 20 34
REMARK SMILES IDX 64 35 21 36 22 37 23 38 58 39 24 40 63 41 57 42 59 43 25 44
REMARK SMILES IDX 62 45 56 46 55 47 26 49 48 50 33 51 47 52 34 53 37 54 46 55
REMARK SMILES IDX 60 56 35 57 36 58 45 60 61 61 38 62 27 63 28 64 32 65 29 66
REMARK SMILES IDX 31 67 30 68 49 69 50 70 54 71 51 72 53 73 52 74 39 75 40 76
REMARK SMILES IDX 44 77 41 78 43 79 42 80
REMARK H PARENT 10 6 15 29 59 48 37 59
REMARK Flexibility Score: inf
ROOT
ATOM      1  C   UNL A   1      36.420  20.886  24.731  1.00  0.00     0.023 C 
ENDROOT
BRANCH   1   2
ATOM      2  C   UNL A   1      36.395  22.000  25.778  1.00  0.00     0.116 C 
BRANCH   2   3
ATOM      3  N   UNL A   1      35.379  21.765  26.779  1.00  0.00    -0.352 N 
ATOM      4  C   UNL A   1      34.134  22.302  26.967  1.00  0.00     0.255 C 
ATOM      5  O   UNL A   1      33.496  21.842  27.923  1.00  0.00    -0.269 OA
ATOM      6  H   UNL A   1      35.629  21.093  27.452  1.00  0.00     0.163 HD
BRANCH   4   7
ATOM      7  C   UNL A   1      33.574  23.287  26.055  1.00  0.00     0.085 A 
ATOM      8  N   UNL A   1      33.071  25.162  25.019  1.00  0.00    -0.270 N 
ATOM      9  C   UNL A   1      33.382  24.643  26.237  1.00  0.00     0.123 A 
ATOM     10  N   UNL A   1      32.875  24.228  24.081  1.00  0.00    -0.172 NA
ATOM     11  C   UNL A   1      33.058  23.063  24.730  1.00  0.00     0.105 A 
BRANCH   8  12
ATOM     12  C   UNL A   1      33.009  26.582  24.724  1.00  0.00     0.159 C 
BRANCH  12  13
ATOM     13  C   UNL A   1      32.385  26.945  23.394  1.00  0.00     0.144 C 
BRANCH  13  14
ATOM     14  C   UNL A   1      33.413  27.646  22.521  1.00  0.00     0.064 C 
ATOM     15  N   UNL A   1      34.265  28.228  21.796  1.00  0.00    -0.198 NA
ENDBRANCH  13  14
ENDBRANCH  12  13
ENDBRANCH   8  12
BRANCH  11  16
ATOM     16  C   UNL A   1      32.768  21.786  24.076  1.00  0.00     0.010 A 
ATOM     17  C   UNL A   1      32.386  21.762  22.723  1.00  0.00     0.011 A 
ATOM     18  C   UNL A   1      32.858  20.580  24.780  1.00  0.00     0.096 A 
ATOM     19  C   UNL A   1      32.035  20.566  22.093  1.00  0.00     0.008 A 
ATOM     20  C   UNL A   1      32.503  19.382  24.142  1.00  0.00     0.270 A 
ATOM     21  C   UNL A   1      32.083  19.371  22.804  1.00  0.00     0.085 A 
BRANCH  20  22
ATOM     22  N   UNL A   1      32.546  18.121  24.891  1.00  0.00     0.062 N 
ATOM     23  O   UNL A   1      32.531  18.184  26.129  1.00  0.00    -0.258 OA
ATOM     24  O   UNL A   1      32.608  17.065  24.244  1.00  0.00    -0.258 OA
ENDBRANCH  20  22
ENDBRANCH  11  16
ENDBRANCH   4   7
ENDBRANCH   2   3
ENDBRANCH   1   2
BRANCH   1  25
ATOM     25  C   UNL A   1      37.497  19.813  24.963  1.00  0.00     0.023 C 
BRANCH  25  26
ATOM     26  C   UNL A   1      38.840  20.345  25.452  1.00  0.00     0.116 C 
BRANCH  26  27
ATOM     27  N   UNL A   1      39.827  19.287  25.680  1.00  0.00    -0.352 N 
ATOM     28  C   UNL A   1      41.176  19.426  25.946  1.00  0.00     0.251 C 
ATOM     29  H   UNL A   1      39.488  18.363  25.638  1.00  0.00     0.163 HD
ATOM     30  O   UNL A   1      41.967  18.514  25.725  1.00  0.00    -0.269 OA
BRANCH  28  31
ATOM     31  C   UNL A   1      41.646  20.686  26.541  1.00  0.00     0.039 A 
ATOM     32  C   UNL A   1      42.250  21.694  25.789  1.00  0.00     0.014 A 
ATOM     33  C   UNL A   1      41.423  20.849  27.904  1.00  0.00     0.014 A 
ATOM     34  C   UNL A   1      42.553  22.898  26.420  1.00  0.00     0.010 A 
ATOM     35  C   UNL A   1      41.543  22.086  28.473  1.00  0.00     0.010 A 
ATOM     36  C   UNL A   1      42.178  23.091  27.761  1.00  0.00    -0.014 A 
BRANCH  36  37
ATOM     37  C   UNL A   1      42.348  24.374  28.422  1.00  0.00     0.031 A 
ATOM     38  C   UNL A   1      41.292  25.369  28.112  1.00  0.00     0.074 A 
ATOM     39  C   UNL A   1      43.260  24.592  29.395  1.00  0.00     0.049 A 
ATOM     40  N   UNL A   1      41.418  26.428  27.388  1.00  0.00    -0.248 NA
ATOM     41  C   UNL A   1      39.908  25.089  28.526  1.00  0.00     0.031 C 
ATOM     42  C   UNL A   1      44.162  23.636  30.050  1.00  0.00     0.029 A 
ATOM     43  N   UNL A   1      43.490  25.734  30.091  1.00  0.00    -0.354 N 
ATOM     44  C   UNL A   1      40.185  27.067  27.419  1.00  0.00     0.074 A 
ATOM     45  C   UNL A   1      39.255  26.115  27.976  1.00  0.00     0.031 C 
ATOM     46  C   UNL A   1      44.646  24.177  31.191  1.00  0.00     0.029 A 
ATOM     47  C   UNL A   1      44.236  25.568  31.251  1.00  0.00     0.049 A 
ATOM     48  H   UNL A   1      43.155  26.611  29.797  1.00  0.00     0.167 HD
ATOM     49  C   UNL A   1      40.086  28.409  27.215  1.00  0.00     0.031 A 
ATOM     50  C   UNL A   1      44.474  26.507  32.200  1.00  0.00     0.031 A 
ATOM     51  C   UNL A   1      41.307  28.952  26.669  1.00  0.00     0.049 A 
ATOM     52  C   UNL A   1      44.246  27.830  31.570  1.00  0.00     0.074 A 
ATOM     53  C   UNL A   1      42.054  28.698  25.534  1.00  0.00     0.029 A 
ATOM     54  N   UNL A   1      42.159  29.587  27.545  1.00  0.00    -0.354 N 
ATOM     55  N   UNL A   1      45.004  28.302  30.621  1.00  0.00    -0.248 NA
ATOM     56  C   UNL A   1      42.907  28.396  31.641  1.00  0.00     0.031 C 
ATOM     57  C   UNL A   1      43.408  28.714  25.985  1.00  0.00     0.029 A 
ATOM     58  C   UNL A   1      43.414  29.075  27.333  1.00  0.00     0.049 A 
ATOM     59  H   UNL A   1      41.913  30.280  28.199  1.00  0.00     0.167 HD
ATOM     60  C   UNL A   1      44.118  28.861  29.711  1.00  0.00     0.074 A 
ATOM     61  C   UNL A   1      42.850  28.973  30.436  1.00  0.00     0.031 C 
ATOM     62  C   UNL A   1      44.404  28.907  28.375  1.00  0.00     0.031 A 
BRANCH  49  63
ATOM     63  C   UNL A   1      39.062  29.285  27.889  1.00  0.00    -0.014 A 
ATOM     64  C   UNL A   1      39.164  29.496  29.276  1.00  0.00     0.009 A 
ATOM     65  C   UNL A   1      37.856  29.672  27.277  1.00  0.00     0.009 A 
ATOM     66  C   UNL A   1      38.085  29.991  30.018  1.00  0.00     0.001 A 
ATOM     67  C   UNL A   1      36.792  30.206  28.008  1.00  0.00     0.001 A 
ATOM     68  C   UNL A   1      36.897  30.338  29.383  1.00  0.00     0.000 A 
ENDBRANCH  49  63
BRANCH  50  69
ATOM     69  C   UNL A   1      44.606  26.334  33.664  1.00  0.00    -0.014 A 
ATOM     70  C   UNL A   1      45.727  26.828  34.352  1.00  0.00     0.009 A 
ATOM     71  C   UNL A   1      43.497  25.930  34.431  1.00  0.00     0.009 A 
ATOM     72  C   UNL A   1      45.719  26.950  35.750  1.00  0.00     0.001 A 
ATOM     73  C   UNL A   1      43.490  26.051  35.825  1.00  0.00     0.001 A 
ATOM     74  C   UNL A   1      44.595  26.577  36.484  1.00  0.00     0.000 A 
ENDBRANCH  50  69
BRANCH  62  75
ATOM     75  C   UNL A   1      45.793  28.514  27.925  1.00  0.00    -0.014 A 
ATOM     76  C   UNL A   1      46.189  27.182  27.700  1.00  0.00     0.009 A 
ATOM     77  C   UNL A   1      46.681  29.535  27.556  1.00  0.00     0.009 A 
ATOM     78  C   UNL A   1      47.443  26.887  27.153  1.00  0.00     0.001 A 
ATOM     79  C   UNL A   1      47.923  29.242  26.990  1.00  0.00     0.001 A 
ATOM     80  C   UNL A   1      48.308  27.918  26.794  1.00  0.00     0.000 A 
ENDBRANCH  62  75
ENDBRANCH  36  37
ENDBRANCH  28  31
ENDBRANCH  26  27
ENDBRANCH  25  26
ENDBRANCH   1  25
TORSDOF 16
ENDMDL
