MODEL 1
REMARK VINA RESULT:     -11.3      0.000      0.000
REMARK SMILES O=C1N[C@H](C(=O)N[C@H]2C=C[C@@H](C(=O)NCCCCNC(=O)c3ccc(-c4c5nc(c(-c6ccccc6)c6ccc([nH]6)c(-c6ccccc6)c6nc(c(-c7ccccc7)c7ccc4[nH]7)C=C6)C=C5)cc3)C2)CS1
REMARK SMILES IDX 16 1 15 2 14 3 12 4 13 5 11 7 8 8 9 9 70 10 10 11 7 12 5 13
REMARK SMILES IDX 6 14 4 16 1 17 2 18 3 19 72 20 71 22 17 23 18 24 19 25 20 26
REMARK SMILES IDX 21 28 22 29 23 30 69 31 24 32 68 33 25 34 26 35 27 36 62 37
REMARK SMILES IDX 28 38 67 39 61 40 63 41 29 42 66 43 60 44 59 45 30 47 52 48
REMARK SMILES IDX 37 49 51 50 38 51 41 52 50 53 64 54 39 55 40 56 49 58 65 59
REMARK SMILES IDX 42 60 31 61 32 62 36 63 33 64 35 65 34 66 53 67 54 68 58 69
REMARK SMILES IDX 55 70 57 71 56 72 43 73 44 74 48 75 45 76 47 77 46 78
REMARK H PARENT 14 6 7 15 3 21 19 27 63 46 41 57
REMARK Flexibility Score: inf
ROOT
ATOM      1  C   UNL A   1      31.369  27.156  26.868  1.00  0.00     0.023 C 
ENDROOT
BRANCH   1   2
ATOM      2  C   UNL A   1      32.233  26.218  26.030  1.00  0.00     0.116 C 
BRANCH   2   3
ATOM      3  N   UNL A   1      31.671  24.887  25.927  1.00  0.00    -0.356 N 
ATOM      4  C   UNL A   1      31.000  24.281  24.911  1.00  0.00     0.227 C 
ATOM      5  O   UNL A   1      30.738  23.082  25.055  1.00  0.00    -0.274 OA
ATOM      6  H   UNL A   1      31.797  24.327  26.727  1.00  0.00     0.163 HD
BRANCH   4   7
ATOM      7  C   UNL A   1      30.523  25.022  23.655  1.00  0.00     0.103 C 
ATOM      8  C   UNL A   1      30.309  27.438  23.149  1.00  0.00     0.106 C 
ATOM      9  C   UNL A   1      31.444  26.789  22.413  1.00  0.00    -0.006 C 
ATOM     10  C   UNL A   1      29.716  26.284  23.973  1.00  0.00     0.047 C 
ATOM     11  C   UNL A   1      31.579  25.490  22.707  1.00  0.00    -0.016 C 
BRANCH   8  12
ATOM     12  N   UNL A   1      30.867  28.508  23.957  1.00  0.00    -0.348 N 
ATOM     13  C   UNL A   1      30.499  29.808  24.128  1.00  0.00     0.243 C 
ATOM     14  O   UNL A   1      31.132  30.454  24.971  1.00  0.00    -0.273 OA
ATOM     15  H   UNL A   1      31.658  28.245  24.480  1.00  0.00     0.164 HD
BRANCH  13  16
ATOM     16  C   UNL A   1      29.257  30.430  23.472  1.00  0.00     0.182 C 
ATOM     17  O   UNL A   1      28.344  33.772  22.702  1.00  0.00    -0.262 OA
ATOM     18  C   UNL A   1      28.604  32.587  22.646  1.00  0.00     0.279 C 
ATOM     19  N   UNL A   1      29.065  31.841  23.688  1.00  0.00    -0.334 N 
ATOM     20  S   UNL A   1      28.456  31.597  21.218  1.00  0.00    -0.062 SA
ATOM     21  H   UNL A   1      29.260  32.253  24.560  1.00  0.00     0.165 HD
ATOM     22  C   UNL A   1      29.255  30.156  21.973  1.00  0.00     0.115 C 
ENDBRANCH  13  16
ENDBRANCH   8  12
ENDBRANCH   4   7
ENDBRANCH   2   3
ENDBRANCH   1   2
BRANCH   1  23
ATOM     23  C   UNL A   1      32.141  28.181  27.696  1.00  0.00     0.023 C 
BRANCH  23  24
ATOM     24  C   UNL A   1      33.340  28.810  26.998  1.00  0.00     0.116 C 
BRANCH  24  25
ATOM     25  N   UNL A   1      33.439  30.248  27.199  1.00  0.00    -0.352 N 
ATOM     26  C   UNL A   1      34.473  30.976  27.737  1.00  0.00     0.251 C 
ATOM     27  H   UNL A   1      32.656  30.771  26.910  1.00  0.00     0.163 HD
ATOM     28  O   UNL A   1      34.351  32.181  27.926  1.00  0.00    -0.269 OA
BRANCH  26  29
ATOM     29  C   UNL A   1      35.721  30.287  28.127  1.00  0.00     0.039 A 
ATOM     30  C   UNL A   1      36.780  30.247  27.217  1.00  0.00     0.014 A 
ATOM     31  C   UNL A   1      35.857  29.717  29.395  1.00  0.00     0.014 A 
ATOM     32  C   UNL A   1      38.003  29.700  27.606  1.00  0.00     0.010 A 
ATOM     33  C   UNL A   1      37.098  29.245  29.807  1.00  0.00     0.010 A 
ATOM     34  C   UNL A   1      38.184  29.232  28.918  1.00  0.00    -0.014 A 
BRANCH  34  35
ATOM     35  C   UNL A   1      39.500  28.726  29.382  1.00  0.00     0.031 A 
ATOM     36  C   UNL A   1      40.351  29.565  30.295  1.00  0.00     0.074 A 
ATOM     37  C   UNL A   1      39.961  27.546  28.925  1.00  0.00     0.049 A 
ATOM     38  N   UNL A   1      41.553  29.325  30.754  1.00  0.00    -0.248 NA
ATOM     39  C   UNL A   1      39.788  30.853  30.730  1.00  0.00     0.031 C 
ATOM     40  C   UNL A   1      39.252  26.658  28.000  1.00  0.00     0.029 A 
ATOM     41  N   UNL A   1      41.143  26.894  29.171  1.00  0.00    -0.354 N 
ATOM     42  C   UNL A   1      41.897  30.438  31.510  1.00  0.00     0.074 A 
ATOM     43  C   UNL A   1      40.799  31.374  31.409  1.00  0.00     0.031 C 
ATOM     44  C   UNL A   1      40.001  25.564  27.781  1.00  0.00     0.029 A 
ATOM     45  C   UNL A   1      41.256  25.692  28.515  1.00  0.00     0.049 A 
ATOM     46  H   UNL A   1      41.844  27.252  29.762  1.00  0.00     0.167 HD
ATOM     47  C   UNL A   1      43.015  30.655  32.241  1.00  0.00     0.031 A 
ATOM     48  C   UNL A   1      42.260  24.795  28.500  1.00  0.00     0.031 A 
ATOM     49  C   UNL A   1      44.102  29.720  32.354  1.00  0.00     0.049 A 
ATOM     50  C   UNL A   1      43.496  25.064  29.311  1.00  0.00     0.074 A 
ATOM     51  C   UNL A   1      45.251  29.821  33.119  1.00  0.00     0.029 A 
ATOM     52  N   UNL A   1      44.173  28.510  31.680  1.00  0.00    -0.354 N 
ATOM     53  N   UNL A   1      43.776  26.090  30.078  1.00  0.00    -0.248 NA
ATOM     54  C   UNL A   1      44.553  24.043  29.264  1.00  0.00     0.031 C 
ATOM     55  C   UNL A   1      46.042  28.695  32.867  1.00  0.00     0.029 A 
ATOM     56  C   UNL A   1      45.359  27.867  31.992  1.00  0.00     0.049 A 
ATOM     57  H   UNL A   1      43.484  28.160  31.071  1.00  0.00     0.167 HD
ATOM     58  C   UNL A   1      45.025  25.827  30.624  1.00  0.00     0.074 A 
ATOM     59  C   UNL A   1      45.442  24.537  30.114  1.00  0.00     0.031 C 
ATOM     60  C   UNL A   1      45.760  26.584  31.474  1.00  0.00     0.031 A 
BRANCH  47  61
ATOM     61  C   UNL A   1      43.118  31.964  32.973  1.00  0.00    -0.014 A 
ATOM     62  C   UNL A   1      43.801  33.058  32.415  1.00  0.00     0.009 A 
ATOM     63  C   UNL A   1      42.504  32.116  34.226  1.00  0.00     0.009 A 
ATOM     64  C   UNL A   1      43.901  34.262  33.116  1.00  0.00     0.001 A 
ATOM     65  C   UNL A   1      42.580  33.330  34.909  1.00  0.00     0.001 A 
ATOM     66  C   UNL A   1      43.287  34.398  34.359  1.00  0.00     0.000 A 
ENDBRANCH  47  61
BRANCH  48  67
ATOM     67  C   UNL A   1      42.134  23.548  27.702  1.00  0.00    -0.014 A 
ATOM     68  C   UNL A   1      42.602  23.500  26.380  1.00  0.00     0.009 A 
ATOM     69  C   UNL A   1      41.542  22.401  28.254  1.00  0.00     0.009 A 
ATOM     70  C   UNL A   1      42.455  22.338  25.619  1.00  0.00     0.001 A 
ATOM     71  C   UNL A   1      41.423  21.232  27.500  1.00  0.00     0.001 A 
ATOM     72  C   UNL A   1      41.870  21.205  26.180  1.00  0.00     0.000 A 
ENDBRANCH  48  67
BRANCH  60  73
ATOM     73  C   UNL A   1      47.076  26.022  31.933  1.00  0.00    -0.014 A 
ATOM     74  C   UNL A   1      48.246  26.194  31.178  1.00  0.00     0.009 A 
ATOM     75  C   UNL A   1      47.150  25.344  33.160  1.00  0.00     0.009 A 
ATOM     76  C   UNL A   1      49.459  25.670  31.629  1.00  0.00     0.001 A 
ATOM     77  C   UNL A   1      48.369  24.847  33.622  1.00  0.00     0.001 A 
ATOM     78  C   UNL A   1      49.520  25.001  32.852  1.00  0.00     0.000 A 
ENDBRANCH  60  73
ENDBRANCH  34  35
ENDBRANCH  26  29
ENDBRANCH  24  25
ENDBRANCH  23  24
ENDBRANCH   1  23
TORSDOF 13
ENDMDL
MODEL 2
REMARK VINA RESULT:     -11.1      2.939      7.590
REMARK SMILES O=C1N[C@H](C(=O)N[C@H]2C=C[C@@H](C(=O)NCCCCNC(=O)c3ccc(-c4c5nc(c(-c6ccccc6)c6ccc([nH]6)c(-c6ccccc6)c6nc(c(-c7ccccc7)c7ccc4[nH]7)C=C6)C=C5)cc3)C2)CS1
REMARK SMILES IDX 16 1 15 2 14 3 12 4 13 5 11 7 8 8 9 9 70 10 10 11 7 12 5 13
REMARK SMILES IDX 6 14 4 16 1 17 2 18 3 19 72 20 71 22 17 23 18 24 19 25 20 26
REMARK SMILES IDX 21 28 22 29 23 30 69 31 24 32 68 33 25 34 26 35 27 36 62 37
REMARK SMILES IDX 28 38 67 39 61 40 63 41 29 42 66 43 60 44 59 45 30 47 52 48
REMARK SMILES IDX 37 49 51 50 38 51 41 52 50 53 64 54 39 55 40 56 49 58 65 59
REMARK SMILES IDX 42 60 31 61 32 62 36 63 33 64 35 65 34 66 53 67 54 68 58 69
REMARK SMILES IDX 55 70 57 71 56 72 43 73 44 74 48 75 45 76 47 77 46 78
REMARK H PARENT 14 6 7 15 3 21 19 27 63 46 41 57
REMARK Flexibility Score: inf
ROOT
ATOM      1  C   UNL A   1      35.521  21.838  26.049  1.00  0.00     0.023 C 
ENDROOT
BRANCH   1   2
ATOM      2  C   UNL A   1      34.237  21.642  26.849  1.00  0.00     0.116 C 
BRANCH   2   3
ATOM      3  N   UNL A   1      33.635  20.344  26.629  1.00  0.00    -0.356 N 
ATOM      4  C   UNL A   1      32.771  19.914  25.670  1.00  0.00     0.227 C 
ATOM      5  O   UNL A   1      32.512  18.706  25.654  1.00  0.00    -0.274 OA
ATOM      6  H   UNL A   1      33.895  19.656  27.283  1.00  0.00     0.163 HD
BRANCH   4   7
ATOM      7  C   UNL A   1      32.085  20.856  24.670  1.00  0.00     0.103 C 
ATOM      8  C   UNL A   1      31.920  23.326  24.581  1.00  0.00     0.106 C 
ATOM      9  C   UNL A   1      32.829  22.766  23.527  1.00  0.00    -0.006 C 
ATOM     10  C   UNL A   1      31.445  22.077  25.338  1.00  0.00     0.047 C 
ATOM     11  C   UNL A   1      32.942  21.434  23.591  1.00  0.00    -0.016 C 
BRANCH   8  12
ATOM     12  N   UNL A   1      32.704  24.241  25.393  1.00  0.00    -0.348 N 
ATOM     13  C   UNL A   1      32.929  25.580  25.298  1.00  0.00     0.243 C 
ATOM     14  O   UNL A   1      33.580  26.097  26.213  1.00  0.00    -0.273 OA
ATOM     15  H   UNL A   1      33.156  23.813  26.155  1.00  0.00     0.164 HD
BRANCH  13  16
ATOM     16  C   UNL A   1      32.275  26.475  24.233  1.00  0.00     0.182 C 
ATOM     17  O   UNL A   1      30.729  29.666  24.371  1.00  0.00    -0.262 OA
ATOM     18  C   UNL A   1      31.445  28.723  24.102  1.00  0.00     0.279 C 
ATOM     19  N   UNL A   1      31.406  27.513  24.724  1.00  0.00    -0.334 N 
ATOM     20  S   UNL A   1      32.680  28.725  22.871  1.00  0.00    -0.062 SA
ATOM     21  H   UNL A   1      30.801  27.352  25.484  1.00  0.00     0.165 HD
ATOM     22  C   UNL A   1      33.340  27.105  23.343  1.00  0.00     0.115 C 
ENDBRANCH  13  16
ENDBRANCH   8  12
ENDBRANCH   4   7
ENDBRANCH   2   3
ENDBRANCH   1   2
BRANCH   1  23
ATOM     23  C   UNL A   1      36.090  23.255  26.074  1.00  0.00     0.023 C 
BRANCH  23  24
ATOM     24  C   UNL A   1      37.276  23.494  25.148  1.00  0.00     0.116 C 
BRANCH  24  25
ATOM     25  N   UNL A   1      38.419  22.641  25.438  1.00  0.00    -0.352 N 
ATOM     26  C   UNL A   1      39.559  22.936  26.147  1.00  0.00     0.251 C 
ATOM     27  H   UNL A   1      38.368  21.727  25.076  1.00  0.00     0.163 HD
ATOM     28  O   UNL A   1      40.475  22.125  26.213  1.00  0.00    -0.269 OA
BRANCH  26  29
ATOM     29  C   UNL A   1      39.690  24.257  26.796  1.00  0.00     0.039 A 
ATOM     30  C   UNL A   1      39.145  24.439  28.069  1.00  0.00     0.014 A 
ATOM     31  C   UNL A   1      40.376  25.298  26.166  1.00  0.00     0.014 A 
ATOM     32  C   UNL A   1      39.355  25.642  28.743  1.00  0.00     0.010 A 
ATOM     33  C   UNL A   1      40.652  26.465  26.870  1.00  0.00     0.010 A 
ATOM     34  C   UNL A   1      40.145  26.650  28.165  1.00  0.00    -0.014 A 
BRANCH  34  35
ATOM     35  C   UNL A   1      40.455  27.903  28.898  1.00  0.00     0.031 A 
ATOM     36  C   UNL A   1      41.762  28.047  29.626  1.00  0.00     0.074 A 
ATOM     37  C   UNL A   1      39.531  28.882  28.967  1.00  0.00     0.049 A 
ATOM     38  N   UNL A   1      42.185  29.035  30.374  1.00  0.00    -0.248 NA
ATOM     39  C   UNL A   1      42.707  26.923  29.523  1.00  0.00     0.031 C 
ATOM     40  C   UNL A   1      38.207  28.847  28.341  1.00  0.00     0.029 A 
ATOM     41  N   UNL A   1      39.565  30.096  29.606  1.00  0.00    -0.354 N 
ATOM     42  C   UNL A   1      43.431  28.643  30.845  1.00  0.00     0.074 A 
ATOM     43  C   UNL A   1      43.674  27.308  30.342  1.00  0.00     0.031 C 
ATOM     44  C   UNL A   1      37.568  29.999  28.602  1.00  0.00     0.029 A 
ATOM     45  C   UNL A   1      38.417  30.834  29.445  1.00  0.00     0.049 A 
ATOM     46  H   UNL A   1      40.337  30.409  30.128  1.00  0.00     0.167 HD
ATOM     47  C   UNL A   1      44.305  29.337  31.611  1.00  0.00     0.031 A 
ATOM     48  C   UNL A   1      38.082  32.045  29.928  1.00  0.00     0.031 A 
ATOM     49  C   UNL A   1      44.072  30.668  32.102  1.00  0.00     0.049 A 
ATOM     50  C   UNL A   1      39.065  32.791  30.785  1.00  0.00     0.074 A 
ATOM     51  C   UNL A   1      44.921  31.479  32.834  1.00  0.00     0.029 A 
ATOM     52  N   UNL A   1      42.899  31.383  31.910  1.00  0.00    -0.354 N 
ATOM     53  N   UNL A   1      40.270  32.436  31.163  1.00  0.00    -0.248 NA
ATOM     54  C   UNL A   1      38.647  34.114  31.272  1.00  0.00     0.031 C 
ATOM     55  C   UNL A   1      44.243  32.666  33.129  1.00  0.00     0.029 A 
ATOM     56  C   UNL A   1      42.994  32.617  32.531  1.00  0.00     0.049 A 
ATOM     57  H   UNL A   1      42.117  31.062  31.406  1.00  0.00     0.167 HD
ATOM     58  C   UNL A   1      40.762  33.498  31.909  1.00  0.00     0.074 A 
ATOM     59  C   UNL A   1      39.734  34.519  31.916  1.00  0.00     0.031 C 
ATOM     60  C   UNL A   1      41.961  33.620  32.531  1.00  0.00     0.031 A 
BRANCH  47  61
ATOM     61  C   UNL A   1      45.598  28.658  31.970  1.00  0.00    -0.014 A 
ATOM     62  C   UNL A   1      45.713  27.879  33.133  1.00  0.00     0.009 A 
ATOM     63  C   UNL A   1      46.710  28.779  31.122  1.00  0.00     0.009 A 
ATOM     64  C   UNL A   1      46.927  27.269  33.459  1.00  0.00     0.001 A 
ATOM     65  C   UNL A   1      47.913  28.143  31.436  1.00  0.00     0.001 A 
ATOM     66  C   UNL A   1      48.023  27.398  32.608  1.00  0.00     0.000 A 
ENDBRANCH  47  61
BRANCH  48  67
ATOM     67  C   UNL A   1      36.760  32.640  29.599  1.00  0.00    -0.014 A 
ATOM     68  C   UNL A   1      36.582  33.354  28.404  1.00  0.00     0.009 A 
ATOM     69  C   UNL A   1      35.674  32.501  30.476  1.00  0.00     0.009 A 
ATOM     70  C   UNL A   1      35.349  33.940  28.108  1.00  0.00     0.001 A 
ATOM     71  C   UNL A   1      34.434  33.063  30.163  1.00  0.00     0.001 A 
ATOM     72  C   UNL A   1      34.276  33.791  28.985  1.00  0.00     0.000 A 
ENDBRANCH  48  67
BRANCH  60  73
ATOM     73  C   UNL A   1      42.237  34.915  33.242  1.00  0.00    -0.014 A 
ATOM     74  C   UNL A   1      41.739  35.160  34.530  1.00  0.00     0.009 A 
ATOM     75  C   UNL A   1      43.043  35.885  32.626  1.00  0.00     0.009 A 
ATOM     76  C   UNL A   1      42.017  36.367  35.174  1.00  0.00     0.001 A 
ATOM     77  C   UNL A   1      43.343  37.078  33.284  1.00  0.00     0.001 A 
ATOM     78  C   UNL A   1      42.822  37.322  34.554  1.00  0.00     0.000 A 
ENDBRANCH  60  73
ENDBRANCH  34  35
ENDBRANCH  26  29
ENDBRANCH  24  25
ENDBRANCH  23  24
ENDBRANCH   1  23
TORSDOF 13
ENDMDL
MODEL 3
REMARK VINA RESULT:     -11.1      2.491      4.118
REMARK SMILES O=C1N[C@H](C(=O)N[C@H]2C=C[C@@H](C(=O)NCCCCNC(=O)c3ccc(-c4c5nc(c(-c6ccccc6)c6ccc([nH]6)c(-c6ccccc6)c6nc(c(-c7ccccc7)c7ccc4[nH]7)C=C6)C=C5)cc3)C2)CS1
REMARK SMILES IDX 16 1 15 2 14 3 12 4 13 5 11 7 8 8 9 9 70 10 10 11 7 12 5 13
REMARK SMILES IDX 6 14 4 16 1 17 2 18 3 19 72 20 71 22 17 23 18 24 19 25 20 26
REMARK SMILES IDX 21 28 22 29 23 30 69 31 24 32 68 33 25 34 26 35 27 36 62 37
REMARK SMILES IDX 28 38 67 39 61 40 63 41 29 42 66 43 60 44 59 45 30 47 52 48
REMARK SMILES IDX 37 49 51 50 38 51 41 52 50 53 64 54 39 55 40 56 49 58 65 59
REMARK SMILES IDX 42 60 31 61 32 62 36 63 33 64 35 65 34 66 53 67 54 68 58 69
REMARK SMILES IDX 55 70 57 71 56 72 43 73 44 74 48 75 45 76 47 77 46 78
REMARK H PARENT 14 6 7 15 3 21 19 27 63 46 41 57
REMARK Flexibility Score: inf
ROOT
ATOM      1  C   UNL A   1      31.781  29.076  25.490  1.00  0.00     0.023 C 
ENDROOT
BRANCH   1   2
ATOM      2  C   UNL A   1      31.725  28.318  24.167  1.00  0.00     0.116 C 
BRANCH   2   3
ATOM      3  N   UNL A   1      32.880  28.568  23.331  1.00  0.00    -0.356 N 
ATOM      4  C   UNL A   1      33.512  27.775  22.424  1.00  0.00     0.227 C 
ATOM      5  O   UNL A   1      34.413  28.297  21.760  1.00  0.00    -0.274 OA
ATOM      6  H   UNL A   1      33.275  29.464  23.437  1.00  0.00     0.163 HD
BRANCH   4   7
ATOM      7  C   UNL A   1      33.192  26.285  22.240  1.00  0.00     0.103 C 
ATOM      8  C   UNL A   1      32.349  24.573  23.820  1.00  0.00     0.106 C 
ATOM      9  C   UNL A   1      31.322  24.985  22.807  1.00  0.00    -0.006 C 
ATOM     10  C   UNL A   1      33.568  25.435  23.457  1.00  0.00     0.047 C 
ATOM     11  C   UNL A   1      31.765  25.930  21.970  1.00  0.00    -0.016 C 
BRANCH   8  12
ATOM     12  N   UNL A   1      31.803  24.855  25.136  1.00  0.00    -0.348 N 
ATOM     13  C   UNL A   1      31.743  24.113  26.276  1.00  0.00     0.243 C 
ATOM     14  O   UNL A   1      31.289  24.677  27.278  1.00  0.00    -0.273 OA
ATOM     15  H   UNL A   1      31.403  25.750  25.220  1.00  0.00     0.164 HD
BRANCH  13  16
ATOM     16  C   UNL A   1      32.362  22.713  26.409  1.00  0.00     0.182 C 
ATOM     17  O   UNL A   1      32.064  19.743  24.490  1.00  0.00    -0.262 OA
ATOM     18  C   UNL A   1      32.482  20.716  25.084  1.00  0.00     0.279 C 
ATOM     19  N   UNL A   1      31.704  21.657  25.685  1.00  0.00    -0.334 N 
ATOM     20  S   UNL A   1      34.168  21.119  25.278  1.00  0.00    -0.062 SA
ATOM     21  H   UNL A   1      30.722  21.616  25.626  1.00  0.00     0.165 HD
ATOM     22  C   UNL A   1      33.832  22.743  26.010  1.00  0.00     0.115 C 
ENDBRANCH  13  16
ENDBRANCH   8  12
ENDBRANCH   4   7
ENDBRANCH   2   3
ENDBRANCH   1   2
BRANCH   1  23
ATOM     23  C   UNL A   1      32.305  28.271  26.677  1.00  0.00     0.023 C 
BRANCH  23  24
ATOM     24  C   UNL A   1      33.655  28.719  27.221  1.00  0.00     0.116 C 
BRANCH  24  25
ATOM     25  N   UNL A   1      33.648  30.078  27.741  1.00  0.00    -0.352 N 
ATOM     26  C   UNL A   1      34.655  30.766  28.375  1.00  0.00     0.251 C 
ATOM     27  H   UNL A   1      32.805  30.573  27.622  1.00  0.00     0.163 HD
ATOM     28  O   UNL A   1      34.447  31.880  28.841  1.00  0.00    -0.269 OA
BRANCH  26  29
ATOM     29  C   UNL A   1      35.982  30.134  28.527  1.00  0.00     0.039 A 
ATOM     30  C   UNL A   1      36.872  30.169  27.452  1.00  0.00     0.014 A 
ATOM     31  C   UNL A   1      36.358  29.543  29.736  1.00  0.00     0.014 A 
ATOM     32  C   UNL A   1      38.168  29.678  27.612  1.00  0.00     0.010 A 
ATOM     33  C   UNL A   1      37.672  29.127  29.919  1.00  0.00     0.010 A 
ATOM     34  C   UNL A   1      38.591  29.190  28.860  1.00  0.00    -0.014 A 
BRANCH  34  35
ATOM     35  C   UNL A   1      39.989  28.743  29.080  1.00  0.00     0.031 A 
ATOM     36  C   UNL A   1      40.998  29.686  29.673  1.00  0.00     0.074 A 
ATOM     37  C   UNL A   1      40.367  27.513  28.680  1.00  0.00     0.049 A 
ATOM     38  N   UNL A   1      42.277  29.502  29.880  1.00  0.00    -0.248 NA
ATOM     39  C   UNL A   1      40.512  31.021  30.060  1.00  0.00     0.031 C 
ATOM     40  C   UNL A   1      39.495  26.519  28.050  1.00  0.00     0.029 A 
ATOM     41  N   UNL A   1      41.591  26.894  28.736  1.00  0.00    -0.354 N 
ATOM     42  C   UNL A   1      42.750  30.700  30.400  1.00  0.00     0.074 A 
ATOM     43  C   UNL A   1      41.634  31.620  30.430  1.00  0.00     0.031 C 
ATOM     44  C   UNL A   1      40.205  25.404  27.807  1.00  0.00     0.029 A 
ATOM     45  C   UNL A   1      41.586  25.619  28.224  1.00  0.00     0.049 A 
ATOM     46  H   UNL A   1      42.394  27.322  29.110  1.00  0.00     0.167 HD
ATOM     47  C   UNL A   1      43.996  31.004  30.833  1.00  0.00     0.031 A 
ATOM     48  C   UNL A   1      42.585  24.725  28.097  1.00  0.00     0.031 A 
ATOM     49  C   UNL A   1      45.105  30.087  30.817  1.00  0.00     0.049 A 
ATOM     50  C   UNL A   1      43.962  25.090  28.575  1.00  0.00     0.074 A 
ATOM     51  C   UNL A   1      46.390  30.280  31.290  1.00  0.00     0.029 A 
ATOM     52  N   UNL A   1      45.056  28.803  30.297  1.00  0.00    -0.354 N 
ATOM     53  N   UNL A   1      44.377  26.203  29.130  1.00  0.00    -0.248 NA
ATOM     54  C   UNL A   1      45.007  24.068  28.421  1.00  0.00     0.031 C 
ATOM     55  C   UNL A   1      47.135  29.129  31.010  1.00  0.00     0.029 A 
ATOM     56  C   UNL A   1      46.297  28.200  30.416  1.00  0.00     0.049 A 
ATOM     57  H   UNL A   1      44.259  28.382  29.903  1.00  0.00     0.167 HD
ATOM     58  C   UNL A   1      45.722  26.007  29.415  1.00  0.00     0.074 A 
ATOM     59  C   UNL A   1      46.050  24.662  28.987  1.00  0.00     0.031 C 
ATOM     60  C   UNL A   1      46.607  26.862  29.983  1.00  0.00     0.031 A 
BRANCH  47  61
ATOM     61  C   UNL A   1      44.225  32.394  31.358  1.00  0.00    -0.014 A 
ATOM     62  C   UNL A   1      44.047  32.697  32.718  1.00  0.00     0.009 A 
ATOM     63  C   UNL A   1      44.646  33.410  30.486  1.00  0.00     0.009 A 
ATOM     64  C   UNL A   1      44.248  33.998  33.185  1.00  0.00     0.001 A 
ATOM     65  C   UNL A   1      44.876  34.702  30.963  1.00  0.00     0.001 A 
ATOM     66  C   UNL A   1      44.667  34.997  32.308  1.00  0.00     0.000 A 
ENDBRANCH  47  61
BRANCH  48  67
ATOM     67  C   UNL A   1      42.318  23.388  27.506  1.00  0.00    -0.014 A 
ATOM     68  C   UNL A   1      41.804  22.351  28.300  1.00  0.00     0.009 A 
ATOM     69  C   UNL A   1      42.578  23.139  26.149  1.00  0.00     0.009 A 
ATOM     70  C   UNL A   1      41.581  21.085  27.753  1.00  0.00     0.001 A 
ATOM     71  C   UNL A   1      42.328  21.881  25.599  1.00  0.00     0.001 A 
ATOM     72  C   UNL A   1      41.839  20.852  26.403  1.00  0.00     0.000 A 
ENDBRANCH  48  67
BRANCH  60  73
ATOM     73  C   UNL A   1      48.005  26.358  30.204  1.00  0.00    -0.014 A 
ATOM     74  C   UNL A   1      48.981  26.447  29.200  1.00  0.00     0.009 A 
ATOM     75  C   UNL A   1      48.358  25.821  31.453  1.00  0.00     0.009 A 
ATOM     76  C   UNL A   1      50.276  25.980  29.433  1.00  0.00     0.001 A 
ATOM     77  C   UNL A   1      49.661  25.382  31.692  1.00  0.00     0.001 A 
ATOM     78  C   UNL A   1      50.616  25.453  30.679  1.00  0.00     0.000 A 
ENDBRANCH  60  73
ENDBRANCH  34  35
ENDBRANCH  26  29
ENDBRANCH  24  25
ENDBRANCH  23  24
ENDBRANCH   1  23
TORSDOF 13
ENDMDL
