MODEL 1
REMARK VINA RESULT:      -9.7      0.000      0.000
REMARK SMILES C[C@@H](C(=O)N(C)C)[N@H+](CC(=O)NCCCCNC(=O)c1ccc(-c2c3nc(c(-c4ccccc4)c4ccc([nH]4)c(-c4ccccc4)c4nc(c(-c5ccccc5)c5ccc2[nH]5)C=C4)C=C3)cc1)CC(F)(F)F
REMARK SMILES IDX 14 1 13 2 12 3 10 4 11 5 9 7 8 8 2 10 1 11 3 12 4 13 5 14
REMARK SMILES IDX 6 15 7 16 68 17 69 18 70 19 71 20 72 21 15 22 16 23 17 24
REMARK SMILES IDX 18 25 19 27 20 28 21 29 67 30 22 31 66 32 23 33 24 34 25 35
REMARK SMILES IDX 60 36 26 37 65 38 59 39 61 40 27 41 64 42 58 43 57 44 28 46
REMARK SMILES IDX 50 47 35 48 49 49 36 50 39 51 48 52 62 53 37 54 38 55 47 57
REMARK SMILES IDX 63 58 40 59 29 60 30 61 34 62 31 63 33 64 32 65 51 66 52 67
REMARK SMILES IDX 56 68 53 69 55 70 54 71 41 72 42 73 46 74 43 75 45 76 44 77
REMARK H PARENT 12 6 8 9 17 26 61 45 39 56
REMARK Flexibility Score: inf
ROOT
ATOM      1  C   UNL A   1      31.685  27.589  25.548  1.00  0.00     0.023 C 
ENDROOT
BRANCH   1   2
ATOM      2  C   UNL A   1      30.797  26.316  25.896  1.00  0.00     0.116 C 
BRANCH   2   3
ATOM      3  N   UNL A   1      31.084  25.167  26.770  1.00  0.00    -0.351 N 
ATOM      4  C   UNL A   1      31.243  23.808  26.686  1.00  0.00     0.275 C 
ATOM      5  O   UNL A   1      31.757  23.272  27.679  1.00  0.00    -0.269 OA
ATOM      6  H   UNL A   1      31.194  25.465  27.701  1.00  0.00     0.163 HD
BRANCH   4   7
ATOM      7  C   UNL A   1      30.755  22.932  25.520  1.00  0.00     0.364 C 
BRANCH   7   8
ATOM      8  N   UNL A   1      31.773  22.904  24.440  1.00  0.00    -0.310 N 
ATOM      9  H   UNL A   1      32.621  23.373  24.758  1.00  0.00     0.349 HD
BRANCH   8  10
ATOM     10  C   UNL A   1      32.184  21.510  24.156  1.00  0.00     0.271 C 
ATOM     11  C   UNL A   1      32.222  21.153  22.657  1.00  0.00     0.086 C 
BRANCH  10  12
ATOM     12  C   UNL A   1      33.478  21.161  24.958  1.00  0.00     0.280 C 
ATOM     13  O   UNL A   1      33.363  20.464  25.974  1.00  0.00    -0.268 OA
ATOM     14  N   UNL A   1      34.752  21.605  24.564  1.00  0.00    -0.344 N 
ATOM     15  C   UNL A   1      35.155  22.670  23.658  1.00  0.00     0.146 C 
ATOM     16  C   UNL A   1      35.887  21.004  25.222  1.00  0.00     0.146 C 
ENDBRANCH  10  12
ENDBRANCH   8  10
BRANCH   8  17
ATOM     17  C   UNL A   1      31.370  23.727  23.255  1.00  0.00     0.380 C 
BRANCH  17  18
ATOM     18  C   UNL A   1      32.278  24.877  22.734  1.00  0.00     0.438 C 
ATOM     19  F   UNL A   1      32.970  24.550  21.628  1.00  0.00    -0.165 F 
ATOM     20  F   UNL A   1      31.502  25.941  22.393  1.00  0.00    -0.165 F 
ATOM     21  F   UNL A   1      33.144  25.303  23.676  1.00  0.00    -0.165 F 
ENDBRANCH  17  18
ENDBRANCH   8  17
ENDBRANCH   7   8
ENDBRANCH   4   7
ENDBRANCH   2   3
ENDBRANCH   1   2
BRANCH   1  22
ATOM     22  C   UNL A   1      33.103  28.144  25.930  1.00  0.00     0.023 C 
BRANCH  22  23
ATOM     23  C   UNL A   1      33.638  28.601  27.306  1.00  0.00     0.116 C 
BRANCH  23  24
ATOM     24  N   UNL A   1      33.514  30.003  27.615  1.00  0.00    -0.352 N 
ATOM     25  C   UNL A   1      34.450  30.823  28.208  1.00  0.00     0.251 C 
ATOM     26  H   UNL A   1      32.658  30.426  27.375  1.00  0.00     0.163 HD
ATOM     27  O   UNL A   1      34.123  31.971  28.533  1.00  0.00    -0.269 OA
BRANCH  25  28
ATOM     28  C   UNL A   1      35.835  30.373  28.507  1.00  0.00     0.039 A 
ATOM     29  C   UNL A   1      36.794  30.420  27.487  1.00  0.00     0.014 A 
ATOM     30  C   UNL A   1      36.166  29.760  29.721  1.00  0.00     0.014 A 
ATOM     31  C   UNL A   1      38.084  29.904  27.693  1.00  0.00     0.010 A 
ATOM     32  C   UNL A   1      37.465  29.255  29.930  1.00  0.00     0.010 A 
ATOM     33  C   UNL A   1      38.444  29.329  28.924  1.00  0.00    -0.014 A 
BRANCH  33  34
ATOM     34  C   UNL A   1      39.851  28.887  29.176  1.00  0.00     0.031 A 
ATOM     35  C   UNL A   1      40.877  29.804  29.794  1.00  0.00     0.074 A 
ATOM     36  C   UNL A   1      40.220  27.641  28.813  1.00  0.00     0.049 A 
ATOM     37  N   UNL A   1      42.139  29.567  30.070  1.00  0.00    -0.248 NA
ATOM     38  C   UNL A   1      40.438  31.163  30.141  1.00  0.00     0.031 C 
ATOM     39  C   UNL A   1      39.339  26.654  28.184  1.00  0.00     0.029 A 
ATOM     40  N   UNL A   1      41.428  26.989  28.908  1.00  0.00    -0.354 N 
ATOM     41  C   UNL A   1      42.645  30.744  30.612  1.00  0.00     0.074 A 
ATOM     42  C   UNL A   1      41.560  31.703  30.604  1.00  0.00     0.031 C 
ATOM     43  C   UNL A   1      40.029  25.526  27.958  1.00  0.00     0.029 A 
ATOM     44  C   UNL A   1      41.412  25.714  28.389  1.00  0.00     0.049 A 
ATOM     45  H   UNL A   1      42.229  27.396  29.311  1.00  0.00     0.167 HD
ATOM     46  C   UNL A   1      43.894  31.001  31.075  1.00  0.00     0.031 A 
ATOM     47  C   UNL A   1      42.396  24.802  28.255  1.00  0.00     0.031 A 
ATOM     48  C   UNL A   1      44.976  30.048  31.086  1.00  0.00     0.049 A 
ATOM     49  C   UNL A   1      43.779  25.130  28.748  1.00  0.00     0.074 A 
ATOM     50  C   UNL A   1      46.253  30.200  31.604  1.00  0.00     0.029 A 
ATOM     51  N   UNL A   1      44.917  28.776  30.543  1.00  0.00    -0.354 N 
ATOM     52  N   UNL A   1      44.206  26.214  29.347  1.00  0.00    -0.248 NA
ATOM     53  C   UNL A   1      44.816  24.106  28.549  1.00  0.00     0.031 C 
ATOM     54  C   UNL A   1      46.986  29.045  31.313  1.00  0.00     0.029 A 
ATOM     55  C   UNL A   1      46.148  28.151  30.669  1.00  0.00     0.049 A 
ATOM     56  H   UNL A   1      44.120  28.374  30.129  1.00  0.00     0.167 HD
ATOM     57  C   UNL A   1      45.552  25.996  29.611  1.00  0.00     0.074 A 
ATOM     58  C   UNL A   1      45.865  24.665  29.135  1.00  0.00     0.031 C 
ATOM     59  C   UNL A   1      46.452  26.829  30.188  1.00  0.00     0.031 A 
BRANCH  46  60
ATOM     60  C   UNL A   1      44.190  32.381  31.602  1.00  0.00    -0.014 A 
ATOM     61  C   UNL A   1      44.633  33.407  30.753  1.00  0.00     0.009 A 
ATOM     62  C   UNL A   1      43.920  32.685  32.946  1.00  0.00     0.009 A 
ATOM     63  C   UNL A   1      44.823  34.702  31.245  1.00  0.00     0.001 A 
ATOM     64  C   UNL A   1      44.088  33.985  33.430  1.00  0.00     0.001 A 
ATOM     65  C   UNL A   1      44.544  34.991  32.580  1.00  0.00     0.000 A 
ENDBRANCH  46  60
BRANCH  47  66
ATOM     66  C   UNL A   1      42.126  23.495  27.593  1.00  0.00    -0.014 A 
ATOM     67  C   UNL A   1      41.729  22.375  28.340  1.00  0.00     0.009 A 
ATOM     68  C   UNL A   1      42.308  23.352  26.208  1.00  0.00     0.009 A 
ATOM     69  C   UNL A   1      41.554  21.135  27.720  1.00  0.00     0.001 A 
ATOM     70  C   UNL A   1      42.097  22.119  25.586  1.00  0.00     0.001 A 
ATOM     71  C   UNL A   1      41.734  21.009  26.344  1.00  0.00     0.000 A 
ENDBRANCH  47  66
BRANCH  59  72
ATOM     72  C   UNL A   1      47.857  26.322  30.348  1.00  0.00    -0.014 A 
ATOM     73  C   UNL A   1      48.289  25.751  31.555  1.00  0.00     0.009 A 
ATOM     74  C   UNL A   1      48.748  26.373  29.263  1.00  0.00     0.009 A 
ATOM     75  C   UNL A   1      49.592  25.266  31.682  1.00  0.00     0.001 A 
ATOM     76  C   UNL A   1      50.040  25.861  29.384  1.00  0.00     0.001 A 
ATOM     77  C   UNL A   1      50.465  25.315  30.595  1.00  0.00     0.000 A 
ENDBRANCH  59  72
ENDBRANCH  33  34
ENDBRANCH  25  28
ENDBRANCH  23  24
ENDBRANCH  22  23
ENDBRANCH   1  22
TORSDOF 16
ENDMDL
MODEL 2
REMARK VINA RESULT:      -9.6      1.500      2.241
REMARK SMILES C[C@@H](C(=O)N(C)C)[N@H+](CC(=O)NCCCCNC(=O)c1ccc(-c2c3nc(c(-c4ccccc4)c4ccc([nH]4)c(-c4ccccc4)c4nc(c(-c5ccccc5)c5ccc2[nH]5)C=C4)C=C3)cc1)CC(F)(F)F
REMARK SMILES IDX 14 1 13 2 12 3 10 4 11 5 9 7 8 8 2 10 1 11 3 12 4 13 5 14
REMARK SMILES IDX 6 15 7 16 68 17 69 18 70 19 71 20 72 21 15 22 16 23 17 24
REMARK SMILES IDX 18 25 19 27 20 28 21 29 67 30 22 31 66 32 23 33 24 34 25 35
REMARK SMILES IDX 60 36 26 37 65 38 59 39 61 40 27 41 64 42 58 43 57 44 28 46
REMARK SMILES IDX 50 47 35 48 49 49 36 50 39 51 48 52 62 53 37 54 38 55 47 57
REMARK SMILES IDX 63 58 40 59 29 60 30 61 34 62 31 63 33 64 32 65 51 66 52 67
REMARK SMILES IDX 56 68 53 69 55 70 54 71 41 72 42 73 46 74 43 75 45 76 44 77
REMARK H PARENT 12 6 8 9 17 26 61 45 39 56
REMARK Flexibility Score: inf
ROOT
ATOM      1  C   UNL A   1      33.098  29.035  24.335  1.00  0.00     0.023 C 
ENDROOT
BRANCH   1   2
ATOM      2  C   UNL A   1      33.005  28.764  22.771  1.00  0.00     0.116 C 
BRANCH   2   3
ATOM      3  N   UNL A   1      33.293  27.545  21.998  1.00  0.00    -0.351 N 
ATOM      4  C   UNL A   1      33.447  26.197  22.197  1.00  0.00     0.275 C 
ATOM      5  O   UNL A   1      33.416  25.503  21.170  1.00  0.00    -0.269 OA
ATOM      6  H   UNL A   1      33.412  27.764  21.047  1.00  0.00     0.163 HD
BRANCH   4   7
ATOM      7  C   UNL A   1      33.742  25.532  23.552  1.00  0.00     0.364 C 
BRANCH   7   8
ATOM      8  N   UNL A   1      32.520  24.866  24.070  1.00  0.00    -0.310 N 
ATOM      9  H   UNL A   1      32.019  24.424  23.300  1.00  0.00     0.349 HD
BRANCH   8  10
ATOM     10  C   UNL A   1      32.887  23.756  24.980  1.00  0.00     0.271 C 
ATOM     11  C   UNL A   1      32.438  23.960  26.441  1.00  0.00     0.086 C 
BRANCH  10  12
ATOM     12  C   UNL A   1      32.484  22.388  24.344  1.00  0.00     0.280 C 
ATOM     13  O   UNL A   1      31.722  22.400  23.371  1.00  0.00    -0.268 OA
ATOM     14  N   UNL A   1      32.959  21.159  24.836  1.00  0.00    -0.344 N 
ATOM     15  C   UNL A   1      33.562  20.809  26.112  1.00  0.00     0.146 C 
ATOM     16  C   UNL A   1      32.736  19.995  24.012  1.00  0.00     0.146 C 
ENDBRANCH  10  12
ENDBRANCH   8  10
BRANCH   8  17
ATOM     17  C   UNL A   1      31.516  25.844  24.596  1.00  0.00     0.380 C 
BRANCH  17  18
ATOM     18  C   UNL A   1      30.109  25.973  23.945  1.00  0.00     0.438 C 
ATOM     19  F   UNL A   1      29.687  24.837  23.360  1.00  0.00    -0.165 F 
ATOM     20  F   UNL A   1      29.194  26.265  24.908  1.00  0.00    -0.165 F 
ATOM     21  F   UNL A   1      30.062  26.970  23.038  1.00  0.00    -0.165 F 
ENDBRANCH  17  18
ENDBRANCH   8  17
ENDBRANCH   7   8
ENDBRANCH   4   7
ENDBRANCH   2   3
ENDBRANCH   1   2
BRANCH   1  22
ATOM     22  C   UNL A   1      34.008  28.581  25.531  1.00  0.00     0.023 C 
BRANCH  22  23
ATOM     23  C   UNL A   1      33.782  28.742  27.051  1.00  0.00     0.116 C 
BRANCH  23  24
ATOM     24  N   UNL A   1      33.614  30.086  27.542  1.00  0.00    -0.352 N 
ATOM     25  C   UNL A   1      34.511  30.836  28.273  1.00  0.00     0.251 C 
ATOM     26  H   UNL A   1      32.757  30.521  27.331  1.00  0.00     0.163 HD
ATOM     27  O   UNL A   1      34.147  31.923  28.737  1.00  0.00    -0.269 OA
BRANCH  25  28
ATOM     28  C   UNL A   1      35.897  30.377  28.558  1.00  0.00     0.039 A 
ATOM     29  C   UNL A   1      36.838  30.390  27.520  1.00  0.00     0.014 A 
ATOM     30  C   UNL A   1      36.241  29.786  29.778  1.00  0.00     0.014 A 
ATOM     31  C   UNL A   1      38.125  29.863  27.715  1.00  0.00     0.010 A 
ATOM     32  C   UNL A   1      37.537  29.270  29.976  1.00  0.00     0.010 A 
ATOM     33  C   UNL A   1      38.500  29.311  28.952  1.00  0.00    -0.014 A 
BRANCH  33  34
ATOM     34  C   UNL A   1      39.906  28.858  29.188  1.00  0.00     0.031 A 
ATOM     35  C   UNL A   1      40.949  29.770  29.787  1.00  0.00     0.074 A 
ATOM     36  C   UNL A   1      40.259  27.605  28.831  1.00  0.00     0.049 A 
ATOM     37  N   UNL A   1      42.211  29.523  30.048  1.00  0.00    -0.248 NA
ATOM     38  C   UNL A   1      40.527  31.136  30.129  1.00  0.00     0.031 C 
ATOM     39  C   UNL A   1      39.361  26.622  28.221  1.00  0.00     0.029 A 
ATOM     40  N   UNL A   1      41.462  26.943  28.915  1.00  0.00    -0.354 N 
ATOM     41  C   UNL A   1      42.735  30.699  30.574  1.00  0.00     0.074 A 
ATOM     42  C   UNL A   1      41.659  31.669  30.573  1.00  0.00     0.031 C 
ATOM     43  C   UNL A   1      40.037  25.485  27.995  1.00  0.00     0.029 A 
ATOM     44  C   UNL A   1      41.427  25.664  28.406  1.00  0.00     0.049 A 
ATOM     45  H   UNL A   1      42.271  27.345  29.304  1.00  0.00     0.167 HD
ATOM     46  C   UNL A   1      43.993  30.948  31.018  1.00  0.00     0.031 A 
ATOM     47  C   UNL A   1      42.401  24.742  28.266  1.00  0.00     0.031 A 
ATOM     48  C   UNL A   1      45.066  29.985  31.023  1.00  0.00     0.049 A 
ATOM     49  C   UNL A   1      43.793  25.061  28.739  1.00  0.00     0.074 A 
ATOM     50  C   UNL A   1      46.350  30.129  31.524  1.00  0.00     0.029 A 
ATOM     51  N   UNL A   1      44.988  28.709  30.490  1.00  0.00    -0.354 N 
ATOM     52  N   UNL A   1      44.238  26.145  29.324  1.00  0.00    -0.248 NA
ATOM     53  C   UNL A   1      44.818  24.026  28.534  1.00  0.00     0.031 C 
ATOM     54  C   UNL A   1      47.069  28.965  31.232  1.00  0.00     0.029 A 
ATOM     55  C   UNL A   1      46.215  28.074  30.606  1.00  0.00     0.049 A 
ATOM     56  H   UNL A   1      44.182  28.312  30.090  1.00  0.00     0.167 HD
ATOM     57  C   UNL A   1      45.585  25.917  29.572  1.00  0.00     0.074 A 
ATOM     58  C   UNL A   1      45.880  24.580  29.103  1.00  0.00     0.031 C 
ATOM     59  C   UNL A   1      46.500  26.745  30.131  1.00  0.00     0.031 A 
BRANCH  46  60
ATOM     60  C   UNL A   1      44.308  32.329  31.531  1.00  0.00    -0.014 A 
ATOM     61  C   UNL A   1      44.168  32.653  32.889  1.00  0.00     0.009 A 
ATOM     62  C   UNL A   1      44.851  33.288  30.659  1.00  0.00     0.009 A 
ATOM     63  C   UNL A   1      44.543  33.915  33.359  1.00  0.00     0.001 A 
ATOM     64  C   UNL A   1      45.247  34.540  31.136  1.00  0.00     0.001 A 
ATOM     65  C   UNL A   1      45.088  34.855  32.484  1.00  0.00     0.000 A 
ENDBRANCH  46  60
BRANCH  47  66
ATOM     66  C   UNL A   1      42.110  23.432  27.619  1.00  0.00    -0.014 A 
ATOM     67  C   UNL A   1      42.353  23.232  26.251  1.00  0.00     0.009 A 
ATOM     68  C   UNL A   1      41.544  22.385  28.364  1.00  0.00     0.009 A 
ATOM     69  C   UNL A   1      42.004  22.026  25.638  1.00  0.00     0.001 A 
ATOM     70  C   UNL A   1      41.229  21.168  27.756  1.00  0.00     0.001 A 
ATOM     71  C   UNL A   1      41.447  20.994  26.391  1.00  0.00     0.000 A 
ENDBRANCH  47  66
BRANCH  59  72
ATOM     72  C   UNL A   1      47.902  26.227  30.276  1.00  0.00    -0.014 A 
ATOM     73  C   UNL A   1      48.819  26.309  29.216  1.00  0.00     0.009 A 
ATOM     74  C   UNL A   1      48.330  25.695  31.503  1.00  0.00     0.009 A 
ATOM     75  C   UNL A   1      50.125  25.842  29.373  1.00  0.00     0.001 A 
ATOM     76  C   UNL A   1      49.644  25.256  31.666  1.00  0.00     0.001 A 
ATOM     77  C   UNL A   1      50.539  25.322  30.599  1.00  0.00     0.000 A 
ENDBRANCH  59  72
ENDBRANCH  33  34
ENDBRANCH  25  28
ENDBRANCH  23  24
ENDBRANCH  22  23
ENDBRANCH   1  22
TORSDOF 16
ENDMDL
MODEL 3
REMARK VINA RESULT:      -9.4      2.723      7.657
REMARK SMILES C[C@@H](C(=O)N(C)C)[N@H+](CC(=O)NCCCCNC(=O)c1ccc(-c2c3nc(c(-c4ccccc4)c4ccc([nH]4)c(-c4ccccc4)c4nc(c(-c5ccccc5)c5ccc2[nH]5)C=C4)C=C3)cc1)CC(F)(F)F
REMARK SMILES IDX 14 1 13 2 12 3 10 4 11 5 9 7 8 8 2 10 1 11 3 12 4 13 5 14
REMARK SMILES IDX 6 15 7 16 68 17 69 18 70 19 71 20 72 21 15 22 16 23 17 24
REMARK SMILES IDX 18 25 19 27 20 28 21 29 67 30 22 31 66 32 23 33 24 34 25 35
REMARK SMILES IDX 60 36 26 37 65 38 59 39 61 40 27 41 64 42 58 43 57 44 28 46
REMARK SMILES IDX 50 47 35 48 49 49 36 50 39 51 48 52 62 53 37 54 38 55 47 57
REMARK SMILES IDX 63 58 40 59 29 60 30 61 34 62 31 63 33 64 32 65 51 66 52 67
REMARK SMILES IDX 56 68 53 69 55 70 54 71 41 72 42 73 46 74 43 75 45 76 44 77
REMARK H PARENT 12 6 8 9 17 26 61 45 39 56
REMARK Flexibility Score: inf
ROOT
ATOM      1  C   UNL A   1      34.254  23.515  25.896  1.00  0.00     0.023 C 
ENDROOT
BRANCH   1   2
ATOM      2  C   UNL A   1      32.997  24.342  25.381  1.00  0.00     0.116 C 
BRANCH   2   3
ATOM      3  N   UNL A   1      32.227  25.412  26.036  1.00  0.00    -0.351 N 
ATOM      4  C   UNL A   1      31.114  26.181  25.814  1.00  0.00     0.275 C 
ATOM      5  O   UNL A   1      30.683  26.787  26.806  1.00  0.00    -0.269 OA
ATOM      6  H   UNL A   1      32.638  25.649  26.898  1.00  0.00     0.163 HD
BRANCH   4   7
ATOM      7  C   UNL A   1      30.452  26.402  24.443  1.00  0.00     0.364 C 
BRANCH   7   8
ATOM      8  N   UNL A   1      30.572  27.827  24.042  1.00  0.00    -0.310 N 
ATOM      9  H   UNL A   1      30.059  28.411  24.701  1.00  0.00     0.349 HD
BRANCH   8  10
ATOM     10  C   UNL A   1      31.981  28.272  24.145  1.00  0.00     0.271 C 
ATOM     11  C   UNL A   1      32.659  28.548  22.788  1.00  0.00     0.086 C 
BRANCH  10  12
ATOM     12  C   UNL A   1      32.103  29.421  25.197  1.00  0.00     0.280 C 
ATOM     13  O   UNL A   1      31.331  30.382  25.101  1.00  0.00    -0.268 OA
ATOM     14  N   UNL A   1      33.049  29.394  26.236  1.00  0.00    -0.344 N 
ATOM     15  C   UNL A   1      34.263  28.609  26.403  1.00  0.00     0.146 C 
ATOM     16  C   UNL A   1      32.891  30.367  27.290  1.00  0.00     0.146 C 
ENDBRANCH  10  12
ENDBRANCH   8  10
BRANCH   8  17
ATOM     17  C   UNL A   1      29.883  28.114  22.744  1.00  0.00     0.380 C 
BRANCH  17  18
ATOM     18  C   UNL A   1      29.165  29.473  22.504  1.00  0.00     0.438 C 
ATOM     19  F   UNL A   1      28.086  29.370  21.706  1.00  0.00    -0.165 F 
ATOM     20  F   UNL A   1      28.713  29.958  23.691  1.00  0.00    -0.165 F 
ATOM     21  F   UNL A   1      29.998  30.400  21.988  1.00  0.00    -0.165 F 
ENDBRANCH  17  18
ENDBRANCH   8  17
ENDBRANCH   7   8
ENDBRANCH   4   7
ENDBRANCH   2   3
ENDBRANCH   1   2
BRANCH   1  22
ATOM     22  C   UNL A   1      35.796  23.753  26.069  1.00  0.00     0.023 C 
BRANCH  22  23
ATOM     23  C   UNL A   1      36.933  23.600  25.033  1.00  0.00     0.116 C 
BRANCH  23  24
ATOM     24  N   UNL A   1      37.955  22.630  25.332  1.00  0.00    -0.352 N 
ATOM     25  C   UNL A   1      39.130  22.828  26.025  1.00  0.00     0.251 C 
ATOM     26  H   UNL A   1      37.796  21.717  25.003  1.00  0.00     0.163 HD
ATOM     27  O   UNL A   1      39.964  21.916  26.066  1.00  0.00    -0.269 OA
BRANCH  25  28
ATOM     28  C   UNL A   1      39.456  24.112  26.702  1.00  0.00     0.039 A 
ATOM     29  C   UNL A   1      40.241  25.052  26.023  1.00  0.00     0.014 A 
ATOM     30  C   UNL A   1      39.138  24.338  28.046  1.00  0.00     0.014 A 
ATOM     31  C   UNL A   1      40.664  26.228  26.664  1.00  0.00     0.010 A 
ATOM     32  C   UNL A   1      39.552  25.524  28.683  1.00  0.00     0.010 A 
ATOM     33  C   UNL A   1      40.311  26.490  27.998  1.00  0.00    -0.014 A 
BRANCH  33  34
ATOM     34  C   UNL A   1      40.666  27.796  28.638  1.00  0.00     0.031 A 
ATOM     35  C   UNL A   1      39.654  28.901  28.810  1.00  0.00     0.074 A 
ATOM     36  C   UNL A   1      41.936  28.000  29.047  1.00  0.00     0.049 A 
ATOM     37  N   UNL A   1      39.813  30.091  29.341  1.00  0.00    -0.248 NA
ATOM     38  C   UNL A   1      38.293  28.646  28.319  1.00  0.00     0.031 C 
ATOM     39  C   UNL A   1      43.024  27.027  28.924  1.00  0.00     0.029 A 
ATOM     40  N   UNL A   1      42.533  29.088  29.640  1.00  0.00    -0.354 N 
ATOM     41  C   UNL A   1      38.580  30.728  29.239  1.00  0.00     0.074 A 
ATOM     42  C   UNL A   1      37.689  29.801  28.574  1.00  0.00     0.031 C 
ATOM     43  C   UNL A   1      44.150  27.556  29.429  1.00  0.00     0.029 A 
ATOM     44  C   UNL A   1      43.879  28.918  29.880  1.00  0.00     0.049 A 
ATOM     45  H   UNL A   1      42.045  29.910  29.871  1.00  0.00     0.167 HD
ATOM     46  C   UNL A   1      38.223  31.967  29.663  1.00  0.00     0.031 A 
ATOM     47  C   UNL A   1      44.799  29.763  30.387  1.00  0.00     0.031 A 
ATOM     48  C   UNL A   1      39.107  32.892  30.328  1.00  0.00     0.049 A 
ATOM     49  C   UNL A   1      44.378  31.143  30.817  1.00  0.00     0.074 A 
ATOM     50  C   UNL A   1      38.809  34.138  30.857  1.00  0.00     0.029 A 
ATOM     51  N   UNL A   1      40.459  32.683  30.540  1.00  0.00    -0.354 N 
ATOM     52  N   UNL A   1      43.185  31.683  30.802  1.00  0.00    -0.248 NA
ATOM     53  C   UNL A   1      45.431  32.028  31.337  1.00  0.00     0.031 C 
ATOM     54  C   UNL A   1      39.996  34.710  31.327  1.00  0.00     0.029 A 
ATOM     55  C   UNL A   1      41.020  33.796  31.148  1.00  0.00     0.049 A 
ATOM     56  H   UNL A   1      40.949  31.865  30.298  1.00  0.00     0.167 HD
ATOM     57  C   UNL A   1      43.341  32.961  31.324  1.00  0.00     0.074 A 
ATOM     58  C   UNL A   1      44.738  33.105  31.676  1.00  0.00     0.031 C 
ATOM     59  C   UNL A   1      42.411  33.932  31.489  1.00  0.00     0.031 A 
BRANCH  46  60
ATOM     60  C   UNL A   1      36.811  32.427  29.412  1.00  0.00    -0.014 A 
ATOM     61  C   UNL A   1      35.810  32.276  30.385  1.00  0.00     0.009 A 
ATOM     62  C   UNL A   1      36.502  33.113  28.226  1.00  0.00     0.009 A 
ATOM     63  C   UNL A   1      34.526  32.784  30.165  1.00  0.00     0.001 A 
ATOM     64  C   UNL A   1      35.225  33.640  28.018  1.00  0.00     0.001 A 
ATOM     65  C   UNL A   1      34.237  33.470  28.986  1.00  0.00     0.000 A 
ENDBRANCH  46  60
BRANCH  47  66
ATOM     66  C   UNL A   1      46.226  29.348  30.491  1.00  0.00    -0.014 A 
ATOM     67  C   UNL A   1      46.724  28.756  31.662  1.00  0.00     0.009 A 
ATOM     68  C   UNL A   1      47.110  29.585  29.426  1.00  0.00     0.009 A 
ATOM     69  C   UNL A   1      48.081  28.443  31.777  1.00  0.00     0.001 A 
ATOM     70  C   UNL A   1      48.459  29.238  29.530  1.00  0.00     0.001 A 
ATOM     71  C   UNL A   1      48.946  28.679  30.710  1.00  0.00     0.000 A 
ENDBRANCH  47  66
BRANCH  59  72
ATOM     72  C   UNL A   1      42.869  35.232  32.086  1.00  0.00    -0.014 A 
ATOM     73  C   UNL A   1      43.531  36.194  31.306  1.00  0.00     0.009 A 
ATOM     74  C   UNL A   1      42.594  35.522  33.432  1.00  0.00     0.009 A 
ATOM     75  C   UNL A   1      43.934  37.406  31.869  1.00  0.00     0.001 A 
ATOM     76  C   UNL A   1      42.971  36.747  33.984  1.00  0.00     0.001 A 
ATOM     77  C   UNL A   1      43.647  37.685  33.205  1.00  0.00     0.000 A 
ENDBRANCH  59  72
ENDBRANCH  33  34
ENDBRANCH  25  28
ENDBRANCH  23  24
ENDBRANCH  22  23
ENDBRANCH   1  22
TORSDOF 16
ENDMDL
