MODEL 1
REMARK VINA RESULT:     -10.7      0.000      0.000
REMARK SMILES [NH3+][C@]1(C(=O)NCCCCNC(=O)c2ccc(-c3c4nc(c(-c5ccccc5)c5ccc([nH]5)c(-c5ccccc5)c5nc(c(-c6ccccc6)c6ccc3[nH]6)C=C5)C=C4)cc2)CC[N@H+](Cc2ccccc2O)C1
REMARK SMILES IDX 7 1 6 2 5 3 3 4 4 5 2 7 61 8 72 9 62 10 63 11 1 13 64 17
REMARK SMILES IDX 65 18 66 19 70 20 67 21 69 22 68 23 71 24 8 26 9 27 10 28
REMARK SMILES IDX 11 29 12 31 13 32 14 33 60 34 15 35 59 36 16 37 17 38 18 39
REMARK SMILES IDX 53 40 19 41 58 42 52 43 54 44 20 45 57 46 51 47 50 48 21 50
REMARK SMILES IDX 43 51 28 52 42 53 29 54 32 55 41 56 55 57 30 58 31 59 40 61
REMARK SMILES IDX 56 62 33 63 22 64 23 65 27 66 24 67 26 68 25 69 44 70 45 71
REMARK SMILES IDX 49 72 46 73 48 74 47 75 34 76 35 77 39 78 36 79 38 80 37 81
REMARK H PARENT 5 6 63 12 1 14 1 15 1 16 71 25 10 30 54 49 32 60
REMARK Flexibility Score: inf
ROOT
ATOM      1  C   UNL A   1      35.295  31.210  27.744  1.00  0.00     0.023 C 
ENDROOT
BRANCH   1   2
ATOM      2  C   UNL A   1      34.993  29.778  27.308  1.00  0.00     0.116 C 
BRANCH   2   3
ATOM      3  N   UNL A   1      33.687  29.330  27.758  1.00  0.00    -0.350 N 
ATOM      4  C   UNL A   1      32.644  28.783  27.073  1.00  0.00     0.287 C 
ATOM      5  O   UNL A   1      31.642  28.492  27.739  1.00  0.00    -0.268 OA
ATOM      6  H   UNL A   1      33.528  29.440  28.724  1.00  0.00     0.163 HD
BRANCH   4   7
ATOM      7  C   UNL A   1      32.688  28.517  25.541  1.00  0.00     0.228 C 
ATOM      8  C   UNL A   1      33.517  27.302  25.154  1.00  0.00     0.146 C 
ATOM      9  C   UNL A   1      31.281  28.251  24.976  1.00  0.00     0.342 C 
ATOM     10  C   UNL A   1      32.744  26.612  24.044  1.00  0.00     0.270 C 
ATOM     11  N   UNL A   1      31.367  27.098  24.069  1.00  0.00    -0.325 N 
ATOM     12  H   UNL A   1      30.777  26.358  24.449  1.00  0.00     0.348 HD
BRANCH   7  13
ATOM     13  N   UNL A   1      33.286  29.711  24.876  1.00  0.00    -0.340 N 
ATOM     14  H   UNL A   1      34.156  29.444  24.415  1.00  0.00     0.345 HD
ATOM     15  H   UNL A   1      33.480  30.429  25.574  1.00  0.00     0.345 HD
ATOM     16  H   UNL A   1      32.634  30.079  24.184  1.00  0.00     0.345 HD
ENDBRANCH   7  13
BRANCH  11  17
ATOM     17  C   UNL A   1      30.746  27.288  22.748  1.00  0.00     0.303 C 
BRANCH  17  18
ATOM     18  C   UNL A   1      29.676  28.360  22.641  1.00  0.00     0.048 A 
ATOM     19  C   UNL A   1      28.372  28.050  23.081  1.00  0.00     0.013 A 
ATOM     20  C   UNL A   1      29.907  29.667  22.189  1.00  0.00     0.124 A 
ATOM     21  C   UNL A   1      27.378  29.025  23.162  1.00  0.00     0.001 A 
ATOM     22  C   UNL A   1      28.923  30.652  22.294  1.00  0.00     0.046 A 
ATOM     23  C   UNL A   1      27.663  30.336  22.795  1.00  0.00     0.004 A 
BRANCH  20  24
ATOM     24  O   UNL A   1      31.076  30.078  21.610  1.00  0.00    -0.507 OA
ATOM     25  H   UNL A   1      31.697  29.445  21.308  1.00  0.00     0.293 HD
ENDBRANCH  20  24
ENDBRANCH  17  18
ENDBRANCH  11  17
ENDBRANCH   4   7
ENDBRANCH   2   3
ENDBRANCH   1   2
BRANCH   1  26
ATOM     26  C   UNL A   1      34.066  32.095  27.940  1.00  0.00     0.023 C 
BRANCH  26  27
ATOM     27  C   UNL A   1      34.350  33.587  27.998  1.00  0.00     0.116 C 
BRANCH  27  28
ATOM     28  N   UNL A   1      33.672  34.259  29.096  1.00  0.00    -0.352 N 
ATOM     29  C   UNL A   1      33.991  34.253  30.434  1.00  0.00     0.251 C 
ATOM     30  H   UNL A   1      32.880  34.789  28.849  1.00  0.00     0.163 HD
ATOM     31  O   UNL A   1      33.255  34.784  31.254  1.00  0.00    -0.269 OA
BRANCH  29  32
ATOM     32  C   UNL A   1      35.218  33.558  30.872  1.00  0.00     0.039 A 
ATOM     33  C   UNL A   1      35.096  32.387  31.625  1.00  0.00     0.014 A 
ATOM     34  C   UNL A   1      36.476  34.032  30.494  1.00  0.00     0.014 A 
ATOM     35  C   UNL A   1      36.239  31.650  31.938  1.00  0.00     0.010 A 
ATOM     36  C   UNL A   1      37.603  33.258  30.741  1.00  0.00     0.010 A 
ATOM     37  C   UNL A   1      37.495  32.061  31.464  1.00  0.00    -0.014 A 
BRANCH  37  38
ATOM     38  C   UNL A   1      38.713  31.251  31.713  1.00  0.00     0.031 A 
ATOM     39  C   UNL A   1      39.603  31.572  32.880  1.00  0.00     0.074 A 
ATOM     40  C   UNL A   1      39.056  30.277  30.847  1.00  0.00     0.049 A 
ATOM     41  N   UNL A   1      40.741  31.027  33.223  1.00  0.00    -0.248 NA
ATOM     42  C   UNL A   1      39.171  32.671  33.760  1.00  0.00     0.031 C 
ATOM     43  C   UNL A   1      38.300  29.897  29.651  1.00  0.00     0.029 A 
ATOM     44  N   UNL A   1      40.136  29.431  30.840  1.00  0.00    -0.354 N 
ATOM     45  C   UNL A   1      41.171  31.729  34.342  1.00  0.00     0.074 A 
ATOM     46  C   UNL A   1      40.197  32.769  34.591  1.00  0.00     0.031 C 
ATOM     47  C   UNL A   1      38.925  28.875  29.043  1.00  0.00     0.029 A 
ATOM     48  C   UNL A   1      40.141  28.555  29.783  1.00  0.00     0.049 A 
ATOM     49  H   UNL A   1      40.841  29.451  31.527  1.00  0.00     0.167 HD
ATOM     50  C   UNL A   1      42.269  31.516  35.106  1.00  0.00     0.031 A 
ATOM     51  C   UNL A   1      41.028  27.600  29.445  1.00  0.00     0.031 A 
ATOM     52  C   UNL A   1      43.226  30.470  34.872  1.00  0.00     0.049 A 
ATOM     53  C   UNL A   1      42.237  27.381  30.312  1.00  0.00     0.074 A 
ATOM     54  C   UNL A   1      44.334  30.130  35.628  1.00  0.00     0.029 A 
ATOM     55  N   UNL A   1      43.187  29.594  33.799  1.00  0.00    -0.354 N 
ATOM     56  N   UNL A   1      42.592  28.008  31.407  1.00  0.00    -0.248 NA
ATOM     57  C   UNL A   1      43.161  26.316  29.898  1.00  0.00     0.031 C 
ATOM     58  C   UNL A   1      44.991  29.074  34.988  1.00  0.00     0.029 A 
ATOM     59  C   UNL A   1      44.263  28.726  33.860  1.00  0.00     0.049 A 
ATOM     60  H   UNL A   1      42.497  29.589  33.097  1.00  0.00     0.167 HD
ATOM     61  C   UNL A   1      43.765  27.396  31.829  1.00  0.00     0.074 A 
ATOM     62  C   UNL A   1      44.053  26.341  30.879  1.00  0.00     0.031 C 
ATOM     63  C   UNL A   1      44.534  27.681  32.908  1.00  0.00     0.031 A 
BRANCH  50  64
ATOM     64  C   UNL A   1      42.490  32.443  36.267  1.00  0.00    -0.014 A 
ATOM     65  C   UNL A   1      43.217  33.635  36.120  1.00  0.00     0.009 A 
ATOM     66  C   UNL A   1      41.941  32.132  37.522  1.00  0.00     0.009 A 
ATOM     67  C   UNL A   1      43.424  34.478  37.214  1.00  0.00     0.001 A 
ATOM     68  C   UNL A   1      42.124  32.992  38.607  1.00  0.00     0.001 A 
ATOM     69  C   UNL A   1      42.873  34.157  38.455  1.00  0.00     0.000 A 
ENDBRANCH  50  64
BRANCH  51  70
ATOM     70  C   UNL A   1      40.796  26.757  28.245  1.00  0.00    -0.014 A 
ATOM     71  C   UNL A   1      41.377  27.101  27.015  1.00  0.00     0.009 A 
ATOM     72  C   UNL A   1      39.990  25.611  28.318  1.00  0.00     0.009 A 
ATOM     73  C   UNL A   1      41.134  26.330  25.876  1.00  0.00     0.001 A 
ATOM     74  C   UNL A   1      39.770  24.826  27.183  1.00  0.00     0.001 A 
ATOM     75  C   UNL A   1      40.335  25.192  25.962  1.00  0.00     0.000 A 
ENDBRANCH  51  70
BRANCH  63  76
ATOM     76  C   UNL A   1      45.741  26.817  33.137  1.00  0.00    -0.014 A 
ATOM     77  C   UNL A   1      46.990  27.155  32.595  1.00  0.00     0.009 A 
ATOM     78  C   UNL A   1      45.631  25.672  33.941  1.00  0.00     0.009 A 
ATOM     79  C   UNL A   1      48.101  26.343  32.831  1.00  0.00     0.001 A 
ATOM     80  C   UNL A   1      46.748  24.877  34.197  1.00  0.00     0.001 A 
ATOM     81  C   UNL A   1      47.981  25.209  33.634  1.00  0.00     0.000 A 
ENDBRANCH  63  76
ENDBRANCH  37  38
ENDBRANCH  29  32
ENDBRANCH  27  28
ENDBRANCH  26  27
ENDBRANCH   1  26
TORSDOF 15
ENDMDL
MODEL 2
REMARK VINA RESULT:     -10.7      3.340      6.647
REMARK SMILES [NH3+][C@]1(C(=O)NCCCCNC(=O)c2ccc(-c3c4nc(c(-c5ccccc5)c5ccc([nH]5)c(-c5ccccc5)c5nc(c(-c6ccccc6)c6ccc3[nH]6)C=C5)C=C4)cc2)CC[N@H+](Cc2ccccc2O)C1
REMARK SMILES IDX 7 1 6 2 5 3 3 4 4 5 2 7 61 8 72 9 62 10 63 11 1 13 64 17
REMARK SMILES IDX 65 18 66 19 70 20 67 21 69 22 68 23 71 24 8 26 9 27 10 28
REMARK SMILES IDX 11 29 12 31 13 32 14 33 60 34 15 35 59 36 16 37 17 38 18 39
REMARK SMILES IDX 53 40 19 41 58 42 52 43 54 44 20 45 57 46 51 47 50 48 21 50
REMARK SMILES IDX 43 51 28 52 42 53 29 54 32 55 41 56 55 57 30 58 31 59 40 61
REMARK SMILES IDX 56 62 33 63 22 64 23 65 27 66 24 67 26 68 25 69 44 70 45 71
REMARK SMILES IDX 49 72 46 73 48 74 47 75 34 76 35 77 39 78 36 79 38 80 37 81
REMARK H PARENT 5 6 63 12 1 14 1 15 1 16 71 25 10 30 54 49 32 60
REMARK Flexibility Score: inf
ROOT
ATOM      1  C   UNL A   1      34.166  35.493  28.710  1.00  0.00     0.023 C 
ENDROOT
BRANCH   1   2
ATOM      2  C   UNL A   1      33.019  35.355  29.709  1.00  0.00     0.116 C 
BRANCH   2   3
ATOM      3  N   UNL A   1      32.805  36.573  30.469  1.00  0.00    -0.350 N 
ATOM      4  C   UNL A   1      33.135  36.896  31.751  1.00  0.00     0.287 C 
ATOM      5  O   UNL A   1      32.823  38.033  32.129  1.00  0.00    -0.268 OA
ATOM      6  H   UNL A   1      32.343  37.288  29.975  1.00  0.00     0.163 HD
BRANCH   4   7
ATOM      7  C   UNL A   1      33.876  35.915  32.704  1.00  0.00     0.228 C 
ATOM      8  C   UNL A   1      33.201  34.558  32.832  1.00  0.00     0.146 C 
ATOM      9  C   UNL A   1      35.303  35.619  32.208  1.00  0.00     0.342 C 
ATOM     10  C   UNL A   1      34.326  33.538  32.848  1.00  0.00     0.270 C 
ATOM     11  N   UNL A   1      35.533  34.172  32.324  1.00  0.00    -0.325 N 
ATOM     12  H   UNL A   1      35.700  33.808  31.387  1.00  0.00     0.348 HD
BRANCH   7  13
ATOM     13  N   UNL A   1      33.926  36.531  34.063  1.00  0.00    -0.340 N 
ATOM     14  H   UNL A   1      33.008  36.907  34.300  1.00  0.00     0.345 HD
ATOM     15  H   UNL A   1      34.613  37.285  34.069  1.00  0.00     0.345 HD
ATOM     16  H   UNL A   1      34.192  35.824  34.748  1.00  0.00     0.345 HD
ENDBRANCH   7  13
BRANCH  11  17
ATOM     17  C   UNL A   1      36.784  33.785  32.994  1.00  0.00     0.303 C 
BRANCH  17  18
ATOM     18  C   UNL A   1      38.048  33.805  32.151  1.00  0.00     0.048 A 
ATOM     19  C   UNL A   1      37.957  33.407  30.800  1.00  0.00     0.013 A 
ATOM     20  C   UNL A   1      39.297  34.252  32.605  1.00  0.00     0.124 A 
ATOM     21  C   UNL A   1      39.034  33.549  29.924  1.00  0.00     0.001 A 
ATOM     22  C   UNL A   1      40.367  34.421  31.726  1.00  0.00     0.046 A 
ATOM     23  C   UNL A   1      40.233  34.084  30.382  1.00  0.00     0.004 A 
BRANCH  20  24
ATOM     24  O   UNL A   1      39.572  34.542  33.913  1.00  0.00    -0.507 OA
ATOM     25  H   UNL A   1      39.822  35.412  34.158  1.00  0.00     0.293 HD
ENDBRANCH  20  24
ENDBRANCH  17  18
ENDBRANCH  11  17
ENDBRANCH   4   7
ENDBRANCH   2   3
ENDBRANCH   1   2
BRANCH   1  26
ATOM     26  C   UNL A   1      35.034  34.247  28.552  1.00  0.00     0.023 C 
BRANCH  26  27
ATOM     27  C   UNL A   1      34.482  32.990  29.207  1.00  0.00     0.116 C 
BRANCH  27  28
ATOM     28  N   UNL A   1      33.996  32.009  28.248  1.00  0.00    -0.352 N 
ATOM     29  C   UNL A   1      34.602  30.848  27.826  1.00  0.00     0.251 C 
ATOM     30  H   UNL A   1      33.118  32.201  27.847  1.00  0.00     0.163 HD
ATOM     31  O   UNL A   1      34.112  30.179  26.928  1.00  0.00    -0.269 OA
BRANCH  29  32
ATOM     32  C   UNL A   1      35.878  30.443  28.448  1.00  0.00     0.039 A 
ATOM     33  C   UNL A   1      35.844  29.679  29.617  1.00  0.00     0.014 A 
ATOM     34  C   UNL A   1      37.096  30.771  27.848  1.00  0.00     0.014 A 
ATOM     35  C   UNL A   1      37.036  29.181  30.146  1.00  0.00     0.010 A 
ATOM     36  C   UNL A   1      38.272  30.211  28.332  1.00  0.00     0.010 A 
ATOM     37  C   UNL A   1      38.253  29.412  29.485  1.00  0.00    -0.014 A 
BRANCH  37  38
ATOM     38  C   UNL A   1      39.522  28.825  29.982  1.00  0.00     0.031 A 
ATOM     39  C   UNL A   1      40.189  29.398  31.200  1.00  0.00     0.074 A 
ATOM     40  C   UNL A   1      40.109  27.826  29.294  1.00  0.00     0.049 A 
ATOM     41  N   UNL A   1      41.331  29.068  31.746  1.00  0.00    -0.248 NA
ATOM     42  C   UNL A   1      39.495  30.508  31.874  1.00  0.00     0.031 C 
ATOM     43  C   UNL A   1      39.586  27.211  28.072  1.00  0.00     0.029 A 
ATOM     44  N   UNL A   1      41.283  27.155  29.526  1.00  0.00    -0.354 N 
ATOM     45  C   UNL A   1      41.502  29.943  32.812  1.00  0.00     0.074 A 
ATOM     46  C   UNL A   1      40.373  30.846  32.807  1.00  0.00     0.031 C 
ATOM     47  C   UNL A   1      40.421  26.235  27.678  1.00  0.00     0.029 A 
ATOM     48  C   UNL A   1      41.552  26.180  28.597  1.00  0.00     0.049 A 
ATOM     49  H   UNL A   1      41.876  27.352  30.287  1.00  0.00     0.167 HD
ATOM     50  C   UNL A   1      42.501  29.979  33.726  1.00  0.00     0.031 A 
ATOM     51  C   UNL A   1      42.598  25.338  28.494  1.00  0.00     0.031 A 
ATOM     52  C   UNL A   1      43.612  29.068  33.744  1.00  0.00     0.049 A 
ATOM     53  C   UNL A   1      43.692  25.396  29.523  1.00  0.00     0.074 A 
ATOM     54  C   UNL A   1      44.639  28.980  34.668  1.00  0.00     0.029 A 
ATOM     55  N   UNL A   1      43.841  28.086  32.794  1.00  0.00    -0.354 N 
ATOM     56  N   UNL A   1      43.804  26.183  30.566  1.00  0.00    -0.248 NA
ATOM     57  C   UNL A   1      44.800  24.443  29.363  1.00  0.00     0.031 C 
ATOM     58  C   UNL A   1      45.515  27.971  34.251  1.00  0.00     0.029 A 
ATOM     59  C   UNL A   1      45.005  27.400  33.096  1.00  0.00     0.049 A 
ATOM     60  H   UNL A   1      43.263  27.903  32.019  1.00  0.00     0.167 HD
ATOM     61  C   UNL A   1      44.977  25.801  31.202  1.00  0.00     0.074 A 
ATOM     62  C   UNL A   1      45.534  24.706  30.435  1.00  0.00     0.031 C 
ATOM     63  C   UNL A   1      45.543  26.311  32.323  1.00  0.00     0.031 A 
BRANCH  50  64
ATOM     64  C   UNL A   1      42.432  31.047  34.780  1.00  0.00    -0.014 A 
ATOM     65  C   UNL A   1      42.917  32.342  34.538  1.00  0.00     0.009 A 
ATOM     66  C   UNL A   1      41.849  30.762  36.025  1.00  0.00     0.009 A 
ATOM     67  C   UNL A   1      42.856  33.319  35.533  1.00  0.00     0.001 A 
ATOM     68  C   UNL A   1      41.763  31.749  37.009  1.00  0.00     0.001 A 
ATOM     69  C   UNL A   1      42.275  33.022  36.766  1.00  0.00     0.000 A 
ENDBRANCH  50  64
BRANCH  51  70
ATOM     70  C   UNL A   1      42.651  24.347  27.390  1.00  0.00    -0.014 A 
ATOM     71  C   UNL A   1      42.109  23.064  27.562  1.00  0.00     0.009 A 
ATOM     72  C   UNL A   1      43.246  24.672  26.161  1.00  0.00     0.009 A 
ATOM     73  C   UNL A   1      42.186  22.118  26.538  1.00  0.00     0.001 A 
ATOM     74  C   UNL A   1      43.298  23.733  25.128  1.00  0.00     0.001 A 
ATOM     75  C   UNL A   1      42.776  22.454  25.321  1.00  0.00     0.000 A 
ENDBRANCH  51  70
BRANCH  63  76
ATOM     76  C   UNL A   1      46.811  25.667  32.806  1.00  0.00    -0.014 A 
ATOM     77  C   UNL A   1      48.062  26.067  32.314  1.00  0.00     0.009 A 
ATOM     78  C   UNL A   1      46.750  24.675  33.797  1.00  0.00     0.009 A 
ATOM     79  C   UNL A   1      49.229  25.461  32.786  1.00  0.00     0.001 A 
ATOM     80  C   UNL A   1      47.919  24.091  34.285  1.00  0.00     0.001 A 
ATOM     81  C   UNL A   1      49.157  24.479  33.773  1.00  0.00     0.000 A 
ENDBRANCH  63  76
ENDBRANCH  37  38
ENDBRANCH  29  32
ENDBRANCH  27  28
ENDBRANCH  26  27
ENDBRANCH   1  26
TORSDOF 15
ENDMDL
MODEL 3
REMARK VINA RESULT:     -10.7      3.129      5.503
REMARK SMILES [NH3+][C@]1(C(=O)NCCCCNC(=O)c2ccc(-c3c4nc(c(-c5ccccc5)c5ccc([nH]5)c(-c5ccccc5)c5nc(c(-c6ccccc6)c6ccc3[nH]6)C=C5)C=C4)cc2)CC[N@H+](Cc2ccccc2O)C1
REMARK SMILES IDX 7 1 6 2 5 3 3 4 4 5 2 7 61 8 72 9 62 10 63 11 1 13 64 17
REMARK SMILES IDX 65 18 66 19 70 20 67 21 69 22 68 23 71 24 8 26 9 27 10 28
REMARK SMILES IDX 11 29 12 31 13 32 14 33 60 34 15 35 59 36 16 37 17 38 18 39
REMARK SMILES IDX 53 40 19 41 58 42 52 43 54 44 20 45 57 46 51 47 50 48 21 50
REMARK SMILES IDX 43 51 28 52 42 53 29 54 32 55 41 56 55 57 30 58 31 59 40 61
REMARK SMILES IDX 56 62 33 63 22 64 23 65 27 66 24 67 26 68 25 69 44 70 45 71
REMARK SMILES IDX 49 72 46 73 48 74 47 75 34 76 35 77 39 78 36 79 38 80 37 81
REMARK H PARENT 5 6 63 12 1 14 1 15 1 16 71 25 10 30 54 49 32 60
REMARK Flexibility Score: inf
ROOT
ATOM      1  C   UNL A   1      32.822  28.586  24.803  1.00  0.00     0.023 C 
ENDROOT
BRANCH   1   2
ATOM      2  C   UNL A   1      32.351  27.227  24.288  1.00  0.00     0.116 C 
BRANCH   2   3
ATOM      3  N   UNL A   1      30.957  26.974  24.606  1.00  0.00    -0.350 N 
ATOM      4  C   UNL A   1      30.338  25.858  25.084  1.00  0.00     0.287 C 
ATOM      5  O   UNL A   1      29.116  25.943  25.265  1.00  0.00    -0.268 OA
ATOM      6  H   UNL A   1      30.356  27.738  24.450  1.00  0.00     0.163 HD
BRANCH   4   7
ATOM      7  C   UNL A   1      31.102  24.541  25.405  1.00  0.00     0.228 C 
ATOM      8  C   UNL A   1      31.528  23.764  24.169  1.00  0.00     0.146 C 
ATOM      9  C   UNL A   1      32.400  24.821  26.183  1.00  0.00     0.342 C 
ATOM     10  C   UNL A   1      32.922  23.241  24.472  1.00  0.00     0.270 C 
ATOM     11  N   UNL A   1      33.469  24.005  25.590  1.00  0.00    -0.325 N 
ATOM     12  H   UNL A   1      34.178  24.639  25.223  1.00  0.00     0.348 HD
BRANCH   7  13
ATOM     13  N   UNL A   1      30.203  23.664  26.211  1.00  0.00    -0.340 N 
ATOM     14  H   UNL A   1      30.362  23.835  27.204  1.00  0.00     0.345 HD
ATOM     15  H   UNL A   1      30.403  22.686  26.000  1.00  0.00     0.345 HD
ATOM     16  H   UNL A   1      29.231  23.869  25.982  1.00  0.00     0.345 HD
ENDBRANCH   7  13
BRANCH  11  17
ATOM     17  C   UNL A   1      34.271  23.225  26.547  1.00  0.00     0.303 C 
BRANCH  17  18
ATOM     18  C   UNL A   1      35.634  22.751  26.072  1.00  0.00     0.048 A 
ATOM     19  C   UNL A   1      36.701  23.675  26.073  1.00  0.00     0.013 A 
ATOM     20  C   UNL A   1      35.926  21.435  25.689  1.00  0.00     0.124 A 
ATOM     21  C   UNL A   1      38.011  23.276  25.804  1.00  0.00     0.001 A 
ATOM     22  C   UNL A   1      37.238  21.027  25.446  1.00  0.00     0.046 A 
ATOM     23  C   UNL A   1      38.284  21.943  25.519  1.00  0.00     0.004 A 
BRANCH  20  24
ATOM     24  O   UNL A   1      34.978  20.465  25.511  1.00  0.00    -0.507 OA
ATOM     25  H   UNL A   1      35.189  19.685  25.037  1.00  0.00     0.293 HD
ENDBRANCH  20  24
ENDBRANCH  17  18
ENDBRANCH  11  17
ENDBRANCH   4   7
ENDBRANCH   2   3
ENDBRANCH   1   2
BRANCH   1  26
ATOM     26  C   UNL A   1      33.947  28.528  25.833  1.00  0.00     0.023 C 
BRANCH  26  27
ATOM     27  C   UNL A   1      33.511  28.739  27.275  1.00  0.00     0.116 C 
BRANCH  27  28
ATOM     28  N   UNL A   1      33.531  30.136  27.683  1.00  0.00    -0.352 N 
ATOM     29  C   UNL A   1      34.558  30.847  28.259  1.00  0.00     0.251 C 
ATOM     30  H   UNL A   1      32.700  30.638  27.527  1.00  0.00     0.163 HD
ATOM     31  O   UNL A   1      34.384  31.993  28.646  1.00  0.00    -0.269 OA
BRANCH  29  32
ATOM     32  C   UNL A   1      35.867  30.188  28.442  1.00  0.00     0.039 A 
ATOM     33  C   UNL A   1      36.795  30.236  27.399  1.00  0.00     0.014 A 
ATOM     34  C   UNL A   1      36.191  29.577  29.655  1.00  0.00     0.014 A 
ATOM     35  C   UNL A   1      38.081  29.730  27.601  1.00  0.00     0.010 A 
ATOM     36  C   UNL A   1      37.493  29.144  29.879  1.00  0.00     0.010 A 
ATOM     37  C   UNL A   1      38.449  29.217  28.855  1.00  0.00    -0.014 A 
BRANCH  37  38
ATOM     38  C   UNL A   1      39.832  28.751  29.120  1.00  0.00     0.031 A 
ATOM     39  C   UNL A   1      40.825  29.674  29.766  1.00  0.00     0.074 A 
ATOM     40  C   UNL A   1      40.212  27.524  28.712  1.00  0.00     0.049 A 
ATOM     41  N   UNL A   1      42.094  29.476  30.017  1.00  0.00    -0.248 NA
ATOM     42  C   UNL A   1      40.335  31.008  30.153  1.00  0.00     0.031 C 
ATOM     43  C   UNL A   1      39.356  26.549  28.033  1.00  0.00     0.029 A 
ATOM     44  N   UNL A   1      41.426  26.891  28.806  1.00  0.00    -0.354 N 
ATOM     45  C   UNL A   1      42.557  30.663  30.569  1.00  0.00     0.074 A 
ATOM     46  C   UNL A   1      41.448  31.591  30.573  1.00  0.00     0.031 C 
ATOM     47  C   UNL A   1      40.063  25.431  27.798  1.00  0.00     0.029 A 
ATOM     48  C   UNL A   1      41.428  25.625  28.274  1.00  0.00     0.049 A 
ATOM     49  H   UNL A   1      42.220  27.305  29.215  1.00  0.00     0.167 HD
ATOM     50  C   UNL A   1      43.791  30.950  31.048  1.00  0.00     0.031 A 
ATOM     51  C   UNL A   1      42.421  24.720  28.179  1.00  0.00     0.031 A 
ATOM     52  C   UNL A   1      44.887  30.021  31.064  1.00  0.00     0.049 A 
ATOM     53  C   UNL A   1      43.780  25.062  28.721  1.00  0.00     0.074 A 
ATOM     54  C   UNL A   1      46.156  30.194  31.589  1.00  0.00     0.029 A 
ATOM     55  N   UNL A   1      44.844  28.743  30.530  1.00  0.00    -0.354 N 
ATOM     56  N   UNL A   1      44.183  26.165  29.305  1.00  0.00    -0.248 NA
ATOM     57  C   UNL A   1      44.818  24.029  28.599  1.00  0.00     0.031 C 
ATOM     58  C   UNL A   1      46.895  29.034  31.334  1.00  0.00     0.029 A 
ATOM     59  C   UNL A   1      46.071  28.123  30.694  1.00  0.00     0.049 A 
ATOM     60  H   UNL A   1      44.059  28.337  30.098  1.00  0.00     0.167 HD
ATOM     61  C   UNL A   1      45.512  25.948  29.644  1.00  0.00     0.074 A 
ATOM     62  C   UNL A   1      45.842  24.605  29.213  1.00  0.00     0.031 C 
ATOM     63  C   UNL A   1      46.381  26.785  30.260  1.00  0.00     0.031 A 
BRANCH  50  64
ATOM     64  C   UNL A   1      44.014  32.333  31.591  1.00  0.00    -0.014 A 
ATOM     65  C   UNL A   1      43.790  32.628  32.945  1.00  0.00     0.009 A 
ATOM     66  C   UNL A   1      44.478  33.349  30.742  1.00  0.00     0.009 A 
ATOM     67  C   UNL A   1      43.989  33.922  33.430  1.00  0.00     0.001 A 
ATOM     68  C   UNL A   1      44.705  34.636  31.235  1.00  0.00     0.001 A 
ATOM     69  C   UNL A   1      44.451  34.923  32.576  1.00  0.00     0.000 A 
ENDBRANCH  50  64
BRANCH  51  70
ATOM     70  C   UNL A   1      42.162  23.392  27.568  1.00  0.00    -0.014 A 
ATOM     71  C   UNL A   1      41.549  22.375  28.315  1.00  0.00     0.009 A 
ATOM     72  C   UNL A   1      42.531  23.129  26.239  1.00  0.00     0.009 A 
ATOM     73  C   UNL A   1      41.335  21.114  27.754  1.00  0.00     0.001 A 
ATOM     74  C   UNL A   1      42.291  21.875  25.672  1.00  0.00     0.001 A 
ATOM     75  C   UNL A   1      41.702  20.866  26.433  1.00  0.00     0.000 A 
ENDBRANCH  51  70
BRANCH  63  76
ATOM     76  C   UNL A   1      47.761  26.261  30.534  1.00  0.00    -0.014 A 
ATOM     77  C   UNL A   1      48.105  25.745  31.792  1.00  0.00     0.009 A 
ATOM     78  C   UNL A   1      48.715  26.246  29.505  1.00  0.00     0.009 A 
ATOM     79  C   UNL A   1      49.392  25.252  32.022  1.00  0.00     0.001 A 
ATOM     80  C   UNL A   1      49.990  25.729  29.729  1.00  0.00     0.001 A 
ATOM     81  C   UNL A   1      50.331  25.239  30.991  1.00  0.00     0.000 A 
ENDBRANCH  63  76
ENDBRANCH  37  38
ENDBRANCH  29  32
ENDBRANCH  27  28
ENDBRANCH  26  27
ENDBRANCH   1  26
TORSDOF 15
ENDMDL
