MODEL 1
REMARK VINA RESULT:     -11.6      0.000      0.000
REMARK SMILES COc1ccc2c(c1OC)C(=O)O[C@@H]2Nc1nonc1C(=O)NCCCCNC(=O)c1ccc(-c2c3nc(c(-c4ccccc4)c4ccc([nH]4)c(-c4ccccc4)c4nc(c(-c5ccccc5)c5ccc2[nH]5)C=C4)C=C3)cc1
REMARK SMILES IDX 25 1 24 2 23 3 21 4 22 5 20 7 16 8 17 9 18 10 19 11 15 12
REMARK SMILES IDX 14 14 3 15 4 16 8 17 5 18 7 19 6 20 11 21 12 22 13 23 2 24
REMARK SMILES IDX 1 25 9 26 10 27 26 28 27 29 28 30 29 31 30 33 31 34 32 35
REMARK SMILES IDX 78 36 33 37 77 38 34 39 35 40 36 41 71 42 37 43 76 44 70 45
REMARK SMILES IDX 72 46 38 47 75 48 69 49 68 50 39 52 61 53 46 54 60 55 47 56
REMARK SMILES IDX 50 57 59 58 73 59 48 60 49 61 58 63 74 64 51 65 40 66 41 67
REMARK SMILES IDX 45 68 42 69 44 70 43 71 62 72 63 73 67 74 64 75 66 76 65 77
REMARK SMILES IDX 52 78 53 79 57 80 54 81 56 82 55 83
REMARK H PARENT 23 6 15 13 28 32 72 51 50 62
REMARK Flexibility Score: inf
ROOT
ATOM      1  C   UNL A   1      31.777  29.416  26.981  1.00  0.00     0.023 C 
ENDROOT
BRANCH   1   2
ATOM      2  C   UNL A   1      32.135  27.931  26.809  1.00  0.00     0.116 C 
BRANCH   2   3
ATOM      3  N   UNL A   1      31.073  26.948  26.975  1.00  0.00    -0.350 N 
ATOM      4  C   UNL A   1      30.513  26.132  25.994  1.00  0.00     0.277 C 
ATOM      5  O   UNL A   1      29.702  25.277  26.359  1.00  0.00    -0.267 OA
ATOM      6  H   UNL A   1      30.710  26.848  27.885  1.00  0.00     0.163 HD
BRANCH   4   7
ATOM      7  C   UNL A   1      30.871  26.287  24.584  1.00  0.00     0.216 A 
ATOM      8  C   UNL A   1      31.897  25.708  23.795  1.00  0.00     0.207 A 
ATOM      9  N   UNL A   1      31.905  26.272  22.591  1.00  0.00    -0.031 NA
ATOM     10  O   UNL A   1      30.807  27.112  22.573  1.00  0.00    -0.242 OA
ATOM     11  N   UNL A   1      30.154  27.104  23.795  1.00  0.00    -0.042 NA
BRANCH   8  12
ATOM     12  N   UNL A   1      32.815  24.790  24.166  1.00  0.00    -0.326 N 
ATOM     13  H   UNL A   1      32.998  24.644  25.122  1.00  0.00     0.166 HD
BRANCH  12  14
ATOM     14  C   UNL A   1      33.531  24.020  23.176  1.00  0.00     0.307 C 
ATOM     15  C   UNL A   1      33.810  20.094  24.611  1.00  0.00     0.161 A 
ATOM     16  C   UNL A   1      32.657  20.404  23.894  1.00  0.00     0.051 A 
ATOM     17  C   UNL A   1      34.925  21.006  24.692  1.00  0.00     0.175 A 
ATOM     18  C   UNL A   1      32.529  21.651  23.320  1.00  0.00     0.014 A 
ATOM     19  C   UNL A   1      34.730  22.268  24.160  1.00  0.00     0.114 A 
ATOM     20  C   UNL A   1      33.539  22.583  23.519  1.00  0.00     0.032 A 
ATOM     21  C   UNL A   1      35.538  23.501  24.155  1.00  0.00     0.344 C 
ATOM     22  O   UNL A   1      36.546  23.783  24.757  1.00  0.00    -0.246 OA
ATOM     23  O   UNL A   1      34.897  24.382  23.333  1.00  0.00    -0.434 OA
BRANCH  15  24
ATOM     24  O   UNL A   1      33.806  18.865  25.221  1.00  0.00    -0.493 OA
ATOM     25  C   UNL A   1      32.572  18.114  25.233  1.00  0.00     0.278 C 
ENDBRANCH  15  24
BRANCH  17  26
ATOM     26  O   UNL A   1      36.028  20.573  25.349  1.00  0.00    -0.492 OA
ATOM     27  C   UNL A   1      37.281  20.272  24.743  1.00  0.00     0.278 C 
ENDBRANCH  17  26
ENDBRANCH  12  14
ENDBRANCH   8  12
ENDBRANCH   4   7
ENDBRANCH   2   3
ENDBRANCH   1   2
BRANCH   1  28
ATOM     28  C   UNL A   1      31.591  30.370  25.748  1.00  0.00     0.023 C 
BRANCH  28  29
ATOM     29  C   UNL A   1      31.215  31.858  25.984  1.00  0.00     0.116 C 
BRANCH  29  30
ATOM     30  N   UNL A   1      31.680  32.518  27.263  1.00  0.00    -0.352 N 
ATOM     31  C   UNL A   1      32.870  33.191  27.654  1.00  0.00     0.251 C 
ATOM     32  H   UNL A   1      31.011  32.471  27.984  1.00  0.00     0.163 HD
ATOM     33  O   UNL A   1      32.745  34.371  27.998  1.00  0.00    -0.269 OA
BRANCH  31  34
ATOM     34  C   UNL A   1      34.196  32.538  28.022  1.00  0.00     0.039 A 
ATOM     35  C   UNL A   1      35.349  33.310  28.145  1.00  0.00     0.014 A 
ATOM     36  C   UNL A   1      34.433  31.161  28.057  1.00  0.00     0.014 A 
ATOM     37  C   UNL A   1      36.585  32.738  28.567  1.00  0.00     0.010 A 
ATOM     38  C   UNL A   1      35.581  30.613  28.672  1.00  0.00     0.010 A 
ATOM     39  C   UNL A   1      36.691  31.394  28.973  1.00  0.00    -0.014 A 
BRANCH  39  40
ATOM     40  C   UNL A   1      37.903  30.822  29.681  1.00  0.00     0.031 A 
ATOM     41  C   UNL A   1      38.217  31.141  31.139  1.00  0.00     0.074 A 
ATOM     42  C   UNL A   1      38.799  30.052  29.015  1.00  0.00     0.049 A 
ATOM     43  N   UNL A   1      39.205  30.704  31.891  1.00  0.00    -0.248 NA
ATOM     44  C   UNL A   1      37.334  32.088  31.837  1.00  0.00     0.031 C 
ATOM     45  C   UNL A   1      38.743  29.715  27.591  1.00  0.00     0.029 A 
ATOM     46  N   UNL A   1      39.938  29.398  29.449  1.00  0.00    -0.354 N 
ATOM     47  C   UNL A   1      39.055  31.324  33.130  1.00  0.00     0.074 A 
ATOM     48  C   UNL A   1      37.947  32.241  32.999  1.00  0.00     0.031 C 
ATOM     49  C   UNL A   1      39.743  28.869  27.289  1.00  0.00     0.029 A 
ATOM     50  C   UNL A   1      40.550  28.626  28.482  1.00  0.00     0.049 A 
ATOM     51  H   UNL A   1      40.283  29.478  30.368  1.00  0.00     0.167 HD
ATOM     52  C   UNL A   1      39.722  31.126  34.296  1.00  0.00     0.031 A 
ATOM     53  C   UNL A   1      41.621  27.803  28.537  1.00  0.00     0.031 A 
ATOM     54  C   UNL A   1      40.817  30.214  34.476  1.00  0.00     0.049 A 
ATOM     55  C   UNL A   1      42.362  27.606  29.838  1.00  0.00     0.074 A 
ATOM     56  C   UNL A   1      41.511  29.917  35.639  1.00  0.00     0.029 A 
ATOM     57  N   UNL A   1      41.380  29.451  33.468  1.00  0.00    -0.354 N 
ATOM     58  N   UNL A   1      42.118  28.122  31.018  1.00  0.00    -0.248 NA
ATOM     59  C   UNL A   1      43.521  26.695  29.819  1.00  0.00     0.031 C 
ATOM     60  C   UNL A   1      42.529  29.014  35.321  1.00  0.00     0.029 A 
ATOM     61  C   UNL A   1      42.423  28.698  33.978  1.00  0.00     0.049 A 
ATOM     62  H   UNL A   1      41.082  29.445  32.529  1.00  0.00     0.167 HD
ATOM     63  C   UNL A   1      43.056  27.563  31.881  1.00  0.00     0.074 A 
ATOM     64  C   UNL A   1      43.872  26.664  31.097  1.00  0.00     0.031 C 
ATOM     65  C   UNL A   1      43.218  27.777  33.209  1.00  0.00     0.031 A 
BRANCH  52  66
ATOM     66  C   UNL A   1      39.256  31.914  35.495  1.00  0.00    -0.014 A 
ATOM     67  C   UNL A   1      39.777  33.191  35.767  1.00  0.00     0.009 A 
ATOM     68  C   UNL A   1      38.282  31.385  36.355  1.00  0.00     0.009 A 
ATOM     69  C   UNL A   1      39.381  33.891  36.908  1.00  0.00     0.001 A 
ATOM     70  C   UNL A   1      37.860  32.105  37.476  1.00  0.00     0.001 A 
ATOM     71  C   UNL A   1      38.423  33.348  37.760  1.00  0.00     0.000 A 
ENDBRANCH  52  66
BRANCH  53  72
ATOM     72  C   UNL A   1      42.071  27.048  27.326  1.00  0.00    -0.014 A 
ATOM     73  C   UNL A   1      41.620  25.737  27.091  1.00  0.00     0.009 A 
ATOM     74  C   UNL A   1      43.014  27.599  26.445  1.00  0.00     0.009 A 
ATOM     75  C   UNL A   1      42.135  24.982  26.031  1.00  0.00     0.001 A 
ATOM     76  C   UNL A   1      43.502  26.854  25.365  1.00  0.00     0.001 A 
ATOM     77  C   UNL A   1      43.075  25.543  25.168  1.00  0.00     0.000 A 
ENDBRANCH  53  72
BRANCH  65  78
ATOM     78  C   UNL A   1      44.267  26.984  33.941  1.00  0.00    -0.014 A 
ATOM     79  C   UNL A   1      45.571  27.468  34.119  1.00  0.00     0.009 A 
ATOM     80  C   UNL A   1      43.907  25.769  34.549  1.00  0.00     0.009 A 
ATOM     81  C   UNL A   1      46.496  26.745  34.877  1.00  0.00     0.001 A 
ATOM     82  C   UNL A   1      44.824  25.064  35.330  1.00  0.00     0.001 A 
ATOM     83  C   UNL A   1      46.119  25.550  35.490  1.00  0.00     0.000 A 
ENDBRANCH  65  78
ENDBRANCH  39  40
ENDBRANCH  31  34
ENDBRANCH  29  30
ENDBRANCH  28  29
ENDBRANCH   1  28
TORSDOF 15
ENDMDL
MODEL 2
REMARK VINA RESULT:     -11.1      3.634      9.263
REMARK SMILES COc1ccc2c(c1OC)C(=O)O[C@@H]2Nc1nonc1C(=O)NCCCCNC(=O)c1ccc(-c2c3nc(c(-c4ccccc4)c4ccc([nH]4)c(-c4ccccc4)c4nc(c(-c5ccccc5)c5ccc2[nH]5)C=C4)C=C3)cc1
REMARK SMILES IDX 25 1 24 2 23 3 21 4 22 5 20 7 16 8 17 9 18 10 19 11 15 12
REMARK SMILES IDX 14 14 3 15 4 16 8 17 5 18 7 19 6 20 11 21 12 22 13 23 2 24
REMARK SMILES IDX 1 25 9 26 10 27 26 28 27 29 28 30 29 31 30 33 31 34 32 35
REMARK SMILES IDX 78 36 33 37 77 38 34 39 35 40 36 41 71 42 37 43 76 44 70 45
REMARK SMILES IDX 72 46 38 47 75 48 69 49 68 50 39 52 61 53 46 54 60 55 47 56
REMARK SMILES IDX 50 57 59 58 73 59 48 60 49 61 58 63 74 64 51 65 40 66 41 67
REMARK SMILES IDX 45 68 42 69 44 70 43 71 62 72 63 73 67 74 64 75 66 76 65 77
REMARK SMILES IDX 52 78 53 79 57 80 54 81 56 82 55 83
REMARK H PARENT 23 6 15 13 28 32 72 51 50 62
REMARK Flexibility Score: inf
ROOT
ATOM      1  C   UNL A   1      35.252  22.652  25.477  1.00  0.00     0.023 C 
ENDROOT
BRANCH   1   2
ATOM      2  C   UNL A   1      33.717  22.633  25.551  1.00  0.00     0.116 C 
BRANCH   2   3
ATOM      3  N   UNL A   1      32.995  21.812  24.588  1.00  0.00    -0.350 N 
ATOM      4  C   UNL A   1      32.660  22.143  23.276  1.00  0.00     0.277 C 
ATOM      5  O   UNL A   1      32.148  21.263  22.580  1.00  0.00    -0.267 OA
ATOM      6  H   UNL A   1      32.714  20.921  24.899  1.00  0.00     0.163 HD
BRANCH   4   7
ATOM      7  C   UNL A   1      32.900  23.486  22.748  1.00  0.00     0.216 A 
ATOM      8  C   UNL A   1      32.038  24.590  22.530  1.00  0.00     0.207 A 
ATOM      9  N   UNL A   1      32.698  25.554  21.896  1.00  0.00    -0.031 NA
ATOM     10  O   UNL A   1      34.008  25.115  21.827  1.00  0.00    -0.242 OA
ATOM     11  N   UNL A   1      34.139  23.849  22.375  1.00  0.00    -0.042 NA
BRANCH   8  12
ATOM     12  N   UNL A   1      30.721  24.686  22.814  1.00  0.00    -0.326 N 
ATOM     13  H   UNL A   1      30.057  24.401  22.145  1.00  0.00     0.166 HD
BRANCH  12  14
ATOM     14  C   UNL A   1      30.277  25.203  24.087  1.00  0.00     0.307 C 
ATOM     15  C   UNL A   1      29.670  29.322  23.615  1.00  0.00     0.161 A 
ATOM     16  C   UNL A   1      28.590  28.503  23.293  1.00  0.00     0.051 A 
ATOM     17  C   UNL A   1      30.856  28.804  24.252  1.00  0.00     0.175 A 
ATOM     18  C   UNL A   1      28.685  27.142  23.500  1.00  0.00     0.014 A 
ATOM     19  C   UNL A   1      30.937  27.430  24.380  1.00  0.00     0.114 A 
ATOM     20  C   UNL A   1      29.881  26.623  23.979  1.00  0.00     0.032 A 
ATOM     21  C   UNL A   1      32.002  26.516  24.835  1.00  0.00     0.344 C 
ATOM     22  O   UNL A   1      33.165  26.725  25.083  1.00  0.00    -0.246 OA
ATOM     23  O   UNL A   1      31.446  25.271  24.894  1.00  0.00    -0.434 OA
BRANCH  15  24
ATOM     24  O   UNL A   1      29.514  30.645  23.289  1.00  0.00    -0.493 OA
ATOM     25  C   UNL A   1      28.221  31.253  23.500  1.00  0.00     0.278 C 
ENDBRANCH  15  24
BRANCH  17  26
ATOM     26  O   UNL A   1      31.813  29.701  24.592  1.00  0.00    -0.492 OA
ATOM     27  C   UNL A   1      32.137  30.094  25.921  1.00  0.00     0.278 C 
ENDBRANCH  17  26
ENDBRANCH  12  14
ENDBRANCH   8  12
ENDBRANCH   4   7
ENDBRANCH   2   3
ENDBRANCH   1   2
BRANCH   1  28
ATOM     28  C   UNL A   1      36.042  21.743  24.469  1.00  0.00     0.023 C 
BRANCH  28  29
ATOM     29  C   UNL A   1      36.810  20.502  25.001  1.00  0.00     0.116 C 
BRANCH  29  30
ATOM     30  N   UNL A   1      38.321  20.544  25.001  1.00  0.00    -0.352 N 
ATOM     31  C   UNL A   1      39.305  20.777  26.000  1.00  0.00     0.251 C 
ATOM     32  H   UNL A   1      38.709  20.372  24.113  1.00  0.00     0.163 HD
ATOM     33  O   UNL A   1      40.099  19.854  26.214  1.00  0.00    -0.269 OA
BRANCH  31  34
ATOM     34  C   UNL A   1      39.703  22.129  26.577  1.00  0.00     0.039 A 
ATOM     35  C   UNL A   1      40.721  22.219  27.523  1.00  0.00     0.014 A 
ATOM     36  C   UNL A   1      38.993  23.320  26.400  1.00  0.00     0.014 A 
ATOM     37  C   UNL A   1      41.167  23.478  28.019  1.00  0.00     0.010 A 
ATOM     38  C   UNL A   1      39.550  24.580  26.714  1.00  0.00     0.010 A 
ATOM     39  C   UNL A   1      40.677  24.700  27.517  1.00  0.00    -0.014 A 
BRANCH  39  40
ATOM     40  C   UNL A   1      41.311  26.044  27.811  1.00  0.00     0.031 A 
ATOM     41  C   UNL A   1      42.680  26.434  27.265  1.00  0.00     0.074 A 
ATOM     42  C   UNL A   1      40.704  26.933  28.638  1.00  0.00     0.049 A 
ATOM     43  N   UNL A   1      43.342  27.564  27.410  1.00  0.00    -0.248 NA
ATOM     44  C   UNL A   1      43.416  25.430  26.484  1.00  0.00     0.031 C 
ATOM     45  C   UNL A   1      39.443  26.714  29.349  1.00  0.00     0.029 A 
ATOM     46  N   UNL A   1      41.063  28.214  29.018  1.00  0.00    -0.354 N 
ATOM     47  C   UNL A   1      44.554  27.392  26.744  1.00  0.00     0.074 A 
ATOM     48  C   UNL A   1      44.582  26.023  26.285  1.00  0.00     0.031 C 
ATOM     49  C   UNL A   1      39.099  27.833  30.010  1.00  0.00     0.029 A 
ATOM     50  C   UNL A   1      40.130  28.848  29.815  1.00  0.00     0.049 A 
ATOM     51  H   UNL A   1      41.910  28.636  28.746  1.00  0.00     0.167 HD
ATOM     52  C   UNL A   1      45.541  28.285  26.476  1.00  0.00     0.031 A 
ATOM     53  C   UNL A   1      40.088  30.101  30.321  1.00  0.00     0.031 A 
ATOM     54  C   UNL A   1      45.548  29.659  26.898  1.00  0.00     0.049 A 
ATOM     55  C   UNL A   1      41.202  31.078  30.027  1.00  0.00     0.074 A 
ATOM     56  C   UNL A   1      46.485  30.642  26.621  1.00  0.00     0.029 A 
ATOM     57  N   UNL A   1      44.574  30.246  27.685  1.00  0.00    -0.354 N 
ATOM     58  N   UNL A   1      42.277  30.913  29.296  1.00  0.00    -0.248 NA
ATOM     59  C   UNL A   1      41.086  32.424  30.616  1.00  0.00     0.031 C 
ATOM     60  C   UNL A   1      46.104  31.810  27.287  1.00  0.00     0.029 A 
ATOM     61  C   UNL A   1      44.896  31.571  27.920  1.00  0.00     0.049 A 
ATOM     62  H   UNL A   1      43.771  29.788  28.028  1.00  0.00     0.167 HD
ATOM     63  C   UNL A   1      42.932  32.141  29.299  1.00  0.00     0.074 A 
ATOM     64  C   UNL A   1      42.137  33.045  30.097  1.00  0.00     0.031 C 
ATOM     65  C   UNL A   1      44.091  32.485  28.687  1.00  0.00     0.031 A 
BRANCH  52  66
ATOM     66  C   UNL A   1      46.706  27.795  25.652  1.00  0.00    -0.014 A 
ATOM     67  C   UNL A   1      47.834  27.224  26.267  1.00  0.00     0.009 A 
ATOM     68  C   UNL A   1      46.674  27.891  24.254  1.00  0.00     0.009 A 
ATOM     69  C   UNL A   1      48.931  26.821  25.503  1.00  0.00     0.001 A 
ATOM     70  C   UNL A   1      47.758  27.452  23.489  1.00  0.00     0.001 A 
ATOM     71  C   UNL A   1      48.891  26.935  24.115  1.00  0.00     0.000 A 
ENDBRANCH  52  66
BRANCH  53  72
ATOM     72  C   UNL A   1      38.928  30.554  31.150  1.00  0.00    -0.014 A 
ATOM     73  C   UNL A   1      38.919  30.353  32.542  1.00  0.00     0.009 A 
ATOM     74  C   UNL A   1      37.790  31.114  30.549  1.00  0.00     0.009 A 
ATOM     75  C   UNL A   1      37.785  30.659  33.303  1.00  0.00     0.001 A 
ATOM     76  C   UNL A   1      36.670  31.452  31.317  1.00  0.00     0.001 A 
ATOM     77  C   UNL A   1      36.662  31.210  32.689  1.00  0.00     0.000 A 
ENDBRANCH  53  72
BRANCH  65  78
ATOM     78  C   UNL A   1      44.556  33.913  28.779  1.00  0.00    -0.014 A 
ATOM     79  C   UNL A   1      44.130  34.890  27.868  1.00  0.00     0.009 A 
ATOM     80  C   UNL A   1      45.360  34.303  29.863  1.00  0.00     0.009 A 
ATOM     81  C   UNL A   1      44.513  36.224  28.032  1.00  0.00     0.001 A 
ATOM     82  C   UNL A   1      45.717  35.641  30.041  1.00  0.00     0.001 A 
ATOM     83  C   UNL A   1      45.297  36.600  29.123  1.00  0.00     0.000 A 
ENDBRANCH  65  78
ENDBRANCH  39  40
ENDBRANCH  31  34
ENDBRANCH  29  30
ENDBRANCH  28  29
ENDBRANCH   1  28
TORSDOF 15
ENDMDL
MODEL 3
REMARK VINA RESULT:     -11.0      6.450     10.923
REMARK SMILES COc1ccc2c(c1OC)C(=O)O[C@@H]2Nc1nonc1C(=O)NCCCCNC(=O)c1ccc(-c2c3nc(c(-c4ccccc4)c4ccc([nH]4)c(-c4ccccc4)c4nc(c(-c5ccccc5)c5ccc2[nH]5)C=C4)C=C3)cc1
REMARK SMILES IDX 25 1 24 2 23 3 21 4 22 5 20 7 16 8 17 9 18 10 19 11 15 12
REMARK SMILES IDX 14 14 3 15 4 16 8 17 5 18 7 19 6 20 11 21 12 22 13 23 2 24
REMARK SMILES IDX 1 25 9 26 10 27 26 28 27 29 28 30 29 31 30 33 31 34 32 35
REMARK SMILES IDX 78 36 33 37 77 38 34 39 35 40 36 41 71 42 37 43 76 44 70 45
REMARK SMILES IDX 72 46 38 47 75 48 69 49 68 50 39 52 61 53 46 54 60 55 47 56
REMARK SMILES IDX 50 57 59 58 73 59 48 60 49 61 58 63 74 64 51 65 40 66 41 67
REMARK SMILES IDX 45 68 42 69 44 70 43 71 62 72 63 73 67 74 64 75 66 76 65 77
REMARK SMILES IDX 52 78 53 79 57 80 54 81 56 82 55 83
REMARK H PARENT 23 6 15 13 28 32 72 51 50 62
REMARK Flexibility Score: inf
ROOT
ATOM      1  C   UNL A   1      37.588  22.995  25.333  1.00  0.00     0.023 C 
ENDROOT
BRANCH   1   2
ATOM      2  C   UNL A   1      36.477  21.940  25.464  1.00  0.00     0.116 C 
BRANCH   2   3
ATOM      3  N   UNL A   1      35.475  22.128  26.503  1.00  0.00    -0.350 N 
ATOM      4  C   UNL A   1      34.154  21.682  26.496  1.00  0.00     0.277 C 
ATOM      5  O   UNL A   1      33.495  21.840  27.527  1.00  0.00    -0.267 OA
ATOM      6  H   UNL A   1      35.764  22.625  27.302  1.00  0.00     0.163 HD
BRANCH   4   7
ATOM      7  C   UNL A   1      33.572  21.056  25.310  1.00  0.00     0.216 A 
ATOM      8  C   UNL A   1      32.967  21.600  24.149  1.00  0.00     0.207 A 
ATOM      9  N   UNL A   1      32.460  20.619  23.408  1.00  0.00    -0.031 NA
ATOM     10  O   UNL A   1      32.854  19.449  24.032  1.00  0.00    -0.242 OA
ATOM     11  N   UNL A   1      33.562  19.718  25.193  1.00  0.00    -0.042 NA
BRANCH   8  12
ATOM     12  N   UNL A   1      32.814  22.901  23.821  1.00  0.00    -0.326 N 
ATOM     13  H   UNL A   1      31.919  23.309  23.855  1.00  0.00     0.166 HD
BRANCH  12  14
ATOM     14  C   UNL A   1      33.949  23.700  23.423  1.00  0.00     0.307 C 
ATOM     15  C   UNL A   1      33.394  27.535  25.015  1.00  0.00     0.161 A 
ATOM     16  C   UNL A   1      34.024  26.612  25.847  1.00  0.00     0.051 A 
ATOM     17  C   UNL A   1      33.123  27.249  23.627  1.00  0.00     0.175 A 
ATOM     18  C   UNL A   1      34.316  25.353  25.365  1.00  0.00     0.014 A 
ATOM     19  C   UNL A   1      33.370  25.957  23.204  1.00  0.00     0.114 A 
ATOM     20  C   UNL A   1      33.924  25.026  24.073  1.00  0.00     0.032 A 
ATOM     21  C   UNL A   1      33.111  25.237  21.942  1.00  0.00     0.344 C 
ATOM     22  O   UNL A   1      32.465  25.556  20.973  1.00  0.00    -0.246 OA
ATOM     23  O   UNL A   1      33.722  24.022  22.057  1.00  0.00    -0.434 OA
BRANCH  15  24
ATOM     24  O   UNL A   1      33.064  28.726  25.611  1.00  0.00    -0.493 OA
ATOM     25  C   UNL A   1      31.806  28.811  26.316  1.00  0.00     0.278 C 
ENDBRANCH  15  24
BRANCH  17  26
ATOM     26  O   UNL A   1      32.578  28.247  22.889  1.00  0.00    -0.492 OA
ATOM     27  C   UNL A   1      31.187  28.421  22.641  1.00  0.00     0.278 C 
ENDBRANCH  17  26
ENDBRANCH  12  14
ENDBRANCH   8  12
ENDBRANCH   4   7
ENDBRANCH   2   3
ENDBRANCH   1   2
BRANCH   1  28
ATOM     28  C   UNL A   1      37.909  24.004  26.492  1.00  0.00     0.023 C 
BRANCH  28  29
ATOM     29  C   UNL A   1      39.330  24.623  26.593  1.00  0.00     0.116 C 
BRANCH  29  30
ATOM     30  N   UNL A   1      40.502  23.803  26.101  1.00  0.00    -0.352 N 
ATOM     31  C   UNL A   1      41.793  23.512  26.620  1.00  0.00     0.251 C 
ATOM     32  H   UNL A   1      40.333  23.378  25.230  1.00  0.00     0.163 HD
ATOM     33  O   UNL A   1      42.043  22.321  26.837  1.00  0.00    -0.269 OA
BRANCH  31  34
ATOM     34  C   UNL A   1      43.000  24.443  26.609  1.00  0.00     0.039 A 
ATOM     35  C   UNL A   1      43.487  24.948  25.405  1.00  0.00     0.014 A 
ATOM     36  C   UNL A   1      43.830  24.698  27.704  1.00  0.00     0.014 A 
ATOM     37  C   UNL A   1      44.563  25.883  25.373  1.00  0.00     0.010 A 
ATOM     38  C   UNL A   1      44.749  25.771  27.715  1.00  0.00     0.010 A 
ATOM     39  C   UNL A   1      45.128  26.419  26.546  1.00  0.00    -0.014 A 
BRANCH  39  40
ATOM     40  C   UNL A   1      46.071  27.605  26.558  1.00  0.00     0.031 A 
ATOM     41  C   UNL A   1      47.586  27.440  26.491  1.00  0.00     0.074 A 
ATOM     42  C   UNL A   1      45.598  28.869  26.700  1.00  0.00     0.049 A 
ATOM     43  N   UNL A   1      48.522  28.365  26.465  1.00  0.00    -0.248 NA
ATOM     44  C   UNL A   1      48.124  26.072  26.479  1.00  0.00     0.031 C 
ATOM     45  C   UNL A   1      44.193  29.238  26.888  1.00  0.00     0.029 A 
ATOM     46  N   UNL A   1      46.248  30.090  26.701  1.00  0.00    -0.354 N 
ATOM     47  C   UNL A   1      49.739  27.686  26.437  1.00  0.00     0.074 A 
ATOM     48  C   UNL A   1      49.428  26.280  26.553  1.00  0.00     0.031 C 
ATOM     49  C   UNL A   1      44.079  30.577  26.910  1.00  0.00     0.029 A 
ATOM     50  C   UNL A   1      45.403  31.179  26.782  1.00  0.00     0.049 A 
ATOM     51  H   UNL A   1      47.227  30.175  26.650  1.00  0.00     0.167 HD
ATOM     52  C   UNL A   1      51.002  28.156  26.274  1.00  0.00     0.031 A 
ATOM     53  C   UNL A   1      45.649  32.508  26.743  1.00  0.00     0.031 A 
ATOM     54  C   UNL A   1      51.355  29.542  26.139  1.00  0.00     0.049 A 
ATOM     55  C   UNL A   1      47.062  33.016  26.577  1.00  0.00     0.074 A 
ATOM     56  C   UNL A   1      52.607  30.096  25.917  1.00  0.00     0.029 A 
ATOM     57  N   UNL A   1      50.460  30.594  26.213  1.00  0.00    -0.354 N 
ATOM     58  N   UNL A   1      48.175  32.339  26.438  1.00  0.00    -0.248 NA
ATOM     59  C   UNL A   1      47.249  34.478  26.545  1.00  0.00     0.031 C 
ATOM     60  C   UNL A   1      52.474  31.487  25.911  1.00  0.00     0.029 A 
ATOM     61  C   UNL A   1      51.132  31.794  26.059  1.00  0.00     0.049 A 
ATOM     62  H   UNL A   1      49.489  30.502  26.354  1.00  0.00     0.167 HD
ATOM     63  C   UNL A   1      49.178  33.286  26.254  1.00  0.00     0.074 A 
ATOM     64  C   UNL A   1      48.547  34.585  26.293  1.00  0.00     0.031 C 
ATOM     65  C   UNL A   1      50.505  33.089  26.065  1.00  0.00     0.031 A 
BRANCH  52  66
ATOM     66  C   UNL A   1      52.111  27.136  26.209  1.00  0.00    -0.014 A 
ATOM     67  C   UNL A   1      52.423  26.485  25.003  1.00  0.00     0.009 A 
ATOM     68  C   UNL A   1      52.860  26.830  27.355  1.00  0.00     0.009 A 
ATOM     69  C   UNL A   1      53.414  25.503  24.963  1.00  0.00     0.001 A 
ATOM     70  C   UNL A   1      53.877  25.873  27.303  1.00  0.00     0.001 A 
ATOM     71  C   UNL A   1      54.141  25.199  26.112  1.00  0.00     0.000 A 
ENDBRANCH  52  66
BRANCH  53  72
ATOM     72  C   UNL A   1      44.530  33.497  26.827  1.00  0.00    -0.014 A 
ATOM     73  C   UNL A   1      43.919  33.991  25.660  1.00  0.00     0.009 A 
ATOM     74  C   UNL A   1      44.119  34.016  28.065  1.00  0.00     0.009 A 
ATOM     75  C   UNL A   1      42.962  35.009  25.728  1.00  0.00     0.001 A 
ATOM     76  C   UNL A   1      43.136  35.008  28.133  1.00  0.00     0.001 A 
ATOM     77  C   UNL A   1      42.570  35.515  26.965  1.00  0.00     0.000 A 
ENDBRANCH  53  72
BRANCH  65  78
ATOM     78  C   UNL A   1      51.380  34.287  25.810  1.00  0.00    -0.014 A 
ATOM     79  C   UNL A   1      51.581  34.795  24.519  1.00  0.00     0.009 A 
ATOM     80  C   UNL A   1      51.932  34.976  26.903  1.00  0.00     0.009 A 
ATOM     81  C   UNL A   1      52.330  35.959  24.326  1.00  0.00     0.001 A 
ATOM     82  C   UNL A   1      52.655  36.155  26.710  1.00  0.00     0.001 A 
ATOM     83  C   UNL A   1      52.857  36.643  25.421  1.00  0.00     0.000 A 
ENDBRANCH  65  78
ENDBRANCH  39  40
ENDBRANCH  31  34
ENDBRANCH  29  30
ENDBRANCH  28  29
ENDBRANCH   1  28
TORSDOF 15
ENDMDL
