MODEL 1
REMARK VINA RESULT:     -11.1      0.000      0.000
REMARK SMILES O=C1C[N@@H+](Cc2ccc(C(=O)NCCCCNC(=O)c3ccc(-c4c5nc(c(-c6ccccc6)c6ccc([nH]6)c(-c6ccccc6)c6nc(c(-c7ccccc7)c7ccc4[nH]7)C=C6)C=C5)cc3)cc2)CCN1
REMARK SMILES IDX 14 1 13 2 12 3 10 4 11 5 9 7 6 8 7 9 69 10 8 11 68 12 5 13
REMARK SMILES IDX 4 14 1 15 2 16 3 17 72 18 71 19 70 21 15 23 16 24 17 25
REMARK SMILES IDX 18 26 19 28 20 29 21 30 67 31 22 32 66 33 23 34 24 35 25 36
REMARK SMILES IDX 60 37 26 38 65 39 59 40 61 41 27 42 64 43 58 44 57 45 28 47
REMARK SMILES IDX 50 48 35 49 49 50 36 51 39 52 48 53 62 54 37 55 38 56 47 58
REMARK SMILES IDX 63 59 40 60 29 61 30 62 34 63 31 64 33 65 32 66 51 67 52 68
REMARK SMILES IDX 56 69 53 70 55 71 54 72 41 73 42 74 46 75 43 76 45 77 44 78
REMARK H PARENT 12 6 72 20 4 22 17 27 61 46 39 57
REMARK Flexibility Score: inf
ROOT
ATOM      1  C   UNL A   1      33.158  29.273  24.708  1.00  0.00     0.023 C 
ENDROOT
BRANCH   1   2
ATOM      2  C   UNL A   1      33.273  29.105  23.192  1.00  0.00     0.116 C 
BRANCH   2   3
ATOM      3  N   UNL A   1      31.962  29.085  22.569  1.00  0.00    -0.352 N 
ATOM      4  C   UNL A   1      31.016  28.090  22.515  1.00  0.00     0.251 C 
ATOM      5  O   UNL A   1      29.932  28.320  21.986  1.00  0.00    -0.269 OA
ATOM      6  H   UNL A   1      31.710  29.918  22.110  1.00  0.00     0.163 HD
BRANCH   4   7
ATOM      7  C   UNL A   1      31.255  26.777  23.160  1.00  0.00     0.039 A 
ATOM      8  C   UNL A   1      31.518  24.152  24.105  1.00  0.00     0.006 A 
ATOM      9  C   UNL A   1      32.253  24.580  22.991  1.00  0.00     0.010 A 
ATOM     10  C   UNL A   1      30.761  25.091  24.819  1.00  0.00     0.010 A 
ATOM     11  C   UNL A   1      32.121  25.887  22.518  1.00  0.00     0.014 A 
ATOM     12  C   UNL A   1      30.641  26.399  24.354  1.00  0.00     0.014 A 
BRANCH   8  13
ATOM     13  C   UNL A   1      31.503  22.701  24.513  1.00  0.00     0.299 C 
BRANCH  13  14
ATOM     14  N   UNL A   1      32.763  21.966  24.379  1.00  0.00    -0.322 N 
ATOM     15  O   UNL A   1      32.084  18.453  25.116  1.00  0.00    -0.269 OA
ATOM     16  C   UNL A   1      32.586  19.573  25.207  1.00  0.00     0.275 C 
ATOM     17  C   UNL A   1      32.630  20.543  24.023  1.00  0.00     0.363 C 
ATOM     18  N   UNL A   1      33.235  19.928  26.357  1.00  0.00    -0.346 N 
ATOM     19  C   UNL A   1      33.677  21.271  26.645  1.00  0.00     0.177 C 
ATOM     20  H   UNL A   1      33.410  19.228  27.027  1.00  0.00     0.163 HD
ATOM     21  C   UNL A   1      33.777  22.183  25.411  1.00  0.00     0.284 C 
ATOM     22  H   UNL A   1      33.144  22.434  23.556  1.00  0.00     0.348 HD
ENDBRANCH  13  14
ENDBRANCH   8  13
ENDBRANCH   4   7
ENDBRANCH   2   3
ENDBRANCH   1   2
BRANCH   1  23
ATOM     23  C   UNL A   1      33.800  28.146  25.517  1.00  0.00     0.023 C 
BRANCH  23  24
ATOM     24  C   UNL A   1      33.817  28.370  27.022  1.00  0.00     0.116 C 
BRANCH  24  25
ATOM     25  N   UNL A   1      33.596  29.759  27.391  1.00  0.00    -0.352 N 
ATOM     26  C   UNL A   1      34.450  30.626  28.032  1.00  0.00     0.251 C 
ATOM     27  H   UNL A   1      32.716  30.129  27.151  1.00  0.00     0.163 HD
ATOM     28  O   UNL A   1      34.058  31.729  28.385  1.00  0.00    -0.269 OA
BRANCH  26  29
ATOM     29  C   UNL A   1      35.838  30.202  28.317  1.00  0.00     0.039 A 
ATOM     30  C   UNL A   1      36.142  29.697  29.583  1.00  0.00     0.014 A 
ATOM     31  C   UNL A   1      36.832  30.296  27.339  1.00  0.00     0.014 A 
ATOM     32  C   UNL A   1      37.435  29.247  29.855  1.00  0.00     0.010 A 
ATOM     33  C   UNL A   1      38.094  29.769  27.583  1.00  0.00     0.010 A 
ATOM     34  C   UNL A   1      38.416  29.259  28.849  1.00  0.00    -0.014 A 
BRANCH  34  35
ATOM     35  C   UNL A   1      39.798  28.788  29.115  1.00  0.00     0.031 A 
ATOM     36  C   UNL A   1      40.782  29.706  29.790  1.00  0.00     0.074 A 
ATOM     37  C   UNL A   1      40.183  27.564  28.710  1.00  0.00     0.049 A 
ATOM     38  N   UNL A   1      42.046  29.504  30.066  1.00  0.00    -0.248 NA
ATOM     39  C   UNL A   1      40.290  31.038  30.180  1.00  0.00     0.031 C 
ATOM     40  C   UNL A   1      39.337  26.592  28.014  1.00  0.00     0.029 A 
ATOM     41  N   UNL A   1      41.395  26.928  28.824  1.00  0.00    -0.354 N 
ATOM     42  C   UNL A   1      42.498  30.686  30.641  1.00  0.00     0.074 A 
ATOM     43  C   UNL A   1      41.395  31.619  30.620  1.00  0.00     0.031 C 
ATOM     44  C   UNL A   1      40.046  25.473  27.791  1.00  0.00     0.029 A 
ATOM     45  C   UNL A   1      41.405  25.661  28.291  1.00  0.00     0.049 A 
ATOM     46  H   UNL A   1      42.182  27.340  29.248  1.00  0.00     0.167 HD
ATOM     47  C   UNL A   1      43.716  30.964  31.165  1.00  0.00     0.031 A 
ATOM     48  C   UNL A   1      42.398  24.756  28.211  1.00  0.00     0.031 A 
ATOM     49  C   UNL A   1      44.809  30.032  31.199  1.00  0.00     0.049 A 
ATOM     50  C   UNL A   1      43.746  25.093  28.788  1.00  0.00     0.074 A 
ATOM     51  C   UNL A   1      46.067  30.198  31.752  1.00  0.00     0.029 A 
ATOM     52  N   UNL A   1      44.775  28.757  30.656  1.00  0.00    -0.354 N 
ATOM     53  N   UNL A   1      44.138  26.190  29.388  1.00  0.00    -0.248 NA
ATOM     54  C   UNL A   1      44.784  24.058  28.689  1.00  0.00     0.031 C 
ATOM     55  C   UNL A   1      46.812  29.043  31.496  1.00  0.00     0.029 A 
ATOM     56  C   UNL A   1      45.996  28.133  30.843  1.00  0.00     0.049 A 
ATOM     57  H   UNL A   1      43.998  28.355  30.205  1.00  0.00     0.167 HD
ATOM     58  C   UNL A   1      45.454  25.963  29.772  1.00  0.00     0.074 A 
ATOM     59  C   UNL A   1      45.787  24.620  29.347  1.00  0.00     0.031 C 
ATOM     60  C   UNL A   1      46.309  26.792  30.421  1.00  0.00     0.031 A 
BRANCH  47  61
ATOM     61  C   UNL A   1      43.925  32.339  31.737  1.00  0.00    -0.014 A 
ATOM     62  C   UNL A   1      43.665  32.614  33.090  1.00  0.00     0.009 A 
ATOM     63  C   UNL A   1      44.413  33.370  30.919  1.00  0.00     0.009 A 
ATOM     64  C   UNL A   1      43.849  33.901  33.600  1.00  0.00     0.001 A 
ATOM     65  C   UNL A   1      44.628  34.647  31.440  1.00  0.00     0.001 A 
ATOM     66  C   UNL A   1      44.336  34.914  32.776  1.00  0.00     0.000 A 
ENDBRANCH  47  61
BRANCH  48  67
ATOM     67  C   UNL A   1      42.155  23.431  27.581  1.00  0.00    -0.014 A 
ATOM     68  C   UNL A   1      41.543  22.397  28.308  1.00  0.00     0.009 A 
ATOM     69  C   UNL A   1      42.547  23.186  26.255  1.00  0.00     0.009 A 
ATOM     70  C   UNL A   1      41.361  21.137  27.733  1.00  0.00     0.001 A 
ATOM     71  C   UNL A   1      42.334  21.936  25.673  1.00  0.00     0.001 A 
ATOM     72  C   UNL A   1      41.752  20.909  26.415  1.00  0.00     0.000 A 
ENDBRANCH  48  67
BRANCH  60  73
ATOM     73  C   UNL A   1      47.669  26.250  30.762  1.00  0.00    -0.014 A 
ATOM     74  C   UNL A   1      47.956  25.729  32.033  1.00  0.00     0.009 A 
ATOM     75  C   UNL A   1      48.667  26.222  29.775  1.00  0.00     0.009 A 
ATOM     76  C   UNL A   1      49.227  25.226  32.319  1.00  0.00     0.001 A 
ATOM     77  C   UNL A   1      49.926  25.688  30.054  1.00  0.00     0.001 A 
ATOM     78  C   UNL A   1      50.208  25.202  31.329  1.00  0.00     0.000 A 
ENDBRANCH  60  73
ENDBRANCH  34  35
ENDBRANCH  26  29
ENDBRANCH  24  25
ENDBRANCH  23  24
ENDBRANCH   1  23
TORSDOF 13
ENDMDL
MODEL 2
REMARK VINA RESULT:     -11.1      1.830      7.640
REMARK SMILES O=C1C[N@@H+](Cc2ccc(C(=O)NCCCCNC(=O)c3ccc(-c4c5nc(c(-c6ccccc6)c6ccc([nH]6)c(-c6ccccc6)c6nc(c(-c7ccccc7)c7ccc4[nH]7)C=C6)C=C5)cc3)cc2)CCN1
REMARK SMILES IDX 14 1 13 2 12 3 10 4 11 5 9 7 6 8 7 9 69 10 8 11 68 12 5 13
REMARK SMILES IDX 4 14 1 15 2 16 3 17 72 18 71 19 70 21 15 23 16 24 17 25
REMARK SMILES IDX 18 26 19 28 20 29 21 30 67 31 22 32 66 33 23 34 24 35 25 36
REMARK SMILES IDX 60 37 26 38 65 39 59 40 61 41 27 42 64 43 58 44 57 45 28 47
REMARK SMILES IDX 50 48 35 49 49 50 36 51 39 52 48 53 62 54 37 55 38 56 47 58
REMARK SMILES IDX 63 59 40 60 29 61 30 62 34 63 31 64 33 65 32 66 51 67 52 68
REMARK SMILES IDX 56 69 53 70 55 71 54 72 41 73 42 74 46 75 43 76 45 77 44 78
REMARK H PARENT 12 6 72 20 4 22 17 27 61 46 39 57
REMARK Flexibility Score: inf
ROOT
ATOM      1  C   UNL A   1      36.348  21.136  24.690  1.00  0.00     0.023 C 
ENDROOT
BRANCH   1   2
ATOM      2  C   UNL A   1      35.328  21.342  25.812  1.00  0.00     0.116 C 
BRANCH   2   3
ATOM      3  N   UNL A   1      34.281  20.337  25.755  1.00  0.00    -0.352 N 
ATOM      4  C   UNL A   1      33.020  20.393  25.211  1.00  0.00     0.251 C 
ATOM      5  O   UNL A   1      32.320  19.385  25.216  1.00  0.00    -0.269 OA
ATOM      6  H   UNL A   1      34.512  19.477  26.174  1.00  0.00     0.163 HD
BRANCH   4   7
ATOM      7  C   UNL A   1      32.533  21.624  24.546  1.00  0.00     0.039 A 
ATOM      8  C   UNL A   1      31.960  24.051  23.269  1.00  0.00     0.006 A 
ATOM      9  C   UNL A   1      32.520  22.988  22.549  1.00  0.00     0.010 A 
ATOM     10  C   UNL A   1      31.564  23.837  24.596  1.00  0.00     0.010 A 
ATOM     11  C   UNL A   1      32.807  21.779  23.185  1.00  0.00     0.014 A 
ATOM     12  C   UNL A   1      31.839  22.625  25.227  1.00  0.00     0.014 A 
BRANCH   8  13
ATOM     13  C   UNL A   1      31.818  25.419  22.649  1.00  0.00     0.299 C 
BRANCH  13  14
ATOM     14  N   UNL A   1      31.601  26.539  23.567  1.00  0.00    -0.322 N 
ATOM     15  O   UNL A   1      29.648  29.065  21.793  1.00  0.00    -0.269 OA
ATOM     16  C   UNL A   1      30.581  28.557  22.413  1.00  0.00     0.275 C 
ATOM     17  C   UNL A   1      30.388  27.335  23.315  1.00  0.00     0.363 C 
ATOM     18  N   UNL A   1      31.807  29.164  22.403  1.00  0.00    -0.346 N 
ATOM     19  C   UNL A   1      33.007  28.554  22.921  1.00  0.00     0.177 C 
ATOM     20  H   UNL A   1      31.874  30.068  22.018  1.00  0.00     0.163 HD
ATOM     21  C   UNL A   1      32.756  27.380  23.882  1.00  0.00     0.284 C 
ATOM     22  H   UNL A   1      31.431  26.019  24.428  1.00  0.00     0.348 HD
ENDBRANCH  13  14
ENDBRANCH   8  13
ENDBRANCH   4   7
ENDBRANCH   2   3
ENDBRANCH   1   2
BRANCH   1  23
ATOM     23  C   UNL A   1      37.375  20.038  24.967  1.00  0.00     0.023 C 
BRANCH  23  24
ATOM     24  C   UNL A   1      38.618  20.501  25.713  1.00  0.00     0.116 C 
BRANCH  24  25
ATOM     25  N   UNL A   1      39.664  19.492  25.752  1.00  0.00    -0.352 N 
ATOM     26  C   UNL A   1      40.986  19.636  26.105  1.00  0.00     0.251 C 
ATOM     27  H   UNL A   1      39.391  18.583  25.490  1.00  0.00     0.163 HD
ATOM     28  O   UNL A   1      41.767  18.708  25.959  1.00  0.00    -0.269 OA
BRANCH  26  29
ATOM     29  C   UNL A   1      41.460  20.933  26.635  1.00  0.00     0.039 A 
ATOM     30  C   UNL A   1      41.927  21.897  25.740  1.00  0.00     0.014 A 
ATOM     31  C   UNL A   1      41.437  21.198  28.008  1.00  0.00     0.014 A 
ATOM     32  C   UNL A   1      42.334  23.144  26.218  1.00  0.00     0.010 A 
ATOM     33  C   UNL A   1      41.759  22.468  28.472  1.00  0.00     0.010 A 
ATOM     34  C   UNL A   1      42.231  23.447  27.586  1.00  0.00    -0.014 A 
BRANCH  34  35
ATOM     35  C   UNL A   1      42.659  24.765  28.118  1.00  0.00     0.031 A 
ATOM     36  C   UNL A   1      41.637  25.847  28.342  1.00  0.00     0.074 A 
ATOM     37  C   UNL A   1      43.963  25.006  28.352  1.00  0.00     0.049 A 
ATOM     38  N   UNL A   1      41.813  27.078  28.751  1.00  0.00    -0.248 NA
ATOM     39  C   UNL A   1      40.236  25.511  28.038  1.00  0.00     0.031 C 
ATOM     40  C   UNL A   1      45.056  24.055  28.143  1.00  0.00     0.029 A 
ATOM     41  N   UNL A   1      44.590  26.136  28.818  1.00  0.00    -0.354 N 
ATOM     42  C   UNL A   1      40.552  27.663  28.735  1.00  0.00     0.074 A 
ATOM     43  C   UNL A   1      39.632  26.675  28.218  1.00  0.00     0.031 C 
ATOM     44  C   UNL A   1      46.214  24.629  28.507  1.00  0.00     0.029 A 
ATOM     45  C   UNL A   1      45.952  25.999  28.938  1.00  0.00     0.049 A 
ATOM     46  H   UNL A   1      44.109  26.964  29.045  1.00  0.00     0.167 HD
ATOM     47  C   UNL A   1      40.185  28.903  29.136  1.00  0.00     0.031 A 
ATOM     48  C   UNL A   1      46.883  26.881  29.346  1.00  0.00     0.031 A 
ATOM     49  C   UNL A   1      41.098  29.881  29.663  1.00  0.00     0.049 A 
ATOM     50  C   UNL A   1      46.454  28.258  29.775  1.00  0.00     0.074 A 
ATOM     51  C   UNL A   1      40.820  31.148  30.145  1.00  0.00     0.029 A 
ATOM     52  N   UNL A   1      42.468  29.700  29.775  1.00  0.00    -0.354 N 
ATOM     53  N   UNL A   1      45.249  28.773  29.816  1.00  0.00    -0.248 NA
ATOM     54  C   UNL A   1      47.514  29.169  30.228  1.00  0.00     0.031 C 
ATOM     55  C   UNL A   1      42.029  31.754  30.500  1.00  0.00     0.029 A 
ATOM     56  C   UNL A   1      43.051  30.840  30.301  1.00  0.00     0.049 A 
ATOM     57  H   UNL A   1      42.953  28.883  29.520  1.00  0.00     0.167 HD
ATOM     58  C   UNL A   1      45.402  30.053  30.335  1.00  0.00     0.074 A 
ATOM     59  C   UNL A   1      46.814  30.229  30.605  1.00  0.00     0.031 C 
ATOM     60  C   UNL A   1      44.457  30.996  30.571  1.00  0.00     0.031 A 
BRANCH  47  61
ATOM     61  C   UNL A   1      38.732  29.269  29.013  1.00  0.00    -0.014 A 
ATOM     62  C   UNL A   1      38.208  29.781  27.813  1.00  0.00     0.009 A 
ATOM     63  C   UNL A   1      37.867  29.074  30.101  1.00  0.00     0.009 A 
ATOM     64  C   UNL A   1      36.860  30.131  27.722  1.00  0.00     0.001 A 
ATOM     65  C   UNL A   1      36.512  29.393  29.995  1.00  0.00     0.001 A 
ATOM     66  C   UNL A   1      36.012  29.931  28.811  1.00  0.00     0.000 A 
ENDBRANCH  47  61
BRANCH  48  67
ATOM     67  C   UNL A   1      48.317  26.487  29.393  1.00  0.00    -0.014 A 
ATOM     68  C   UNL A   1      48.851  25.873  30.537  1.00  0.00     0.009 A 
ATOM     69  C   UNL A   1      49.164  26.737  28.302  1.00  0.00     0.009 A 
ATOM     70  C   UNL A   1      50.208  25.549  30.601  1.00  0.00     0.001 A 
ATOM     71  C   UNL A   1      50.514  26.384  28.356  1.00  0.00     0.001 A 
ATOM     72  C   UNL A   1      51.037  25.801  29.509  1.00  0.00     0.000 A 
ENDBRANCH  48  67
BRANCH  60  73
ATOM     73  C   UNL A   1      44.910  32.283  31.202  1.00  0.00    -0.014 A 
ATOM     74  C   UNL A   1      45.064  32.408  32.591  1.00  0.00     0.009 A 
ATOM     75  C   UNL A   1      45.231  33.377  30.382  1.00  0.00     0.009 A 
ATOM     76  C   UNL A   1      45.492  33.614  33.149  1.00  0.00     0.001 A 
ATOM     77  C   UNL A   1      45.691  34.571  30.939  1.00  0.00     0.001 A 
ATOM     78  C   UNL A   1      45.810  34.692  32.323  1.00  0.00     0.000 A 
ENDBRANCH  60  73
ENDBRANCH  34  35
ENDBRANCH  26  29
ENDBRANCH  24  25
ENDBRANCH  23  24
ENDBRANCH   1  23
TORSDOF 13
ENDMDL
MODEL 3
REMARK VINA RESULT:     -11.1      2.475      3.695
REMARK SMILES O=C1C[N@@H+](Cc2ccc(C(=O)NCCCCNC(=O)c3ccc(-c4c5nc(c(-c6ccccc6)c6ccc([nH]6)c(-c6ccccc6)c6nc(c(-c7ccccc7)c7ccc4[nH]7)C=C6)C=C5)cc3)cc2)CCN1
REMARK SMILES IDX 14 1 13 2 12 3 10 4 11 5 9 7 6 8 7 9 69 10 8 11 68 12 5 13
REMARK SMILES IDX 4 14 1 15 2 16 3 17 72 18 71 19 70 21 15 23 16 24 17 25
REMARK SMILES IDX 18 26 19 28 20 29 21 30 67 31 22 32 66 33 23 34 24 35 25 36
REMARK SMILES IDX 60 37 26 38 65 39 59 40 61 41 27 42 64 43 58 44 57 45 28 47
REMARK SMILES IDX 50 48 35 49 49 50 36 51 39 52 48 53 62 54 37 55 38 56 47 58
REMARK SMILES IDX 63 59 40 60 29 61 30 62 34 63 31 64 33 65 32 66 51 67 52 68
REMARK SMILES IDX 56 69 53 70 55 71 54 72 41 73 42 74 46 75 43 76 45 77 44 78
REMARK H PARENT 12 6 72 20 4 22 17 27 61 46 39 57
REMARK Flexibility Score: inf
ROOT
ATOM      1  C   UNL A   1      31.397  30.734  25.681  1.00  0.00     0.023 C 
ENDROOT
BRANCH   1   2
ATOM      2  C   UNL A   1      32.562  29.764  25.885  1.00  0.00     0.116 C 
BRANCH   2   3
ATOM      3  N   UNL A   1      33.332  29.611  24.663  1.00  0.00    -0.352 N 
ATOM      4  C   UNL A   1      33.676  28.480  23.962  1.00  0.00     0.251 C 
ATOM      5  O   UNL A   1      34.283  28.593  22.900  1.00  0.00    -0.269 OA
ATOM      6  H   UNL A   1      33.662  30.453  24.275  1.00  0.00     0.163 HD
BRANCH   4   7
ATOM      7  C   UNL A   1      33.252  27.139  24.426  1.00  0.00     0.039 A 
ATOM      8  C   UNL A   1      32.758  24.479  25.158  1.00  0.00     0.006 A 
ATOM      9  C   UNL A   1      33.721  25.233  25.841  1.00  0.00     0.010 A 
ATOM     10  C   UNL A   1      31.953  25.113  24.203  1.00  0.00     0.010 A 
ATOM     11  C   UNL A   1      33.970  26.558  25.475  1.00  0.00     0.014 A 
ATOM     12  C   UNL A   1      32.191  26.440  23.848  1.00  0.00     0.014 A 
BRANCH   8  13
ATOM     13  C   UNL A   1      32.610  23.000  25.411  1.00  0.00     0.299 C 
BRANCH  13  14
ATOM     14  N   UNL A   1      33.051  22.102  24.341  1.00  0.00    -0.322 N 
ATOM     15  O   UNL A   1      32.182  18.693  25.325  1.00  0.00    -0.269 OA
ATOM     16  C   UNL A   1      32.874  19.655  24.991  1.00  0.00     0.275 C 
ATOM     17  C   UNL A   1      32.294  20.844  24.221  1.00  0.00     0.363 C 
ATOM     18  N   UNL A   1      34.225  19.618  25.202  1.00  0.00    -0.346 N 
ATOM     19  C   UNL A   1      35.091  20.760  25.038  1.00  0.00     0.177 C 
ATOM     20  H   UNL A   1      34.628  18.765  25.481  1.00  0.00     0.163 HD
ATOM     21  C   UNL A   1      34.491  21.895  24.193  1.00  0.00     0.284 C 
ATOM     22  H   UNL A   1      32.797  22.669  23.531  1.00  0.00     0.348 HD
ENDBRANCH  13  14
ENDBRANCH   8  13
ENDBRANCH   4   7
ENDBRANCH   2   3
ENDBRANCH   1   2
BRANCH   1  23
ATOM     23  C   UNL A   1      31.304  31.836  26.736  1.00  0.00     0.023 C 
BRANCH  23  24
ATOM     24  C   UNL A   1      32.600  32.594  26.982  1.00  0.00     0.116 C 
BRANCH  24  25
ATOM     25  N   UNL A   1      32.387  33.904  27.577  1.00  0.00    -0.352 N 
ATOM     26  C   UNL A   1      33.137  34.548  28.533  1.00  0.00     0.251 C 
ATOM     27  H   UNL A   1      31.599  34.397  27.251  1.00  0.00     0.163 HD
ATOM     28  O   UNL A   1      32.744  35.598  29.020  1.00  0.00    -0.269 OA
BRANCH  26  29
ATOM     29  C   UNL A   1      34.409  33.944  28.988  1.00  0.00     0.039 A 
ATOM     30  C   UNL A   1      34.394  33.104  30.104  1.00  0.00     0.014 A 
ATOM     31  C   UNL A   1      35.606  34.201  28.314  1.00  0.00     0.014 A 
ATOM     32  C   UNL A   1      35.576  32.487  30.519  1.00  0.00     0.010 A 
ATOM     33  C   UNL A   1      36.762  33.519  28.676  1.00  0.00     0.010 A 
ATOM     34  C   UNL A   1      36.765  32.672  29.794  1.00  0.00    -0.014 A 
BRANCH  34  35
ATOM     35  C   UNL A   1      38.034  32.030  30.217  1.00  0.00     0.031 A 
ATOM     36  C   UNL A   1      38.920  32.718  31.221  1.00  0.00     0.074 A 
ATOM     37  C   UNL A   1      38.413  30.861  29.668  1.00  0.00     0.049 A 
ATOM     38  N   UNL A   1      40.088  32.348  31.682  1.00  0.00    -0.248 NA
ATOM     39  C   UNL A   1      38.446  34.005  31.754  1.00  0.00     0.031 C 
ATOM     40  C   UNL A   1      37.662  30.110  28.660  1.00  0.00     0.029 A 
ATOM     41  N   UNL A   1      39.535  30.098  29.883  1.00  0.00    -0.354 N 
ATOM     42  C   UNL A   1      40.492  33.364  32.540  1.00  0.00     0.074 A 
ATOM     43  C   UNL A   1      39.476  34.391  32.490  1.00  0.00     0.031 C 
ATOM     44  C   UNL A   1      38.328  28.981  28.367  1.00  0.00     0.029 A 
ATOM     45  C   UNL A   1      39.570  28.946  29.134  1.00  0.00     0.049 A 
ATOM     46  H   UNL A   1      40.246  30.352  30.514  1.00  0.00     0.167 HD
ATOM     47  C   UNL A   1      41.596  33.428  33.322  1.00  0.00     0.031 A 
ATOM     48  C   UNL A   1      40.499  27.975  29.072  1.00  0.00     0.031 A 
ATOM     49  C   UNL A   1      42.599  32.400  33.382  1.00  0.00     0.049 A 
ATOM     50  C   UNL A   1      41.725  28.074  29.940  1.00  0.00     0.074 A 
ATOM     51  C   UNL A   1      43.730  32.345  34.179  1.00  0.00     0.029 A 
ATOM     52  N   UNL A   1      42.593  31.246  32.614  1.00  0.00    -0.354 N 
ATOM     53  N   UNL A   1      42.059  29.009  30.796  1.00  0.00    -0.248 NA
ATOM     54  C   UNL A   1      42.693  26.974  29.842  1.00  0.00     0.031 C 
ATOM     55  C   UNL A   1      44.436  31.183  33.853  1.00  0.00     0.029 A 
ATOM     56  C   UNL A   1      43.710  30.482  32.903  1.00  0.00     0.049 A 
ATOM     57  H   UNL A   1      41.897  31.006  31.961  1.00  0.00     0.167 HD
ATOM     58  C   UNL A   1      43.255  28.591  31.366  1.00  0.00     0.074 A 
ATOM     59  C   UNL A   1      43.580  27.314  30.767  1.00  0.00     0.031 C 
ATOM     60  C   UNL A   1      44.014  29.209  32.304  1.00  0.00     0.031 A 
BRANCH  47  61
ATOM     61  C   UNL A   1      41.774  34.658  34.168  1.00  0.00    -0.014 A 
ATOM     62  C   UNL A   1      42.446  35.791  33.677  1.00  0.00     0.009 A 
ATOM     63  C   UNL A   1      41.241  34.697  35.466  1.00  0.00     0.009 A 
ATOM     64  C   UNL A   1      42.616  36.917  34.484  1.00  0.00     0.001 A 
ATOM     65  C   UNL A   1      41.384  35.838  36.258  1.00  0.00     0.001 A 
ATOM     66  C   UNL A   1      42.081  36.942  35.771  1.00  0.00     0.000 A 
ENDBRANCH  47  61
BRANCH  48  67
ATOM     67  C   UNL A   1      40.302  26.807  28.172  1.00  0.00    -0.014 A 
ATOM     68  C   UNL A   1      39.619  25.666  28.623  1.00  0.00     0.009 A 
ATOM     69  C   UNL A   1      40.809  26.819  26.863  1.00  0.00     0.009 A 
ATOM     70  C   UNL A   1      39.479  24.550  27.795  1.00  0.00     0.001 A 
ATOM     71  C   UNL A   1      40.639  25.714  26.027  1.00  0.00     0.001 A 
ATOM     72  C   UNL A   1      39.985  24.577  26.497  1.00  0.00     0.000 A 
ENDBRANCH  48  67
BRANCH  60  73
ATOM     73  C   UNL A   1      45.242  28.485  32.782  1.00  0.00    -0.014 A 
ATOM     74  C   UNL A   1      46.484  28.642  32.148  1.00  0.00     0.009 A 
ATOM     75  C   UNL A   1      45.159  27.663  33.918  1.00  0.00     0.009 A 
ATOM     76  C   UNL A   1      47.608  27.961  32.619  1.00  0.00     0.001 A 
ATOM     77  C   UNL A   1      46.291  27.010  34.406  1.00  0.00     0.001 A 
ATOM     78  C   UNL A   1      47.512  27.151  33.749  1.00  0.00     0.000 A 
ENDBRANCH  60  73
ENDBRANCH  34  35
ENDBRANCH  26  29
ENDBRANCH  24  25
ENDBRANCH  23  24
ENDBRANCH   1  23
TORSDOF 13
ENDMDL
