MODEL 1
REMARK VINA RESULT:     -12.2      0.000      0.000
REMARK SMILES O=C(NCCCCNC(=O)[C@H]1[C@@H](C(=O)NNC(=O)c2ccccc2Cl)[C@H]2C=C[C@@H]1C2)c1ccc(-c2c3nc(c(-c4ccccc4)c4ccc([nH]4)c(-c4ccccc4)c4nc(c(-c5ccccc5)c5ccc2[nH]5)C=C4)C=C3)cc1
REMARK SMILES IDX 6 1 5 2 4 3 3 4 1 5 2 6 31 8 32 9 78 10 33 11 77 12 34 13
REMARK SMILES IDX 35 14 36 15 71 16 37 17 76 18 70 19 72 20 38 21 75 22 69 23
REMARK SMILES IDX 68 24 39 26 61 27 46 28 60 29 47 30 50 31 59 32 73 33 48 34
REMARK SMILES IDX 49 35 58 37 74 38 51 39 40 40 41 41 45 42 42 43 44 44 43 45
REMARK SMILES IDX 62 46 63 47 67 48 64 49 66 50 65 51 52 52 53 53 57 54 54 55
REMARK SMILES IDX 56 56 55 57 7 58 8 59 9 60 10 62 11 63 12 64 29 65 26 66
REMARK SMILES IDX 28 67 30 68 27 69 13 70 14 71 15 72 16 74 17 75 18 77 19 78
REMARK SMILES IDX 20 79 24 80 21 81 23 82 25 83 22 84
REMARK H PARENT 3 7 72 25 50 36 8 61 15 73 16 76
REMARK Flexibility Score: inf
ROOT
ATOM      1  C   UNL A   1      39.163  23.094  26.759  1.00  0.00     0.023 C 
ENDROOT
BRANCH   1   2
ATOM      2  C   UNL A   1      39.698  21.833  26.117  1.00  0.00     0.023 C 
BRANCH   2   3
ATOM      3  C   UNL A   1      41.108  21.553  26.610  1.00  0.00     0.116 C 
BRANCH   3   4
ATOM      4  N   UNL A   1      42.138  21.921  25.634  1.00  0.00    -0.352 N 
ATOM      5  O   UNL A   1      43.542  23.230  24.440  1.00  0.00    -0.269 OA
ATOM      6  C   UNL A   1      42.856  23.085  25.443  1.00  0.00     0.251 C 
ATOM      7  H   UNL A   1      42.360  21.205  24.996  1.00  0.00     0.163 HD
BRANCH   6   8
ATOM      8  C   UNL A   1      42.749  24.187  26.425  1.00  0.00     0.039 A 
ATOM      9  C   UNL A   1      42.512  23.894  27.756  1.00  0.00     0.014 A 
ATOM     10  C   UNL A   1      42.836  25.523  26.023  1.00  0.00     0.014 A 
ATOM     11  C   UNL A   1      42.001  24.874  28.580  1.00  0.00     0.010 A 
ATOM     12  C   UNL A   1      42.549  26.546  26.939  1.00  0.00     0.010 A 
ATOM     13  C   UNL A   1      42.058  26.227  28.212  1.00  0.00    -0.014 A 
BRANCH  13  14
ATOM     14  C   UNL A   1      41.639  27.227  29.232  1.00  0.00     0.031 A 
ATOM     15  C   UNL A   1      40.328  27.959  29.141  1.00  0.00     0.074 A 
ATOM     16  C   UNL A   1      42.406  27.354  30.339  1.00  0.00     0.049 A 
ATOM     17  N   UNL A   1      39.787  28.772  30.015  1.00  0.00    -0.248 NA
ATOM     18  C   UNL A   1      39.526  27.783  27.919  1.00  0.00     0.031 C 
ATOM     19  C   UNL A   1      43.708  26.705  30.540  1.00  0.00     0.029 A 
ATOM     20  N   UNL A   1      42.170  27.980  31.535  1.00  0.00    -0.354 N 
ATOM     21  C   UNL A   1      38.616  29.240  29.431  1.00  0.00     0.074 A 
ATOM     22  C   UNL A   1      38.520  28.623  28.127  1.00  0.00     0.031 C 
ATOM     23  C   UNL A   1      44.068  26.822  31.823  1.00  0.00     0.029 A 
ATOM     24  C   UNL A   1      43.101  27.673  32.501  1.00  0.00     0.049 A 
ATOM     25  H   UNL A   1      41.411  28.588  31.688  1.00  0.00     0.167 HD
ATOM     26  C   UNL A   1      37.710  30.111  29.938  1.00  0.00     0.031 A 
ATOM     27  C   UNL A   1      43.188  28.044  33.791  1.00  0.00     0.031 A 
ATOM     28  C   UNL A   1      37.798  30.702  31.248  1.00  0.00     0.049 A 
ATOM     29  C   UNL A   1      42.153  28.978  34.332  1.00  0.00     0.074 A 
ATOM     30  C   UNL A   1      36.941  31.611  31.845  1.00  0.00     0.029 A 
ATOM     31  N   UNL A   1      38.794  30.426  32.173  1.00  0.00    -0.354 N 
ATOM     32  N   UNL A   1      41.081  29.446  33.741  1.00  0.00    -0.248 NA
ATOM     33  C   UNL A   1      42.357  29.463  35.702  1.00  0.00     0.031 C 
ATOM     34  C   UNL A   1      37.437  31.910  33.119  1.00  0.00     0.029 A 
ATOM     35  C   UNL A   1      38.577  31.153  33.332  1.00  0.00     0.049 A 
ATOM     36  H   UNL A   1      39.545  29.805  32.026  1.00  0.00     0.167 HD
ATOM     37  C   UNL A   1      40.495  30.304  34.658  1.00  0.00     0.074 A 
ATOM     38  C   UNL A   1      41.300  30.245  35.863  1.00  0.00     0.031 C 
ATOM     39  C   UNL A   1      39.404  31.092  34.507  1.00  0.00     0.031 A 
BRANCH  26  40
ATOM     40  C   UNL A   1      36.559  30.513  29.058  1.00  0.00    -0.014 A 
ATOM     41  C   UNL A   1      36.400  31.835  28.617  1.00  0.00     0.009 A 
ATOM     42  C   UNL A   1      35.654  29.535  28.612  1.00  0.00     0.009 A 
ATOM     43  C   UNL A   1      35.346  32.173  27.762  1.00  0.00     0.001 A 
ATOM     44  C   UNL A   1      34.615  29.871  27.741  1.00  0.00     0.001 A 
ATOM     45  C   UNL A   1      34.459  31.191  27.321  1.00  0.00     0.000 A 
ENDBRANCH  26  40
BRANCH  27  46
ATOM     46  C   UNL A   1      44.328  27.579  34.624  1.00  0.00    -0.014 A 
ATOM     47  C   UNL A   1      45.548  28.272  34.629  1.00  0.00     0.009 A 
ATOM     48  C   UNL A   1      44.189  26.446  35.442  1.00  0.00     0.009 A 
ATOM     49  C   UNL A   1      46.605  27.832  35.430  1.00  0.00     0.001 A 
ATOM     50  C   UNL A   1      45.232  26.031  36.269  1.00  0.00     0.001 A 
ATOM     51  C   UNL A   1      46.442  26.719  36.256  1.00  0.00     0.000 A 
ENDBRANCH  27  46
BRANCH  39  52
ATOM     52  C   UNL A   1      39.041  31.951  35.682  1.00  0.00    -0.014 A 
ATOM     53  C   UNL A   1      38.199  31.463  36.694  1.00  0.00     0.009 A 
ATOM     54  C   UNL A   1      39.532  33.261  35.769  1.00  0.00     0.009 A 
ATOM     55  C   UNL A   1      37.820  32.290  37.751  1.00  0.00     0.001 A 
ATOM     56  C   UNL A   1      39.172  34.076  36.842  1.00  0.00     0.001 A 
ATOM     57  C   UNL A   1      38.307  33.594  37.825  1.00  0.00     0.000 A 
ENDBRANCH  39  52
ENDBRANCH  13  14
ENDBRANCH   6   8
ENDBRANCH   3   4
ENDBRANCH   2   3
ENDBRANCH   1   2
BRANCH   1  58
ATOM     58  C   UNL A   1      37.932  23.653  26.052  1.00  0.00     0.116 C 
BRANCH  58  59
ATOM     59  N   UNL A   1      37.193  22.561  25.475  1.00  0.00    -0.356 N 
ATOM     60  C   UNL A   1      36.059  21.951  25.875  1.00  0.00     0.224 C 
ATOM     61  H   UNL A   1      37.582  22.196  24.648  1.00  0.00     0.163 HD
ATOM     62  O   UNL A   1      35.859  20.833  25.381  1.00  0.00    -0.275 OA
BRANCH  60  63
ATOM     63  C   UNL A   1      34.959  22.572  26.720  1.00  0.00     0.098 C 
ATOM     64  C   UNL A   1      34.152  23.890  26.523  1.00  0.00     0.100 C 
ATOM     65  C   UNL A   1      33.844  21.516  27.008  1.00  0.00     0.025 C 
ATOM     66  C   UNL A   1      32.677  23.391  26.696  1.00  0.00     0.025 C 
ATOM     67  C   UNL A   1      32.997  21.305  25.778  1.00  0.00    -0.027 C 
ATOM     68  C   UNL A   1      32.851  22.360  27.816  1.00  0.00     0.017 C 
ATOM     69  C   UNL A   1      32.298  22.432  25.589  1.00  0.00    -0.027 C 
BRANCH  64  70
ATOM     70  C   UNL A   1      34.285  24.840  25.349  1.00  0.00     0.242 C 
ATOM     71  O   UNL A   1      34.736  24.476  24.259  1.00  0.00    -0.273 OA
ATOM     72  N   UNL A   1      33.823  26.124  25.420  1.00  0.00    -0.267 N 
ATOM     73  H   UNL A   1      33.877  26.648  24.588  1.00  0.00     0.191 HD
BRANCH  72  74
ATOM     74  N   UNL A   1      33.291  26.778  26.511  1.00  0.00    -0.263 N 
ATOM     75  C   UNL A   1      32.005  27.305  26.568  1.00  0.00     0.271 C 
ATOM     76  H   UNL A   1      33.862  26.879  27.307  1.00  0.00     0.191 HD
ATOM     77  O   UNL A   1      31.615  27.807  27.622  1.00  0.00    -0.267 OA
BRANCH  75  78
ATOM     78  C   UNL A   1      31.099  27.377  25.384  1.00  0.00     0.060 A 
ATOM     79  C   UNL A   1      31.238  28.526  24.578  1.00  0.00     0.015 A 
ATOM     80  C   UNL A   1      30.089  26.461  25.064  1.00  0.00     0.053 A 
ATOM     81  C   UNL A   1      30.430  28.724  23.454  1.00  0.00     0.001 A 
ATOM     82  C   UNL A   1      29.305  26.647  23.914  1.00  0.00     0.021 A 
ATOM     83  Cl  UNL A   1      29.678  25.117  26.069  1.00  0.00    -0.083 Cl
ATOM     84  C   UNL A   1      29.475  27.775  23.111  1.00  0.00     0.002 A 
ENDBRANCH  75  78
ENDBRANCH  72  74
ENDBRANCH  64  70
ENDBRANCH  60  63
ENDBRANCH  58  59
ENDBRANCH   1  58
TORSDOF 14
ENDMDL
MODEL 2
REMARK VINA RESULT:     -11.9      3.437      6.982
REMARK SMILES O=C(NCCCCNC(=O)[C@H]1[C@@H](C(=O)NNC(=O)c2ccccc2Cl)[C@H]2C=C[C@@H]1C2)c1ccc(-c2c3nc(c(-c4ccccc4)c4ccc([nH]4)c(-c4ccccc4)c4nc(c(-c5ccccc5)c5ccc2[nH]5)C=C4)C=C3)cc1
REMARK SMILES IDX 6 1 5 2 4 3 3 4 1 5 2 6 31 8 32 9 78 10 33 11 77 12 34 13
REMARK SMILES IDX 35 14 36 15 71 16 37 17 76 18 70 19 72 20 38 21 75 22 69 23
REMARK SMILES IDX 68 24 39 26 61 27 46 28 60 29 47 30 50 31 59 32 73 33 48 34
REMARK SMILES IDX 49 35 58 37 74 38 51 39 40 40 41 41 45 42 42 43 44 44 43 45
REMARK SMILES IDX 62 46 63 47 67 48 64 49 66 50 65 51 52 52 53 53 57 54 54 55
REMARK SMILES IDX 56 56 55 57 7 58 8 59 9 60 10 62 11 63 12 64 29 65 26 66
REMARK SMILES IDX 28 67 30 68 27 69 13 70 14 71 15 72 16 74 17 75 18 77 19 78
REMARK SMILES IDX 20 79 24 80 21 81 23 82 25 83 22 84
REMARK H PARENT 3 7 72 25 50 36 8 61 15 73 16 76
REMARK Flexibility Score: inf
ROOT
ATOM      1  C   UNL A   1      38.935  22.906  26.233  1.00  0.00     0.023 C 
ENDROOT
BRANCH   1   2
ATOM      2  C   UNL A   1      38.924  21.586  25.495  1.00  0.00     0.023 C 
BRANCH   2   3
ATOM      3  C   UNL A   1      39.278  20.453  26.444  1.00  0.00     0.116 C 
BRANCH   3   4
ATOM      4  N   UNL A   1      40.394  19.633  25.963  1.00  0.00    -0.352 N 
ATOM      5  O   UNL A   1      42.475  19.112  25.250  1.00  0.00    -0.269 OA
ATOM      6  C   UNL A   1      41.748  19.887  25.857  1.00  0.00     0.251 C 
ATOM      7  H   UNL A   1      40.130  18.735  25.660  1.00  0.00     0.163 HD
BRANCH   6   8
ATOM      8  C   UNL A   1      42.311  21.130  26.426  1.00  0.00     0.039 A 
ATOM      9  C   UNL A   1      42.514  21.226  27.791  1.00  0.00     0.014 A 
ATOM     10  C   UNL A   1      42.599  22.230  25.612  1.00  0.00     0.014 A 
ATOM     11  C   UNL A   1      42.628  22.472  28.369  1.00  0.00     0.010 A 
ATOM     12  C   UNL A   1      42.957  23.454  26.197  1.00  0.00     0.010 A 
ATOM     13  C   UNL A   1      42.906  23.605  27.589  1.00  0.00    -0.014 A 
BRANCH  13  14
ATOM     14  C   UNL A   1      43.180  24.878  28.313  1.00  0.00     0.031 A 
ATOM     15  C   UNL A   1      44.580  25.348  28.599  1.00  0.00     0.074 A 
ATOM     16  C   UNL A   1      42.130  25.687  28.578  1.00  0.00     0.049 A 
ATOM     17  N   UNL A   1      44.965  26.487  29.120  1.00  0.00    -0.248 NA
ATOM     18  C   UNL A   1      45.690  24.433  28.287  1.00  0.00     0.031 C 
ATOM     19  C   UNL A   1      40.720  25.337  28.357  1.00  0.00     0.029 A 
ATOM     20  N   UNL A   1      42.077  26.994  28.990  1.00  0.00    -0.354 N 
ATOM     21  C   UNL A   1      46.347  26.405  29.245  1.00  0.00     0.074 A 
ATOM     22  C   UNL A   1      46.738  25.106  28.746  1.00  0.00     0.031 C 
ATOM     23  C   UNL A   1      39.968  26.438  28.469  1.00  0.00     0.029 A 
ATOM     24  C   UNL A   1      40.815  27.537  28.909  1.00  0.00     0.049 A 
ATOM     25  H   UNL A   1      42.862  27.493  29.312  1.00  0.00     0.167 HD
ATOM     26  C   UNL A   1      47.206  27.330  29.738  1.00  0.00     0.031 A 
ATOM     27  C   UNL A   1      40.372  28.779  29.174  1.00  0.00     0.031 A 
ATOM     28  C   UNL A   1      46.813  28.632  30.209  1.00  0.00     0.049 A 
ATOM     29  C   UNL A   1      41.351  29.788  29.683  1.00  0.00     0.074 A 
ATOM     30  C   UNL A   1      47.606  29.633  30.745  1.00  0.00     0.029 A 
ATOM     31  N   UNL A   1      45.517  29.123  30.181  1.00  0.00    -0.354 N 
ATOM     32  N   UNL A   1      42.646  29.669  29.839  1.00  0.00    -0.248 NA
ATOM     33  C   UNL A   1      40.805  31.089  30.085  1.00  0.00     0.031 C 
ATOM     34  C   UNL A   1      46.784  30.716  31.073  1.00  0.00     0.029 A 
ATOM     35  C   UNL A   1      45.486  30.408  30.698  1.00  0.00     0.049 A 
ATOM     36  H   UNL A   1      44.733  28.631  29.844  1.00  0.00     0.167 HD
ATOM     37  C   UNL A   1      43.069  30.870  30.385  1.00  0.00     0.074 A 
ATOM     38  C   UNL A   1      41.900  31.724  30.477  1.00  0.00     0.031 C 
ATOM     39  C   UNL A   1      44.308  31.227  30.799  1.00  0.00     0.031 A 
BRANCH  26  40
ATOM     40  C   UNL A   1      48.659  26.953  29.832  1.00  0.00    -0.014 A 
ATOM     41  C   UNL A   1      49.564  27.262  28.806  1.00  0.00     0.009 A 
ATOM     42  C   UNL A   1      49.139  26.333  30.998  1.00  0.00     0.009 A 
ATOM     43  C   UNL A   1      50.919  26.940  28.939  1.00  0.00     0.001 A 
ATOM     44  C   UNL A   1      50.496  26.033  31.137  1.00  0.00     0.001 A 
ATOM     45  C   UNL A   1      51.384  26.332  30.104  1.00  0.00     0.000 A 
ENDBRANCH  26  40
BRANCH  27  46
ATOM     46  C   UNL A   1      38.929  29.103  29.021  1.00  0.00    -0.014 A 
ATOM     47  C   UNL A   1      38.045  28.990  30.104  1.00  0.00     0.009 A 
ATOM     48  C   UNL A   1      38.434  29.553  27.786  1.00  0.00     0.009 A 
ATOM     49  C   UNL A   1      36.695  29.314  29.949  1.00  0.00     0.001 A 
ATOM     50  C   UNL A   1      37.094  29.913  27.644  1.00  0.00     0.001 A 
ATOM     51  C   UNL A   1      36.223  29.785  28.723  1.00  0.00     0.000 A 
ENDBRANCH  27  46
BRANCH  39  52
ATOM     52  C   UNL A   1      44.439  32.597  31.392  1.00  0.00    -0.014 A 
ATOM     53  C   UNL A   1      44.723  33.707  30.581  1.00  0.00     0.009 A 
ATOM     54  C   UNL A   1      44.290  32.778  32.775  1.00  0.00     0.009 A 
ATOM     55  C   UNL A   1      44.900  34.967  31.151  1.00  0.00     0.001 A 
ATOM     56  C   UNL A   1      44.443  34.044  33.338  1.00  0.00     0.001 A 
ATOM     57  C   UNL A   1      44.760  35.135  32.528  1.00  0.00     0.000 A 
ENDBRANCH  39  52
ENDBRANCH  13  14
ENDBRANCH   6   8
ENDBRANCH   3   4
ENDBRANCH   2   3
ENDBRANCH   1   2
BRANCH   1  58
ATOM     58  C   UNL A   1      37.656  23.716  26.036  1.00  0.00     0.116 C 
BRANCH  58  59
ATOM     59  N   UNL A   1      37.298  23.685  24.643  1.00  0.00    -0.356 N 
ATOM     60  C   UNL A   1      36.111  23.478  24.039  1.00  0.00     0.224 C 
ATOM     61  H   UNL A   1      38.048  23.840  24.024  1.00  0.00     0.163 HD
ATOM     62  O   UNL A   1      36.176  23.162  22.842  1.00  0.00    -0.275 OA
BRANCH  60  63
ATOM     63  C   UNL A   1      34.741  23.757  24.637  1.00  0.00     0.098 C 
ATOM     64  C   UNL A   1      33.537  24.570  24.075  1.00  0.00     0.100 C 
ATOM     65  C   UNL A   1      34.079  22.422  25.105  1.00  0.00     0.025 C 
ATOM     66  C   UNL A   1      32.353  23.564  24.273  1.00  0.00     0.025 C 
ATOM     67  C   UNL A   1      33.574  21.647  23.914  1.00  0.00    -0.027 C 
ATOM     68  C   UNL A   1      32.729  22.935  25.619  1.00  0.00     0.017 C 
ATOM     69  C   UNL A   1      32.539  22.334  23.412  1.00  0.00    -0.027 C 
BRANCH  64  70
ATOM     70  C   UNL A   1      33.480  25.238  22.716  1.00  0.00     0.242 C 
ATOM     71  O   UNL A   1      33.354  24.591  21.672  1.00  0.00    -0.273 OA
ATOM     72  N   UNL A   1      33.471  26.599  22.594  1.00  0.00    -0.267 N 
ATOM     73  H   UNL A   1      33.351  26.950  21.682  1.00  0.00     0.191 HD
BRANCH  72  74
ATOM     74  N   UNL A   1      33.610  27.543  23.590  1.00  0.00    -0.263 N 
ATOM     75  C   UNL A   1      32.573  27.999  24.397  1.00  0.00     0.271 C 
ATOM     76  H   UNL A   1      34.506  27.921  23.740  1.00  0.00     0.191 HD
ATOM     77  O   UNL A   1      32.830  28.795  25.301  1.00  0.00    -0.267 OA
BRANCH  75  78
ATOM     78  C   UNL A   1      31.142  27.644  24.167  1.00  0.00     0.060 A 
ATOM     79  C   UNL A   1      30.657  26.549  24.910  1.00  0.00     0.015 A 
ATOM     80  C   UNL A   1      30.286  28.243  23.233  1.00  0.00     0.053 A 
ATOM     81  C   UNL A   1      29.340  26.101  24.767  1.00  0.00     0.001 A 
ATOM     82  C   UNL A   1      28.955  27.813  23.118  1.00  0.00     0.021 A 
ATOM     83  Cl  UNL A   1      30.802  29.459  22.120  1.00  0.00    -0.083 Cl
ATOM     84  C   UNL A   1      28.482  26.746  23.883  1.00  0.00     0.002 A 
ENDBRANCH  75  78
ENDBRANCH  72  74
ENDBRANCH  64  70
ENDBRANCH  60  63
ENDBRANCH  58  59
ENDBRANCH   1  58
TORSDOF 14
ENDMDL
MODEL 3
REMARK VINA RESULT:     -11.9      2.858      8.392
REMARK SMILES O=C(NCCCCNC(=O)[C@H]1[C@@H](C(=O)NNC(=O)c2ccccc2Cl)[C@H]2C=C[C@@H]1C2)c1ccc(-c2c3nc(c(-c4ccccc4)c4ccc([nH]4)c(-c4ccccc4)c4nc(c(-c5ccccc5)c5ccc2[nH]5)C=C4)C=C3)cc1
REMARK SMILES IDX 6 1 5 2 4 3 3 4 1 5 2 6 31 8 32 9 78 10 33 11 77 12 34 13
REMARK SMILES IDX 35 14 36 15 71 16 37 17 76 18 70 19 72 20 38 21 75 22 69 23
REMARK SMILES IDX 68 24 39 26 61 27 46 28 60 29 47 30 50 31 59 32 73 33 48 34
REMARK SMILES IDX 49 35 58 37 74 38 51 39 40 40 41 41 45 42 42 43 44 44 43 45
REMARK SMILES IDX 62 46 63 47 67 48 64 49 66 50 65 51 52 52 53 53 57 54 54 55
REMARK SMILES IDX 56 56 55 57 7 58 8 59 9 60 10 62 11 63 12 64 29 65 26 66
REMARK SMILES IDX 28 67 30 68 27 69 13 70 14 71 15 72 16 74 17 75 18 77 19 78
REMARK SMILES IDX 20 79 24 80 21 81 23 82 25 83 22 84
REMARK H PARENT 3 7 72 25 50 36 8 61 15 73 16 76
REMARK Flexibility Score: inf
ROOT
ATOM      1  C   UNL A   1      34.454  29.559  27.531  1.00  0.00     0.023 C 
ENDROOT
BRANCH   1   2
ATOM      2  C   UNL A   1      33.954  30.826  26.874  1.00  0.00     0.023 C 
BRANCH   2   3
ATOM      3  C   UNL A   1      32.554  31.154  27.367  1.00  0.00     0.116 C 
BRANCH   3   4
ATOM      4  N   UNL A   1      32.301  32.596  27.448  1.00  0.00    -0.352 N 
ATOM      5  O   UNL A   1      32.490  34.734  28.155  1.00  0.00    -0.269 OA
ATOM      6  C   UNL A   1      32.990  33.621  28.066  1.00  0.00     0.251 C 
ATOM      7  H   UNL A   1      31.490  32.887  26.974  1.00  0.00     0.163 HD
BRANCH   6   8
ATOM      8  C   UNL A   1      34.311  33.359  28.676  1.00  0.00     0.039 A 
ATOM      9  C   UNL A   1      35.456  33.822  28.051  1.00  0.00     0.014 A 
ATOM     10  C   UNL A   1      34.428  32.609  29.850  1.00  0.00     0.014 A 
ATOM     11  C   UNL A   1      36.670  33.246  28.358  1.00  0.00     0.010 A 
ATOM     12  C   UNL A   1      35.697  32.220  30.305  1.00  0.00     0.010 A 
ATOM     13  C   UNL A   1      36.830  32.477  29.521  1.00  0.00    -0.014 A 
BRANCH  13  14
ATOM     14  C   UNL A   1      38.211  32.036  29.860  1.00  0.00     0.031 A 
ATOM     15  C   UNL A   1      39.028  32.717  30.924  1.00  0.00     0.074 A 
ATOM     16  C   UNL A   1      38.666  30.899  29.286  1.00  0.00     0.049 A 
ATOM     17  N   UNL A   1      40.199  32.369  31.399  1.00  0.00    -0.248 NA
ATOM     18  C   UNL A   1      38.488  33.948  31.523  1.00  0.00     0.031 C 
ATOM     19  C   UNL A   1      37.970  30.153  28.229  1.00  0.00     0.029 A 
ATOM     20  N   UNL A   1      39.756  30.117  29.569  1.00  0.00    -0.354 N 
ATOM     21  C   UNL A   1      40.555  33.358  32.307  1.00  0.00     0.074 A 
ATOM     22  C   UNL A   1      39.478  34.324  32.322  1.00  0.00     0.031 C 
ATOM     23  C   UNL A   1      38.549  28.957  28.078  1.00  0.00     0.029 A 
ATOM     24  C   UNL A   1      39.737  28.905  28.916  1.00  0.00     0.049 A 
ATOM     25  H   UNL A   1      40.479  30.394  30.177  1.00  0.00     0.167 HD
ATOM     26  C   UNL A   1      41.682  33.453  33.054  1.00  0.00     0.031 A 
ATOM     27  C   UNL A   1      40.587  27.865  28.967  1.00  0.00     0.031 A 
ATOM     28  C   UNL A   1      42.738  32.474  33.055  1.00  0.00     0.049 A 
ATOM     29  C   UNL A   1      41.805  27.984  29.828  1.00  0.00     0.074 A 
ATOM     30  C   UNL A   1      43.929  32.489  33.761  1.00  0.00     0.029 A 
ATOM     31  N   UNL A   1      42.721  31.294  32.327  1.00  0.00    -0.354 N 
ATOM     32  N   UNL A   1      42.143  28.954  30.641  1.00  0.00    -0.248 NA
ATOM     33  C   UNL A   1      42.773  26.884  29.754  1.00  0.00     0.031 C 
ATOM     34  C   UNL A   1      44.647  31.333  33.434  1.00  0.00     0.029 A 
ATOM     35  C   UNL A   1      43.883  30.577  32.560  1.00  0.00     0.049 A 
ATOM     36  H   UNL A   1      41.991  31.008  31.731  1.00  0.00     0.167 HD
ATOM     37  C   UNL A   1      43.378  28.596  31.155  1.00  0.00     0.074 A 
ATOM     38  C   UNL A   1      43.700  27.292  30.607  1.00  0.00     0.031 C 
ATOM     39  C   UNL A   1      44.188  29.295  31.986  1.00  0.00     0.031 A 
BRANCH  26  40
ATOM     40  C   UNL A   1      41.853  34.678  33.908  1.00  0.00    -0.014 A 
ATOM     41  C   UNL A   1      41.388  34.721  35.231  1.00  0.00     0.009 A 
ATOM     42  C   UNL A   1      42.549  35.787  33.397  1.00  0.00     0.009 A 
ATOM     43  C   UNL A   1      41.600  35.858  36.018  1.00  0.00     0.001 A 
ATOM     44  C   UNL A   1      42.779  36.911  34.192  1.00  0.00     0.001 A 
ATOM     45  C   UNL A   1      42.300  36.948  35.500  1.00  0.00     0.000 A 
ENDBRANCH  26  40
BRANCH  27  46
ATOM     46  C   UNL A   1      40.341  26.661  28.130  1.00  0.00    -0.014 A 
ATOM     47  C   UNL A   1      39.527  25.615  28.590  1.00  0.00     0.009 A 
ATOM     48  C   UNL A   1      40.906  26.567  26.847  1.00  0.00     0.009 A 
ATOM     49  C   UNL A   1      39.292  24.498  27.784  1.00  0.00     0.001 A 
ATOM     50  C   UNL A   1      40.639  25.469  26.029  1.00  0.00     0.001 A 
ATOM     51  C   UNL A   1      39.839  24.431  26.502  1.00  0.00     0.000 A 
ENDBRANCH  27  46
BRANCH  39  52
ATOM     52  C   UNL A   1      45.497  28.650  32.331  1.00  0.00    -0.014 A 
ATOM     53  C   UNL A   1      45.609  27.806  33.447  1.00  0.00     0.009 A 
ATOM     54  C   UNL A   1      46.630  28.900  31.544  1.00  0.00     0.009 A 
ATOM     55  C   UNL A   1      46.844  27.258  33.793  1.00  0.00     0.001 A 
ATOM     56  C   UNL A   1      47.858  28.330  31.878  1.00  0.00     0.001 A 
ATOM     57  C   UNL A   1      47.966  27.520  33.009  1.00  0.00     0.000 A 
ENDBRANCH  39  52
ENDBRANCH  13  14
ENDBRANCH   6   8
ENDBRANCH   3   4
ENDBRANCH   2   3
ENDBRANCH   1   2
BRANCH   1  58
ATOM     58  C   UNL A   1      34.449  28.353  26.594  1.00  0.00     0.116 C 
BRANCH  58  59
ATOM     59  N   UNL A   1      33.198  27.657  26.742  1.00  0.00    -0.356 N 
ATOM     60  C   UNL A   1      32.141  27.551  25.913  1.00  0.00     0.224 C 
ATOM     61  H   UNL A   1      33.096  27.176  27.595  1.00  0.00     0.163 HD
ATOM     62  O   UNL A   1      31.085  27.187  26.448  1.00  0.00    -0.275 OA
BRANCH  60  63
ATOM     63  C   UNL A   1      32.176  27.673  24.397  1.00  0.00     0.098 C 
ATOM     64  C   UNL A   1      31.557  26.764  23.294  1.00  0.00     0.100 C 
ATOM     65  C   UNL A   1      31.733  29.106  23.965  1.00  0.00     0.025 C 
ATOM     66  C   UNL A   1      30.814  27.812  22.397  1.00  0.00     0.025 C 
ATOM     67  C   UNL A   1      30.237  29.250  24.098  1.00  0.00    -0.027 C 
ATOM     68  C   UNL A   1      31.804  28.981  22.438  1.00  0.00     0.017 C 
ATOM     69  C   UNL A   1      29.685  28.470  23.158  1.00  0.00    -0.027 C 
BRANCH  64  70
ATOM     70  C   UNL A   1      30.705  25.534  23.537  1.00  0.00     0.242 C 
ATOM     71  O   UNL A   1      29.700  25.565  24.254  1.00  0.00    -0.273 OA
ATOM     72  N   UNL A   1      30.961  24.355  22.896  1.00  0.00    -0.267 N 
ATOM     73  H   UNL A   1      30.312  23.630  23.050  1.00  0.00     0.191 HD
BRANCH  72  74
ATOM     74  N   UNL A   1      32.015  24.053  22.060  1.00  0.00    -0.263 N 
ATOM     75  C   UNL A   1      33.236  23.537  22.481  1.00  0.00     0.271 C 
ATOM     76  H   UNL A   1      31.894  24.212  21.096  1.00  0.00     0.191 HD
ATOM     77  O   UNL A   1      34.080  23.241  21.634  1.00  0.00    -0.267 OA
BRANCH  75  78
ATOM     78  C   UNL A   1      33.617  23.410  23.918  1.00  0.00     0.060 A 
ATOM     79  C   UNL A   1      34.306  24.510  24.467  1.00  0.00     0.015 A 
ATOM     80  C   UNL A   1      33.423  22.279  24.722  1.00  0.00     0.053 A 
ATOM     81  C   UNL A   1      34.740  24.504  25.797  1.00  0.00     0.001 A 
ATOM     82  C   UNL A   1      33.829  22.291  26.067  1.00  0.00     0.021 A 
ATOM     83  Cl  UNL A   1      32.773  20.794  24.128  1.00  0.00    -0.083 Cl
ATOM     84  C   UNL A   1      34.485  23.400  26.603  1.00  0.00     0.002 A 
ENDBRANCH  75  78
ENDBRANCH  72  74
ENDBRANCH  64  70
ENDBRANCH  60  63
ENDBRANCH  58  59
ENDBRANCH   1  58
TORSDOF 14
ENDMDL
