MODEL 1
REMARK VINA RESULT:     -11.7      0.000      0.000
REMARK SMILES Cc1cc(Cl)c(C)c2c1O[C@H](C(F)(F)F)C(C(=O)NCCCCNC(=O)c1ccc(-c3c4nc(c(-c5ccccc5)c5ccc([nH]5)c(-c5ccccc5)c5nc(c(-c6ccccc6)c6ccc3[nH]6)C=C5)C=C4)cc1)=C2
REMARK SMILES IDX 22 1 21 2 20 3 19 4 17 5 18 6 16 8 1 9 2 10 3 11 9 12 4 13
REMARK SMILES IDX 8 14 10 15 5 16 6 17 75 18 11 19 7 20 12 21 13 22 14 23
REMARK SMILES IDX 15 24 23 25 24 26 25 27 26 29 27 30 28 31 74 32 29 33 73 34
REMARK SMILES IDX 30 35 31 36 32 37 67 38 33 39 72 40 66 41 68 42 34 43 71 44
REMARK SMILES IDX 65 45 64 46 35 48 57 49 42 50 56 51 43 52 46 53 55 54 69 55
REMARK SMILES IDX 44 56 45 57 54 59 70 60 47 61 36 62 37 63 41 64 38 65 40 66
REMARK SMILES IDX 39 67 58 68 59 69 63 70 60 71 62 72 61 73 48 74 49 75 53 76
REMARK SMILES IDX 50 77 52 78 51 79
REMARK H PARENT 19 7 24 28 68 47 46 58
REMARK Flexibility Score: inf
ROOT
ATOM      1  C   UNL A   1      33.562  28.923  25.462  1.00  0.00     0.023 C 
ENDROOT
BRANCH   1   2
ATOM      2  C   UNL A   1      33.799  27.589  24.747  1.00  0.00     0.023 C 
BRANCH   2   3
ATOM      3  C   UNL A   1      32.525  26.913  24.249  1.00  0.00     0.116 C 
BRANCH   3   4
ATOM      4  N   UNL A   1      31.736  26.374  25.342  1.00  0.00    -0.352 N 
ATOM      5  C   UNL A   1      31.588  25.179  25.960  1.00  0.00     0.251 C 
ATOM      6  O   UNL A   1      30.760  25.165  26.876  1.00  0.00    -0.270 OA
ATOM      7  H   UNL A   1      31.154  27.061  25.740  1.00  0.00     0.163 HD
BRANCH   5   8
ATOM      8  C   UNL A   1      32.333  23.929  25.618  1.00  0.00     0.067 C 
ATOM      9  C   UNL A   1      33.819  19.172  24.450  1.00  0.00     0.048 C 
ATOM     10  C   UNL A   1      34.527  20.417  24.903  1.00  0.00    -0.007 A 
ATOM     11  C   UNL A   1      35.920  20.438  25.001  1.00  0.00     0.028 A 
ATOM     12  C   UNL A   1      33.819  21.588  25.193  1.00  0.00     0.131 A 
ATOM     13  C   UNL A   1      36.592  21.599  25.400  1.00  0.00     0.045 A 
ATOM     14  C   UNL A   1      34.473  22.762  25.601  1.00  0.00     0.022 A 
ATOM     15  O   UNL A   1      32.455  21.505  25.106  1.00  0.00    -0.475 OA
ATOM     16  Cl  UNL A   1      38.316  21.492  25.500  1.00  0.00    -0.084 Cl
ATOM     17  C   UNL A   1      35.887  22.781  25.703  1.00  0.00    -0.021 A 
ATOM     18  C   UNL A   1      33.641  23.923  25.938  1.00  0.00     0.026 C 
ATOM     19  C   UNL A   1      31.732  22.747  24.923  1.00  0.00     0.314 C 
ATOM     20  C   UNL A   1      36.600  24.039  26.132  1.00  0.00     0.047 C 
BRANCH  19  21
ATOM     21  C   UNL A   1      31.495  22.988  23.421  1.00  0.00     0.429 C 
ATOM     22  F   UNL A   1      31.544  21.815  22.741  1.00  0.00    -0.167 F 
ATOM     23  F   UNL A   1      30.276  23.522  23.170  1.00  0.00    -0.167 F 
ATOM     24  F   UNL A   1      32.410  23.816  22.872  1.00  0.00    -0.167 F 
ENDBRANCH  19  21
ENDBRANCH   5   8
ENDBRANCH   3   4
ENDBRANCH   2   3
ENDBRANCH   1   2
BRANCH   1  25
ATOM     25  C   UNL A   1      33.655  28.875  26.987  1.00  0.00     0.116 C 
BRANCH  25  26
ATOM     26  N   UNL A   1      33.642  30.185  27.621  1.00  0.00    -0.352 N 
ATOM     27  C   UNL A   1      34.656  30.797  28.318  1.00  0.00     0.251 C 
ATOM     28  H   UNL A   1      32.803  30.694  27.543  1.00  0.00     0.163 HD
ATOM     29  O   UNL A   1      34.481  31.880  28.864  1.00  0.00    -0.269 OA
BRANCH  27  30
ATOM     30  C   UNL A   1      35.951  30.103  28.437  1.00  0.00     0.039 A 
ATOM     31  C   UNL A   1      36.826  30.127  27.349  1.00  0.00     0.014 A 
ATOM     32  C   UNL A   1      36.322  29.502  29.642  1.00  0.00     0.014 A 
ATOM     33  C   UNL A   1      38.113  29.611  27.496  1.00  0.00     0.010 A 
ATOM     34  C   UNL A   1      37.623  29.040  29.804  1.00  0.00     0.010 A 
ATOM     35  C   UNL A   1      38.531  29.102  28.736  1.00  0.00    -0.014 A 
BRANCH  35  36
ATOM     36  C   UNL A   1      39.924  28.642  28.942  1.00  0.00     0.031 A 
ATOM     37  C   UNL A   1      40.950  29.581  29.504  1.00  0.00     0.074 A 
ATOM     38  C   UNL A   1      40.275  27.397  28.567  1.00  0.00     0.049 A 
ATOM     39  N   UNL A   1      42.229  29.383  29.695  1.00  0.00    -0.248 NA
ATOM     40  C   UNL A   1      40.481  30.924  29.883  1.00  0.00     0.031 C 
ATOM     41  C   UNL A   1      39.374  26.400  27.983  1.00  0.00     0.029 A 
ATOM     42  N   UNL A   1      41.487  26.757  28.620  1.00  0.00    -0.354 N 
ATOM     43  C   UNL A   1      42.720  30.578  30.204  1.00  0.00     0.074 A 
ATOM     44  C   UNL A   1      41.612  31.508  30.253  1.00  0.00     0.031 C 
ATOM     45  C   UNL A   1      40.058  25.266  27.763  1.00  0.00     0.029 A 
ATOM     46  C   UNL A   1      41.450  25.466  28.156  1.00  0.00     0.049 A 
ATOM     47  H   UNL A   1      42.307  27.185  28.959  1.00  0.00     0.167 HD
ATOM     48  C   UNL A   1      43.976  30.869  30.614  1.00  0.00     0.031 A 
ATOM     49  C   UNL A   1      42.427  24.546  28.058  1.00  0.00     0.031 A 
ATOM     50  C   UNL A   1      45.075  29.945  30.575  1.00  0.00     0.049 A 
ATOM     51  C   UNL A   1      43.817  24.899  28.505  1.00  0.00     0.074 A 
ATOM     52  C   UNL A   1      46.379  30.138  30.995  1.00  0.00     0.029 A 
ATOM     53  N   UNL A   1      44.996  28.648  30.092  1.00  0.00    -0.354 N 
ATOM     54  N   UNL A   1      44.259  26.024  29.011  1.00  0.00    -0.248 NA
ATOM     55  C   UNL A   1      44.841  23.853  28.371  1.00  0.00     0.031 C 
ATOM     56  C   UNL A   1      47.099  28.967  30.737  1.00  0.00     0.029 A 
ATOM     57  C   UNL A   1      46.231  28.032  30.195  1.00  0.00     0.049 A 
ATOM     58  H   UNL A   1      44.183  28.227  29.730  1.00  0.00     0.167 HD
ATOM     59  C   UNL A   1      45.605  25.816  29.277  1.00  0.00     0.074 A 
ATOM     60  C   UNL A   1      45.905  24.453  28.887  1.00  0.00     0.031 C 
ATOM     61  C   UNL A   1      46.510  26.677  29.800  1.00  0.00     0.031 A 
BRANCH  48  62
ATOM     62  C   UNL A   1      44.222  32.252  31.142  1.00  0.00    -0.014 A 
ATOM     63  C   UNL A   1      44.612  33.293  30.284  1.00  0.00     0.009 A 
ATOM     64  C   UNL A   1      44.032  32.527  32.505  1.00  0.00     0.009 A 
ATOM     65  C   UNL A   1      44.836  34.576  30.786  1.00  0.00     0.001 A 
ATOM     66  C   UNL A   1      44.234  33.817  33.000  1.00  0.00     0.001 A 
ATOM     67  C   UNL A   1      44.643  34.837  32.142  1.00  0.00     0.000 A 
ENDBRANCH  48  62
BRANCH  49  68
ATOM     68  C   UNL A   1      42.116  23.188  27.546  1.00  0.00    -0.014 A 
ATOM     69  C   UNL A   1      42.430  22.846  26.222  1.00  0.00     0.009 A 
ATOM     70  C   UNL A   1      41.521  22.226  28.376  1.00  0.00     0.009 A 
ATOM     71  C   UNL A   1      42.139  21.571  25.733  1.00  0.00     0.001 A 
ATOM     72  C   UNL A   1      41.251  20.944  27.890  1.00  0.00     0.001 A 
ATOM     73  C   UNL A   1      41.555  20.619  26.568  1.00  0.00     0.000 A 
ENDBRANCH  49  68
BRANCH  61  74
ATOM     74  C   UNL A   1      47.907  26.166  30.004  1.00  0.00    -0.014 A 
ATOM     75  C   UNL A   1      48.847  26.194  28.964  1.00  0.00     0.009 A 
ATOM     76  C   UNL A   1      48.301  25.710  31.272  1.00  0.00     0.009 A 
ATOM     77  C   UNL A   1      50.153  25.754  29.185  1.00  0.00     0.001 A 
ATOM     78  C   UNL A   1      49.612  25.291  31.496  1.00  0.00     0.001 A 
ATOM     79  C   UNL A   1      50.536  25.308  30.451  1.00  0.00     0.000 A 
ENDBRANCH  61  74
ENDBRANCH  35  36
ENDBRANCH  27  30
ENDBRANCH  25  26
ENDBRANCH   1  25
TORSDOF 12
ENDMDL
MODEL 2
REMARK VINA RESULT:     -11.6      2.701      7.573
REMARK SMILES Cc1cc(Cl)c(C)c2c1O[C@H](C(F)(F)F)C(C(=O)NCCCCNC(=O)c1ccc(-c3c4nc(c(-c5ccccc5)c5ccc([nH]5)c(-c5ccccc5)c5nc(c(-c6ccccc6)c6ccc3[nH]6)C=C5)C=C4)cc1)=C2
REMARK SMILES IDX 22 1 21 2 20 3 19 4 17 5 18 6 16 8 1 9 2 10 3 11 9 12 4 13
REMARK SMILES IDX 8 14 10 15 5 16 6 17 75 18 11 19 7 20 12 21 13 22 14 23
REMARK SMILES IDX 15 24 23 25 24 26 25 27 26 29 27 30 28 31 74 32 29 33 73 34
REMARK SMILES IDX 30 35 31 36 32 37 67 38 33 39 72 40 66 41 68 42 34 43 71 44
REMARK SMILES IDX 65 45 64 46 35 48 57 49 42 50 56 51 43 52 46 53 55 54 69 55
REMARK SMILES IDX 44 56 45 57 54 59 70 60 47 61 36 62 37 63 41 64 38 65 40 66
REMARK SMILES IDX 39 67 58 68 59 69 63 70 60 71 62 72 61 73 48 74 49 75 53 76
REMARK SMILES IDX 50 77 52 78 51 79
REMARK H PARENT 19 7 24 28 68 47 46 58
REMARK Flexibility Score: inf
ROOT
ATOM      1  C   UNL A   1      37.856  19.974  24.977  1.00  0.00     0.023 C 
ENDROOT
BRANCH   1   2
ATOM      2  C   UNL A   1      37.061  21.212  24.550  1.00  0.00     0.023 C 
BRANCH   2   3
ATOM      3  C   UNL A   1      37.239  22.415  25.471  1.00  0.00     0.116 C 
BRANCH   3   4
ATOM      4  N   UNL A   1      36.165  22.515  26.443  1.00  0.00    -0.352 N 
ATOM      5  C   UNL A   1      34.925  23.055  26.495  1.00  0.00     0.251 C 
ATOM      6  O   UNL A   1      34.338  22.910  27.572  1.00  0.00    -0.270 OA
ATOM      7  H   UNL A   1      36.402  22.072  27.290  1.00  0.00     0.163 HD
BRANCH   5   8
ATOM      8  C   UNL A   1      34.249  23.782  25.377  1.00  0.00     0.067 C 
ATOM      9  C   UNL A   1      32.594  25.578  20.879  1.00  0.00     0.048 C 
ATOM     10  C   UNL A   1      32.488  26.043  22.303  1.00  0.00    -0.007 A 
ATOM     11  C   UNL A   1      31.730  27.172  22.621  1.00  0.00     0.028 A 
ATOM     12  C   UNL A   1      33.102  25.336  23.343  1.00  0.00     0.131 A 
ATOM     13  C   UNL A   1      31.605  27.601  23.947  1.00  0.00     0.045 A 
ATOM     14  C   UNL A   1      32.995  25.753  24.680  1.00  0.00     0.022 A 
ATOM     15  O   UNL A   1      33.853  24.252  22.974  1.00  0.00    -0.475 OA
ATOM     16  Cl  UNL A   1      30.655  29.024  24.207  1.00  0.00    -0.084 Cl
ATOM     17  C   UNL A   1      32.229  26.902  25.000  1.00  0.00    -0.021 A 
ATOM     18  C   UNL A   1      33.722  24.980  25.694  1.00  0.00     0.026 C 
ATOM     19  C   UNL A   1      34.096  23.246  23.988  1.00  0.00     0.314 C 
ATOM     20  C   UNL A   1      32.100  27.352  26.434  1.00  0.00     0.047 C 
BRANCH  19  21
ATOM     21  C   UNL A   1      33.028  22.142  23.883  1.00  0.00     0.429 C 
ATOM     22  F   UNL A   1      32.599  22.020  22.602  1.00  0.00    -0.167 F 
ATOM     23  F   UNL A   1      33.506  20.926  24.241  1.00  0.00    -0.167 F 
ATOM     24  F   UNL A   1      31.946  22.385  24.654  1.00  0.00    -0.167 F 
ENDBRANCH  19  21
ENDBRANCH   5   8
ENDBRANCH   3   4
ENDBRANCH   2   3
ENDBRANCH   1   2
BRANCH   1  25
ATOM     25  C   UNL A   1      39.125  20.255  25.781  1.00  0.00     0.116 C 
BRANCH  25  26
ATOM     26  N   UNL A   1      40.076  19.153  25.790  1.00  0.00    -0.352 N 
ATOM     27  C   UNL A   1      41.424  19.201  26.050  1.00  0.00     0.251 C 
ATOM     28  H   UNL A   1      39.707  18.264  25.583  1.00  0.00     0.163 HD
ATOM     29  O   UNL A   1      42.121  18.198  25.952  1.00  0.00    -0.269 OA
BRANCH  27  30
ATOM     30  C   UNL A   1      42.029  20.497  26.404  1.00  0.00     0.039 A 
ATOM     31  C   UNL A   1      42.454  21.341  25.376  1.00  0.00     0.014 A 
ATOM     32  C   UNL A   1      42.102  20.902  27.739  1.00  0.00     0.014 A 
ATOM     33  C   UNL A   1      42.883  22.632  25.684  1.00  0.00     0.010 A 
ATOM     34  C   UNL A   1      42.477  22.206  28.040  1.00  0.00     0.010 A 
ATOM     35  C   UNL A   1      42.859  23.084  27.014  1.00  0.00    -0.014 A 
BRANCH  35  36
ATOM     36  C   UNL A   1      43.216  24.481  27.351  1.00  0.00     0.031 A 
ATOM     37  C   UNL A   1      44.651  24.919  27.318  1.00  0.00     0.074 A 
ATOM     38  C   UNL A   1      42.252  25.336  27.745  1.00  0.00     0.049 A 
ATOM     39  N   UNL A   1      45.164  26.077  27.644  1.00  0.00    -0.248 NA
ATOM     40  C   UNL A   1      45.638  23.919  26.882  1.00  0.00     0.031 C 
ATOM     41  C   UNL A   1      40.825  25.022  27.844  1.00  0.00     0.029 A 
ATOM     42  N   UNL A   1      42.331  26.649  28.136  1.00  0.00    -0.354 N 
ATOM     43  C   UNL A   1      46.534  25.942  27.463  1.00  0.00     0.074 A 
ATOM     44  C   UNL A   1      46.776  24.579  27.041  1.00  0.00     0.031 C 
ATOM     45  C   UNL A   1      40.160  26.119  28.237  1.00  0.00     0.029 A 
ATOM     46  C   UNL A   1      41.115  27.202  28.452  1.00  0.00     0.049 A 
ATOM     47  H   UNL A   1      43.178  27.146  28.187  1.00  0.00     0.167 HD
ATOM     48  C   UNL A   1      47.503  26.875  27.615  1.00  0.00     0.031 A 
ATOM     49  C   UNL A   1      40.803  28.444  28.867  1.00  0.00     0.031 A 
ATOM     50  C   UNL A   1      47.264  28.231  28.024  1.00  0.00     0.049 A 
ATOM     51  C   UNL A   1      41.898  29.458  29.043  1.00  0.00     0.074 A 
ATOM     52  C   UNL A   1      48.178  29.258  28.179  1.00  0.00     0.029 A 
ATOM     53  N   UNL A   1      46.018  28.750  28.339  1.00  0.00    -0.354 N 
ATOM     54  N   UNL A   1      43.186  29.322  28.839  1.00  0.00    -0.248 NA
ATOM     55  C   UNL A   1      41.496  30.795  29.500  1.00  0.00     0.031 C 
ATOM     56  C   UNL A   1      47.488  30.393  28.618  1.00  0.00     0.029 A 
ATOM     57  C   UNL A   1      46.140  30.082  28.697  1.00  0.00     0.049 A 
ATOM     58  H   UNL A   1      45.172  28.247  28.312  1.00  0.00     0.167 HD
ATOM     59  C   UNL A   1      43.745  30.560  29.122  1.00  0.00     0.074 A 
ATOM     60  C   UNL A   1      42.655  31.438  29.500  1.00  0.00     0.031 C 
ATOM     61  C   UNL A   1      45.045  30.937  29.071  1.00  0.00     0.031 A 
BRANCH  48  62
ATOM     62  C   UNL A   1      48.914  26.451  27.331  1.00  0.00    -0.014 A 
ATOM     63  C   UNL A   1      49.743  25.973  28.358  1.00  0.00     0.009 A 
ATOM     64  C   UNL A   1      49.411  26.499  26.020  1.00  0.00     0.009 A 
ATOM     65  C   UNL A   1      51.054  25.579  28.083  1.00  0.00     0.001 A 
ATOM     66  C   UNL A   1      50.715  26.082  25.744  1.00  0.00     0.001 A 
ATOM     67  C   UNL A   1      51.536  25.630  26.777  1.00  0.00     0.000 A 
ENDBRANCH  48  62
BRANCH  49  68
ATOM     68  C   UNL A   1      39.385  28.809  29.111  1.00  0.00    -0.014 A 
ATOM     69  C   UNL A   1      38.602  29.327  28.070  1.00  0.00     0.009 A 
ATOM     70  C   UNL A   1      38.804  28.628  30.375  1.00  0.00     0.009 A 
ATOM     71  C   UNL A   1      37.268  29.674  28.293  1.00  0.00     0.001 A 
ATOM     72  C   UNL A   1      37.463  28.954  30.590  1.00  0.00     0.001 A 
ATOM     73  C   UNL A   1      36.698  29.483  29.550  1.00  0.00     0.000 A 
ENDBRANCH  49  68
BRANCH  61  74
ATOM     74  C   UNL A   1      45.362  32.365  29.408  1.00  0.00    -0.014 A 
ATOM     75  C   UNL A   1      45.705  32.741  30.715  1.00  0.00     0.009 A 
ATOM     76  C   UNL A   1      45.376  33.332  28.391  1.00  0.00     0.009 A 
ATOM     77  C   UNL A   1      46.037  34.066  31.001  1.00  0.00     0.001 A 
ATOM     78  C   UNL A   1      45.729  34.650  28.675  1.00  0.00     0.001 A 
ATOM     79  C   UNL A   1      46.054  35.018  29.980  1.00  0.00     0.000 A 
ENDBRANCH  61  74
ENDBRANCH  35  36
ENDBRANCH  27  30
ENDBRANCH  25  26
ENDBRANCH   1  25
TORSDOF 12
ENDMDL
MODEL 3
REMARK VINA RESULT:     -11.6      3.576      5.261
REMARK SMILES Cc1cc(Cl)c(C)c2c1O[C@H](C(F)(F)F)C(C(=O)NCCCCNC(=O)c1ccc(-c3c4nc(c(-c5ccccc5)c5ccc([nH]5)c(-c5ccccc5)c5nc(c(-c6ccccc6)c6ccc3[nH]6)C=C5)C=C4)cc1)=C2
REMARK SMILES IDX 22 1 21 2 20 3 19 4 17 5 18 6 16 8 1 9 2 10 3 11 9 12 4 13
REMARK SMILES IDX 8 14 10 15 5 16 6 17 75 18 11 19 7 20 12 21 13 22 14 23
REMARK SMILES IDX 15 24 23 25 24 26 25 27 26 29 27 30 28 31 74 32 29 33 73 34
REMARK SMILES IDX 30 35 31 36 32 37 67 38 33 39 72 40 66 41 68 42 34 43 71 44
REMARK SMILES IDX 65 45 64 46 35 48 57 49 42 50 56 51 43 52 46 53 55 54 69 55
REMARK SMILES IDX 44 56 45 57 54 59 70 60 47 61 36 62 37 63 41 64 38 65 40 66
REMARK SMILES IDX 39 67 58 68 59 69 63 70 60 71 62 72 61 73 48 74 49 75 53 76
REMARK SMILES IDX 50 77 52 78 51 79
REMARK H PARENT 19 7 24 28 68 47 46 58
REMARK Flexibility Score: inf
ROOT
ATOM      1  C   UNL A   1      31.608  31.846  26.736  1.00  0.00     0.023 C 
ENDROOT
BRANCH   1   2
ATOM      2  C   UNL A   1      31.786  30.330  26.862  1.00  0.00     0.023 C 
BRANCH   2   3
ATOM      3  C   UNL A   1      33.239  29.867  26.814  1.00  0.00     0.116 C 
BRANCH   3   4
ATOM      4  N   UNL A   1      33.655  29.527  25.466  1.00  0.00    -0.352 N 
ATOM      5  C   UNL A   1      33.622  28.436  24.665  1.00  0.00     0.251 C 
ATOM      6  O   UNL A   1      34.122  28.595  23.547  1.00  0.00    -0.270 OA
ATOM      7  H   UNL A   1      34.072  30.295  25.012  1.00  0.00     0.163 HD
BRANCH   5   8
ATOM      8  C   UNL A   1      33.042  27.109  25.034  1.00  0.00     0.067 C 
ATOM      9  C   UNL A   1      30.277  23.216  26.877  1.00  0.00     0.048 C 
ATOM     10  C   UNL A   1      31.624  23.336  26.223  1.00  0.00    -0.007 A 
ATOM     11  C   UNL A   1      32.367  22.191  25.927  1.00  0.00     0.028 A 
ATOM     12  C   UNL A   1      32.142  24.583  25.858  1.00  0.00     0.131 A 
ATOM     13  C   UNL A   1      33.613  22.290  25.297  1.00  0.00     0.045 A 
ATOM     14  C   UNL A   1      33.394  24.705  25.231  1.00  0.00     0.022 A 
ATOM     15  O   UNL A   1      31.385  25.673  26.194  1.00  0.00    -0.475 OA
ATOM     16  Cl  UNL A   1      34.444  20.801  25.002  1.00  0.00    -0.084 Cl
ATOM     17  C   UNL A   1      34.148  23.542  24.935  1.00  0.00    -0.021 A 
ATOM     18  C   UNL A   1      33.878  26.059  24.938  1.00  0.00     0.026 C 
ATOM     19  C   UNL A   1      31.619  26.891  25.446  1.00  0.00     0.314 C 
ATOM     20  C   UNL A   1      35.489  23.662  24.254  1.00  0.00     0.047 C 
BRANCH  19  21
ATOM     21  C   UNL A   1      30.633  26.968  24.266  1.00  0.00     0.429 C 
ATOM     22  F   UNL A   1      30.202  28.243  24.093  1.00  0.00    -0.167 F 
ATOM     23  F   UNL A   1      31.201  26.597  23.094  1.00  0.00    -0.167 F 
ATOM     24  F   UNL A   1      29.543  26.190  24.442  1.00  0.00    -0.167 F 
ENDBRANCH  19  21
ENDBRANCH   5   8
ENDBRANCH   3   4
ENDBRANCH   2   3
ENDBRANCH   1   2
BRANCH   1  25
ATOM     25  C   UNL A   1      32.766  32.689  27.269  1.00  0.00     0.116 C 
BRANCH  25  26
ATOM     26  N   UNL A   1      32.394  34.051  27.620  1.00  0.00    -0.352 N 
ATOM     27  C   UNL A   1      32.995  34.883  28.535  1.00  0.00     0.251 C 
ATOM     28  H   UNL A   1      31.616  34.422  27.145  1.00  0.00     0.163 HD
ATOM     29  O   UNL A   1      32.528  35.989  28.782  1.00  0.00    -0.269 OA
BRANCH  27  30
ATOM     30  C   UNL A   1      34.188  34.401  29.251  1.00  0.00     0.039 A 
ATOM     31  C   UNL A   1      34.013  33.700  30.447  1.00  0.00     0.014 A 
ATOM     32  C   UNL A   1      35.461  34.575  28.702  1.00  0.00     0.014 A 
ATOM     33  C   UNL A   1      35.116  33.102  31.056  1.00  0.00     0.010 A 
ATOM     34  C   UNL A   1      36.549  33.933  29.281  1.00  0.00     0.010 A 
ATOM     35  C   UNL A   1      36.383  33.182  30.454  1.00  0.00    -0.014 A 
BRANCH  35  36
ATOM     36  C   UNL A   1      37.548  32.472  31.031  1.00  0.00     0.031 A 
ATOM     37  C   UNL A   1      38.168  32.959  32.308  1.00  0.00     0.074 A 
ATOM     38  C   UNL A   1      38.082  31.426  30.372  1.00  0.00     0.049 A 
ATOM     39  N   UNL A   1      39.229  32.512  32.930  1.00  0.00    -0.248 NA
ATOM     40  C   UNL A   1      37.524  34.111  32.959  1.00  0.00     0.031 C 
ATOM     41  C   UNL A   1      37.586  30.875  29.108  1.00  0.00     0.029 A 
ATOM     42  N   UNL A   1      39.163  30.638  30.675  1.00  0.00    -0.354 N 
ATOM     43  C   UNL A   1      39.385  33.334  34.038  1.00  0.00     0.074 A 
ATOM     44  C   UNL A   1      38.339  34.332  33.980  1.00  0.00     0.031 C 
ATOM     45  C   UNL A   1      38.341  29.821  28.763  1.00  0.00     0.029 A 
ATOM     46  C   UNL A   1      39.393  29.643  29.759  1.00  0.00     0.049 A 
ATOM     47  H   UNL A   1      39.721  30.774  31.474  1.00  0.00     0.167 HD
ATOM     48  C   UNL A   1      40.306  33.253  35.026  1.00  0.00     0.031 A 
ATOM     49  C   UNL A   1      40.345  28.691  29.724  1.00  0.00     0.031 A 
ATOM     50  C   UNL A   1      41.339  32.257  35.090  1.00  0.00     0.049 A 
ATOM     51  C   UNL A   1      41.365  28.632  30.825  1.00  0.00     0.074 A 
ATOM     52  C   UNL A   1      42.302  32.076  36.068  1.00  0.00     0.029 A 
ATOM     53  N   UNL A   1      41.542  31.270  34.139  1.00  0.00    -0.354 N 
ATOM     54  N   UNL A   1      41.483  29.399  31.882  1.00  0.00    -0.248 NA
ATOM     55  C   UNL A   1      42.380  27.573  30.731  1.00  0.00     0.031 C 
ATOM     56  C   UNL A   1      43.107  30.996  35.692  1.00  0.00     0.029 A 
ATOM     57  C   UNL A   1      42.619  30.480  34.501  1.00  0.00     0.049 A 
ATOM     58  H   UNL A   1      40.999  31.147  33.327  1.00  0.00     0.167 HD
ATOM     59  C   UNL A   1      42.569  28.903  32.589  1.00  0.00     0.074 A 
ATOM     60  C   UNL A   1      43.069  27.763  31.848  1.00  0.00     0.031 C 
ATOM     61  C   UNL A   1      43.102  29.352  33.751  1.00  0.00     0.031 A 
BRANCH  48  62
ATOM     62  C   UNL A   1      40.229  34.275  36.122  1.00  0.00    -0.014 A 
ATOM     63  C   UNL A   1      40.935  35.485  36.029  1.00  0.00     0.009 A 
ATOM     64  C   UNL A   1      39.417  34.044  37.242  1.00  0.00     0.009 A 
ATOM     65  C   UNL A   1      40.854  36.431  37.052  1.00  0.00     0.001 A 
ATOM     66  C   UNL A   1      39.320  35.002  38.254  1.00  0.00     0.001 A 
ATOM     67  C   UNL A   1      40.044  36.190  38.161  1.00  0.00     0.000 A 
ENDBRANCH  48  62
BRANCH  49  68
ATOM     68  C   UNL A   1      40.356  27.695  28.624  1.00  0.00    -0.014 A 
ATOM     69  C   UNL A   1      41.083  27.948  27.452  1.00  0.00     0.009 A 
ATOM     70  C   UNL A   1      39.657  26.484  28.745  1.00  0.00     0.009 A 
ATOM     71  C   UNL A   1      41.097  27.016  26.413  1.00  0.00     0.001 A 
ATOM     72  C   UNL A   1      39.691  25.543  27.713  1.00  0.00     0.001 A 
ATOM     73  C   UNL A   1      40.405  25.813  26.545  1.00  0.00     0.000 A 
ENDBRANCH  49  68
BRANCH  61  74
ATOM     74  C   UNL A   1      44.274  28.596  34.307  1.00  0.00    -0.014 A 
ATOM     75  C   UNL A   1      44.087  27.492  35.151  1.00  0.00     0.009 A 
ATOM     76  C   UNL A   1      45.576  28.959  33.930  1.00  0.00     0.009 A 
ATOM     77  C   UNL A   1      45.188  26.776  35.625  1.00  0.00     0.001 A 
ATOM     78  C   UNL A   1      46.672  28.228  34.386  1.00  0.00     0.001 A 
ATOM     79  C   UNL A   1      46.478  27.141  35.238  1.00  0.00     0.000 A 
ENDBRANCH  61  74
ENDBRANCH  35  36
ENDBRANCH  27  30
ENDBRANCH  25  26
ENDBRANCH   1  25
TORSDOF 12
ENDMDL
