MODEL 1
REMARK VINA RESULT:     -11.9      0.000      0.000
REMARK SMILES COc1ccc(-c2nc(NCC(=O)NCCCCNC(=O)c3ccc(-c4c5nc(c(-c6ccccc6)c6ccc([nH]6)c(-c6ccccc6)c6nc(c(-c7ccccc7)c7ccc4[nH]7)C=C6)C=C5)cc3)sc2-c2ccc(OC)cc2)cc1
REMARK SMILES IDX 15 1 14 2 12 3 13 4 11 6 10 7 9 9 7 10 8 11 71 12 70 13 6 14
REMARK SMILES IDX 3 15 4 16 81 17 5 18 80 19 2 20 1 21 72 22 73 23 79 24 74 25
REMARK SMILES IDX 78 26 75 27 76 28 77 29 16 30 17 31 18 32 19 33 20 34 21 36
REMARK SMILES IDX 22 37 23 38 69 39 24 40 68 41 25 42 26 43 27 44 62 45 28 46
REMARK SMILES IDX 67 47 61 48 63 49 29 50 66 51 60 52 59 53 30 55 52 56 37 57
REMARK SMILES IDX 51 58 38 59 41 60 50 61 64 62 39 63 40 64 49 66 65 67 42 68
REMARK SMILES IDX 31 69 32 70 36 71 33 72 35 73 34 74 53 75 54 76 58 77 55 78
REMARK SMILES IDX 57 79 56 80 43 81 44 82 48 83 45 84 47 85 46 86
REMARK H PARENT 14 5 10 8 19 35 63 54 41 65
REMARK Flexibility Score: inf
ROOT
ATOM      1  C   UNL A   1      35.541  20.648  24.997  1.00  0.00     0.116 C 
ENDROOT
BRANCH   1   2
ATOM      2  N   UNL A   1      34.959  21.130  26.234  1.00  0.00    -0.355 N 
ATOM      3  C   UNL A   1      33.713  21.657  26.440  1.00  0.00     0.239 C 
ATOM      4  O   UNL A   1      33.437  22.073  27.567  1.00  0.00    -0.273 OA
ATOM      5  H   UNL A   1      35.535  21.069  27.030  1.00  0.00     0.163 HD
BRANCH   3   6
ATOM      6  C   UNL A   1      32.686  21.680  25.300  1.00  0.00     0.215 C 
BRANCH   6   7
ATOM      7  N   UNL A   1      32.901  22.812  24.413  1.00  0.00    -0.352 N 
ATOM      8  H   UNL A   1      33.555  22.697  23.687  1.00  0.00     0.163 HD
BRANCH   7   9
ATOM      9  C   UNL A   1      32.278  24.006  24.502  1.00  0.00     0.184 A 
ATOM     10  C   UNL A   1      32.036  26.130  25.093  1.00  0.00     0.091 A 
ATOM     11  N   UNL A   1      32.766  24.963  25.253  1.00  0.00    -0.220 NA
ATOM     12  C   UNL A   1      31.013  26.071  24.156  1.00  0.00     0.064 A 
ATOM     13  S   UNL A   1      30.854  24.443  23.637  1.00  0.00    -0.096 S 
BRANCH  10  14
ATOM     14  C   UNL A   1      32.398  27.336  25.820  1.00  0.00     0.002 A 
ATOM     15  C   UNL A   1      33.046  29.749  27.086  1.00  0.00     0.118 A 
ATOM     16  C   UNL A   1      31.809  29.149  27.317  1.00  0.00     0.047 A 
ATOM     17  C   UNL A   1      33.984  29.118  26.268  1.00  0.00     0.047 A 
ATOM     18  C   UNL A   1      31.481  27.951  26.680  1.00  0.00     0.014 A 
ATOM     19  C   UNL A   1      33.662  27.910  25.639  1.00  0.00     0.014 A 
BRANCH  15  20
ATOM     20  O   UNL A   1      33.277  30.923  27.750  1.00  0.00    -0.497 OA
ATOM     21  C   UNL A   1      34.618  31.391  27.639  1.00  0.00     0.278 C 
ENDBRANCH  15  20
ENDBRANCH  10  14
BRANCH  12  22
ATOM     22  C   UNL A   1      30.169  27.122  23.572  1.00  0.00    -0.006 A 
ATOM     23  C   UNL A   1      28.775  27.107  23.697  1.00  0.00     0.013 A 
ATOM     24  C   UNL A   1      30.761  28.174  22.856  1.00  0.00     0.013 A 
ATOM     25  C   UNL A   1      28.003  28.128  23.131  1.00  0.00     0.047 A 
ATOM     26  C   UNL A   1      29.989  29.199  22.299  1.00  0.00     0.047 A 
ATOM     27  C   UNL A   1      28.604  29.184  22.442  1.00  0.00     0.118 A 
BRANCH  27  28
ATOM     28  O   UNL A   1      27.738  30.122  21.955  1.00  0.00    -0.497 OA
ATOM     29  C   UNL A   1      28.285  31.102  21.080  1.00  0.00     0.278 C 
ENDBRANCH  27  28
ENDBRANCH  12  22
ENDBRANCH   7   9
ENDBRANCH   6   7
ENDBRANCH   3   6
ENDBRANCH   1   2
BRANCH   1  30
ATOM     30  C   UNL A   1      36.995  21.095  24.848  1.00  0.00     0.023 C 
BRANCH  30  31
ATOM     31  C   UNL A   1      38.013  19.958  24.962  1.00  0.00     0.023 C 
BRANCH  31  32
ATOM     32  C   UNL A   1      39.232  20.263  25.827  1.00  0.00     0.116 C 
BRANCH  32  33
ATOM     33  N   UNL A   1      40.178  19.159  25.896  1.00  0.00    -0.352 N 
ATOM     34  C   UNL A   1      41.534  19.202  26.115  1.00  0.00     0.251 C 
ATOM     35  H   UNL A   1      39.794  18.261  25.769  1.00  0.00     0.163 HD
ATOM     36  O   UNL A   1      42.210  18.182  26.020  1.00  0.00    -0.269 OA
BRANCH  34  37
ATOM     37  C   UNL A   1      42.182  20.493  26.427  1.00  0.00     0.039 A 
ATOM     38  C   UNL A   1      42.684  21.267  25.377  1.00  0.00     0.014 A 
ATOM     39  C   UNL A   1      42.271  20.951  27.744  1.00  0.00     0.014 A 
ATOM     40  C   UNL A   1      43.213  22.532  25.641  1.00  0.00     0.010 A 
ATOM     41  C   UNL A   1      42.733  22.240  27.997  1.00  0.00     0.010 A 
ATOM     42  C   UNL A   1      43.206  23.043  26.949  1.00  0.00    -0.014 A 
BRANCH  42  43
ATOM     43  C   UNL A   1      43.681  24.420  27.239  1.00  0.00     0.031 A 
ATOM     44  C   UNL A   1      42.711  25.478  27.685  1.00  0.00     0.074 A 
ATOM     45  C   UNL A   1      44.975  24.736  27.036  1.00  0.00     0.049 A 
ATOM     46  N   UNL A   1      42.929  26.745  27.937  1.00  0.00    -0.248 NA
ATOM     47  C   UNL A   1      41.308  25.065  27.848  1.00  0.00     0.031 C 
ATOM     48  C   UNL A   1      46.012  23.813  26.571  1.00  0.00     0.029 A 
ATOM     49  N   UNL A   1      45.638  25.928  27.193  1.00  0.00    -0.354 N 
ATOM     50  C   UNL A   1      41.691  27.281  28.268  1.00  0.00     0.074 A 
ATOM     51  C   UNL A   1      40.721  26.216  28.137  1.00  0.00     0.031 C 
ATOM     52  C   UNL A   1      47.185  24.463  26.513  1.00  0.00     0.029 A 
ATOM     53  C   UNL A   1      46.978  25.856  26.896  1.00  0.00     0.049 A 
ATOM     54  H   UNL A   1      45.196  26.756  27.490  1.00  0.00     0.167 HD
ATOM     55  C   UNL A   1      41.390  28.540  28.665  1.00  0.00     0.031 A 
ATOM     56  C   UNL A   1      47.931  26.806  26.925  1.00  0.00     0.031 A 
ATOM     57  C   UNL A   1      42.354  29.599  28.801  1.00  0.00     0.049 A 
ATOM     58  C   UNL A   1      47.566  28.203  27.341  1.00  0.00     0.074 A 
ATOM     59  C   UNL A   1      42.155  30.893  29.252  1.00  0.00     0.029 A 
ATOM     60  N   UNL A   1      43.697  29.488  28.482  1.00  0.00    -0.354 N 
ATOM     61  N   UNL A   1      46.404  28.676  27.721  1.00  0.00    -0.248 NA
ATOM     62  C   UNL A   1      48.650  29.196  27.339  1.00  0.00     0.031 C 
ATOM     63  C   UNL A   1      43.370  31.580  29.155  1.00  0.00     0.029 A 
ATOM     64  C   UNL A   1      44.336  30.697  28.699  1.00  0.00     0.049 A 
ATOM     65  H   UNL A   1      44.134  28.669  28.149  1.00  0.00     0.167 HD
ATOM     66  C   UNL A   1      46.623  30.011  28.034  1.00  0.00     0.074 A 
ATOM     67  C   UNL A   1      48.031  30.270  27.811  1.00  0.00     0.031 C 
ATOM     68  C   UNL A   1      45.737  30.940  28.471  1.00  0.00     0.031 A 
BRANCH  55  69
ATOM     69  C   UNL A   1      39.946  28.839  28.967  1.00  0.00    -0.014 A 
ATOM     70  C   UNL A   1      39.415  28.642  30.252  1.00  0.00     0.009 A 
ATOM     71  C   UNL A   1      39.111  29.342  27.958  1.00  0.00     0.009 A 
ATOM     72  C   UNL A   1      38.065  28.898  30.506  1.00  0.00     0.001 A 
ATOM     73  C   UNL A   1      37.770  29.626  28.223  1.00  0.00     0.001 A 
ATOM     74  C   UNL A   1      37.246  29.392  29.494  1.00  0.00     0.000 A 
ENDBRANCH  55  69
BRANCH  56  75
ATOM     75  C   UNL A   1      49.334  26.465  26.575  1.00  0.00    -0.014 A 
ATOM     76  C   UNL A   1      50.205  25.962  27.554  1.00  0.00     0.009 A 
ATOM     77  C   UNL A   1      49.814  26.645  25.268  1.00  0.00     0.009 A 
ATOM     78  C   UNL A   1      51.534  25.672  27.239  1.00  0.00     0.001 A 
ATOM     79  C   UNL A   1      51.136  26.327  24.950  1.00  0.00     0.001 A 
ATOM     80  C   UNL A   1      51.997  25.850  25.936  1.00  0.00     0.000 A 
ENDBRANCH  56  75
BRANCH  68  81
ATOM     81  C   UNL A   1      46.273  32.311  28.773  1.00  0.00    -0.014 A 
ATOM     82  C   UNL A   1      46.311  33.315  27.793  1.00  0.00     0.009 A 
ATOM     83  C   UNL A   1      46.716  32.611  30.072  1.00  0.00     0.009 A 
ATOM     84  C   UNL A   1      46.812  34.582  28.100  1.00  0.00     0.001 A 
ATOM     85  C   UNL A   1      47.188  33.887  30.383  1.00  0.00     0.001 A 
ATOM     86  C   UNL A   1      47.244  34.868  29.394  1.00  0.00     0.000 A 
ENDBRANCH  68  81
ENDBRANCH  42  43
ENDBRANCH  34  37
ENDBRANCH  32  33
ENDBRANCH  31  32
ENDBRANCH  30  31
ENDBRANCH   1  30
TORSDOF 17
ENDMDL
MODEL 2
REMARK VINA RESULT:     -11.8      0.623      5.706
REMARK SMILES COc1ccc(-c2nc(NCC(=O)NCCCCNC(=O)c3ccc(-c4c5nc(c(-c6ccccc6)c6ccc([nH]6)c(-c6ccccc6)c6nc(c(-c7ccccc7)c7ccc4[nH]7)C=C6)C=C5)cc3)sc2-c2ccc(OC)cc2)cc1
REMARK SMILES IDX 15 1 14 2 12 3 13 4 11 6 10 7 9 9 7 10 8 11 71 12 70 13 6 14
REMARK SMILES IDX 3 15 4 16 81 17 5 18 80 19 2 20 1 21 72 22 73 23 79 24 74 25
REMARK SMILES IDX 78 26 75 27 76 28 77 29 16 30 17 31 18 32 19 33 20 34 21 36
REMARK SMILES IDX 22 37 23 38 69 39 24 40 68 41 25 42 26 43 27 44 62 45 28 46
REMARK SMILES IDX 67 47 61 48 63 49 29 50 66 51 60 52 59 53 30 55 52 56 37 57
REMARK SMILES IDX 51 58 38 59 41 60 50 61 64 62 39 63 40 64 49 66 65 67 42 68
REMARK SMILES IDX 31 69 32 70 36 71 33 72 35 73 34 74 53 75 54 76 58 77 55 78
REMARK SMILES IDX 57 79 56 80 43 81 44 82 48 83 45 84 47 85 46 86
REMARK H PARENT 14 5 10 8 19 35 63 54 41 65
REMARK Flexibility Score: inf
ROOT
ATOM      1  C   UNL A   1      35.321  20.334  25.004  1.00  0.00     0.116 C 
ENDROOT
BRANCH   1   2
ATOM      2  N   UNL A   1      34.787  20.981  26.185  1.00  0.00    -0.355 N 
ATOM      3  C   UNL A   1      33.572  21.589  26.347  1.00  0.00     0.239 C 
ATOM      4  O   UNL A   1      33.338  22.144  27.423  1.00  0.00    -0.273 OA
ATOM      5  H   UNL A   1      35.375  20.983  26.975  1.00  0.00     0.163 HD
BRANCH   3   6
ATOM      6  C   UNL A   1      32.525  21.534  25.226  1.00  0.00     0.215 C 
BRANCH   6   7
ATOM      7  N   UNL A   1      32.694  22.628  24.285  1.00  0.00    -0.352 N 
ATOM      8  H   UNL A   1      33.271  22.467  23.504  1.00  0.00     0.163 HD
BRANCH   7   9
ATOM      9  C   UNL A   1      32.126  23.848  24.392  1.00  0.00     0.184 A 
ATOM     10  C   UNL A   1      31.958  25.958  25.057  1.00  0.00     0.091 A 
ATOM     11  N   UNL A   1      32.621  24.750  25.205  1.00  0.00    -0.220 NA
ATOM     12  C   UNL A   1      30.982  25.986  24.070  1.00  0.00     0.064 A 
ATOM     13  S   UNL A   1      30.771  24.389  23.477  1.00  0.00    -0.096 S 
BRANCH  10  14
ATOM     14  C   UNL A   1      32.341  27.115  25.849  1.00  0.00     0.002 A 
ATOM     15  C   UNL A   1      33.023  29.443  27.250  1.00  0.00     0.118 A 
ATOM     16  C   UNL A   1      31.801  28.815  27.490  1.00  0.00     0.047 A 
ATOM     17  C   UNL A   1      33.930  28.879  26.352  1.00  0.00     0.047 A 
ATOM     18  C   UNL A   1      31.456  27.660  26.787  1.00  0.00     0.014 A 
ATOM     19  C   UNL A   1      33.591  27.713  25.655  1.00  0.00     0.014 A 
BRANCH  15  20
ATOM     20  O   UNL A   1      33.272  30.571  27.981  1.00  0.00    -0.497 OA
ATOM     21  C   UNL A   1      34.289  31.402  27.428  1.00  0.00     0.278 C 
ENDBRANCH  15  20
ENDBRANCH  10  14
BRANCH  12  22
ATOM     22  C   UNL A   1      30.221  27.099  23.488  1.00  0.00    -0.006 A 
ATOM     23  C   UNL A   1      30.839  28.114  22.748  1.00  0.00     0.013 A 
ATOM     24  C   UNL A   1      28.831  27.169  23.679  1.00  0.00     0.013 A 
ATOM     25  C   UNL A   1      30.082  29.157  22.205  1.00  0.00     0.047 A 
ATOM     26  C   UNL A   1      28.074  28.208  23.126  1.00  0.00     0.047 A 
ATOM     27  C   UNL A   1      28.697  29.203  22.378  1.00  0.00     0.118 A 
BRANCH  27  28
ATOM     28  O   UNL A   1      28.076  30.265  21.782  1.00  0.00    -0.497 OA
ATOM     29  C   UNL A   1      28.587  31.557  22.088  1.00  0.00     0.278 C 
ENDBRANCH  27  28
ENDBRANCH  12  22
ENDBRANCH   7   9
ENDBRANCH   6   7
ENDBRANCH   3   6
ENDBRANCH   1   2
BRANCH   1  30
ATOM     30  C   UNL A   1      36.764  20.759  24.734  1.00  0.00     0.023 C 
BRANCH  30  31
ATOM     31  C   UNL A   1      37.796  19.653  24.967  1.00  0.00     0.023 C 
BRANCH  31  32
ATOM     32  C   UNL A   1      39.045  20.081  25.732  1.00  0.00     0.116 C 
BRANCH  32  33
ATOM     33  N   UNL A   1      40.062  19.043  25.797  1.00  0.00    -0.352 N 
ATOM     34  C   UNL A   1      41.408  19.173  26.045  1.00  0.00     0.251 C 
ATOM     35  H   UNL A   1      39.744  18.124  25.642  1.00  0.00     0.163 HD
ATOM     36  O   UNL A   1      42.154  18.204  25.943  1.00  0.00    -0.269 OA
BRANCH  34  37
ATOM     37  C   UNL A   1      41.959  20.498  26.399  1.00  0.00     0.039 A 
ATOM     38  C   UNL A   1      42.395  21.342  25.374  1.00  0.00     0.014 A 
ATOM     39  C   UNL A   1      42.024  20.916  27.730  1.00  0.00     0.014 A 
ATOM     40  C   UNL A   1      42.829  22.633  25.679  1.00  0.00     0.010 A 
ATOM     41  C   UNL A   1      42.389  22.227  28.026  1.00  0.00     0.010 A 
ATOM     42  C   UNL A   1      42.794  23.098  27.004  1.00  0.00    -0.014 A 
BRANCH  42  43
ATOM     43  C   UNL A   1      43.166  24.496  27.338  1.00  0.00     0.031 A 
ATOM     44  C   UNL A   1      44.608  24.923  27.309  1.00  0.00     0.074 A 
ATOM     45  C   UNL A   1      42.215  25.365  27.734  1.00  0.00     0.049 A 
ATOM     46  N   UNL A   1      45.131  26.084  27.617  1.00  0.00    -0.248 NA
ATOM     47  C   UNL A   1      45.592  23.908  26.904  1.00  0.00     0.031 C 
ATOM     48  C   UNL A   1      40.785  25.068  27.839  1.00  0.00     0.029 A 
ATOM     49  N   UNL A   1      42.311  26.677  28.124  1.00  0.00    -0.354 N 
ATOM     50  C   UNL A   1      46.502  25.932  27.460  1.00  0.00     0.074 A 
ATOM     51  C   UNL A   1      46.734  24.556  27.080  1.00  0.00     0.031 C 
ATOM     52  C   UNL A   1      40.134  26.174  28.232  1.00  0.00     0.029 A 
ATOM     53  C   UNL A   1      41.102  27.245  28.447  1.00  0.00     0.049 A 
ATOM     54  H   UNL A   1      43.164  27.165  28.167  1.00  0.00     0.167 HD
ATOM     55  C   UNL A   1      47.481  26.857  27.601  1.00  0.00     0.031 A 
ATOM     56  C   UNL A   1      40.807  28.487  28.871  1.00  0.00     0.031 A 
ATOM     57  C   UNL A   1      47.253  28.228  27.974  1.00  0.00     0.049 A 
ATOM     58  C   UNL A   1      41.914  29.489  29.048  1.00  0.00     0.074 A 
ATOM     59  C   UNL A   1      48.174  29.256  28.085  1.00  0.00     0.029 A 
ATOM     60  N   UNL A   1      46.017  28.760  28.301  1.00  0.00    -0.354 N 
ATOM     61  N   UNL A   1      43.198  29.349  28.825  1.00  0.00    -0.248 NA
ATOM     62  C   UNL A   1      41.526  30.824  29.526  1.00  0.00     0.031 C 
ATOM     63  C   UNL A   1      47.500  30.398  28.533  1.00  0.00     0.029 A 
ATOM     64  C   UNL A   1      46.153  30.095  28.643  1.00  0.00     0.049 A 
ATOM     65  H   UNL A   1      45.166  28.262  28.293  1.00  0.00     0.167 HD
ATOM     66  C   UNL A   1      43.768  30.584  29.106  1.00  0.00     0.074 A 
ATOM     67  C   UNL A   1      42.687  31.464  29.502  1.00  0.00     0.031 C 
ATOM     68  C   UNL A   1      45.069  30.958  29.036  1.00  0.00     0.031 A 
BRANCH  55  69
ATOM     69  C   UNL A   1      48.896  26.404  27.360  1.00  0.00    -0.014 A 
ATOM     70  C   UNL A   1      49.719  25.993  28.421  1.00  0.00     0.009 A 
ATOM     71  C   UNL A   1      49.406  26.371  26.054  1.00  0.00     0.009 A 
ATOM     72  C   UNL A   1      51.039  25.602  28.182  1.00  0.00     0.001 A 
ATOM     73  C   UNL A   1      50.716  25.950  25.814  1.00  0.00     0.001 A 
ATOM     74  C   UNL A   1      51.535  25.578  26.880  1.00  0.00     0.000 A 
ENDBRANCH  55  69
BRANCH  56  75
ATOM     75  C   UNL A   1      39.396  28.869  29.135  1.00  0.00    -0.014 A 
ATOM     76  C   UNL A   1      38.847  28.708  30.417  1.00  0.00     0.009 A 
ATOM     77  C   UNL A   1      38.586  29.386  28.111  1.00  0.00     0.009 A 
ATOM     78  C   UNL A   1      37.512  29.033  30.663  1.00  0.00     0.001 A 
ATOM     79  C   UNL A   1      37.258  29.736  28.367  1.00  0.00     0.001 A 
ATOM     80  C   UNL A   1      36.720  29.551  29.639  1.00  0.00     0.000 A 
ENDBRANCH  56  75
BRANCH  68  81
ATOM     81  C   UNL A   1      45.390  32.390  29.361  1.00  0.00    -0.014 A 
ATOM     82  C   UNL A   1      45.278  33.402  28.395  1.00  0.00     0.009 A 
ATOM     83  C   UNL A   1      45.778  32.733  30.666  1.00  0.00     0.009 A 
ATOM     84  C   UNL A   1      45.580  34.726  28.723  1.00  0.00     0.001 A 
ATOM     85  C   UNL A   1      46.050  34.061  30.999  1.00  0.00     0.001 A 
ATOM     86  C   UNL A   1      45.960  35.054  30.024  1.00  0.00     0.000 A 
ENDBRANCH  68  81
ENDBRANCH  42  43
ENDBRANCH  34  37
ENDBRANCH  32  33
ENDBRANCH  31  32
ENDBRANCH  30  31
ENDBRANCH   1  30
TORSDOF 17
ENDMDL
MODEL 3
REMARK VINA RESULT:     -11.6      4.586      9.940
REMARK SMILES COc1ccc(-c2nc(NCC(=O)NCCCCNC(=O)c3ccc(-c4c5nc(c(-c6ccccc6)c6ccc([nH]6)c(-c6ccccc6)c6nc(c(-c7ccccc7)c7ccc4[nH]7)C=C6)C=C5)cc3)sc2-c2ccc(OC)cc2)cc1
REMARK SMILES IDX 15 1 14 2 12 3 13 4 11 6 10 7 9 9 7 10 8 11 71 12 70 13 6 14
REMARK SMILES IDX 3 15 4 16 81 17 5 18 80 19 2 20 1 21 72 22 73 23 79 24 74 25
REMARK SMILES IDX 78 26 75 27 76 28 77 29 16 30 17 31 18 32 19 33 20 34 21 36
REMARK SMILES IDX 22 37 23 38 69 39 24 40 68 41 25 42 26 43 27 44 62 45 28 46
REMARK SMILES IDX 67 47 61 48 63 49 29 50 66 51 60 52 59 53 30 55 52 56 37 57
REMARK SMILES IDX 51 58 38 59 41 60 50 61 64 62 39 63 40 64 49 66 65 67 42 68
REMARK SMILES IDX 31 69 32 70 36 71 33 72 35 73 34 74 53 75 54 76 58 77 55 78
REMARK SMILES IDX 57 79 56 80 43 81 44 82 48 83 45 84 47 85 46 86
REMARK H PARENT 14 5 10 8 19 35 63 54 41 65
REMARK Flexibility Score: inf
ROOT
ATOM      1  C   UNL A   1      32.423  29.963  25.651  1.00  0.00     0.116 C 
ENDROOT
BRANCH   1   2
ATOM      2  N   UNL A   1      31.593  29.921  24.464  1.00  0.00    -0.355 N 
ATOM      3  C   UNL A   1      31.058  28.828  23.837  1.00  0.00     0.239 C 
ATOM      4  O   UNL A   1      30.431  29.006  22.791  1.00  0.00    -0.273 OA
ATOM      5  H   UNL A   1      31.386  30.792  24.055  1.00  0.00     0.163 HD
BRANCH   3   6
ATOM      6  C   UNL A   1      31.207  27.432  24.458  1.00  0.00     0.215 C 
BRANCH   6   7
ATOM      7  N   UNL A   1      31.150  26.390  23.447  1.00  0.00    -0.352 N 
ATOM      8  H   UNL A   1      30.572  26.550  22.667  1.00  0.00     0.163 HD
BRANCH   7   9
ATOM      9  C   UNL A   1      31.824  25.221  23.488  1.00  0.00     0.184 A 
ATOM     10  C   UNL A   1      33.512  23.867  23.977  1.00  0.00     0.091 A 
ATOM     11  N   UNL A   1      33.068  25.177  23.901  1.00  0.00    -0.220 NA
ATOM     12  C   UNL A   1      32.566  22.898  23.673  1.00  0.00     0.064 A 
ATOM     13  S   UNL A   1      31.161  23.685  23.080  1.00  0.00    -0.096 S 
BRANCH  10  14
ATOM     14  C   UNL A   1      34.863  23.568  24.423  1.00  0.00     0.002 A 
ATOM     15  C   UNL A   1      37.403  22.857  25.365  1.00  0.00     0.118 A 
ATOM     16  C   UNL A   1      36.985  22.442  24.101  1.00  0.00     0.047 A 
ATOM     17  C   UNL A   1      36.576  23.674  26.138  1.00  0.00     0.047 A 
ATOM     18  C   UNL A   1      35.717  22.788  23.633  1.00  0.00     0.014 A 
ATOM     19  C   UNL A   1      35.309  24.033  25.665  1.00  0.00     0.014 A 
BRANCH  15  20
ATOM     20  O   UNL A   1      38.659  22.466  25.740  1.00  0.00    -0.497 OA
ATOM     21  C   UNL A   1      38.895  21.069  25.589  1.00  0.00     0.278 C 
ENDBRANCH  15  20
ENDBRANCH  10  14
BRANCH  12  22
ATOM     22  C   UNL A   1      32.588  21.437  23.828  1.00  0.00    -0.006 A 
ATOM     23  C   UNL A   1      32.182  20.577  22.800  1.00  0.00     0.013 A 
ATOM     24  C   UNL A   1      33.017  20.870  25.038  1.00  0.00     0.013 A 
ATOM     25  C   UNL A   1      32.221  19.190  22.981  1.00  0.00     0.047 A 
ATOM     26  C   UNL A   1      33.065  19.483  25.213  1.00  0.00     0.047 A 
ATOM     27  C   UNL A   1      32.674  18.636  24.180  1.00  0.00     0.118 A 
BRANCH  27  28
ATOM     28  O   UNL A   1      32.678  17.269  24.218  1.00  0.00    -0.497 OA
ATOM     29  C   UNL A   1      33.947  16.639  24.355  1.00  0.00     0.278 C 
ENDBRANCH  27  28
ENDBRANCH  12  22
ENDBRANCH   7   9
ENDBRANCH   6   7
ENDBRANCH   3   6
ENDBRANCH   1   2
BRANCH   1  30
ATOM     30  C   UNL A   1      31.648  30.485  26.861  1.00  0.00     0.023 C 
BRANCH  30  31
ATOM     31  C   UNL A   1      31.451  32.003  26.869  1.00  0.00     0.023 C 
BRANCH  31  32
ATOM     32  C   UNL A   1      32.698  32.817  27.203  1.00  0.00     0.116 C 
BRANCH  32  33
ATOM     33  N   UNL A   1      32.396  34.154  27.693  1.00  0.00    -0.352 N 
ATOM     34  C   UNL A   1      33.036  34.874  28.674  1.00  0.00     0.251 C 
ATOM     35  H   UNL A   1      31.632  34.602  27.264  1.00  0.00     0.163 HD
ATOM     36  O   UNL A   1      32.577  35.946  29.054  1.00  0.00    -0.269 OA
BRANCH  34  37
ATOM     37  C   UNL A   1      34.261  34.329  29.297  1.00  0.00     0.039 A 
ATOM     38  C   UNL A   1      34.143  33.571  30.464  1.00  0.00     0.014 A 
ATOM     39  C   UNL A   1      35.515  34.544  28.720  1.00  0.00     0.014 A 
ATOM     40  C   UNL A   1      35.275  32.968  31.015  1.00  0.00     0.010 A 
ATOM     41  C   UNL A   1      36.631  33.885  29.229  1.00  0.00     0.010 A 
ATOM     42  C   UNL A   1      36.523  33.090  30.379  1.00  0.00    -0.014 A 
BRANCH  42  43
ATOM     43  C   UNL A   1      37.721  32.384  30.897  1.00  0.00     0.031 A 
ATOM     44  C   UNL A   1      38.461  32.923  32.091  1.00  0.00     0.074 A 
ATOM     45  C   UNL A   1      38.186  31.295  30.254  1.00  0.00     0.049 A 
ATOM     46  N   UNL A   1      39.554  32.475  32.657  1.00  0.00    -0.248 NA
ATOM     47  C   UNL A   1      37.914  34.137  32.716  1.00  0.00     0.031 C 
ATOM     48  C   UNL A   1      37.584  30.691  29.064  1.00  0.00     0.029 A 
ATOM     49  N   UNL A   1      39.278  30.505  30.512  1.00  0.00    -0.354 N 
ATOM     50  C   UNL A   1      39.833  33.360  33.689  1.00  0.00     0.074 A 
ATOM     51  C   UNL A   1      38.826  34.398  33.640  1.00  0.00     0.031 C 
ATOM     52  C   UNL A   1      38.293  29.606  28.716  1.00  0.00     0.029 A 
ATOM     53  C   UNL A   1      39.422  29.461  29.630  1.00  0.00     0.049 A 
ATOM     54  H   UNL A   1      39.899  30.668  31.258  1.00  0.00     0.167 HD
ATOM     55  C   UNL A   1      40.826  33.307  34.608  1.00  0.00     0.031 A 
ATOM     56  C   UNL A   1      40.359  28.498  29.562  1.00  0.00     0.031 A 
ATOM     57  C   UNL A   1      41.826  32.274  34.662  1.00  0.00     0.049 A 
ATOM     58  C   UNL A   1      41.468  28.476  30.576  1.00  0.00     0.074 A 
ATOM     59  C   UNL A   1      42.838  32.101  35.591  1.00  0.00     0.029 A 
ATOM     60  N   UNL A   1      41.942  31.241  33.746  1.00  0.00    -0.354 N 
ATOM     61  N   UNL A   1      41.677  29.280  31.590  1.00  0.00    -0.248 NA
ATOM     62  C   UNL A   1      42.467  27.406  30.439  1.00  0.00     0.031 C 
ATOM     63  C   UNL A   1      43.600  30.992  35.204  1.00  0.00     0.029 A 
ATOM     64  C   UNL A   1      43.026  30.442  34.069  1.00  0.00     0.049 A 
ATOM     65  H   UNL A   1      41.342  31.097  32.978  1.00  0.00     0.167 HD
ATOM     66  C   UNL A   1      42.810  28.795  32.230  1.00  0.00     0.074 A 
ATOM     67  C   UNL A   1      43.237  27.621  31.497  1.00  0.00     0.031 C 
ATOM     68  C   UNL A   1      43.439  29.277  33.330  1.00  0.00     0.031 A 
BRANCH  55  69
ATOM     69  C   UNL A   1      40.883  34.415  35.625  1.00  0.00    -0.014 A 
ATOM     70  C   UNL A   1      40.160  34.339  36.827  1.00  0.00     0.009 A 
ATOM     71  C   UNL A   1      41.684  35.542  35.387  1.00  0.00     0.009 A 
ATOM     72  C   UNL A   1      40.202  35.390  37.746  1.00  0.00     0.001 A 
ATOM     73  C   UNL A   1      41.748  36.577  36.322  1.00  0.00     0.001 A 
ATOM     74  C   UNL A   1      40.998  36.505  37.494  1.00  0.00     0.000 A 
ENDBRANCH  55  69
BRANCH  56  75
ATOM     75  C   UNL A   1      40.279  27.452  28.509  1.00  0.00    -0.014 A 
ATOM     76  C   UNL A   1      40.926  27.636  27.277  1.00  0.00     0.009 A 
ATOM     77  C   UNL A   1      39.551  26.271  28.722  1.00  0.00     0.009 A 
ATOM     78  C   UNL A   1      40.825  26.672  26.272  1.00  0.00     0.001 A 
ATOM     79  C   UNL A   1      39.475  25.296  27.725  1.00  0.00     0.001 A 
ATOM     80  C   UNL A   1      40.104  25.501  26.499  1.00  0.00     0.000 A 
ENDBRANCH  56  75
BRANCH  68  81
ATOM     81  C   UNL A   1      44.633  28.513  33.829  1.00  0.00    -0.014 A 
ATOM     82  C   UNL A   1      44.495  27.449  34.734  1.00  0.00     0.009 A 
ATOM     83  C   UNL A   1      45.913  28.843  33.355  1.00  0.00     0.009 A 
ATOM     84  C   UNL A   1      45.621  26.753  35.180  1.00  0.00     0.001 A 
ATOM     85  C   UNL A   1      47.033  28.126  33.780  1.00  0.00     0.001 A 
ATOM     86  C   UNL A   1      46.886  27.088  34.699  1.00  0.00     0.000 A 
ENDBRANCH  68  81
ENDBRANCH  42  43
ENDBRANCH  34  37
ENDBRANCH  32  33
ENDBRANCH  31  32
ENDBRANCH  30  31
ENDBRANCH   1  30
TORSDOF 17
ENDMDL
