MODEL 1
REMARK VINA RESULT:     -10.7      0.000      0.000
REMARK SMILES CCC[C@@]1(C(=O)NCCCCNC(=O)c2ccc(-c3c4nc(c(-c5ccccc5)c5ccc([nH]5)c(-c5ccccc5)c5nc(c(-c6ccccc6)c6ccc3[nH]6)C=C5)C=C4)cc2)CCN(C(=O)[C@@H]2CC[NH2+][C@@H]2C)C1
REMARK SMILES IDX 9 1 8 2 7 3 5 4 6 5 4 7 63 8 74 9 64 10 65 11 3 12 2 13 1 14
REMARK SMILES IDX 66 15 67 16 68 17 69 18 72 19 70 20 71 21 73 22 10 25 11 26
REMARK SMILES IDX 12 27 13 28 14 30 15 31 16 32 62 33 17 34 61 35 18 36 19 37
REMARK SMILES IDX 20 38 55 39 21 40 60 41 54 42 56 43 22 44 59 45 53 46 52 47
REMARK SMILES IDX 23 49 45 50 30 51 44 52 31 53 34 54 43 55 57 56 32 57 33 58
REMARK SMILES IDX 42 60 58 61 35 62 24 63 25 64 29 65 26 66 28 67 27 68 46 69
REMARK SMILES IDX 47 70 51 71 48 72 50 73 49 74 36 75 37 76 41 77 38 78 40 79
REMARK SMILES IDX 39 80
REMARK H PARENT 7 6 71 23 71 24 12 29 56 48 34 59
REMARK Flexibility Score: inf
ROOT
ATOM      1  C   UNL A   1      36.637  22.106  24.449  1.00  0.00     0.023 C 
ENDROOT
BRANCH   1   2
ATOM      2  C   UNL A   1      36.601  23.243  25.476  1.00  0.00     0.116 C 
BRANCH   2   3
ATOM      3  N   UNL A   1      35.603  22.988  26.494  1.00  0.00    -0.356 N 
ATOM      4  C   UNL A   1      34.293  23.323  26.630  1.00  0.00     0.228 C 
ATOM      5  O   UNL A   1      33.778  22.958  27.693  1.00  0.00    -0.274 OA
ATOM      6  H   UNL A   1      35.947  22.458  27.249  1.00  0.00     0.163 HD
BRANCH   4   7
ATOM      7  C   UNL A   1      33.427  23.951  25.512  1.00  0.00     0.068 C 
ATOM      8  C   UNL A   1      34.069  25.069  24.678  1.00  0.00     0.040 C 
ATOM      9  C   UNL A   1      32.283  24.776  26.210  1.00  0.00     0.136 C 
ATOM     10  C   UNL A   1      34.044  26.245  25.617  1.00  0.00     0.120 C 
ATOM     11  N   UNL A   1      32.709  26.181  26.134  1.00  0.00    -0.341 N 
BRANCH   7  12
ATOM     12  C   UNL A   1      32.848  22.750  24.710  1.00  0.00     0.018 C 
BRANCH  12  13
ATOM     13  C   UNL A   1      33.123  22.657  23.204  1.00  0.00    -0.002 C 
ATOM     14  C   UNL A   1      32.234  21.653  22.484  1.00  0.00     0.004 C 
ENDBRANCH  12  13
ENDBRANCH   7  12
BRANCH  11  15
ATOM     15  C   UNL A   1      31.865  27.218  26.434  1.00  0.00     0.231 C 
ATOM     16  O   UNL A   1      31.289  27.258  27.525  1.00  0.00    -0.274 OA
BRANCH  15  17
ATOM     17  C   UNL A   1      31.535  28.293  25.388  1.00  0.00     0.142 C 
ATOM     18  C   UNL A   1      31.431  27.745  23.964  1.00  0.00     0.081 C 
ATOM     19  C   UNL A   1      32.382  29.560  25.273  1.00  0.00     0.192 C 
ATOM     20  C   UNL A   1      32.351  28.602  23.104  1.00  0.00     0.261 C 
ATOM     21  N   UNL A   1      33.113  29.465  24.002  1.00  0.00    -0.343 N 
ATOM     22  C   UNL A   1      33.334  29.877  26.418  1.00  0.00     0.076 C 
ATOM     23  H   UNL A   1      33.210  30.393  23.589  1.00  0.00     0.346 HD
ATOM     24  H   UNL A   1      34.045  29.080  24.157  1.00  0.00     0.346 HD
ENDBRANCH  15  17
ENDBRANCH  11  15
ENDBRANCH   4   7
ENDBRANCH   2   3
ENDBRANCH   1   2
BRANCH   1  25
ATOM     25  C   UNL A   1      37.307  20.827  24.956  1.00  0.00     0.023 C 
BRANCH  25  26
ATOM     26  C   UNL A   1      38.619  21.060  25.689  1.00  0.00     0.116 C 
BRANCH  26  27
ATOM     27  N   UNL A   1      39.515  19.916  25.642  1.00  0.00    -0.352 N 
ATOM     28  C   UNL A   1      40.842  19.862  26.013  1.00  0.00     0.251 C 
ATOM     29  H   UNL A   1      39.126  19.076  25.306  1.00  0.00     0.163 HD
ATOM     30  O   UNL A   1      41.506  18.862  25.834  1.00  0.00    -0.269 OA
BRANCH  28  31
ATOM     31  C   UNL A   1      41.449  21.079  26.591  1.00  0.00     0.039 A 
ATOM     32  C   UNL A   1      41.991  22.033  25.727  1.00  0.00     0.014 A 
ATOM     33  C   UNL A   1      41.409  21.301  27.969  1.00  0.00     0.014 A 
ATOM     34  C   UNL A   1      42.437  23.248  26.246  1.00  0.00     0.010 A 
ATOM     35  C   UNL A   1      41.783  22.538  28.473  1.00  0.00     0.010 A 
ATOM     36  C   UNL A   1      42.302  23.522  27.617  1.00  0.00    -0.014 A 
BRANCH  36  37
ATOM     37  C   UNL A   1      42.709  24.827  28.188  1.00  0.00     0.031 A 
ATOM     38  C   UNL A   1      41.678  25.894  28.414  1.00  0.00     0.074 A 
ATOM     39  C   UNL A   1      44.010  25.075  28.432  1.00  0.00     0.049 A 
ATOM     40  N   UNL A   1      41.840  27.127  28.821  1.00  0.00    -0.248 NA
ATOM     41  C   UNL A   1      40.282  25.537  28.112  1.00  0.00     0.031 C 
ATOM     42  C   UNL A   1      45.110  24.131  28.224  1.00  0.00     0.029 A 
ATOM     43  N   UNL A   1      44.625  26.206  28.905  1.00  0.00    -0.354 N 
ATOM     44  C   UNL A   1      40.574  27.696  28.805  1.00  0.00     0.074 A 
ATOM     45  C   UNL A   1      39.663  26.694  28.296  1.00  0.00     0.031 C 
ATOM     46  C   UNL A   1      46.262  24.712  28.600  1.00  0.00     0.029 A 
ATOM     47  C   UNL A   1      45.986  26.077  29.035  1.00  0.00     0.049 A 
ATOM     48  H   UNL A   1      44.138  27.030  29.130  1.00  0.00     0.167 HD
ATOM     49  C   UNL A   1      40.196  28.935  29.197  1.00  0.00     0.031 A 
ATOM     50  C   UNL A   1      46.907  26.963  29.457  1.00  0.00     0.031 A 
ATOM     51  C   UNL A   1      41.100  29.927  29.714  1.00  0.00     0.049 A 
ATOM     52  C   UNL A   1      46.469  28.338  29.870  1.00  0.00     0.074 A 
ATOM     53  C   UNL A   1      40.811  31.196  30.185  1.00  0.00     0.029 A 
ATOM     54  N   UNL A   1      42.470  29.758  29.830  1.00  0.00    -0.354 N 
ATOM     55  N   UNL A   1      45.260  28.847  29.897  1.00  0.00    -0.248 NA
ATOM     56  C   UNL A   1      47.522  29.261  30.318  1.00  0.00     0.031 C 
ATOM     57  C   UNL A   1      42.014  31.809  30.548  1.00  0.00     0.029 A 
ATOM     58  C   UNL A   1      43.045  30.905  30.349  1.00  0.00     0.049 A 
ATOM     59  H   UNL A   1      42.962  28.942  29.580  1.00  0.00     0.167 HD
ATOM     60  C   UNL A   1      45.403  30.136  30.392  1.00  0.00     0.074 A 
ATOM     61  C   UNL A   1      46.814  30.329  30.660  1.00  0.00     0.031 C 
ATOM     62  C   UNL A   1      44.451  31.075  30.611  1.00  0.00     0.031 A 
BRANCH  49  63
ATOM     63  C   UNL A   1      38.739  29.277  29.068  1.00  0.00    -0.014 A 
ATOM     64  C   UNL A   1      38.209  29.753  27.857  1.00  0.00     0.009 A 
ATOM     65  C   UNL A   1      37.884  29.126  30.170  1.00  0.00     0.009 A 
ATOM     66  C   UNL A   1      36.865  30.117  27.767  1.00  0.00     0.001 A 
ATOM     67  C   UNL A   1      36.533  29.461  30.068  1.00  0.00     0.001 A 
ATOM     68  C   UNL A   1      36.028  29.968  28.871  1.00  0.00     0.000 A 
ENDBRANCH  49  63
BRANCH  50  69
ATOM     69  C   UNL A   1      48.335  26.563  29.545  1.00  0.00    -0.014 A 
ATOM     70  C   UNL A   1      49.200  26.796  28.465  1.00  0.00     0.009 A 
ATOM     71  C   UNL A   1      48.843  25.957  30.704  1.00  0.00     0.009 A 
ATOM     72  C   UNL A   1      50.539  26.410  28.534  1.00  0.00     0.001 A 
ATOM     73  C   UNL A   1      50.189  25.593  30.779  1.00  0.00     0.001 A 
ATOM     74  C   UNL A   1      51.035  25.814  29.693  1.00  0.00     0.000 A 
ENDBRANCH  50  69
BRANCH  62  75
ATOM     75  C   UNL A   1      44.898  32.379  31.207  1.00  0.00    -0.014 A 
ATOM     76  C   UNL A   1      44.974  32.557  32.596  1.00  0.00     0.009 A 
ATOM     77  C   UNL A   1      45.292  33.427  30.360  1.00  0.00     0.009 A 
ATOM     78  C   UNL A   1      45.408  33.773  33.127  1.00  0.00     0.001 A 
ATOM     79  C   UNL A   1      45.751  34.632  30.893  1.00  0.00     0.001 A 
ATOM     80  C   UNL A   1      45.802  34.807  32.275  1.00  0.00     0.000 A 
ENDBRANCH  62  75
ENDBRANCH  36  37
ENDBRANCH  28  31
ENDBRANCH  26  27
ENDBRANCH  25  26
ENDBRANCH   1  25
TORSDOF 15
ENDMDL
MODEL 2
REMARK VINA RESULT:     -10.7      0.834      6.009
REMARK SMILES CCC[C@@]1(C(=O)NCCCCNC(=O)c2ccc(-c3c4nc(c(-c5ccccc5)c5ccc([nH]5)c(-c5ccccc5)c5nc(c(-c6ccccc6)c6ccc3[nH]6)C=C5)C=C4)cc2)CCN(C(=O)[C@@H]2CC[NH2+][C@@H]2C)C1
REMARK SMILES IDX 9 1 8 2 7 3 5 4 6 5 4 7 63 8 74 9 64 10 65 11 3 12 2 13 1 14
REMARK SMILES IDX 66 15 67 16 68 17 69 18 72 19 70 20 71 21 73 22 10 25 11 26
REMARK SMILES IDX 12 27 13 28 14 30 15 31 16 32 62 33 17 34 61 35 18 36 19 37
REMARK SMILES IDX 20 38 55 39 21 40 60 41 54 42 56 43 22 44 59 45 53 46 52 47
REMARK SMILES IDX 23 49 45 50 30 51 44 52 31 53 34 54 43 55 57 56 32 57 33 58
REMARK SMILES IDX 42 60 58 61 35 62 24 63 25 64 29 65 26 66 28 67 27 68 46 69
REMARK SMILES IDX 47 70 51 71 48 72 50 73 49 74 36 75 37 76 41 77 38 78 40 79
REMARK SMILES IDX 39 80
REMARK H PARENT 7 6 71 23 71 24 12 29 56 48 34 59
REMARK Flexibility Score: inf
ROOT
ATOM      1  C   UNL A   1      36.366  20.675  25.149  1.00  0.00     0.023 C 
ENDROOT
BRANCH   1   2
ATOM      2  C   UNL A   1      36.336  22.014  25.893  1.00  0.00     0.116 C 
BRANCH   2   3
ATOM      3  N   UNL A   1      35.305  22.016  26.911  1.00  0.00    -0.356 N 
ATOM      4  C   UNL A   1      34.036  22.498  26.961  1.00  0.00     0.228 C 
ATOM      5  O   UNL A   1      33.473  22.351  28.052  1.00  0.00    -0.274 OA
ATOM      6  H   UNL A   1      35.584  21.573  27.745  1.00  0.00     0.163 HD
BRANCH   4   7
ATOM      7  C   UNL A   1      33.253  23.036  25.739  1.00  0.00     0.068 C 
ATOM      8  C   UNL A   1      34.055  23.809  24.683  1.00  0.00     0.040 C 
ATOM      9  C   UNL A   1      32.321  24.196  26.253  1.00  0.00     0.136 C 
ATOM     10  C   UNL A   1      34.298  25.137  25.349  1.00  0.00     0.120 C 
ATOM     11  N   UNL A   1      33.001  25.443  25.876  1.00  0.00    -0.341 N 
BRANCH   7  12
ATOM     12  C   UNL A   1      32.420  21.831  25.216  1.00  0.00     0.018 C 
BRANCH  12  13
ATOM     13  C   UNL A   1      32.841  21.144  23.911  1.00  0.00    -0.002 C 
ATOM     14  C   UNL A   1      32.623  19.637  23.919  1.00  0.00     0.004 C 
ENDBRANCH  12  13
ENDBRANCH   7  12
BRANCH  11  15
ATOM     15  C   UNL A   1      32.384  26.665  25.951  1.00  0.00     0.231 C 
ATOM     16  O   UNL A   1      31.206  26.791  25.602  1.00  0.00    -0.274 OA
BRANCH  15  17
ATOM     17  C   UNL A   1      33.166  27.919  26.370  1.00  0.00     0.142 C 
ATOM     18  C   UNL A   1      32.399  28.818  27.340  1.00  0.00     0.081 C 
ATOM     19  C   UNL A   1      33.752  28.863  25.321  1.00  0.00     0.192 C 
ATOM     20  C   UNL A   1      32.418  30.217  26.738  1.00  0.00     0.261 C 
ATOM     21  N   UNL A   1      32.976  30.108  25.394  1.00  0.00    -0.343 N 
ATOM     22  C   UNL A   1      33.828  28.360  23.886  1.00  0.00     0.076 C 
ATOM     23  H   UNL A   1      33.585  30.906  25.207  1.00  0.00     0.346 HD
ATOM     24  H   UNL A   1      32.229  30.101  24.699  1.00  0.00     0.346 HD
ENDBRANCH  15  17
ENDBRANCH  11  15
ENDBRANCH   4   7
ENDBRANCH   2   3
ENDBRANCH   1   2
BRANCH   1  25
ATOM     25  C   UNL A   1      37.759  20.253  24.678  1.00  0.00     0.023 C 
BRANCH  25  26
ATOM     26  C   UNL A   1      38.858  20.469  25.708  1.00  0.00     0.116 C 
BRANCH  26  27
ATOM     27  N   UNL A   1      39.858  19.415  25.712  1.00  0.00    -0.352 N 
ATOM     28  C   UNL A   1      41.182  19.504  26.086  1.00  0.00     0.251 C 
ATOM     29  H   UNL A   1      39.552  18.528  25.413  1.00  0.00     0.163 HD
ATOM     30  O   UNL A   1      41.939  18.564  25.951  1.00  0.00    -0.269 OA
BRANCH  28  31
ATOM     31  C   UNL A   1      41.668  20.797  26.610  1.00  0.00     0.039 A 
ATOM     32  C   UNL A   1      42.210  21.722  25.716  1.00  0.00     0.014 A 
ATOM     33  C   UNL A   1      41.514  21.112  27.961  1.00  0.00     0.014 A 
ATOM     34  C   UNL A   1      42.540  22.998  26.171  1.00  0.00     0.010 A 
ATOM     35  C   UNL A   1      41.773  22.405  28.395  1.00  0.00     0.010 A 
ATOM     36  C   UNL A   1      42.289  23.359  27.504  1.00  0.00    -0.014 A 
BRANCH  36  37
ATOM     37  C   UNL A   1      42.571  24.725  28.002  1.00  0.00     0.031 A 
ATOM     38  C   UNL A   1      43.970  25.096  28.403  1.00  0.00     0.074 A 
ATOM     39  C   UNL A   1      41.563  25.603  28.160  1.00  0.00     0.049 A 
ATOM     40  N   UNL A   1      44.408  26.206  28.940  1.00  0.00    -0.248 NA
ATOM     41  C   UNL A   1      45.008  24.072  28.201  1.00  0.00     0.031 C 
ATOM     42  C   UNL A   1      40.157  25.351  27.837  1.00  0.00     0.029 A 
ATOM     43  N   UNL A   1      41.570  26.886  28.643  1.00  0.00    -0.354 N 
ATOM     44  C   UNL A   1      45.764  26.005  29.159  1.00  0.00     0.074 A 
ATOM     45  C   UNL A   1      46.066  24.651  28.748  1.00  0.00     0.031 C 
ATOM     46  C   UNL A   1      39.442  26.458  28.099  1.00  0.00     0.029 A 
ATOM     47  C   UNL A   1      40.331  27.479  28.644  1.00  0.00     0.049 A 
ATOM     48  H   UNL A   1      42.384  27.340  28.957  1.00  0.00     0.167 HD
ATOM     49  C   UNL A   1      46.684  26.875  29.639  1.00  0.00     0.031 A 
ATOM     50  C   UNL A   1      39.955  28.708  29.044  1.00  0.00     0.031 A 
ATOM     51  C   UNL A   1      46.386  28.224  30.035  1.00  0.00     0.049 A 
ATOM     52  C   UNL A   1      40.988  29.651  29.591  1.00  0.00     0.074 A 
ATOM     53  C   UNL A   1      47.254  29.202  30.490  1.00  0.00     0.029 A 
ATOM     54  N   UNL A   1      45.120  28.786  30.022  1.00  0.00    -0.354 N 
ATOM     55  N   UNL A   1      42.277  29.465  29.745  1.00  0.00    -0.248 NA
ATOM     56  C   UNL A   1      40.515  30.977  30.012  1.00  0.00     0.031 C 
ATOM     57  C   UNL A   1      46.505  30.344  30.789  1.00  0.00     0.029 A 
ATOM     58  C   UNL A   1      45.178  30.093  30.475  1.00  0.00     0.049 A 
ATOM     59  H   UNL A   1      44.300  28.325  29.733  1.00  0.00     0.167 HD
ATOM     60  C   UNL A   1      42.774  30.658  30.252  1.00  0.00     0.074 A 
ATOM     61  C   UNL A   1      41.648  31.564  30.371  1.00  0.00     0.031 C 
ATOM     62  C   UNL A   1      44.048  30.978  30.584  1.00  0.00     0.031 A 
BRANCH  49  63
ATOM     63  C   UNL A   1      48.096  26.375  29.764  1.00  0.00    -0.014 A 
ATOM     64  C   UNL A   1      49.005  26.496  28.700  1.00  0.00     0.009 A 
ATOM     65  C   UNL A   1      48.522  25.774  30.957  1.00  0.00     0.009 A 
ATOM     66  C   UNL A   1      50.298  25.982  28.812  1.00  0.00     0.001 A 
ATOM     67  C   UNL A   1      49.825  25.287  31.077  1.00  0.00     0.001 A 
ATOM     68  C   UNL A   1      50.707  25.380  30.001  1.00  0.00     0.000 A 
ENDBRANCH  49  63
BRANCH  50  69
ATOM     69  C   UNL A   1      38.538  29.133  28.906  1.00  0.00    -0.014 A 
ATOM     70  C   UNL A   1      38.068  29.631  27.681  1.00  0.00     0.009 A 
ATOM     71  C   UNL A   1      37.650  29.039  29.988  1.00  0.00     0.009 A 
ATOM     72  C   UNL A   1      36.742  30.046  27.548  1.00  0.00     0.001 A 
ATOM     73  C   UNL A   1      36.318  29.433  29.845  1.00  0.00     0.001 A 
ATOM     74  C   UNL A   1      35.866  29.942  28.628  1.00  0.00     0.000 A 
ENDBRANCH  50  69
BRANCH  62  75
ATOM     75  C   UNL A   1      44.300  32.377  31.068  1.00  0.00    -0.014 A 
ATOM     76  C   UNL A   1      44.321  32.681  32.437  1.00  0.00     0.009 A 
ATOM     77  C   UNL A   1      44.565  33.394  30.138  1.00  0.00     0.009 A 
ATOM     78  C   UNL A   1      44.575  33.986  32.864  1.00  0.00     0.001 A 
ATOM     79  C   UNL A   1      44.843  34.692  30.568  1.00  0.00     0.001 A 
ATOM     80  C   UNL A   1      44.841  34.988  31.930  1.00  0.00     0.000 A 
ENDBRANCH  62  75
ENDBRANCH  36  37
ENDBRANCH  28  31
ENDBRANCH  26  27
ENDBRANCH  25  26
ENDBRANCH   1  25
TORSDOF 15
ENDMDL
MODEL 3
REMARK VINA RESULT:     -10.6      3.674      8.883
REMARK SMILES CCC[C@@]1(C(=O)NCCCCNC(=O)c2ccc(-c3c4nc(c(-c5ccccc5)c5ccc([nH]5)c(-c5ccccc5)c5nc(c(-c6ccccc6)c6ccc3[nH]6)C=C5)C=C4)cc2)CCN(C(=O)[C@@H]2CC[NH2+][C@@H]2C)C1
REMARK SMILES IDX 9 1 8 2 7 3 5 4 6 5 4 7 63 8 74 9 64 10 65 11 3 12 2 13 1 14
REMARK SMILES IDX 66 15 67 16 68 17 69 18 72 19 70 20 71 21 73 22 10 25 11 26
REMARK SMILES IDX 12 27 13 28 14 30 15 31 16 32 62 33 17 34 61 35 18 36 19 37
REMARK SMILES IDX 20 38 55 39 21 40 60 41 54 42 56 43 22 44 59 45 53 46 52 47
REMARK SMILES IDX 23 49 45 50 30 51 44 52 31 53 34 54 43 55 57 56 32 57 33 58
REMARK SMILES IDX 42 60 58 61 35 62 24 63 25 64 29 65 26 66 28 67 27 68 46 69
REMARK SMILES IDX 47 70 51 71 48 72 50 73 49 74 36 75 37 76 41 77 38 78 40 79
REMARK SMILES IDX 39 80
REMARK H PARENT 7 6 71 23 71 24 12 29 56 48 34 59
REMARK Flexibility Score: inf
ROOT
ATOM      1  C   UNL A   1      31.696  30.447  26.369  1.00  0.00     0.023 C 
ENDROOT
BRANCH   1   2
ATOM      2  C   UNL A   1      33.140  30.044  26.056  1.00  0.00     0.116 C 
BRANCH   2   3
ATOM      3  N   UNL A   1      33.284  29.682  24.661  1.00  0.00    -0.356 N 
ATOM      4  C   UNL A   1      33.116  28.525  23.968  1.00  0.00     0.228 C 
ATOM      5  O   UNL A   1      33.394  28.601  22.766  1.00  0.00    -0.274 OA
ATOM      6  H   UNL A   1      33.564  30.436  24.092  1.00  0.00     0.163 HD
BRANCH   4   7
ATOM      7  C   UNL A   1      32.468  27.243  24.546  1.00  0.00     0.068 C 
ATOM      8  C   UNL A   1      33.075  26.677  25.837  1.00  0.00     0.040 C 
ATOM      9  C   UNL A   1      32.808  26.062  23.563  1.00  0.00     0.136 C 
ATOM     10  C   UNL A   1      34.353  26.042  25.358  1.00  0.00     0.120 C 
ATOM     11  N   UNL A   1      33.909  25.325  24.199  1.00  0.00    -0.341 N 
BRANCH   7  12
ATOM     12  C   UNL A   1      30.939  27.528  24.579  1.00  0.00     0.018 C 
BRANCH  12  13
ATOM     13  C   UNL A   1      30.117  27.335  23.299  1.00  0.00    -0.002 C 
ATOM     14  C   UNL A   1      29.217  28.519  22.971  1.00  0.00     0.004 C 
ENDBRANCH  12  13
ENDBRANCH   7  12
BRANCH  11  15
ATOM     15  C   UNL A   1      34.323  24.098  23.752  1.00  0.00     0.231 C 
ATOM     16  O   UNL A   1      34.522  23.907  22.548  1.00  0.00    -0.274 OA
BRANCH  15  17
ATOM     17  C   UNL A   1      34.447  22.908  24.716  1.00  0.00     0.142 C 
ATOM     18  C   UNL A   1      33.293  22.810  25.713  1.00  0.00     0.081 C 
ATOM     19  C   UNL A   1      35.715  22.700  25.543  1.00  0.00     0.192 C 
ATOM     20  C   UNL A   1      33.924  22.721  27.097  1.00  0.00     0.261 C 
ATOM     21  N   UNL A   1      35.355  22.966  26.942  1.00  0.00    -0.343 N 
ATOM     22  C   UNL A   1      36.953  23.492  25.146  1.00  0.00     0.076 C 
ATOM     23  H   UNL A   1      35.880  22.346  27.558  1.00  0.00     0.346 HD
ATOM     24  H   UNL A   1      35.578  23.931  27.187  1.00  0.00     0.346 HD
ENDBRANCH  15  17
ENDBRANCH  11  15
ENDBRANCH   4   7
ENDBRANCH   2   3
ENDBRANCH   1   2
BRANCH   1  25
ATOM     25  C   UNL A   1      31.492  31.954  26.543  1.00  0.00     0.023 C 
BRANCH  25  26
ATOM     26  C   UNL A   1      32.635  32.659  27.256  1.00  0.00     0.116 C 
BRANCH  26  27
ATOM     27  N   UNL A   1      32.338  34.041  27.594  1.00  0.00    -0.352 N 
ATOM     28  C   UNL A   1      32.999  34.857  28.487  1.00  0.00     0.251 C 
ATOM     29  H   UNL A   1      31.571  34.444  27.127  1.00  0.00     0.163 HD
ATOM     30  O   UNL A   1      32.588  35.969  28.749  1.00  0.00    -0.269 OA
BRANCH  28  31
ATOM     31  C   UNL A   1      34.200  34.318  29.160  1.00  0.00     0.039 A 
ATOM     32  C   UNL A   1      34.035  33.553  30.316  1.00  0.00     0.014 A 
ATOM     33  C   UNL A   1      35.465  34.508  28.601  1.00  0.00     0.014 A 
ATOM     34  C   UNL A   1      35.142  32.920  30.879  1.00  0.00     0.010 A 
ATOM     35  C   UNL A   1      36.552  33.817  29.119  1.00  0.00     0.010 A 
ATOM     36  C   UNL A   1      36.400  33.018  30.263  1.00  0.00    -0.014 A 
BRANCH  36  37
ATOM     37  C   UNL A   1      37.583  32.307  30.802  1.00  0.00     0.031 A 
ATOM     38  C   UNL A   1      38.277  32.838  32.022  1.00  0.00     0.074 A 
ATOM     39  C   UNL A   1      38.071  31.232  30.155  1.00  0.00     0.049 A 
ATOM     40  N   UNL A   1      39.372  32.415  32.599  1.00  0.00    -0.248 NA
ATOM     41  C   UNL A   1      37.677  34.022  32.660  1.00  0.00     0.031 C 
ATOM     42  C   UNL A   1      37.505  30.639  28.942  1.00  0.00     0.029 A 
ATOM     43  N   UNL A   1      39.165  30.452  30.429  1.00  0.00    -0.354 N 
ATOM     44  C   UNL A   1      39.603  33.290  33.652  1.00  0.00     0.074 A 
ATOM     45  C   UNL A   1      38.566  34.299  33.602  1.00  0.00     0.031 C 
ATOM     46  C   UNL A   1      38.237  29.566  28.596  1.00  0.00     0.029 A 
ATOM     47  C   UNL A   1      39.343  29.423  29.537  1.00  0.00     0.049 A 
ATOM     48  H   UNL A   1      39.764  30.613  31.192  1.00  0.00     0.167 HD
ATOM     49  C   UNL A   1      40.576  33.250  34.592  1.00  0.00     0.031 A 
ATOM     50  C   UNL A   1      40.294  28.472  29.484  1.00  0.00     0.031 A 
ATOM     51  C   UNL A   1      41.599  32.241  34.649  1.00  0.00     0.049 A 
ATOM     52  C   UNL A   1      41.376  28.456  30.525  1.00  0.00     0.074 A 
ATOM     53  C   UNL A   1      42.603  32.082  35.588  1.00  0.00     0.029 A 
ATOM     54  N   UNL A   1      41.745  31.217  33.727  1.00  0.00    -0.354 N 
ATOM     55  N   UNL A   1      41.553  29.261  31.545  1.00  0.00    -0.248 NA
ATOM     56  C   UNL A   1      42.387  27.395  30.412  1.00  0.00     0.031 C 
ATOM     57  C   UNL A   1      43.381  30.983  35.210  1.00  0.00     0.029 A 
ATOM     58  C   UNL A   1      42.833  30.430  34.064  1.00  0.00     0.049 A 
ATOM     59  H   UNL A   1      41.161  31.070  32.948  1.00  0.00     0.167 HD
ATOM     60  C   UNL A   1      42.675  28.787  32.212  1.00  0.00     0.074 A 
ATOM     61  C   UNL A   1      43.132  27.620  31.485  1.00  0.00     0.031 C 
ATOM     62  C   UNL A   1      43.269  29.271  33.329  1.00  0.00     0.031 A 
BRANCH  49  63
ATOM     63  C   UNL A   1      40.574  34.341  35.625  1.00  0.00    -0.014 A 
ATOM     64  C   UNL A   1      39.845  34.209  36.818  1.00  0.00     0.009 A 
ATOM     65  C   UNL A   1      41.306  35.517  35.403  1.00  0.00     0.009 A 
ATOM     66  C   UNL A   1      39.810  35.252  37.746  1.00  0.00     0.001 A 
ATOM     67  C   UNL A   1      41.294  36.546  36.346  1.00  0.00     0.001 A 
ATOM     68  C   UNL A   1      40.536  36.418  37.509  1.00  0.00     0.000 A 
ENDBRANCH  49  63
BRANCH  50  69
ATOM     69  C   UNL A   1      40.245  27.431  28.425  1.00  0.00    -0.014 A 
ATOM     70  C   UNL A   1      39.573  26.222  28.658  1.00  0.00     0.009 A 
ATOM     71  C   UNL A   1      40.860  27.639  27.182  1.00  0.00     0.009 A 
ATOM     72  C   UNL A   1      39.536  25.232  27.674  1.00  0.00     0.001 A 
ATOM     73  C   UNL A   1      40.801  26.657  26.191  1.00  0.00     0.001 A 
ATOM     74  C   UNL A   1      40.145  25.452  26.440  1.00  0.00     0.000 A 
ENDBRANCH  50  69
BRANCH  62  75
ATOM     75  C   UNL A   1      44.454  28.515  33.857  1.00  0.00    -0.014 A 
ATOM     76  C   UNL A   1      44.297  27.447  34.752  1.00  0.00     0.009 A 
ATOM     77  C   UNL A   1      45.743  28.851  33.413  1.00  0.00     0.009 A 
ATOM     78  C   UNL A   1      45.413  26.747  35.216  1.00  0.00     0.001 A 
ATOM     79  C   UNL A   1      46.854  28.133  33.859  1.00  0.00     0.001 A 
ATOM     80  C   UNL A   1      46.689  27.088  34.765  1.00  0.00     0.000 A 
ENDBRANCH  62  75
ENDBRANCH  36  37
ENDBRANCH  28  31
ENDBRANCH  26  27
ENDBRANCH  25  26
ENDBRANCH   1  25
TORSDOF 15
ENDMDL
