MODEL 1
REMARK VINA RESULT:     -12.1      0.000      0.000
REMARK SMILES Cc1coc2c(C)c3oc(=O)c(CCC(=O)N[C@H](CC(C)C)C(=O)NCCCCNC(=O)c4ccc(-c5c6nc(c(-c7ccccc7)c7ccc([nH]7)c(-c7ccccc7)c7nc(c(-c8ccccc8)c8ccc5[nH]8)C=C7)C=C6)cc4)c(C)c3cc12
REMARK SMILES IDX 26 1 25 2 23 3 24 4 18 6 17 7 15 8 16 9 14 11 13 12 12 13
REMARK SMILES IDX 1 14 2 15 3 16 85 17 4 18 5 19 84 20 6 21 83 22 7 23 8 24
REMARK SMILES IDX 81 25 9 26 82 27 10 28 11 29 19 30 20 31 21 32 22 33 27 34
REMARK SMILES IDX 28 35 29 36 30 37 31 38 32 40 33 41 34 42 80 43 35 44 79 45
REMARK SMILES IDX 36 46 37 47 38 48 73 49 39 50 78 51 72 52 74 53 40 54 77 55
REMARK SMILES IDX 71 56 70 57 41 59 63 60 48 61 62 62 49 63 52 64 61 65 75 66
REMARK SMILES IDX 50 67 51 68 60 70 76 71 53 72 42 73 43 74 47 75 44 76 46 77
REMARK SMILES IDX 45 78 64 79 65 80 69 81 66 82 68 83 67 84 54 85 55 86 59 87
REMARK SMILES IDX 56 88 58 89 57 90
REMARK H PARENT 25 5 17 10 30 39 74 58 52 69
REMARK Flexibility Score: inf
ROOT
ATOM      1  C   UNL A   1      36.267  21.309  24.627  1.00  0.00     0.116 C 
ENDROOT
BRANCH   1   2
ATOM      2  N   UNL A   1      35.615  20.738  25.788  1.00  0.00    -0.354 N 
ATOM      3  C   UNL A   1      34.278  20.925  26.021  1.00  0.00     0.242 C 
ATOM      4  O   UNL A   1      33.967  21.648  26.968  1.00  0.00    -0.273 OA
ATOM      5  H   UNL A   1      36.145  20.202  26.423  1.00  0.00     0.163 HD
BRANCH   3   6
ATOM      6  C   UNL A   1      33.226  20.423  25.009  1.00  0.00     0.171 C 
BRANCH   6   7
ATOM      7  N   UNL A   1      32.090  21.342  24.899  1.00  0.00    -0.344 N 
ATOM      8  C   UNL A   1      31.795  22.323  24.004  1.00  0.00     0.220 C 
ATOM      9  O   UNL A   1      30.821  23.039  24.252  1.00  0.00    -0.275 OA
ATOM     10  H   UNL A   1      31.414  21.228  25.606  1.00  0.00     0.164 HD
BRANCH   8  11
ATOM     11  C   UNL A   1      32.609  22.539  22.744  1.00  0.00     0.105 C 
BRANCH  11  12
ATOM     12  C   UNL A   1      33.233  23.927  22.504  1.00  0.00     0.053 C 
BRANCH  12  13
ATOM     13  C   UNL A   1      32.744  25.066  23.379  1.00  0.00     0.042 A 
ATOM     14  C   UNL A   1      35.581  29.351  28.028  1.00  0.00     0.048 C 
ATOM     15  C   UNL A   1      34.303  29.589  27.315  1.00  0.00    -0.005 A 
ATOM     16  C   UNL A   1      33.585  30.765  27.249  1.00  0.00     0.199 A 
ATOM     17  C   UNL A   1      33.585  28.663  26.503  1.00  0.00     0.024 A 
ATOM     18  O   UNL A   1      32.522  30.639  26.413  1.00  0.00    -0.464 OA
ATOM     19  C   UNL A   1      32.535  29.362  25.928  1.00  0.00     0.140 A 
ATOM     20  C   UNL A   1      33.786  27.323  26.132  1.00  0.00     0.024 A 
ATOM     21  C   UNL A   1      31.671  28.846  24.953  1.00  0.00     0.036 A 
ATOM     22  C   UNL A   1      32.992  26.747  25.128  1.00  0.00     0.022 A 
ATOM     23  C   UNL A   1      30.674  29.714  24.250  1.00  0.00     0.052 C 
ATOM     24  C   UNL A   1      31.951  27.507  24.583  1.00  0.00     0.145 A 
ATOM     25  C   UNL A   1      33.377  25.463  24.503  1.00  0.00    -0.030 A 
ATOM     26  O   UNL A   1      31.178  26.954  23.535  1.00  0.00    -0.422 OA
ATOM     27  C   UNL A   1      34.580  24.751  25.075  1.00  0.00     0.046 C 
ATOM     28  C   UNL A   1      31.500  25.754  22.921  1.00  0.00     0.339 A 
ATOM     29  O   UNL A   1      30.807  25.302  22.016  1.00  0.00    -0.246 OA
ENDBRANCH  12  13
ENDBRANCH  11  12
ENDBRANCH   8  11
ENDBRANCH   6   7
BRANCH   6  30
ATOM     30  C   UNL A   1      32.849  18.987  25.380  1.00  0.00     0.038 C 
BRANCH  30  31
ATOM     31  C   UNL A   1      33.232  17.918  24.344  1.00  0.00    -0.015 C 
ATOM     32  C   UNL A   1      32.856  16.495  24.775  1.00  0.00     0.007 C 
ATOM     33  C   UNL A   1      32.526  18.223  23.023  1.00  0.00     0.007 C 
ENDBRANCH  30  31
ENDBRANCH   6  30
ENDBRANCH   3   6
ENDBRANCH   1   2
BRANCH   1  34
ATOM     34  C   UNL A   1      37.785  21.399  24.831  1.00  0.00     0.023 C 
BRANCH  34  35
ATOM     35  C   UNL A   1      38.274  22.597  25.660  1.00  0.00     0.023 C 
BRANCH  35  36
ATOM     36  C   UNL A   1      39.320  22.234  26.700  1.00  0.00     0.116 C 
BRANCH  36  37
ATOM     37  N   UNL A   1      40.660  22.157  26.129  1.00  0.00    -0.352 N 
ATOM     38  C   UNL A   1      41.597  23.161  26.014  1.00  0.00     0.251 C 
ATOM     39  H   UNL A   1      40.929  21.276  25.782  1.00  0.00     0.163 HD
ATOM     40  O   UNL A   1      42.543  23.063  25.250  1.00  0.00    -0.269 OA
BRANCH  38  41
ATOM     41  C   UNL A   1      41.433  24.361  26.847  1.00  0.00     0.039 A 
ATOM     42  C   UNL A   1      42.196  24.537  28.003  1.00  0.00     0.014 A 
ATOM     43  C   UNL A   1      40.512  25.322  26.432  1.00  0.00     0.014 A 
ATOM     44  C   UNL A   1      42.068  25.729  28.709  1.00  0.00     0.010 A 
ATOM     45  C   UNL A   1      40.481  26.544  27.052  1.00  0.00     0.010 A 
ATOM     46  C   UNL A   1      41.219  26.731  28.216  1.00  0.00    -0.014 A 
BRANCH  46  47
ATOM     47  C   UNL A   1      41.175  28.041  28.847  1.00  0.00     0.031 A 
ATOM     48  C   UNL A   1      42.225  28.988  28.384  1.00  0.00     0.074 A 
ATOM     49  C   UNL A   1      40.144  28.434  29.626  1.00  0.00     0.049 A 
ATOM     50  N   UNL A   1      43.173  29.503  29.093  1.00  0.00    -0.248 NA
ATOM     51  C   UNL A   1      42.312  29.311  26.949  1.00  0.00     0.031 C 
ATOM     52  C   UNL A   1      38.901  27.719  29.935  1.00  0.00     0.029 A 
ATOM     53  N   UNL A   1      39.944  29.640  30.217  1.00  0.00    -0.354 N 
ATOM     54  C   UNL A   1      43.882  30.349  28.247  1.00  0.00     0.074 A 
ATOM     55  C   UNL A   1      43.399  30.086  26.914  1.00  0.00     0.031 C 
ATOM     56  C   UNL A   1      37.989  28.589  30.428  1.00  0.00     0.029 A 
ATOM     57  C   UNL A   1      38.638  29.872  30.628  1.00  0.00     0.049 A 
ATOM     58  H   UNL A   1      40.668  30.296  30.345  1.00  0.00     0.167 HD
ATOM     59  C   UNL A   1      44.663  31.349  28.741  1.00  0.00     0.031 A 
ATOM     60  C   UNL A   1      38.127  31.051  31.068  1.00  0.00     0.031 A 
ATOM     61  C   UNL A   1      44.904  31.184  30.150  1.00  0.00     0.049 A 
ATOM     62  C   UNL A   1      39.273  31.883  31.503  1.00  0.00     0.074 A 
ATOM     63  C   UNL A   1      45.512  30.210  30.917  1.00  0.00     0.029 A 
ATOM     64  N   UNL A   1      44.112  31.908  31.011  1.00  0.00    -0.354 N 
ATOM     65  N   UNL A   1      40.014  31.585  32.531  1.00  0.00    -0.248 NA
ATOM     66  C   UNL A   1      39.891  32.760  30.520  1.00  0.00     0.031 C 
ATOM     67  C   UNL A   1      44.674  30.081  32.065  1.00  0.00     0.029 A 
ATOM     68  C   UNL A   1      43.663  31.040  31.974  1.00  0.00     0.049 A 
ATOM     69  H   UNL A   1      43.906  32.868  30.948  1.00  0.00     0.167 HD
ATOM     70  C   UNL A   1      41.311  31.846  32.116  1.00  0.00     0.074 A 
ATOM     71  C   UNL A   1      41.168  32.655  30.904  1.00  0.00     0.031 C 
ATOM     72  C   UNL A   1      42.369  31.138  32.611  1.00  0.00     0.031 A 
BRANCH  59  73
ATOM     73  C   UNL A   1      44.886  32.668  28.052  1.00  0.00    -0.014 A 
ATOM     74  C   UNL A   1      43.809  33.569  27.957  1.00  0.00     0.009 A 
ATOM     75  C   UNL A   1      46.010  32.936  27.252  1.00  0.00     0.009 A 
ATOM     76  C   UNL A   1      43.829  34.635  27.049  1.00  0.00     0.001 A 
ATOM     77  C   UNL A   1      46.050  34.022  26.373  1.00  0.00     0.001 A 
ATOM     78  C   UNL A   1      44.947  34.855  26.252  1.00  0.00     0.000 A 
ENDBRANCH  59  73
BRANCH  60  79
ATOM     79  C   UNL A   1      36.769  31.607  30.877  1.00  0.00    -0.014 A 
ATOM     80  C   UNL A   1      35.925  31.836  31.977  1.00  0.00     0.009 A 
ATOM     81  C   UNL A   1      36.404  32.184  29.647  1.00  0.00     0.009 A 
ATOM     82  C   UNL A   1      34.789  32.650  31.860  1.00  0.00     0.001 A 
ATOM     83  C   UNL A   1      35.269  32.995  29.529  1.00  0.00     0.001 A 
ATOM     84  C   UNL A   1      34.471  33.243  30.641  1.00  0.00     0.000 A 
ENDBRANCH  60  79
BRANCH  72  85
ATOM     85  C   UNL A   1      42.120  30.179  33.752  1.00  0.00    -0.014 A 
ATOM     86  C   UNL A   1      41.707  28.846  33.561  1.00  0.00     0.009 A 
ATOM     87  C   UNL A   1      42.503  30.572  35.041  1.00  0.00     0.009 A 
ATOM     88  C   UNL A   1      41.667  27.945  34.631  1.00  0.00     0.001 A 
ATOM     89  C   UNL A   1      42.483  29.668  36.106  1.00  0.00     0.001 A 
ATOM     90  C   UNL A   1      42.064  28.356  35.902  1.00  0.00     0.000 A 
ENDBRANCH  72  85
ENDBRANCH  46  47
ENDBRANCH  38  41
ENDBRANCH  36  37
ENDBRANCH  35  36
ENDBRANCH  34  35
ENDBRANCH   1  34
TORSDOF 17
ENDMDL
MODEL 2
REMARK VINA RESULT:     -11.9      1.136      2.102
REMARK SMILES Cc1coc2c(C)c3oc(=O)c(CCC(=O)N[C@H](CC(C)C)C(=O)NCCCCNC(=O)c4ccc(-c5c6nc(c(-c7ccccc7)c7ccc([nH]7)c(-c7ccccc7)c7nc(c(-c8ccccc8)c8ccc5[nH]8)C=C7)C=C6)cc4)c(C)c3cc12
REMARK SMILES IDX 26 1 25 2 23 3 24 4 18 6 17 7 15 8 16 9 14 11 13 12 12 13
REMARK SMILES IDX 1 14 2 15 3 16 85 17 4 18 5 19 84 20 6 21 83 22 7 23 8 24
REMARK SMILES IDX 81 25 9 26 82 27 10 28 11 29 19 30 20 31 21 32 22 33 27 34
REMARK SMILES IDX 28 35 29 36 30 37 31 38 32 40 33 41 34 42 80 43 35 44 79 45
REMARK SMILES IDX 36 46 37 47 38 48 73 49 39 50 78 51 72 52 74 53 40 54 77 55
REMARK SMILES IDX 71 56 70 57 41 59 63 60 48 61 62 62 49 63 52 64 61 65 75 66
REMARK SMILES IDX 50 67 51 68 60 70 76 71 53 72 42 73 43 74 47 75 44 76 46 77
REMARK SMILES IDX 45 78 64 79 65 80 69 81 66 82 68 83 67 84 54 85 55 86 59 87
REMARK SMILES IDX 56 88 58 89 57 90
REMARK H PARENT 25 5 17 10 30 39 74 58 52 69
REMARK Flexibility Score: inf
ROOT
ATOM      1  C   UNL A   1      36.564  21.781  25.325  1.00  0.00     0.116 C 
ENDROOT
BRANCH   1   2
ATOM      2  N   UNL A   1      35.757  21.451  26.483  1.00  0.00    -0.354 N 
ATOM      3  C   UNL A   1      34.444  21.835  26.570  1.00  0.00     0.242 C 
ATOM      4  O   UNL A   1      34.166  22.707  27.393  1.00  0.00    -0.273 OA
ATOM      5  H   UNL A   1      36.160  20.940  27.221  1.00  0.00     0.163 HD
BRANCH   3   6
ATOM      6  C   UNL A   1      33.410  21.343  25.534  1.00  0.00     0.171 C 
BRANCH   6   7
ATOM      7  N   UNL A   1      32.188  22.151  25.554  1.00  0.00    -0.344 N 
ATOM      8  C   UNL A   1      31.634  22.988  24.637  1.00  0.00     0.220 C 
ATOM      9  O   UNL A   1      30.658  23.652  24.994  1.00  0.00    -0.275 OA
ATOM     10  H   UNL A   1      31.671  22.074  26.389  1.00  0.00     0.164 HD
BRANCH   8  11
ATOM     11  C   UNL A   1      32.172  23.109  23.224  1.00  0.00     0.105 C 
BRANCH  11  12
ATOM     12  C   UNL A   1      33.305  24.118  22.955  1.00  0.00     0.053 C 
BRANCH  12  13
ATOM     13  C   UNL A   1      33.024  25.574  23.274  1.00  0.00     0.042 A 
ATOM     14  C   UNL A   1      28.263  30.253  21.410  1.00  0.00     0.048 C 
ATOM     15  C   UNL A   1      29.124  30.343  22.614  1.00  0.00    -0.005 A 
ATOM     16  C   UNL A   1      28.985  31.203  23.683  1.00  0.00     0.199 A 
ATOM     17  C   UNL A   1      30.240  29.516  22.938  1.00  0.00     0.024 A 
ATOM     18  O   UNL A   1      29.891  30.922  24.655  1.00  0.00    -0.464 OA
ATOM     19  C   UNL A   1      30.643  29.869  24.217  1.00  0.00     0.140 A 
ATOM     20  C   UNL A   1      30.882  28.442  22.300  1.00  0.00     0.024 A 
ATOM     21  C   UNL A   1      31.624  29.197  24.958  1.00  0.00     0.036 A 
ATOM     22  C   UNL A   1      31.844  27.690  22.992  1.00  0.00     0.022 A 
ATOM     23  C   UNL A   1      31.881  29.523  26.396  1.00  0.00     0.052 C 
ATOM     24  C   UNL A   1      32.204  28.093  24.283  1.00  0.00     0.145 A 
ATOM     25  C   UNL A   1      32.301  26.384  22.471  1.00  0.00    -0.030 A 
ATOM     26  O   UNL A   1      33.133  27.312  25.009  1.00  0.00    -0.422 OA
ATOM     27  C   UNL A   1      31.783  25.963  21.116  1.00  0.00     0.046 C 
ATOM     28  C   UNL A   1      33.590  26.084  24.558  1.00  0.00     0.339 A 
ATOM     29  O   UNL A   1      34.398  25.432  25.212  1.00  0.00    -0.246 OA
ENDBRANCH  12  13
ENDBRANCH  11  12
ENDBRANCH   8  11
ENDBRANCH   6   7
BRANCH   6  30
ATOM     30  C   UNL A   1      33.186  19.845  25.752  1.00  0.00     0.038 C 
BRANCH  30  31
ATOM     31  C   UNL A   1      33.548  18.945  24.559  1.00  0.00    -0.015 C 
ATOM     32  C   UNL A   1      34.961  18.356  24.652  1.00  0.00     0.007 C 
ATOM     33  C   UNL A   1      32.549  17.791  24.479  1.00  0.00     0.007 C 
ENDBRANCH  30  31
ENDBRANCH   6  30
ENDBRANCH   3   6
ENDBRANCH   1   2
BRANCH   1  34
ATOM     34  C   UNL A   1      38.038  21.426  25.559  1.00  0.00     0.023 C 
BRANCH  34  35
ATOM     35  C   UNL A   1      38.915  22.560  26.113  1.00  0.00     0.023 C 
BRANCH  35  36
ATOM     36  C   UNL A   1      40.081  22.074  26.955  1.00  0.00     0.116 C 
BRANCH  36  37
ATOM     37  N   UNL A   1      41.352  22.176  26.246  1.00  0.00    -0.352 N 
ATOM     38  C   UNL A   1      42.084  23.310  25.966  1.00  0.00     0.251 C 
ATOM     39  H   UNL A   1      41.736  21.328  25.927  1.00  0.00     0.163 HD
ATOM     40  O   UNL A   1      42.954  23.310  25.111  1.00  0.00    -0.269 OA
BRANCH  38  41
ATOM     41  C   UNL A   1      41.795  24.529  26.736  1.00  0.00     0.039 A 
ATOM     42  C   UNL A   1      42.314  24.702  28.021  1.00  0.00     0.014 A 
ATOM     43  C   UNL A   1      41.010  25.510  26.133  1.00  0.00     0.014 A 
ATOM     44  C   UNL A   1      42.086  25.908  28.673  1.00  0.00     0.010 A 
ATOM     45  C   UNL A   1      40.895  26.743  26.721  1.00  0.00     0.010 A 
ATOM     46  C   UNL A   1      41.387  26.927  28.008  1.00  0.00    -0.014 A 
BRANCH  46  47
ATOM     47  C   UNL A   1      41.261  28.248  28.602  1.00  0.00     0.031 A 
ATOM     48  C   UNL A   1      42.328  29.210  28.213  1.00  0.00     0.074 A 
ATOM     49  C   UNL A   1      40.158  28.634  29.279  1.00  0.00     0.049 A 
ATOM     50  N   UNL A   1      43.199  29.761  28.990  1.00  0.00    -0.248 NA
ATOM     51  C   UNL A   1      42.535  29.505  26.784  1.00  0.00     0.031 C 
ATOM     52  C   UNL A   1      38.907  27.898  29.493  1.00  0.00     0.029 A 
ATOM     53  N   UNL A   1      39.881  29.847  29.823  1.00  0.00    -0.354 N 
ATOM     54  C   UNL A   1      43.962  30.605  28.191  1.00  0.00     0.074 A 
ATOM     55  C   UNL A   1      43.604  30.303  26.827  1.00  0.00     0.031 C 
ATOM     56  C   UNL A   1      37.937  28.757  29.885  1.00  0.00     0.029 A 
ATOM     57  C   UNL A   1      38.539  30.058  30.112  1.00  0.00     0.049 A 
ATOM     58  H   UNL A   1      40.576  30.522  29.999  1.00  0.00     0.167 HD
ATOM     59  C   UNL A   1      44.676  31.632  28.729  1.00  0.00     0.031 A 
ATOM     60  C   UNL A   1      37.967  31.234  30.478  1.00  0.00     0.031 A 
ATOM     61  C   UNL A   1      44.795  31.502  30.157  1.00  0.00     0.049 A 
ATOM     62  C   UNL A   1      39.053  32.101  30.994  1.00  0.00     0.074 A 
ATOM     63  C   UNL A   1      45.352  30.558  30.997  1.00  0.00     0.029 A 
ATOM     64  N   UNL A   1      43.915  32.225  30.929  1.00  0.00    -0.354 N 
ATOM     65  N   UNL A   1      39.706  31.841  32.090  1.00  0.00    -0.248 NA
ATOM     66  C   UNL A   1      39.736  32.971  30.049  1.00  0.00     0.031 C 
ATOM     67  C   UNL A   1      44.419  30.434  32.069  1.00  0.00     0.029 A 
ATOM     68  C   UNL A   1      43.400  31.368  31.868  1.00  0.00     0.049 A 
ATOM     69  H   UNL A   1      43.695  33.179  30.826  1.00  0.00     0.167 HD
ATOM     70  C   UNL A   1      41.029  32.123  31.784  1.00  0.00     0.074 A 
ATOM     71  C   UNL A   1      40.976  32.903  30.547  1.00  0.00     0.031 C 
ATOM     72  C   UNL A   1      42.053  31.449  32.386  1.00  0.00     0.031 A 
BRANCH  59  73
ATOM     73  C   UNL A   1      44.930  32.942  28.033  1.00  0.00    -0.014 A 
ATOM     74  C   UNL A   1      43.886  33.527  27.294  1.00  0.00     0.009 A 
ATOM     75  C   UNL A   1      46.220  33.469  27.838  1.00  0.00     0.009 A 
ATOM     76  C   UNL A   1      44.135  34.533  26.352  1.00  0.00     0.001 A 
ATOM     77  C   UNL A   1      46.466  34.500  26.927  1.00  0.00     0.001 A 
ATOM     78  C   UNL A   1      45.427  35.012  26.163  1.00  0.00     0.000 A 
ENDBRANCH  59  73
BRANCH  60  79
ATOM     79  C   UNL A   1      36.620  31.756  30.157  1.00  0.00    -0.014 A 
ATOM     80  C   UNL A   1      36.056  32.801  30.907  1.00  0.00     0.009 A 
ATOM     81  C   UNL A   1      36.003  31.426  28.936  1.00  0.00     0.009 A 
ATOM     82  C   UNL A   1      34.950  33.519  30.430  1.00  0.00     0.001 A 
ATOM     83  C   UNL A   1      34.898  32.141  28.460  1.00  0.00     0.001 A 
ATOM     84  C   UNL A   1      34.382  33.200  29.199  1.00  0.00     0.000 A 
ENDBRANCH  60  79
BRANCH  72  85
ATOM     85  C   UNL A   1      41.724  30.508  33.522  1.00  0.00    -0.014 A 
ATOM     86  C   UNL A   1      41.405  29.151  33.329  1.00  0.00     0.009 A 
ATOM     87  C   UNL A   1      41.935  30.956  34.833  1.00  0.00     0.009 A 
ATOM     88  C   UNL A   1      41.288  28.278  34.416  1.00  0.00     0.001 A 
ATOM     89  C   UNL A   1      41.840  30.081  35.918  1.00  0.00     0.001 A 
ATOM     90  C   UNL A   1      41.515  28.742  35.710  1.00  0.00     0.000 A 
ENDBRANCH  72  85
ENDBRANCH  46  47
ENDBRANCH  38  41
ENDBRANCH  36  37
ENDBRANCH  35  36
ENDBRANCH  34  35
ENDBRANCH   1  34
TORSDOF 17
ENDMDL
MODEL 3
REMARK VINA RESULT:     -11.7      2.410      8.507
REMARK SMILES Cc1coc2c(C)c3oc(=O)c(CCC(=O)N[C@H](CC(C)C)C(=O)NCCCCNC(=O)c4ccc(-c5c6nc(c(-c7ccccc7)c7ccc([nH]7)c(-c7ccccc7)c7nc(c(-c8ccccc8)c8ccc5[nH]8)C=C7)C=C6)cc4)c(C)c3cc12
REMARK SMILES IDX 26 1 25 2 23 3 24 4 18 6 17 7 15 8 16 9 14 11 13 12 12 13
REMARK SMILES IDX 1 14 2 15 3 16 85 17 4 18 5 19 84 20 6 21 83 22 7 23 8 24
REMARK SMILES IDX 81 25 9 26 82 27 10 28 11 29 19 30 20 31 21 32 22 33 27 34
REMARK SMILES IDX 28 35 29 36 30 37 31 38 32 40 33 41 34 42 80 43 35 44 79 45
REMARK SMILES IDX 36 46 37 47 38 48 73 49 39 50 78 51 72 52 74 53 40 54 77 55
REMARK SMILES IDX 71 56 70 57 41 59 63 60 48 61 62 62 49 63 52 64 61 65 75 66
REMARK SMILES IDX 50 67 51 68 60 70 76 71 53 72 42 73 43 74 47 75 44 76 46 77
REMARK SMILES IDX 45 78 64 79 65 80 69 81 66 82 68 83 67 84 54 85 55 86 59 87
REMARK SMILES IDX 56 88 58 89 57 90
REMARK H PARENT 25 5 17 10 30 39 74 58 52 69
REMARK Flexibility Score: inf
ROOT
ATOM      1  C   UNL A   1      33.781  28.985  25.748  1.00  0.00     0.116 C 
ENDROOT
BRANCH   1   2
ATOM      2  N   UNL A   1      33.414  29.604  24.490  1.00  0.00    -0.354 N 
ATOM      3  C   UNL A   1      32.456  29.056  23.677  1.00  0.00     0.242 C 
ATOM      4  O   UNL A   1      32.835  28.560  22.616  1.00  0.00    -0.273 OA
ATOM      5  H   UNL A   1      33.862  30.437  24.214  1.00  0.00     0.163 HD
BRANCH   3   6
ATOM      6  C   UNL A   1      31.005  28.885  24.177  1.00  0.00     0.171 C 
BRANCH   6   7
ATOM      7  N   UNL A   1      30.867  27.733  25.072  1.00  0.00    -0.344 N 
ATOM      8  C   UNL A   1      30.619  26.418  24.833  1.00  0.00     0.220 C 
ATOM      9  O   UNL A   1      30.412  25.694  25.811  1.00  0.00    -0.275 OA
ATOM     10  H   UNL A   1      30.973  27.953  26.026  1.00  0.00     0.164 HD
BRANCH   8  11
ATOM     11  C   UNL A   1      30.602  25.840  23.431  1.00  0.00     0.105 C 
BRANCH  11  12
ATOM     12  C   UNL A   1      31.928  25.334  22.830  1.00  0.00     0.053 C 
BRANCH  12  13
ATOM     13  C   UNL A   1      32.687  24.283  23.618  1.00  0.00     0.042 A 
ATOM     14  C   UNL A   1      33.064  17.363  23.610  1.00  0.00     0.048 C 
ATOM     15  C   UNL A   1      34.077  18.273  24.197  1.00  0.00    -0.005 A 
ATOM     16  C   UNL A   1      35.352  17.953  24.614  1.00  0.00     0.199 A 
ATOM     17  C   UNL A   1      33.958  19.680  24.396  1.00  0.00     0.024 A 
ATOM     18  O   UNL A   1      36.034  19.065  24.993  1.00  0.00    -0.464 OA
ATOM     19  C   UNL A   1      35.195  20.130  24.832  1.00  0.00     0.140 A 
ATOM     20  C   UNL A   1      32.943  20.621  24.155  1.00  0.00     0.024 A 
ATOM     21  C   UNL A   1      35.536  21.478  25.010  1.00  0.00     0.036 A 
ATOM     22  C   UNL A   1      33.219  21.993  24.267  1.00  0.00     0.022 A 
ATOM     23  C   UNL A   1      36.941  21.898  25.311  1.00  0.00     0.052 C 
ATOM     24  C   UNL A   1      34.489  22.384  24.707  1.00  0.00     0.145 A 
ATOM     25  C   UNL A   1      32.281  22.999  23.725  1.00  0.00    -0.030 A 
ATOM     26  O   UNL A   1      34.793  23.764  24.773  1.00  0.00    -0.422 OA
ATOM     27  C   UNL A   1      30.973  22.492  23.165  1.00  0.00     0.046 C 
ATOM     28  C   UNL A   1      33.944  24.742  24.280  1.00  0.00     0.339 A 
ATOM     29  O   UNL A   1      34.238  25.930  24.355  1.00  0.00    -0.246 OA
ENDBRANCH  12  13
ENDBRANCH  11  12
ENDBRANCH   8  11
ENDBRANCH   6   7
BRANCH   6  30
ATOM     30  C   UNL A   1      30.077  28.861  22.961  1.00  0.00     0.038 C 
BRANCH  30  31
ATOM     31  C   UNL A   1      28.826  29.747  23.070  1.00  0.00    -0.015 C 
ATOM     32  C   UNL A   1      29.092  31.086  23.769  1.00  0.00     0.007 C 
ATOM     33  C   UNL A   1      28.289  30.034  21.668  1.00  0.00     0.007 C 
ENDBRANCH  30  31
ENDBRANCH   6  30
ENDBRANCH   3   6
ENDBRANCH   1   2
BRANCH   1  34
ATOM     34  C   UNL A   1      33.609  29.964  26.918  1.00  0.00     0.023 C 
BRANCH  34  35
ATOM     35  C   UNL A   1      34.860  30.195  27.780  1.00  0.00     0.023 C 
BRANCH  35  36
ATOM     36  C   UNL A   1      35.307  31.645  27.831  1.00  0.00     0.116 C 
BRANCH  36  37
ATOM     37  N   UNL A   1      34.937  32.290  29.087  1.00  0.00    -0.352 N 
ATOM     38  C   UNL A   1      35.358  31.979  30.362  1.00  0.00     0.251 C 
ATOM     39  H   UNL A   1      34.308  33.043  29.014  1.00  0.00     0.163 HD
ATOM     40  O   UNL A   1      34.753  32.373  31.345  1.00  0.00    -0.269 OA
BRANCH  38  41
ATOM     41  C   UNL A   1      36.569  31.160  30.511  1.00  0.00     0.039 A 
ATOM     42  C   UNL A   1      36.479  29.803  30.831  1.00  0.00     0.014 A 
ATOM     43  C   UNL A   1      37.803  31.774  30.302  1.00  0.00     0.014 A 
ATOM     44  C   UNL A   1      37.648  29.051  30.874  1.00  0.00     0.010 A 
ATOM     45  C   UNL A   1      38.937  31.009  30.217  1.00  0.00     0.010 A 
ATOM     46  C   UNL A   1      38.869  29.661  30.551  1.00  0.00    -0.014 A 
BRANCH  46  47
ATOM     47  C   UNL A   1      40.086  28.871  30.442  1.00  0.00     0.031 A 
ATOM     48  C   UNL A   1      40.793  28.639  31.731  1.00  0.00     0.074 A 
ATOM     49  C   UNL A   1      40.429  28.227  29.306  1.00  0.00     0.049 A 
ATOM     50  N   UNL A   1      41.974  29.047  32.052  1.00  0.00    -0.248 NA
ATOM     51  C   UNL A   1      40.069  27.985  32.834  1.00  0.00     0.031 C 
ATOM     52  C   UNL A   1      39.684  28.123  28.047  1.00  0.00     0.029 A 
ATOM     53  N   UNL A   1      41.491  27.409  29.087  1.00  0.00    -0.354 N 
ATOM     54  C   UNL A   1      42.223  28.564  33.332  1.00  0.00     0.074 A 
ATOM     55  C   UNL A   1      40.970  28.041  33.818  1.00  0.00     0.031 C 
ATOM     56  C   UNL A   1      40.181  27.103  27.309  1.00  0.00     0.029 A 
ATOM     57  C   UNL A   1      41.376  26.601  27.963  1.00  0.00     0.049 A 
ATOM     58  H   UNL A   1      42.279  27.391  29.677  1.00  0.00     0.167 HD
ATOM     59  C   UNL A   1      43.493  28.445  33.808  1.00  0.00     0.031 A 
ATOM     60  C   UNL A   1      42.192  25.571  27.622  1.00  0.00     0.031 A 
ATOM     61  C   UNL A   1      44.433  29.167  32.992  1.00  0.00     0.049 A 
ATOM     62  C   UNL A   1      43.469  25.772  28.347  1.00  0.00     0.074 A 
ATOM     63  C   UNL A   1      44.591  30.495  32.647  1.00  0.00     0.029 A 
ATOM     64  N   UNL A   1      45.135  28.445  32.054  1.00  0.00    -0.354 N 
ATOM     65  N   UNL A   1      44.275  26.764  28.098  1.00  0.00    -0.248 NA
ATOM     66  C   UNL A   1      43.607  25.167  29.663  1.00  0.00     0.031 C 
ATOM     67  C   UNL A   1      44.937  30.470  31.264  1.00  0.00     0.029 A 
ATOM     68  C   UNL A   1      45.057  29.135  30.871  1.00  0.00     0.049 A 
ATOM     69  H   UNL A   1      45.603  27.593  32.203  1.00  0.00     0.167 HD
ATOM     70  C   UNL A   1      44.690  27.200  29.348  1.00  0.00     0.074 A 
ATOM     71  C   UNL A   1      44.322  26.122  30.269  1.00  0.00     0.031 C 
ATOM     72  C   UNL A   1      45.015  28.508  29.569  1.00  0.00     0.031 A 
BRANCH  59  73
ATOM     73  C   UNL A   1      43.942  27.376  34.768  1.00  0.00    -0.014 A 
ATOM     74  C   UNL A   1      43.950  26.039  34.331  1.00  0.00     0.009 A 
ATOM     75  C   UNL A   1      44.076  27.594  36.151  1.00  0.00     0.009 A 
ATOM     76  C   UNL A   1      44.011  24.976  35.241  1.00  0.00     0.001 A 
ATOM     77  C   UNL A   1      44.176  26.536  37.059  1.00  0.00     0.001 A 
ATOM     78  C   UNL A   1      44.115  25.226  36.605  1.00  0.00     0.000 A 
ENDBRANCH  59  73
BRANCH  60  79
ATOM     79  C   UNL A   1      41.854  24.297  26.948  1.00  0.00    -0.014 A 
ATOM     80  C   UNL A   1      42.649  23.806  25.899  1.00  0.00     0.009 A 
ATOM     81  C   UNL A   1      40.918  23.417  27.522  1.00  0.00     0.009 A 
ATOM     82  C   UNL A   1      42.545  22.473  25.476  1.00  0.00     0.001 A 
ATOM     83  C   UNL A   1      40.812  22.087  27.099  1.00  0.00     0.001 A 
ATOM     84  C   UNL A   1      41.639  21.610  26.087  1.00  0.00     0.000 A 
ENDBRANCH  60  79
BRANCH  72  85
ATOM     85  C   UNL A   1      45.082  29.442  28.383  1.00  0.00    -0.014 A 
ATOM     86  C   UNL A   1      43.965  30.146  27.894  1.00  0.00     0.009 A 
ATOM     87  C   UNL A   1      46.344  29.769  27.870  1.00  0.00     0.009 A 
ATOM     88  C   UNL A   1      44.111  31.135  26.914  1.00  0.00     0.001 A 
ATOM     89  C   UNL A   1      46.493  30.770  26.907  1.00  0.00     0.001 A 
ATOM     90  C   UNL A   1      45.377  31.452  26.429  1.00  0.00     0.000 A 
ENDBRANCH  72  85
ENDBRANCH  46  47
ENDBRANCH  38  41
ENDBRANCH  36  37
ENDBRANCH  35  36
ENDBRANCH  34  35
ENDBRANCH   1  34
TORSDOF 17
ENDMDL
