MODEL 1
REMARK VINA RESULT:     -11.5      0.000      0.000
REMARK SMILES C[C@H](O)/C=C/[C@H]1OC(=O)C[C@H]1Nc1ccc(C(=O)NCCCCNC(=O)c2ccc(-c3c4nc(c(-c5ccccc5)c5ccc([nH]5)c(-c5ccccc5)c5nc(c(-c6ccccc6)c6ccc3[nH]6)C=C5)C=C4)cc2)cc1
REMARK SMILES IDX 20 1 19 2 17 3 18 4 16 6 13 7 14 8 76 9 15 10 75 11 12 12
REMARK SMILES IDX 11 14 6 15 7 16 8 17 10 18 9 19 5 20 4 21 2 22 1 23 3 24
REMARK SMILES IDX 21 26 22 27 23 28 24 29 25 30 26 32 27 33 28 34 74 35 29 36
REMARK SMILES IDX 73 37 30 38 31 39 32 40 67 41 33 42 72 43 66 44 68 45 34 46
REMARK SMILES IDX 71 47 65 48 64 49 35 51 57 52 42 53 56 54 43 55 46 56 55 57
REMARK SMILES IDX 69 58 44 59 45 60 54 62 70 63 47 64 36 65 37 66 41 67 38 68
REMARK SMILES IDX 40 69 39 70 58 71 59 72 63 73 60 74 62 75 61 76 48 77 49 78
REMARK SMILES IDX 53 79 50 80 52 81 51 82
REMARK H PARENT 19 5 12 13 3 25 24 31 68 50 46 61
REMARK Flexibility Score: inf
ROOT
ATOM      1  C   UNL A   1      35.414  20.053  24.983  1.00  0.00     0.116 C 
ENDROOT
BRANCH   1   2
ATOM      2  N   UNL A   1      34.276  19.158  25.090  1.00  0.00    -0.352 N 
ATOM      3  C   UNL A   1      32.931  19.347  24.866  1.00  0.00     0.251 C 
ATOM      4  O   UNL A   1      32.185  18.378  25.000  1.00  0.00    -0.269 OA
ATOM      5  H   UNL A   1      34.509  18.245  25.376  1.00  0.00     0.163 HD
BRANCH   3   6
ATOM      6  C   UNL A   1      32.355  20.653  24.436  1.00  0.00     0.039 A 
ATOM      7  C   UNL A   1      31.378  23.185  23.545  1.00  0.00     0.034 A 
ATOM      8  C   UNL A   1      31.912  22.253  22.646  1.00  0.00     0.026 A 
ATOM      9  C   UNL A   1      31.332  22.802  24.876  1.00  0.00     0.026 A 
ATOM     10  C   UNL A   1      32.409  21.010  23.084  1.00  0.00     0.016 A 
ATOM     11  C   UNL A   1      31.744  21.543  25.304  1.00  0.00     0.016 A 
BRANCH   7  12
ATOM     12  N   UNL A   1      30.928  24.412  23.095  1.00  0.00    -0.378 N 
ATOM     13  H   UNL A   1      29.961  24.479  22.920  1.00  0.00     0.161 HD
BRANCH  12  14
ATOM     14  C   UNL A   1      31.718  25.640  22.846  1.00  0.00     0.135 C 
ATOM     15  C   UNL A   1      33.248  25.615  22.979  1.00  0.00     0.222 C 
ATOM     16  O   UNL A   1      33.721  25.260  21.672  1.00  0.00    -0.456 OA
ATOM     17  C   UNL A   1      32.758  25.578  20.758  1.00  0.00     0.308 C 
ATOM     18  C   UNL A   1      31.541  26.132  21.427  1.00  0.00     0.151 C 
ATOM     19  O   UNL A   1      32.909  25.492  19.545  1.00  0.00    -0.252 OA
BRANCH  15  20
ATOM     20  C   UNL A   1      33.829  24.714  24.034  1.00  0.00     0.018 C 
ATOM     21  C   UNL A   1      34.522  25.123  25.114  1.00  0.00     0.003 C 
BRANCH  21  22
ATOM     22  C   UNL A   1      35.396  24.195  25.905  1.00  0.00     0.134 C 
ATOM     23  C   UNL A   1      36.533  23.580  25.110  1.00  0.00     0.043 C 
BRANCH  22  24
ATOM     24  O   UNL A   1      34.558  23.172  26.427  1.00  0.00    -0.389 OA
ATOM     25  H   UNL A   1      34.951  22.814  27.238  1.00  0.00     0.211 HD
ENDBRANCH  22  24
ENDBRANCH  21  22
ENDBRANCH  15  20
ENDBRANCH  12  14
ENDBRANCH   7  12
ENDBRANCH   3   6
ENDBRANCH   1   2
BRANCH   1  26
ATOM     26  C   UNL A   1      36.731  19.265  24.982  1.00  0.00     0.023 C 
BRANCH  26  27
ATOM     27  C   UNL A   1      37.954  20.105  24.625  1.00  0.00     0.023 C 
BRANCH  27  28
ATOM     28  C   UNL A   1      38.940  20.280  25.769  1.00  0.00     0.116 C 
BRANCH  28  29
ATOM     29  N   UNL A   1      40.001  19.283  25.777  1.00  0.00    -0.352 N 
ATOM     30  C   UNL A   1      41.322  19.465  26.108  1.00  0.00     0.251 C 
ATOM     31  H   UNL A   1      39.740  18.370  25.514  1.00  0.00     0.163 HD
ATOM     32  O   UNL A   1      42.140  18.567  25.952  1.00  0.00    -0.269 OA
BRANCH  30  33
ATOM     33  C   UNL A   1      41.748  20.782  26.620  1.00  0.00     0.039 A 
ATOM     34  C   UNL A   1      42.215  21.739  25.719  1.00  0.00     0.014 A 
ATOM     35  C   UNL A   1      41.630  21.083  27.980  1.00  0.00     0.014 A 
ATOM     36  C   UNL A   1      42.515  23.022  26.177  1.00  0.00     0.010 A 
ATOM     37  C   UNL A   1      41.838  22.384  28.416  1.00  0.00     0.010 A 
ATOM     38  C   UNL A   1      42.302  23.363  27.524  1.00  0.00    -0.014 A 
BRANCH  38  39
ATOM     39  C   UNL A   1      42.592  24.726  28.029  1.00  0.00     0.031 A 
ATOM     40  C   UNL A   1      44.002  25.102  28.394  1.00  0.00     0.074 A 
ATOM     41  C   UNL A   1      41.587  25.604  28.211  1.00  0.00     0.049 A 
ATOM     42  N   UNL A   1      44.457  26.228  28.884  1.00  0.00    -0.248 NA
ATOM     43  C   UNL A   1      45.033  24.067  28.214  1.00  0.00     0.031 C 
ATOM     44  C   UNL A   1      40.173  25.349  27.931  1.00  0.00     0.029 A 
ATOM     45  N   UNL A   1      41.606  26.895  28.676  1.00  0.00    -0.354 N 
ATOM     46  C   UNL A   1      45.816  26.025  29.090  1.00  0.00     0.074 A 
ATOM     47  C   UNL A   1      46.100  24.654  28.731  1.00  0.00     0.031 C 
ATOM     48  C   UNL A   1      39.467  26.461  28.190  1.00  0.00     0.029 A 
ATOM     49  C   UNL A   1      40.368  27.492  28.695  1.00  0.00     0.049 A 
ATOM     50  H   UNL A   1      42.429  27.350  28.969  1.00  0.00     0.167 HD
ATOM     51  C   UNL A   1      46.750  26.906  29.519  1.00  0.00     0.031 A 
ATOM     52  C   UNL A   1      40.004  28.730  29.076  1.00  0.00     0.031 A 
ATOM     53  C   UNL A   1      46.466  28.273  29.866  1.00  0.00     0.049 A 
ATOM     54  C   UNL A   1      41.057  29.687  29.564  1.00  0.00     0.074 A 
ATOM     55  C   UNL A   1      47.350  29.264  30.252  1.00  0.00     0.029 A 
ATOM     56  N   UNL A   1      45.200  28.837  29.875  1.00  0.00    -0.354 N 
ATOM     57  N   UNL A   1      42.351  29.505  29.682  1.00  0.00    -0.248 NA
ATOM     58  C   UNL A   1      40.598  31.026  29.959  1.00  0.00     0.031 C 
ATOM     59  C   UNL A   1      46.610  30.412  30.555  1.00  0.00     0.029 A 
ATOM     60  C   UNL A   1      45.274  30.156  30.287  1.00  0.00     0.049 A 
ATOM     61  H   UNL A   1      44.371  28.369  29.625  1.00  0.00     0.167 HD
ATOM     62  C   UNL A   1      42.865  30.718  30.124  1.00  0.00     0.074 A 
ATOM     63  C   UNL A   1      41.744  31.628  30.244  1.00  0.00     0.031 C 
ATOM     64  C   UNL A   1      44.151  31.051  30.398  1.00  0.00     0.031 A 
BRANCH  51  65
ATOM     65  C   UNL A   1      48.162  26.405  29.654  1.00  0.00    -0.014 A 
ATOM     66  C   UNL A   1      48.612  25.783  30.831  1.00  0.00     0.009 A 
ATOM     67  C   UNL A   1      49.055  26.546  28.581  1.00  0.00     0.009 A 
ATOM     68  C   UNL A   1      49.938  25.361  30.948  1.00  0.00     0.001 A 
ATOM     69  C   UNL A   1      50.371  26.091  28.687  1.00  0.00     0.001 A 
ATOM     70  C   UNL A   1      50.815  25.512  29.875  1.00  0.00     0.000 A 
ENDBRANCH  51  65
BRANCH  52  71
ATOM     71  C   UNL A   1      38.583  29.155  28.976  1.00  0.00    -0.014 A 
ATOM     72  C   UNL A   1      38.079  29.675  27.774  1.00  0.00     0.009 A 
ATOM     73  C   UNL A   1      37.723  29.048  30.080  1.00  0.00     0.009 A 
ATOM     74  C   UNL A   1      36.754  30.109  27.688  1.00  0.00     0.001 A 
ATOM     75  C   UNL A   1      36.389  29.454  29.983  1.00  0.00     0.001 A 
ATOM     76  C   UNL A   1      35.910  29.993  28.790  1.00  0.00     0.000 A 
ENDBRANCH  52  71
BRANCH  64  77
ATOM     77  C   UNL A   1      44.424  32.475  30.800  1.00  0.00    -0.014 A 
ATOM     78  C   UNL A   1      44.417  32.877  32.143  1.00  0.00     0.009 A 
ATOM     79  C   UNL A   1      44.734  33.420  29.809  1.00  0.00     0.009 A 
ATOM     80  C   UNL A   1      44.674  34.208  32.483  1.00  0.00     0.001 A 
ATOM     81  C   UNL A   1      45.027  34.740  30.153  1.00  0.00     0.001 A 
ATOM     82  C   UNL A   1      44.985  35.135  31.488  1.00  0.00     0.000 A 
ENDBRANCH  64  77
ENDBRANCH  38  39
ENDBRANCH  30  33
ENDBRANCH  28  29
ENDBRANCH  27  28
ENDBRANCH  26  27
ENDBRANCH   1  26
TORSDOF 16
ENDMDL
MODEL 2
REMARK VINA RESULT:     -11.4      2.139      7.754
REMARK SMILES C[C@H](O)/C=C/[C@H]1OC(=O)C[C@H]1Nc1ccc(C(=O)NCCCCNC(=O)c2ccc(-c3c4nc(c(-c5ccccc5)c5ccc([nH]5)c(-c5ccccc5)c5nc(c(-c6ccccc6)c6ccc3[nH]6)C=C5)C=C4)cc2)cc1
REMARK SMILES IDX 20 1 19 2 17 3 18 4 16 6 13 7 14 8 76 9 15 10 75 11 12 12
REMARK SMILES IDX 11 14 6 15 7 16 8 17 10 18 9 19 5 20 4 21 2 22 1 23 3 24
REMARK SMILES IDX 21 26 22 27 23 28 24 29 25 30 26 32 27 33 28 34 74 35 29 36
REMARK SMILES IDX 73 37 30 38 31 39 32 40 67 41 33 42 72 43 66 44 68 45 34 46
REMARK SMILES IDX 71 47 65 48 64 49 35 51 57 52 42 53 56 54 43 55 46 56 55 57
REMARK SMILES IDX 69 58 44 59 45 60 54 62 70 63 47 64 36 65 37 66 41 67 38 68
REMARK SMILES IDX 40 69 39 70 58 71 59 72 63 73 60 74 62 75 61 76 48 77 49 78
REMARK SMILES IDX 53 79 50 80 52 81 51 82
REMARK H PARENT 19 5 12 13 3 25 24 31 68 50 46 61
REMARK Flexibility Score: inf
ROOT
ATOM      1  C   UNL A   1      31.195  29.884  25.071  1.00  0.00     0.116 C 
ENDROOT
BRANCH   1   2
ATOM      2  N   UNL A   1      30.656  29.802  23.725  1.00  0.00    -0.352 N 
ATOM      3  C   UNL A   1      30.445  28.734  22.882  1.00  0.00     0.251 C 
ATOM      4  O   UNL A   1      29.926  28.960  21.789  1.00  0.00    -0.269 OA
ATOM      5  H   UNL A   1      30.393  30.671  23.345  1.00  0.00     0.163 HD
BRANCH   3   6
ATOM      6  C   UNL A   1      30.780  27.329  23.250  1.00  0.00     0.039 A 
ATOM      7  C   UNL A   1      31.420  24.676  24.095  1.00  0.00     0.034 A 
ATOM      8  C   UNL A   1      30.301  25.352  24.600  1.00  0.00     0.026 A 
ATOM      9  C   UNL A   1      32.179  25.356  23.155  1.00  0.00     0.026 A 
ATOM     10  C   UNL A   1      29.991  26.666  24.196  1.00  0.00     0.016 A 
ATOM     11  C   UNL A   1      31.831  26.622  22.690  1.00  0.00     0.016 A 
BRANCH   7  12
ATOM     12  N   UNL A   1      31.722  23.401  24.532  1.00  0.00    -0.378 N 
ATOM     13  H   UNL A   1      31.393  22.663  23.969  1.00  0.00     0.161 HD
BRANCH  12  14
ATOM     14  C   UNL A   1      32.482  23.004  25.740  1.00  0.00     0.135 C 
ATOM     15  C   UNL A   1      33.350  21.738  25.727  1.00  0.00     0.222 C 
ATOM     16  O   UNL A   1      34.638  22.185  25.281  1.00  0.00    -0.456 OA
ATOM     17  C   UNL A   1      34.748  23.522  25.533  1.00  0.00     0.308 C 
ATOM     18  C   UNL A   1      33.488  24.063  26.132  1.00  0.00     0.151 C 
ATOM     19  O   UNL A   1      35.773  24.170  25.363  1.00  0.00    -0.252 OA
BRANCH  15  20
ATOM     20  C   UNL A   1      32.859  20.579  24.903  1.00  0.00     0.018 C 
ATOM     21  C   UNL A   1      32.830  19.294  25.303  1.00  0.00     0.003 C 
BRANCH  21  22
ATOM     22  C   UNL A   1      32.705  18.155  24.335  1.00  0.00     0.134 C 
ATOM     23  C   UNL A   1      32.374  18.577  22.915  1.00  0.00     0.043 C 
BRANCH  22  24
ATOM     24  O   UNL A   1      31.695  17.288  24.834  1.00  0.00    -0.389 OA
ATOM     25  H   UNL A   1      32.086  16.426  25.050  1.00  0.00     0.211 HD
ENDBRANCH  22  24
ENDBRANCH  21  22
ENDBRANCH  15  20
ENDBRANCH  12  14
ENDBRANCH   7  12
ENDBRANCH   3   6
ENDBRANCH   1   2
BRANCH   1  26
ATOM     26  C   UNL A   1      32.709  29.631  25.070  1.00  0.00     0.023 C 
BRANCH  26  27
ATOM     27  C   UNL A   1      33.125  28.367  25.818  1.00  0.00     0.023 C 
BRANCH  27  28
ATOM     28  C   UNL A   1      33.611  28.619  27.236  1.00  0.00     0.116 C 
BRANCH  28  29
ATOM     29  N   UNL A   1      33.532  30.017  27.636  1.00  0.00    -0.352 N 
ATOM     30  C   UNL A   1      34.506  30.773  28.242  1.00  0.00     0.251 C 
ATOM     31  H   UNL A   1      32.679  30.474  27.449  1.00  0.00     0.163 HD
ATOM     32  O   UNL A   1      34.267  31.907  28.641  1.00  0.00    -0.269 OA
BRANCH  30  33
ATOM     33  C   UNL A   1      35.841  30.178  28.443  1.00  0.00     0.039 A 
ATOM     34  C   UNL A   1      36.761  30.208  27.395  1.00  0.00     0.014 A 
ATOM     35  C   UNL A   1      36.196  29.643  29.685  1.00  0.00     0.014 A 
ATOM     36  C   UNL A   1      38.060  29.748  27.610  1.00  0.00     0.010 A 
ATOM     37  C   UNL A   1      37.513  29.275  29.923  1.00  0.00     0.010 A 
ATOM     38  C   UNL A   1      38.454  29.304  28.884  1.00  0.00    -0.014 A 
BRANCH  38  39
ATOM     39  C   UNL A   1      39.835  28.832  29.142  1.00  0.00     0.031 A 
ATOM     40  C   UNL A   1      40.820  29.742  29.824  1.00  0.00     0.074 A 
ATOM     41  C   UNL A   1      40.220  27.614  28.717  1.00  0.00     0.049 A 
ATOM     42  N   UNL A   1      42.080  29.532  30.109  1.00  0.00    -0.248 NA
ATOM     43  C   UNL A   1      40.332  31.076  30.210  1.00  0.00     0.031 C 
ATOM     44  C   UNL A   1      39.373  26.651  28.010  1.00  0.00     0.029 A 
ATOM     45  N   UNL A   1      41.431  26.976  28.821  1.00  0.00    -0.354 N 
ATOM     46  C   UNL A   1      42.537  30.712  30.684  1.00  0.00     0.074 A 
ATOM     47  C   UNL A   1      41.440  31.652  30.651  1.00  0.00     0.031 C 
ATOM     48  C   UNL A   1      40.076  25.531  27.783  1.00  0.00     0.029 A 
ATOM     49  C   UNL A   1      41.435  25.710  28.286  1.00  0.00     0.049 A 
ATOM     50  H   UNL A   1      42.222  27.386  29.241  1.00  0.00     0.167 HD
ATOM     51  C   UNL A   1      43.754  30.984  31.212  1.00  0.00     0.031 A 
ATOM     52  C   UNL A   1      42.422  24.799  28.211  1.00  0.00     0.031 A 
ATOM     53  C   UNL A   1      44.840  30.042  31.251  1.00  0.00     0.049 A 
ATOM     54  C   UNL A   1      43.771  25.129  28.790  1.00  0.00     0.074 A 
ATOM     55  C   UNL A   1      46.092  30.197  31.819  1.00  0.00     0.029 A 
ATOM     56  N   UNL A   1      44.804  28.773  30.695  1.00  0.00    -0.354 N 
ATOM     57  N   UNL A   1      44.166  26.222  29.398  1.00  0.00    -0.248 NA
ATOM     58  C   UNL A   1      44.805  24.091  28.682  1.00  0.00     0.031 C 
ATOM     59  C   UNL A   1      46.837  29.043  31.551  1.00  0.00     0.029 A 
ATOM     60  C   UNL A   1      46.022  28.143  30.881  1.00  0.00     0.049 A 
ATOM     61  H   UNL A   1      44.028  28.379  30.237  1.00  0.00     0.167 HD
ATOM     62  C   UNL A   1      45.480  25.987  29.782  1.00  0.00     0.074 A 
ATOM     63  C   UNL A   1      45.810  24.645  29.346  1.00  0.00     0.031 C 
ATOM     64  C   UNL A   1      46.335  26.806  30.444  1.00  0.00     0.031 A 
BRANCH  51  65
ATOM     65  C   UNL A   1      43.972  32.364  31.768  1.00  0.00    -0.014 A 
ATOM     66  C   UNL A   1      43.806  32.640  33.136  1.00  0.00     0.009 A 
ATOM     67  C   UNL A   1      44.361  33.405  30.912  1.00  0.00     0.009 A 
ATOM     68  C   UNL A   1      43.975  33.938  33.624  1.00  0.00     0.001 A 
ATOM     69  C   UNL A   1      44.565  34.695  31.408  1.00  0.00     0.001 A 
ATOM     70  C   UNL A   1      44.358  34.962  32.760  1.00  0.00     0.000 A 
ENDBRANCH  51  65
BRANCH  52  71
ATOM     71  C   UNL A   1      42.166  23.469  27.596  1.00  0.00    -0.014 A 
ATOM     72  C   UNL A   1      42.517  23.226  26.258  1.00  0.00     0.009 A 
ATOM     73  C   UNL A   1      41.567  22.439  28.336  1.00  0.00     0.009 A 
ATOM     74  C   UNL A   1      42.245  21.991  25.667  1.00  0.00     0.001 A 
ATOM     75  C   UNL A   1      41.324  21.193  27.751  1.00  0.00     0.001 A 
ATOM     76  C   UNL A   1      41.654  20.974  26.415  1.00  0.00     0.000 A 
ENDBRANCH  52  71
BRANCH  64  77
ATOM     77  C   UNL A   1      47.691  26.254  30.789  1.00  0.00    -0.014 A 
ATOM     78  C   UNL A   1      47.961  25.691  32.045  1.00  0.00     0.009 A 
ATOM     79  C   UNL A   1      48.705  26.264  29.817  1.00  0.00     0.009 A 
ATOM     80  C   UNL A   1      49.232  25.187  32.334  1.00  0.00     0.001 A 
ATOM     81  C   UNL A   1      49.962  25.727  30.096  1.00  0.00     0.001 A 
ATOM     82  C   UNL A   1      50.228  25.200  31.357  1.00  0.00     0.000 A 
ENDBRANCH  64  77
ENDBRANCH  38  39
ENDBRANCH  30  33
ENDBRANCH  28  29
ENDBRANCH  27  28
ENDBRANCH  26  27
ENDBRANCH   1  26
TORSDOF 16
ENDMDL
MODEL 3
REMARK VINA RESULT:     -11.3      1.557      2.369
REMARK SMILES C[C@H](O)/C=C/[C@H]1OC(=O)C[C@H]1Nc1ccc(C(=O)NCCCCNC(=O)c2ccc(-c3c4nc(c(-c5ccccc5)c5ccc([nH]5)c(-c5ccccc5)c5nc(c(-c6ccccc6)c6ccc3[nH]6)C=C5)C=C4)cc2)cc1
REMARK SMILES IDX 20 1 19 2 17 3 18 4 16 6 13 7 14 8 76 9 15 10 75 11 12 12
REMARK SMILES IDX 11 14 6 15 7 16 8 17 10 18 9 19 5 20 4 21 2 22 1 23 3 24
REMARK SMILES IDX 21 26 22 27 23 28 24 29 25 30 26 32 27 33 28 34 74 35 29 36
REMARK SMILES IDX 73 37 30 38 31 39 32 40 67 41 33 42 72 43 66 44 68 45 34 46
REMARK SMILES IDX 71 47 65 48 64 49 35 51 57 52 42 53 56 54 43 55 46 56 55 57
REMARK SMILES IDX 69 58 44 59 45 60 54 62 70 63 47 64 36 65 37 66 41 67 38 68
REMARK SMILES IDX 40 69 39 70 58 71 59 72 63 73 60 74 62 75 61 76 48 77 49 78
REMARK SMILES IDX 53 79 50 80 52 81 51 82
REMARK H PARENT 19 5 12 13 3 25 24 31 68 50 46 61
REMARK Flexibility Score: inf
ROOT
ATOM      1  C   UNL A   1      35.772  21.588  24.588  1.00  0.00     0.116 C 
ENDROOT
BRANCH   1   2
ATOM      2  N   UNL A   1      35.322  21.337  25.946  1.00  0.00    -0.352 N 
ATOM      3  C   UNL A   1      34.341  21.923  26.713  1.00  0.00     0.251 C 
ATOM      4  O   UNL A   1      34.147  21.469  27.841  1.00  0.00    -0.269 OA
ATOM      5  H   UNL A   1      35.808  20.613  26.402  1.00  0.00     0.163 HD
BRANCH   3   6
ATOM      6  C   UNL A   1      33.488  23.044  26.225  1.00  0.00     0.039 A 
ATOM      7  C   UNL A   1      31.820  25.111  25.174  1.00  0.00     0.034 A 
ATOM      8  C   UNL A   1      31.337  23.809  25.359  1.00  0.00     0.026 A 
ATOM      9  C   UNL A   1      33.135  25.340  25.546  1.00  0.00     0.026 A 
ATOM     10  C   UNL A   1      32.161  22.783  25.864  1.00  0.00     0.016 A 
ATOM     11  C   UNL A   1      33.930  24.352  26.123  1.00  0.00     0.016 A 
BRANCH   7  12
ATOM     12  N   UNL A   1      31.002  26.091  24.646  1.00  0.00    -0.378 N 
ATOM     13  H   UNL A   1      30.387  26.527  25.279  1.00  0.00     0.161 HD
BRANCH  12  14
ATOM     14  C   UNL A   1      30.936  26.570  23.246  1.00  0.00     0.135 C 
ATOM     15  C   UNL A   1      31.625  27.883  22.845  1.00  0.00     0.222 C 
ATOM     16  O   UNL A   1      32.952  27.495  22.462  1.00  0.00    -0.456 OA
ATOM     17  C   UNL A   1      32.938  26.175  22.112  1.00  0.00     0.308 C 
ATOM     18  C   UNL A   1      31.575  25.584  22.294  1.00  0.00     0.151 C 
ATOM     19  O   UNL A   1      33.898  25.581  21.638  1.00  0.00    -0.252 OA
BRANCH  15  20
ATOM     20  C   UNL A   1      31.653  28.983  23.869  1.00  0.00     0.018 C 
ATOM     21  C   UNL A   1      32.680  29.254  24.696  1.00  0.00     0.003 C 
BRANCH  21  22
ATOM     22  C   UNL A   1      32.516  30.085  25.935  1.00  0.00     0.134 C 
ATOM     23  C   UNL A   1      32.242  29.281  27.193  1.00  0.00     0.043 C 
BRANCH  22  24
ATOM     24  O   UNL A   1      31.448  30.992  25.694  1.00  0.00    -0.389 OA
ATOM     25  H   UNL A   1      31.801  31.890  25.601  1.00  0.00     0.211 HD
ENDBRANCH  22  24
ENDBRANCH  21  22
ENDBRANCH  15  20
ENDBRANCH  12  14
ENDBRANCH   7  12
ENDBRANCH   3   6
ENDBRANCH   1   2
BRANCH   1  26
ATOM     26  C   UNL A   1      37.304  21.560  24.507  1.00  0.00     0.023 C 
BRANCH  26  27
ATOM     27  C   UNL A   1      37.917  20.210  24.872  1.00  0.00     0.023 C 
BRANCH  27  28
ATOM     28  C   UNL A   1      38.947  20.278  25.988  1.00  0.00     0.116 C 
BRANCH  28  29
ATOM     29  N   UNL A   1      40.054  19.350  25.812  1.00  0.00    -0.352 N 
ATOM     30  C   UNL A   1      41.392  19.592  26.007  1.00  0.00     0.251 C 
ATOM     31  H   UNL A   1      39.815  18.440  25.518  1.00  0.00     0.163 HD
ATOM     32  O   UNL A   1      42.236  18.758  25.701  1.00  0.00    -0.269 OA
BRANCH  30  33
ATOM     33  C   UNL A   1      41.802  20.900  26.556  1.00  0.00     0.039 A 
ATOM     34  C   UNL A   1      42.224  21.900  25.680  1.00  0.00     0.014 A 
ATOM     35  C   UNL A   1      41.711  21.148  27.928  1.00  0.00     0.014 A 
ATOM     36  C   UNL A   1      42.507  23.172  26.178  1.00  0.00     0.010 A 
ATOM     37  C   UNL A   1      41.901  22.437  28.407  1.00  0.00     0.010 A 
ATOM     38  C   UNL A   1      42.320  23.458  27.541  1.00  0.00    -0.014 A 
BRANCH  38  39
ATOM     39  C   UNL A   1      42.592  24.808  28.089  1.00  0.00     0.031 A 
ATOM     40  C   UNL A   1      43.987  25.171  28.522  1.00  0.00     0.074 A 
ATOM     41  C   UNL A   1      41.584  25.686  28.248  1.00  0.00     0.049 A 
ATOM     42  N   UNL A   1      44.424  26.284  29.056  1.00  0.00    -0.248 NA
ATOM     43  C   UNL A   1      45.022  24.136  28.362  1.00  0.00     0.031 C 
ATOM     44  C   UNL A   1      40.182  25.443  27.902  1.00  0.00     0.029 A 
ATOM     45  N   UNL A   1      41.586  26.966  28.743  1.00  0.00    -0.354 N 
ATOM     46  C   UNL A   1      45.772  26.071  29.315  1.00  0.00     0.074 A 
ATOM     47  C   UNL A   1      46.067  24.708  28.937  1.00  0.00     0.031 C 
ATOM     48  C   UNL A   1      39.469  26.552  28.156  1.00  0.00     0.029 A 
ATOM     49  C   UNL A   1      40.351  27.567  28.723  1.00  0.00     0.049 A 
ATOM     50  H   UNL A   1      42.398  27.412  29.081  1.00  0.00     0.167 HD
ATOM     51  C   UNL A   1      46.690  26.939  29.803  1.00  0.00     0.031 A 
ATOM     52  C   UNL A   1      39.974  28.798  29.115  1.00  0.00     0.031 A 
ATOM     53  C   UNL A   1      46.395  28.298  30.169  1.00  0.00     0.049 A 
ATOM     54  C   UNL A   1      41.008  29.739  29.670  1.00  0.00     0.074 A 
ATOM     55  C   UNL A   1      47.265  29.277  30.614  1.00  0.00     0.029 A 
ATOM     56  N   UNL A   1      45.131  28.867  30.137  1.00  0.00    -0.354 N 
ATOM     57  N   UNL A   1      42.295  29.550  29.838  1.00  0.00    -0.248 NA
ATOM     58  C   UNL A   1      40.537  31.070  30.075  1.00  0.00     0.031 C 
ATOM     59  C   UNL A   1      46.516  30.421  30.912  1.00  0.00     0.029 A 
ATOM     60  C   UNL A   1      45.192  30.175  30.581  1.00  0.00     0.049 A 
ATOM     61  H   UNL A   1      44.313  28.407  29.841  1.00  0.00     0.167 HD
ATOM     62  C   UNL A   1      42.793  30.750  30.329  1.00  0.00     0.074 A 
ATOM     63  C   UNL A   1      41.671  31.662  30.422  1.00  0.00     0.031 C 
ATOM     64  C   UNL A   1      44.067  31.072  30.665  1.00  0.00     0.031 A 
BRANCH  51  65
ATOM     65  C   UNL A   1      48.093  26.429  29.986  1.00  0.00    -0.014 A 
ATOM     66  C   UNL A   1      49.051  26.528  28.963  1.00  0.00     0.009 A 
ATOM     67  C   UNL A   1      48.468  25.848  31.207  1.00  0.00     0.009 A 
ATOM     68  C   UNL A   1      50.336  26.012  29.141  1.00  0.00     0.001 A 
ATOM     69  C   UNL A   1      49.765  25.365  31.396  1.00  0.00     0.001 A 
ATOM     70  C   UNL A   1      50.693  25.435  30.359  1.00  0.00     0.000 A 
ENDBRANCH  51  65
BRANCH  52  71
ATOM     71  C   UNL A   1      38.559  29.230  28.965  1.00  0.00    -0.014 A 
ATOM     72  C   UNL A   1      37.673  29.146  30.051  1.00  0.00     0.009 A 
ATOM     73  C   UNL A   1      38.084  29.721  27.740  1.00  0.00     0.009 A 
ATOM     74  C   UNL A   1      36.335  29.516  29.903  1.00  0.00     0.001 A 
ATOM     75  C   UNL A   1      36.752  30.120  27.604  1.00  0.00     0.001 A 
ATOM     76  C   UNL A   1      35.876  30.007  28.683  1.00  0.00     0.000 A 
ENDBRANCH  52  71
BRANCH  64  77
ATOM     77  C   UNL A   1      44.327  32.485  31.110  1.00  0.00    -0.014 A 
ATOM     78  C   UNL A   1      44.628  33.504  30.195  1.00  0.00     0.009 A 
ATOM     79  C   UNL A   1      44.228  32.805  32.475  1.00  0.00     0.009 A 
ATOM     80  C   UNL A   1      44.865  34.807  30.641  1.00  0.00     0.001 A 
ATOM     81  C   UNL A   1      44.429  34.114  32.914  1.00  0.00     0.001 A 
ATOM     82  C   UNL A   1      44.759  35.111  31.999  1.00  0.00     0.000 A 
ENDBRANCH  64  77
ENDBRANCH  38  39
ENDBRANCH  30  33
ENDBRANCH  28  29
ENDBRANCH  27  28
ENDBRANCH  26  27
ENDBRANCH   1  26
TORSDOF 16
ENDMDL
