MODEL 1
REMARK VINA RESULT:     -11.1      0.000      0.000
REMARK SMILES CC(=O)c1ccc(NC(=O)C[C@H](C(=O)NCCCCNC(=O)c2ccc(-c3c4nc(c(-c5ccccc5)c5ccc([nH]5)c(-c5ccccc5)c5nc(c(-c6ccccc6)c6ccc3[nH]6)C=C5)C=C4)cc2)[NH+](C)C)cc1
REMARK SMILES IDX 16 1 15 2 13 3 14 4 12 6 11 7 9 8 8 9 10 11 7 12 4 13 5 14
REMARK SMILES IDX 75 15 6 16 74 17 2 18 1 19 3 20 71 21 72 22 73 23 17 25
REMARK SMILES IDX 18 26 19 27 20 28 21 29 22 31 23 32 24 33 70 34 25 35 69 36
REMARK SMILES IDX 26 37 27 38 28 39 63 40 29 41 68 42 62 43 64 44 30 45 67 46
REMARK SMILES IDX 61 47 60 48 31 50 53 51 38 52 52 53 39 54 42 55 51 56 65 57
REMARK SMILES IDX 40 58 41 59 50 61 66 62 43 63 32 64 33 65 37 66 34 67 36 68
REMARK SMILES IDX 35 69 54 70 55 71 59 72 56 73 58 74 57 75 44 76 45 77 49 78
REMARK SMILES IDX 46 79 48 80 47 81
REMARK H PARENT 15 5 8 10 71 24 20 30 64 49 42 60
REMARK Flexibility Score: inf
ROOT
ATOM      1  C   UNL A   1      36.043  23.853  25.530  1.00  0.00     0.116 C 
ENDROOT
BRANCH   1   2
ATOM      2  N   UNL A   1      35.497  23.043  26.599  1.00  0.00    -0.351 N 
ATOM      3  C   UNL A   1      34.303  22.385  26.670  1.00  0.00     0.278 C 
ATOM      4  O   UNL A   1      34.172  21.579  27.600  1.00  0.00    -0.268 OA
ATOM      5  H   UNL A   1      36.074  22.952  27.392  1.00  0.00     0.163 HD
BRANCH   3   6
ATOM      6  C   UNL A   1      33.140  22.615  25.668  1.00  0.00     0.283 C 
BRANCH   6   7
ATOM      7  C   UNL A   1      32.698  24.095  25.660  1.00  0.00     0.175 C 
BRANCH   7   8
ATOM      8  C   UNL A   1      31.580  24.423  26.635  1.00  0.00     0.230 C 
ATOM      9  N   UNL A   1      30.689  25.444  26.413  1.00  0.00    -0.326 N 
ATOM     10  H   UNL A   1      29.970  25.530  27.081  1.00  0.00     0.169 HD
ATOM     11  O   UNL A   1      31.400  23.707  27.626  1.00  0.00    -0.274 OA
BRANCH   9  12
ATOM     12  C   UNL A   1      30.655  26.382  25.370  1.00  0.00     0.041 A 
ATOM     13  C   UNL A   1      30.252  28.493  23.607  1.00  0.00     0.017 A 
ATOM     14  C   UNL A   1      29.684  27.251  23.343  1.00  0.00     0.014 A 
ATOM     15  C   UNL A   1      31.150  28.650  24.661  1.00  0.00     0.014 A 
ATOM     16  C   UNL A   1      29.898  26.189  24.219  1.00  0.00     0.027 A 
ATOM     17  C   UNL A   1      31.373  27.574  25.531  1.00  0.00     0.027 A 
BRANCH  13  18
ATOM     18  C   UNL A   1      29.748  29.647  22.842  1.00  0.00     0.159 C 
ATOM     19  C   UNL A   1      29.153  30.792  23.602  1.00  0.00     0.093 C 
ATOM     20  O   UNL A   1      29.907  29.655  21.624  1.00  0.00    -0.295 OA
ENDBRANCH  13  18
ENDBRANCH   9  12
ENDBRANCH   7   8
ENDBRANCH   6   7
BRANCH   6  21
ATOM     21  N   UNL A   1      33.333  22.008  24.312  1.00  0.00    -0.329 N 
ATOM     22  C   UNL A   1      32.213  22.378  23.432  1.00  0.00     0.333 C 
ATOM     23  C   UNL A   1      33.505  20.557  24.244  1.00  0.00     0.333 C 
ATOM     24  H   UNL A   1      34.226  22.396  24.011  1.00  0.00     0.348 HD
ENDBRANCH   6  21
ENDBRANCH   3   6
ENDBRANCH   1   2
BRANCH   1  25
ATOM     25  C   UNL A   1      36.964  23.067  24.601  1.00  0.00     0.023 C 
BRANCH  25  26
ATOM     26  C   UNL A   1      37.381  21.696  25.134  1.00  0.00     0.023 C 
BRANCH  26  27
ATOM     27  C   UNL A   1      38.733  21.639  25.847  1.00  0.00     0.116 C 
BRANCH  27  28
ATOM     28  N   UNL A   1      39.435  20.371  25.702  1.00  0.00    -0.352 N 
ATOM     29  C   UNL A   1      40.703  20.030  26.113  1.00  0.00     0.251 C 
ATOM     30  H   UNL A   1      38.932  19.658  25.247  1.00  0.00     0.163 HD
ATOM     31  O   UNL A   1      41.126  18.889  25.950  1.00  0.00    -0.269 OA
BRANCH  29  32
ATOM     32  C   UNL A   1      41.586  21.085  26.651  1.00  0.00     0.039 A 
ATOM     33  C   UNL A   1      42.173  21.972  25.745  1.00  0.00     0.014 A 
ATOM     34  C   UNL A   1      41.701  21.291  28.027  1.00  0.00     0.014 A 
ATOM     35  C   UNL A   1      42.759  23.146  26.217  1.00  0.00     0.010 A 
ATOM     36  C   UNL A   1      42.227  22.494  28.492  1.00  0.00     0.010 A 
ATOM     37  C   UNL A   1      42.718  23.451  27.587  1.00  0.00    -0.014 A 
BRANCH  37  38
ATOM     38  C   UNL A   1      43.082  24.802  28.080  1.00  0.00     0.031 A 
ATOM     39  C   UNL A   1      42.026  25.839  28.320  1.00  0.00     0.074 A 
ATOM     40  C   UNL A   1      44.386  25.124  28.210  1.00  0.00     0.049 A 
ATOM     41  N   UNL A   1      42.170  27.095  28.656  1.00  0.00    -0.248 NA
ATOM     42  C   UNL A   1      40.629  25.417  28.135  1.00  0.00     0.031 C 
ATOM     43  C   UNL A   1      45.514  24.224  27.954  1.00  0.00     0.029 A 
ATOM     44  N   UNL A   1      44.984  26.306  28.574  1.00  0.00    -0.354 N 
ATOM     45  C   UNL A   1      40.886  27.620  28.702  1.00  0.00     0.074 A 
ATOM     46  C   UNL A   1      39.978  26.555  28.329  1.00  0.00     0.031 C 
ATOM     47  C   UNL A   1      46.663  24.881  28.181  1.00  0.00     0.029 A 
ATOM     48  C   UNL A   1      46.358  26.257  28.559  1.00  0.00     0.049 A 
ATOM     49  H   UNL A   1      44.476  27.112  28.821  1.00  0.00     0.167 HD
ATOM     50  C   UNL A   1      40.498  28.874  29.034  1.00  0.00     0.031 A 
ATOM     51  C   UNL A   1      47.272  27.214  28.802  1.00  0.00     0.031 A 
ATOM     52  C   UNL A   1      41.395  29.927  29.424  1.00  0.00     0.049 A 
ATOM     53  C   UNL A   1      46.812  28.598  29.158  1.00  0.00     0.074 A 
ATOM     54  C   UNL A   1      41.085  31.200  29.872  1.00  0.00     0.029 A 
ATOM     55  N   UNL A   1      42.777  29.835  29.402  1.00  0.00    -0.354 N 
ATOM     56  N   UNL A   1      45.590  29.053  29.286  1.00  0.00    -0.248 NA
ATOM     57  C   UNL A   1      47.859  29.602  29.402  1.00  0.00     0.031 C 
ATOM     58  C   UNL A   1      42.282  31.894  30.077  1.00  0.00     0.029 A 
ATOM     59  C   UNL A   1      43.335  31.040  29.793  1.00  0.00     0.049 A 
ATOM     60  H   UNL A   1      43.285  29.031  29.147  1.00  0.00     0.167 HD
ATOM     61  C   UNL A   1      45.720  30.390  29.633  1.00  0.00     0.074 A 
ATOM     62  C   UNL A   1      47.138  30.670  29.715  1.00  0.00     0.031 C 
ATOM     63  C   UNL A   1      44.748  31.305  29.858  1.00  0.00     0.031 A 
BRANCH  50  64
ATOM     64  C   UNL A   1      39.028  29.177  28.984  1.00  0.00    -0.014 A 
ATOM     65  C   UNL A   1      38.408  29.555  27.784  1.00  0.00     0.009 A 
ATOM     66  C   UNL A   1      38.249  29.039  30.143  1.00  0.00     0.009 A 
ATOM     67  C   UNL A   1      37.036  29.819  27.753  1.00  0.00     0.001 A 
ATOM     68  C   UNL A   1      36.876  29.283  30.104  1.00  0.00     0.001 A 
ATOM     69  C   UNL A   1      36.272  29.679  28.912  1.00  0.00     0.000 A 
ENDBRANCH  50  64
BRANCH  51  70
ATOM     70  C   UNL A   1      48.721  26.902  28.703  1.00  0.00    -0.014 A 
ATOM     71  C   UNL A   1      49.402  27.069  27.488  1.00  0.00     0.009 A 
ATOM     72  C   UNL A   1      49.425  26.427  29.820  1.00  0.00     0.009 A 
ATOM     73  C   UNL A   1      50.758  26.745  27.389  1.00  0.00     0.001 A 
ATOM     74  C   UNL A   1      50.786  26.127  29.724  1.00  0.00     0.001 A 
ATOM     75  C   UNL A   1      51.449  26.279  28.506  1.00  0.00     0.000 A 
ENDBRANCH  51  70
BRANCH  63  76
ATOM     76  C   UNL A   1      45.186  32.694  30.219  1.00  0.00    -0.014 A 
ATOM     77  C   UNL A   1      45.390  33.663  29.225  1.00  0.00     0.009 A 
ATOM     78  C   UNL A   1      45.349  33.050  31.566  1.00  0.00     0.009 A 
ATOM     79  C   UNL A   1      45.770  34.960  29.574  1.00  0.00     0.001 A 
ATOM     80  C   UNL A   1      45.707  34.353  31.913  1.00  0.00     0.001 A 
ATOM     81  C   UNL A   1      45.923  35.305  30.917  1.00  0.00     0.000 A 
ENDBRANCH  63  76
ENDBRANCH  37  38
ENDBRANCH  29  32
ENDBRANCH  27  28
ENDBRANCH  26  27
ENDBRANCH  25  26
ENDBRANCH   1  25
TORSDOF 16
ENDMDL
MODEL 2
REMARK VINA RESULT:     -11.0      1.989      7.491
REMARK SMILES CC(=O)c1ccc(NC(=O)C[C@H](C(=O)NCCCCNC(=O)c2ccc(-c3c4nc(c(-c5ccccc5)c5ccc([nH]5)c(-c5ccccc5)c5nc(c(-c6ccccc6)c6ccc3[nH]6)C=C5)C=C4)cc2)[NH+](C)C)cc1
REMARK SMILES IDX 16 1 15 2 13 3 14 4 12 6 11 7 9 8 8 9 10 11 7 12 4 13 5 14
REMARK SMILES IDX 75 15 6 16 74 17 2 18 1 19 3 20 71 21 72 22 73 23 17 25
REMARK SMILES IDX 18 26 19 27 20 28 21 29 22 31 23 32 24 33 70 34 25 35 69 36
REMARK SMILES IDX 26 37 27 38 28 39 63 40 29 41 68 42 62 43 64 44 30 45 67 46
REMARK SMILES IDX 61 47 60 48 31 50 53 51 38 52 52 53 39 54 42 55 51 56 65 57
REMARK SMILES IDX 40 58 41 59 50 61 66 62 43 63 32 64 33 65 37 66 34 67 36 68
REMARK SMILES IDX 35 69 54 70 55 71 59 72 56 73 58 74 57 75 44 76 45 77 49 78
REMARK SMILES IDX 46 79 48 80 47 81
REMARK H PARENT 15 5 8 10 71 24 20 30 64 49 42 60
REMARK Flexibility Score: inf
ROOT
ATOM      1  C   UNL A   1      35.796  22.926  26.154  1.00  0.00     0.116 C 
ENDROOT
BRANCH   1   2
ATOM      2  N   UNL A   1      34.840  22.819  27.236  1.00  0.00    -0.351 N 
ATOM      3  C   UNL A   1      33.493  22.605  27.189  1.00  0.00     0.278 C 
ATOM      4  O   UNL A   1      32.941  22.331  28.262  1.00  0.00    -0.268 OA
ATOM      5  H   UNL A   1      35.219  22.916  28.140  1.00  0.00     0.163 HD
BRANCH   3   6
ATOM      6  C   UNL A   1      32.657  22.701  25.885  1.00  0.00     0.283 C 
BRANCH   6   7
ATOM      7  C   UNL A   1      32.382  21.299  25.298  1.00  0.00     0.175 C 
BRANCH   7   8
ATOM      8  C   UNL A   1      32.148  21.279  23.797  1.00  0.00     0.230 C 
ATOM      9  N   UNL A   1      32.201  20.121  23.061  1.00  0.00    -0.326 N 
ATOM     10  H   UNL A   1      31.976  20.216  22.107  1.00  0.00     0.169 HD
ATOM     11  O   UNL A   1      31.816  22.317  23.214  1.00  0.00    -0.274 OA
BRANCH   9  12
ATOM     12  C   UNL A   1      32.530  18.822  23.473  1.00  0.00     0.041 A 
ATOM     13  C   UNL A   1      33.557  16.479  24.563  1.00  0.00     0.017 A 
ATOM     14  C   UNL A   1      33.790  16.783  23.225  1.00  0.00     0.014 A 
ATOM     15  C   UNL A   1      32.685  17.256  25.322  1.00  0.00     0.014 A 
ATOM     16  C   UNL A   1      33.262  17.948  22.675  1.00  0.00     0.027 A 
ATOM     17  C   UNL A   1      32.145  18.420  24.759  1.00  0.00     0.027 A 
BRANCH  13  18
ATOM     18  C   UNL A   1      34.384  15.422  25.173  1.00  0.00     0.159 C 
ATOM     19  C   UNL A   1      35.816  15.737  25.482  1.00  0.00     0.093 C 
ATOM     20  O   UNL A   1      33.847  14.360  25.473  1.00  0.00    -0.295 OA
ENDBRANCH  13  18
ENDBRANCH   9  12
ENDBRANCH   7   8
ENDBRANCH   6   7
BRANCH   6  21
ATOM     21  N   UNL A   1      31.462  23.602  25.953  1.00  0.00    -0.329 N 
ATOM     22  C   UNL A   1      31.853  24.915  26.490  1.00  0.00     0.333 C 
ATOM     23  C   UNL A   1      30.306  23.126  26.712  1.00  0.00     0.333 C 
ATOM     24  H   UNL A   1      31.147  23.640  24.985  1.00  0.00     0.348 HD
ENDBRANCH   6  21
ENDBRANCH   3   6
ENDBRANCH   1   2
BRANCH   1  25
ATOM     25  C   UNL A   1      36.155  21.573  25.543  1.00  0.00     0.023 C 
BRANCH  25  26
ATOM     26  C   UNL A   1      37.518  21.534  24.852  1.00  0.00     0.023 C 
BRANCH  26  27
ATOM     27  C   UNL A   1      38.735  21.443  25.776  1.00  0.00     0.116 C 
BRANCH  27  28
ATOM     28  N   UNL A   1      39.523  20.229  25.613  1.00  0.00    -0.352 N 
ATOM     29  C   UNL A   1      40.803  19.963  26.041  1.00  0.00     0.251 C 
ATOM     30  H   UNL A   1      39.077  19.497  25.129  1.00  0.00     0.163 HD
ATOM     31  O   UNL A   1      41.305  18.857  25.857  1.00  0.00    -0.269 OA
BRANCH  29  32
ATOM     32  C   UNL A   1      41.601  21.058  26.626  1.00  0.00     0.039 A 
ATOM     33  C   UNL A   1      42.292  21.902  25.752  1.00  0.00     0.014 A 
ATOM     34  C   UNL A   1      41.540  21.343  27.991  1.00  0.00     0.014 A 
ATOM     35  C   UNL A   1      42.805  23.110  26.225  1.00  0.00     0.010 A 
ATOM     36  C   UNL A   1      41.994  22.577  28.449  1.00  0.00     0.010 A 
ATOM     37  C   UNL A   1      42.588  23.489  27.560  1.00  0.00    -0.014 A 
BRANCH  37  38
ATOM     38  C   UNL A   1      42.876  24.871  28.017  1.00  0.00     0.031 A 
ATOM     39  C   UNL A   1      44.259  25.263  28.443  1.00  0.00     0.074 A 
ATOM     40  C   UNL A   1      41.857  25.746  28.146  1.00  0.00     0.049 A 
ATOM     41  N   UNL A   1      44.670  26.394  28.960  1.00  0.00    -0.248 NA
ATOM     42  C   UNL A   1      45.312  24.247  28.294  1.00  0.00     0.031 C 
ATOM     43  C   UNL A   1      40.454  25.472  27.818  1.00  0.00     0.029 A 
ATOM     44  N   UNL A   1      41.841  27.040  28.605  1.00  0.00    -0.354 N 
ATOM     45  C   UNL A   1      46.022  26.218  29.217  1.00  0.00     0.074 A 
ATOM     46  C   UNL A   1      46.356  24.863  28.829  1.00  0.00     0.031 C 
ATOM     47  C   UNL A   1      39.720  26.566  28.074  1.00  0.00     0.029 A 
ATOM     48  C   UNL A   1      40.587  27.604  28.620  1.00  0.00     0.049 A 
ATOM     49  H   UNL A   1      42.650  27.518  28.897  1.00  0.00     0.167 HD
ATOM     50  C   UNL A   1      46.908  27.109  29.721  1.00  0.00     0.031 A 
ATOM     51  C   UNL A   1      40.175  28.814  29.043  1.00  0.00     0.031 A 
ATOM     52  C   UNL A   1      46.584  28.460  30.088  1.00  0.00     0.049 A 
ATOM     53  C   UNL A   1      41.178  29.778  29.608  1.00  0.00     0.074 A 
ATOM     54  C   UNL A   1      47.436  29.465  30.515  1.00  0.00     0.029 A 
ATOM     55  N   UNL A   1      45.306  28.995  30.081  1.00  0.00    -0.354 N 
ATOM     56  N   UNL A   1      42.471  29.627  29.759  1.00  0.00    -0.248 NA
ATOM     57  C   UNL A   1      40.664  31.079  30.062  1.00  0.00     0.031 C 
ATOM     58  C   UNL A   1      46.666  30.594  30.812  1.00  0.00     0.029 A 
ATOM     59  C   UNL A   1      45.340  30.303  30.533  1.00  0.00     0.049 A 
ATOM     60  H   UNL A   1      44.494  28.515  29.797  1.00  0.00     0.167 HD
ATOM     61  C   UNL A   1      42.926  30.813  30.316  1.00  0.00     0.074 A 
ATOM     62  C   UNL A   1      41.777  31.682  30.458  1.00  0.00     0.031 C 
ATOM     63  C   UNL A   1      44.186  31.150  30.681  1.00  0.00     0.031 A 
BRANCH  50  64
ATOM     64  C   UNL A   1      48.322  26.643  29.912  1.00  0.00    -0.014 A 
ATOM     65  C   UNL A   1      48.710  25.966  31.077  1.00  0.00     0.009 A 
ATOM     66  C   UNL A   1      49.265  26.845  28.893  1.00  0.00     0.009 A 
ATOM     67  C   UNL A   1      50.027  25.526  31.232  1.00  0.00     0.001 A 
ATOM     68  C   UNL A   1      50.575  26.386  29.041  1.00  0.00     0.001 A 
ATOM     69  C   UNL A   1      50.956  25.734  30.212  1.00  0.00     0.000 A 
ENDBRANCH  50  64
BRANCH  51  70
ATOM     70  C   UNL A   1      38.738  29.181  28.964  1.00  0.00    -0.014 A 
ATOM     71  C   UNL A   1      37.897  29.003  30.072  1.00  0.00     0.009 A 
ATOM     72  C   UNL A   1      38.200  29.700  27.776  1.00  0.00     0.009 A 
ATOM     73  C   UNL A   1      36.538  29.320  29.986  1.00  0.00     0.001 A 
ATOM     74  C   UNL A   1      36.847  30.038  27.700  1.00  0.00     0.001 A 
ATOM     75  C   UNL A   1      36.016  29.840  28.803  1.00  0.00     0.000 A 
ENDBRANCH  51  70
BRANCH  63  76
ATOM     76  C   UNL A   1      44.387  32.516  31.266  1.00  0.00    -0.014 A 
ATOM     77  C   UNL A   1      44.632  33.622  30.438  1.00  0.00     0.009 A 
ATOM     78  C   UNL A   1      44.282  32.708  32.651  1.00  0.00     0.009 A 
ATOM     79  C   UNL A   1      44.788  34.894  30.991  1.00  0.00     0.001 A 
ATOM     80  C   UNL A   1      44.418  33.984  33.199  1.00  0.00     0.001 A 
ATOM     81  C   UNL A   1      44.676  35.075  32.370  1.00  0.00     0.000 A 
ENDBRANCH  63  76
ENDBRANCH  37  38
ENDBRANCH  29  32
ENDBRANCH  27  28
ENDBRANCH  26  27
ENDBRANCH  25  26
ENDBRANCH   1  25
TORSDOF 16
ENDMDL
MODEL 3
REMARK VINA RESULT:     -11.0      1.138      6.041
REMARK SMILES CC(=O)c1ccc(NC(=O)C[C@H](C(=O)NCCCCNC(=O)c2ccc(-c3c4nc(c(-c5ccccc5)c5ccc([nH]5)c(-c5ccccc5)c5nc(c(-c6ccccc6)c6ccc3[nH]6)C=C5)C=C4)cc2)[NH+](C)C)cc1
REMARK SMILES IDX 16 1 15 2 13 3 14 4 12 6 11 7 9 8 8 9 10 11 7 12 4 13 5 14
REMARK SMILES IDX 75 15 6 16 74 17 2 18 1 19 3 20 71 21 72 22 73 23 17 25
REMARK SMILES IDX 18 26 19 27 20 28 21 29 22 31 23 32 24 33 70 34 25 35 69 36
REMARK SMILES IDX 26 37 27 38 28 39 63 40 29 41 68 42 62 43 64 44 30 45 67 46
REMARK SMILES IDX 61 47 60 48 31 50 53 51 38 52 52 53 39 54 42 55 51 56 65 57
REMARK SMILES IDX 40 58 41 59 50 61 66 62 43 63 32 64 33 65 37 66 34 67 36 68
REMARK SMILES IDX 35 69 54 70 55 71 59 72 56 73 58 74 57 75 44 76 45 77 49 78
REMARK SMILES IDX 46 79 48 80 47 81
REMARK H PARENT 15 5 8 10 71 24 20 30 64 49 42 60
REMARK Flexibility Score: inf
ROOT
ATOM      1  C   UNL A   1      35.871  23.788  25.091  1.00  0.00     0.116 C 
ENDROOT
BRANCH   1   2
ATOM      2  N   UNL A   1      34.820  24.333  24.259  1.00  0.00    -0.351 N 
ATOM      3  C   UNL A   1      33.472  24.125  24.310  1.00  0.00     0.278 C 
ATOM      4  O   UNL A   1      32.770  24.885  23.631  1.00  0.00    -0.268 OA
ATOM      5  H   UNL A   1      35.123  24.946  23.550  1.00  0.00     0.163 HD
BRANCH   3   6
ATOM      6  C   UNL A   1      32.813  23.000  25.153  1.00  0.00     0.283 C 
BRANCH   6   7
ATOM      7  C   UNL A   1      31.277  23.155  25.179  1.00  0.00     0.175 C 
BRANCH   7   8
ATOM      8  C   UNL A   1      30.710  23.598  26.517  1.00  0.00     0.230 C 
ATOM      9  N   UNL A   1      30.265  24.878  26.739  1.00  0.00    -0.326 N 
ATOM     10  H   UNL A   1      29.864  25.039  27.623  1.00  0.00     0.169 HD
ATOM     11  O   UNL A   1      30.562  22.772  27.425  1.00  0.00    -0.274 OA
BRANCH   9  12
ATOM     12  C   UNL A   1      30.298  25.990  25.883  1.00  0.00     0.041 A 
ATOM     13  C   UNL A   1      30.620  27.877  23.867  1.00  0.00     0.017 A 
ATOM     14  C   UNL A   1      31.383  27.964  25.028  1.00  0.00     0.014 A 
ATOM     15  C   UNL A   1      29.586  26.947  23.769  1.00  0.00     0.014 A 
ATOM     16  C   UNL A   1      31.210  27.028  26.044  1.00  0.00     0.027 A 
ATOM     17  C   UNL A   1      29.408  26.017  24.802  1.00  0.00     0.027 A 
BRANCH  13  18
ATOM     18  C   UNL A   1      31.051  28.679  22.709  1.00  0.00     0.159 C 
ATOM     19  C   UNL A   1      32.517  28.944  22.540  1.00  0.00     0.093 C 
ATOM     20  O   UNL A   1      30.204  29.029  21.891  1.00  0.00    -0.295 OA
ENDBRANCH  13  18
ENDBRANCH   9  12
ENDBRANCH   7   8
ENDBRANCH   6   7
BRANCH   6  21
ATOM     21  N   UNL A   1      33.302  21.614  24.867  1.00  0.00    -0.329 N 
ATOM     22  C   UNL A   1      32.292  20.874  24.095  1.00  0.00     0.333 C 
ATOM     23  C   UNL A   1      33.693  20.791  26.011  1.00  0.00     0.333 C 
ATOM     24  H   UNL A   1      34.165  21.776  24.349  1.00  0.00     0.348 HD
ENDBRANCH   6  21
ENDBRANCH   3   6
ENDBRANCH   1   2
BRANCH   1  25
ATOM     25  C   UNL A   1      36.905  22.992  24.297  1.00  0.00     0.023 C 
BRANCH  25  26
ATOM     26  C   UNL A   1      37.213  21.609  24.870  1.00  0.00     0.023 C 
BRANCH  26  27
ATOM     27  C   UNL A   1      38.467  21.510  25.742  1.00  0.00     0.116 C 
BRANCH  27  28
ATOM     28  N   UNL A   1      39.233  20.285  25.556  1.00  0.00    -0.352 N 
ATOM     29  C   UNL A   1      40.510  19.990  25.972  1.00  0.00     0.251 C 
ATOM     30  H   UNL A   1      38.771  19.568  25.064  1.00  0.00     0.163 HD
ATOM     31  O   UNL A   1      40.992  18.880  25.768  1.00  0.00    -0.269 OA
BRANCH  29  32
ATOM     32  C   UNL A   1      41.332  21.064  26.566  1.00  0.00     0.039 A 
ATOM     33  C   UNL A   1      42.014  21.922  25.700  1.00  0.00     0.014 A 
ATOM     34  C   UNL A   1      41.301  21.315  27.939  1.00  0.00     0.014 A 
ATOM     35  C   UNL A   1      42.548  23.112  26.192  1.00  0.00     0.010 A 
ATOM     36  C   UNL A   1      41.776  22.533  28.418  1.00  0.00     0.010 A 
ATOM     37  C   UNL A   1      42.362  23.461  27.540  1.00  0.00    -0.014 A 
BRANCH  37  38
ATOM     38  C   UNL A   1      42.674  24.828  28.024  1.00  0.00     0.031 A 
ATOM     39  C   UNL A   1      44.056  25.179  28.488  1.00  0.00     0.074 A 
ATOM     40  C   UNL A   1      41.673  25.726  28.144  1.00  0.00     0.049 A 
ATOM     41  N   UNL A   1      44.482  26.291  29.030  1.00  0.00    -0.248 NA
ATOM     42  C   UNL A   1      45.087  24.140  28.346  1.00  0.00     0.031 C 
ATOM     43  C   UNL A   1      40.272  25.491  27.781  1.00  0.00     0.029 A 
ATOM     44  N   UNL A   1      41.679  27.013  28.623  1.00  0.00    -0.354 N 
ATOM     45  C   UNL A   1      45.823  26.078  29.315  1.00  0.00     0.074 A 
ATOM     46  C   UNL A   1      46.133  24.722  28.914  1.00  0.00     0.031 C 
ATOM     47  C   UNL A   1      39.559  26.600  28.038  1.00  0.00     0.029 A 
ATOM     48  C   UNL A   1      40.439  27.608  28.618  1.00  0.00     0.049 A 
ATOM     49  H   UNL A   1      42.492  27.466  28.940  1.00  0.00     0.167 HD
ATOM     50  C   UNL A   1      46.720  26.940  29.852  1.00  0.00     0.031 A 
ATOM     51  C   UNL A   1      40.047  28.821  29.051  1.00  0.00     0.031 A 
ATOM     52  C   UNL A   1      46.420  28.293  30.233  1.00  0.00     0.049 A 
ATOM     53  C   UNL A   1      41.061  29.751  29.653  1.00  0.00     0.074 A 
ATOM     54  C   UNL A   1      47.287  29.269  30.694  1.00  0.00     0.029 A 
ATOM     55  N   UNL A   1      45.156  28.859  30.206  1.00  0.00    -0.354 N 
ATOM     56  N   UNL A   1      42.346  29.566  29.830  1.00  0.00    -0.248 NA
ATOM     57  C   UNL A   1      40.569  31.058  30.116  1.00  0.00     0.031 C 
ATOM     58  C   UNL A   1      46.538  30.412  30.992  1.00  0.00     0.029 A 
ATOM     59  C   UNL A   1      45.212  30.159  30.679  1.00  0.00     0.049 A 
ATOM     60  H   UNL A   1      44.340  28.404  29.897  1.00  0.00     0.167 HD
ATOM     61  C   UNL A   1      42.817  30.732  30.416  1.00  0.00     0.074 A 
ATOM     62  C   UNL A   1      41.686  31.627  30.546  1.00  0.00     0.031 C 
ATOM     63  C   UNL A   1      44.076  31.031  30.814  1.00  0.00     0.031 A 
BRANCH  50  64
ATOM     64  C   UNL A   1      48.117  26.435  30.067  1.00  0.00    -0.014 A 
ATOM     65  C   UNL A   1      49.101  26.585  29.079  1.00  0.00     0.009 A 
ATOM     66  C   UNL A   1      48.462  25.843  31.291  1.00  0.00     0.009 A 
ATOM     67  C   UNL A   1      50.400  26.123  29.303  1.00  0.00     0.001 A 
ATOM     68  C   UNL A   1      49.766  25.401  31.520  1.00  0.00     0.001 A 
ATOM     69  C   UNL A   1      50.731  25.535  30.524  1.00  0.00     0.000 A 
ENDBRANCH  50  64
BRANCH  51  70
ATOM     70  C   UNL A   1      38.622  29.225  28.945  1.00  0.00    -0.014 A 
ATOM     71  C   UNL A   1      38.115  29.738  27.742  1.00  0.00     0.009 A 
ATOM     72  C   UNL A   1      37.765  29.108  30.051  1.00  0.00     0.009 A 
ATOM     73  C   UNL A   1      36.782  30.147  27.655  1.00  0.00     0.001 A 
ATOM     74  C   UNL A   1      36.427  29.495  29.954  1.00  0.00     0.001 A 
ATOM     75  C   UNL A   1      35.939  30.021  28.758  1.00  0.00     0.000 A 
ENDBRANCH  51  70
BRANCH  63  76
ATOM     76  C   UNL A   1      44.297  32.384  31.425  1.00  0.00    -0.014 A 
ATOM     77  C   UNL A   1      44.308  32.549  32.818  1.00  0.00     0.009 A 
ATOM     78  C   UNL A   1      44.545  33.493  30.603  1.00  0.00     0.009 A 
ATOM     79  C   UNL A   1      44.543  33.806  33.376  1.00  0.00     0.001 A 
ATOM     80  C   UNL A   1      44.801  34.744  31.163  1.00  0.00     0.001 A 
ATOM     81  C   UNL A   1      44.795  34.901  32.549  1.00  0.00     0.000 A 
ENDBRANCH  63  76
ENDBRANCH  37  38
ENDBRANCH  29  32
ENDBRANCH  27  28
ENDBRANCH  26  27
ENDBRANCH  25  26
ENDBRANCH   1  25
TORSDOF 16
ENDMDL
