MODEL 1
REMARK VINA RESULT:     -10.9      0.000      0.000
REMARK SMILES CCc1ccsc1C(=O)N(CC(=O)NCCCCNC(=O)c1ccc(-c2c3nc(c(-c4ccccc4)c4ccc([nH]4)c(-c4ccccc4)c4nc(c(-c5ccccc5)c5ccc2[nH]5)C=C4)C=C3)cc1)c1ccccc1N
REMARK SMILES IDX 15 1 14 2 12 3 13 4 11 6 10 7 8 8 9 9 7 10 3 11 4 12 5 13
REMARK SMILES IDX 6 14 2 15 1 16 70 17 71 18 75 19 72 20 74 21 73 22 76 23
REMARK SMILES IDX 16 26 17 27 18 28 19 29 20 30 21 32 22 33 23 34 69 35 24 36
REMARK SMILES IDX 68 37 25 38 26 39 27 40 62 41 28 42 67 43 61 44 63 45 29 46
REMARK SMILES IDX 66 47 60 48 59 49 30 51 52 52 37 53 51 54 38 55 41 56 50 57
REMARK SMILES IDX 64 58 39 59 40 60 49 62 65 63 42 64 31 65 32 66 36 67 33 68
REMARK SMILES IDX 35 69 34 70 53 71 54 72 58 73 55 74 57 75 56 76 43 77 44 78
REMARK SMILES IDX 48 79 45 80 47 81 46 82
REMARK H PARENT 14 5 76 24 76 25 19 31 63 50 41 61
REMARK Flexibility Score: inf
ROOT
ATOM      1  C   UNL A   1      33.130  30.021  26.400  1.00  0.00     0.116 C 
ENDROOT
BRANCH   1   2
ATOM      2  N   UNL A   1      33.806  29.603  25.191  1.00  0.00    -0.355 N 
ATOM      3  C   UNL A   1      33.537  28.622  24.287  1.00  0.00     0.240 C 
ATOM      4  O   UNL A   1      34.126  28.722  23.202  1.00  0.00    -0.273 OA
ATOM      5  H   UNL A   1      34.614  30.125  24.984  1.00  0.00     0.163 HD
BRANCH   3   6
ATOM      6  C   UNL A   1      32.515  27.478  24.477  1.00  0.00     0.226 C 
BRANCH   6   7
ATOM      7  N   UNL A   1      31.700  27.020  23.369  1.00  0.00    -0.296 N 
BRANCH   7   8
ATOM      8  C   UNL A   1      31.943  25.852  22.606  1.00  0.00     0.269 C 
ATOM      9  O   UNL A   1      31.843  25.986  21.375  1.00  0.00    -0.268 OA
BRANCH   8  10
ATOM     10  C   UNL A   1      32.409  24.501  23.126  1.00  0.00     0.096 A 
ATOM     11  C   UNL A   1      33.569  23.757  23.464  1.00  0.00    -0.025 A 
ATOM     12  C   UNL A   1      33.230  22.388  23.833  1.00  0.00     0.016 A 
ATOM     13  C   UNL A   1      31.908  22.075  23.735  1.00  0.00     0.066 A 
ATOM     14  S   UNL A   1      31.001  23.419  23.301  1.00  0.00    -0.138 S 
BRANCH  11  15
ATOM     15  C   UNL A   1      35.050  24.074  23.529  1.00  0.00     0.034 C 
ATOM     16  C   UNL A   1      35.667  23.965  24.922  1.00  0.00     0.009 C 
ENDBRANCH  11  15
ENDBRANCH   8  10
ENDBRANCH   7   8
BRANCH   7  17
ATOM     17  C   UNL A   1      30.451  27.784  23.253  1.00  0.00     0.068 A 
ATOM     18  C   UNL A   1      29.268  27.201  23.765  1.00  0.00     0.028 A 
ATOM     19  C   UNL A   1      30.323  28.991  22.521  1.00  0.00     0.056 A 
ATOM     20  C   UNL A   1      28.003  27.733  23.510  1.00  0.00     0.002 A 
ATOM     21  C   UNL A   1      29.033  29.480  22.229  1.00  0.00     0.028 A 
ATOM     22  C   UNL A   1      27.884  28.863  22.721  1.00  0.00     0.002 A 
BRANCH  19  23
ATOM     23  N   UNL A   1      31.396  29.617  21.871  1.00  0.00    -0.397 N 
ATOM     24  H   UNL A   1      32.021  30.181  22.383  1.00  0.00     0.156 HD
ATOM     25  H   UNL A   1      31.526  29.492  20.903  1.00  0.00     0.156 HD
ENDBRANCH  19  23
ENDBRANCH   7  17
ENDBRANCH   6   7
ENDBRANCH   3   6
ENDBRANCH   1   2
BRANCH   1  26
ATOM     26  C   UNL A   1      31.701  30.509  26.201  1.00  0.00     0.023 C 
BRANCH  26  27
ATOM     27  C   UNL A   1      31.472  31.972  26.571  1.00  0.00     0.023 C 
BRANCH  27  28
ATOM     28  C   UNL A   1      32.635  32.657  27.283  1.00  0.00     0.116 C 
BRANCH  28  29
ATOM     29  N   UNL A   1      32.361  34.033  27.667  1.00  0.00    -0.352 N 
ATOM     30  C   UNL A   1      33.049  34.829  28.554  1.00  0.00     0.251 C 
ATOM     31  H   UNL A   1      31.580  34.450  27.237  1.00  0.00     0.163 HD
ATOM     32  O   UNL A   1      32.635  35.949  28.840  1.00  0.00    -0.269 OA
BRANCH  30  33
ATOM     33  C   UNL A   1      34.274  34.310  29.196  1.00  0.00     0.039 A 
ATOM     34  C   UNL A   1      34.160  33.612  30.402  1.00  0.00     0.014 A 
ATOM     35  C   UNL A   1      35.523  34.474  28.592  1.00  0.00     0.014 A 
ATOM     36  C   UNL A   1      35.289  33.011  30.960  1.00  0.00     0.010 A 
ATOM     37  C   UNL A   1      36.632  33.811  29.110  1.00  0.00     0.010 A 
ATOM     38  C   UNL A   1      36.525  33.070  30.297  1.00  0.00    -0.014 A 
BRANCH  38  39
ATOM     39  C   UNL A   1      37.716  32.358  30.823  1.00  0.00     0.031 A 
ATOM     40  C   UNL A   1      38.464  32.903  32.006  1.00  0.00     0.074 A 
ATOM     41  C   UNL A   1      38.170  31.259  30.189  1.00  0.00     0.049 A 
ATOM     42  N   UNL A   1      39.560  32.458  32.568  1.00  0.00    -0.248 NA
ATOM     43  C   UNL A   1      37.925  34.125  32.624  1.00  0.00     0.031 C 
ATOM     44  C   UNL A   1      37.567  30.654  28.998  1.00  0.00     0.029 A 
ATOM     45  N   UNL A   1      39.255  30.460  30.453  1.00  0.00    -0.354 N 
ATOM     46  C   UNL A   1      39.849  33.353  33.591  1.00  0.00     0.074 A 
ATOM     47  C   UNL A   1      38.845  34.393  33.538  1.00  0.00     0.031 C 
ATOM     48  C   UNL A   1      38.277  29.569  28.649  1.00  0.00     0.029 A 
ATOM     49  C   UNL A   1      39.404  29.422  29.565  1.00  0.00     0.049 A 
ATOM     50  H   UNL A   1      39.869  30.616  31.207  1.00  0.00     0.167 HD
ATOM     51  C   UNL A   1      40.846  33.302  34.506  1.00  0.00     0.031 A 
ATOM     52  C   UNL A   1      40.345  28.463  29.490  1.00  0.00     0.031 A 
ATOM     53  C   UNL A   1      41.841  32.265  34.564  1.00  0.00     0.049 A 
ATOM     54  C   UNL A   1      41.446  28.430  30.513  1.00  0.00     0.074 A 
ATOM     55  C   UNL A   1      42.859  32.097  35.487  1.00  0.00     0.029 A 
ATOM     56  N   UNL A   1      41.945  31.221  33.658  1.00  0.00    -0.354 N 
ATOM     57  N   UNL A   1      41.663  29.243  31.519  1.00  0.00    -0.248 NA
ATOM     58  C   UNL A   1      42.422  27.338  30.399  1.00  0.00     0.031 C 
ATOM     59  C   UNL A   1      43.609  30.978  35.111  1.00  0.00     0.029 A 
ATOM     60  C   UNL A   1      43.024  30.417  33.986  1.00  0.00     0.049 A 
ATOM     61  H   UNL A   1      41.341  31.074  32.895  1.00  0.00     0.167 HD
ATOM     62  C   UNL A   1      42.785  28.747  32.171  1.00  0.00     0.074 A 
ATOM     63  C   UNL A   1      43.192  27.554  31.457  1.00  0.00     0.031 C 
ATOM     64  C   UNL A   1      43.420  29.236  33.263  1.00  0.00     0.031 A 
BRANCH  51  65
ATOM     65  C   UNL A   1      40.906  34.415  35.517  1.00  0.00    -0.014 A 
ATOM     66  C   UNL A   1      40.193  34.339  36.724  1.00  0.00     0.009 A 
ATOM     67  C   UNL A   1      41.701  35.545  35.268  1.00  0.00     0.009 A 
ATOM     68  C   UNL A   1      40.238  35.392  37.641  1.00  0.00     0.001 A 
ATOM     69  C   UNL A   1      41.768  36.582  36.200  1.00  0.00     0.001 A 
ATOM     70  C   UNL A   1      41.028  36.510  37.380  1.00  0.00     0.000 A 
ENDBRANCH  51  65
BRANCH  52  71
ATOM     71  C   UNL A   1      40.281  27.444  28.410  1.00  0.00    -0.014 A 
ATOM     72  C   UNL A   1      40.933  27.659  27.186  1.00  0.00     0.009 A 
ATOM     73  C   UNL A   1      39.570  26.249  28.600  1.00  0.00     0.009 A 
ATOM     74  C   UNL A   1      40.855  26.708  26.167  1.00  0.00     0.001 A 
ATOM     75  C   UNL A   1      39.517  25.287  27.589  1.00  0.00     0.001 A 
ATOM     76  C   UNL A   1      40.151  25.521  26.370  1.00  0.00     0.000 A 
ENDBRANCH  52  71
BRANCH  64  77
ATOM     77  C   UNL A   1      44.605  28.464  33.772  1.00  0.00    -0.014 A 
ATOM     78  C   UNL A   1      44.451  27.417  34.694  1.00  0.00     0.009 A 
ATOM     79  C   UNL A   1      45.888  28.765  33.293  1.00  0.00     0.009 A 
ATOM     80  C   UNL A   1      45.564  26.709  35.149  1.00  0.00     0.001 A 
ATOM     81  C   UNL A   1      46.997  28.037  33.727  1.00  0.00     0.001 A 
ATOM     82  C   UNL A   1      46.835  27.015  34.662  1.00  0.00     0.000 A 
ENDBRANCH  64  77
ENDBRANCH  38  39
ENDBRANCH  30  33
ENDBRANCH  28  29
ENDBRANCH  27  28
ENDBRANCH  26  27
ENDBRANCH   1  26
TORSDOF 17
ENDMDL
MODEL 2
REMARK VINA RESULT:     -10.9      3.011      4.776
REMARK SMILES CCc1ccsc1C(=O)N(CC(=O)NCCCCNC(=O)c1ccc(-c2c3nc(c(-c4ccccc4)c4ccc([nH]4)c(-c4ccccc4)c4nc(c(-c5ccccc5)c5ccc2[nH]5)C=C4)C=C3)cc1)c1ccccc1N
REMARK SMILES IDX 15 1 14 2 12 3 13 4 11 6 10 7 8 8 9 9 7 10 3 11 4 12 5 13
REMARK SMILES IDX 6 14 2 15 1 16 70 17 71 18 75 19 72 20 74 21 73 22 76 23
REMARK SMILES IDX 16 26 17 27 18 28 19 29 20 30 21 32 22 33 23 34 69 35 24 36
REMARK SMILES IDX 68 37 25 38 26 39 27 40 62 41 28 42 67 43 61 44 63 45 29 46
REMARK SMILES IDX 66 47 60 48 59 49 30 51 52 52 37 53 51 54 38 55 41 56 50 57
REMARK SMILES IDX 64 58 39 59 40 60 49 62 65 63 42 64 31 65 32 66 36 67 33 68
REMARK SMILES IDX 35 69 34 70 53 71 54 72 58 73 55 74 57 75 56 76 43 77 44 78
REMARK SMILES IDX 48 79 45 80 47 81 46 82
REMARK H PARENT 14 5 76 24 76 25 19 31 63 50 41 61
REMARK Flexibility Score: inf
ROOT
ATOM      1  C   UNL A   1      31.735  28.390  24.296  1.00  0.00     0.116 C 
ENDROOT
BRANCH   1   2
ATOM      2  N   UNL A   1      31.874  27.791  22.985  1.00  0.00    -0.355 N 
ATOM      3  C   UNL A   1      32.526  26.677  22.554  1.00  0.00     0.240 C 
ATOM      4  O   UNL A   1      32.195  26.267  21.433  1.00  0.00    -0.273 OA
ATOM      5  H   UNL A   1      31.410  28.283  22.269  1.00  0.00     0.163 HD
BRANCH   3   6
ATOM      6  C   UNL A   1      33.554  25.863  23.372  1.00  0.00     0.226 C 
BRANCH   6   7
ATOM      7  N   UNL A   1      33.355  24.448  23.615  1.00  0.00    -0.296 N 
BRANCH   7   8
ATOM      8  C   UNL A   1      34.114  23.405  23.031  1.00  0.00     0.269 C 
ATOM      9  O   UNL A   1      34.122  23.378  21.789  1.00  0.00    -0.268 OA
BRANCH   8  10
ATOM     10  C   UNL A   1      34.992  22.397  23.757  1.00  0.00     0.096 A 
ATOM     11  C   UNL A   1      34.947  21.243  24.581  1.00  0.00    -0.025 A 
ATOM     12  C   UNL A   1      36.284  20.843  25.003  1.00  0.00     0.016 A 
ATOM     13  C   UNL A   1      37.290  21.659  24.582  1.00  0.00     0.066 A 
ATOM     14  S   UNL A   1      36.703  22.874  23.585  1.00  0.00    -0.138 S 
BRANCH  11  15
ATOM     15  C   UNL A   1      33.835  20.354  25.099  1.00  0.00     0.034 C 
ATOM     16  C   UNL A   1      32.503  20.501  24.365  1.00  0.00     0.009 C 
ENDBRANCH  11  15
ENDBRANCH   8  10
ENDBRANCH   7   8
BRANCH   7  17
ATOM     17  C   UNL A   1      32.410  24.206  24.714  1.00  0.00     0.068 A 
ATOM     18  C   UNL A   1      32.926  24.157  26.031  1.00  0.00     0.028 A 
ATOM     19  C   UNL A   1      31.048  23.860  24.530  1.00  0.00     0.056 A 
ATOM     20  C   UNL A   1      32.164  23.715  27.114  1.00  0.00     0.002 A 
ATOM     21  C   UNL A   1      30.315  23.366  25.627  1.00  0.00     0.028 A 
ATOM     22  C   UNL A   1      30.862  23.298  26.907  1.00  0.00     0.002 A 
BRANCH  19  23
ATOM     23  N   UNL A   1      30.440  23.765  23.270  1.00  0.00    -0.397 N 
ATOM     24  H   UNL A   1      30.600  24.462  22.592  1.00  0.00     0.156 HD
ATOM     25  H   UNL A   1      29.854  23.003  23.062  1.00  0.00     0.156 HD
ENDBRANCH  19  23
ENDBRANCH   7  17
ENDBRANCH   6   7
ENDBRANCH   3   6
ENDBRANCH   1   2
BRANCH   1  26
ATOM     26  C   UNL A   1      32.943  29.188  24.768  1.00  0.00     0.023 C 
BRANCH  26  27
ATOM     27  C   UNL A   1      33.817  28.469  25.793  1.00  0.00     0.023 C 
BRANCH  27  28
ATOM     28  C   UNL A   1      33.455  28.721  27.253  1.00  0.00     0.116 C 
BRANCH  28  29
ATOM     29  N   UNL A   1      33.485  30.125  27.633  1.00  0.00    -0.352 N 
ATOM     30  C   UNL A   1      34.517  30.841  28.193  1.00  0.00     0.251 C 
ATOM     31  H   UNL A   1      32.655  30.630  27.469  1.00  0.00     0.163 HD
ATOM     32  O   UNL A   1      34.353  32.007  28.541  1.00  0.00    -0.269 OA
BRANCH  30  33
ATOM     33  C   UNL A   1      35.821  30.183  28.413  1.00  0.00     0.039 A 
ATOM     34  C   UNL A   1      36.756  30.175  27.375  1.00  0.00     0.014 A 
ATOM     35  C   UNL A   1      36.137  29.615  29.650  1.00  0.00     0.014 A 
ATOM     36  C   UNL A   1      38.036  29.666  27.602  1.00  0.00     0.010 A 
ATOM     37  C   UNL A   1      37.435  29.178  29.897  1.00  0.00     0.010 A 
ATOM     38  C   UNL A   1      38.398  29.202  28.877  1.00  0.00    -0.014 A 
BRANCH  38  39
ATOM     39  C   UNL A   1      39.781  28.747  29.167  1.00  0.00     0.031 A 
ATOM     40  C   UNL A   1      40.761  29.673  29.830  1.00  0.00     0.074 A 
ATOM     41  C   UNL A   1      40.178  27.523  28.766  1.00  0.00     0.049 A 
ATOM     42  N   UNL A   1      42.026  29.477  30.105  1.00  0.00    -0.248 NA
ATOM     43  C   UNL A   1      40.261  31.004  30.209  1.00  0.00     0.031 C 
ATOM     44  C   UNL A   1      39.340  26.545  28.067  1.00  0.00     0.029 A 
ATOM     45  N   UNL A   1      41.394  26.897  28.879  1.00  0.00    -0.354 N 
ATOM     46  C   UNL A   1      42.475  30.664  30.672  1.00  0.00     0.074 A 
ATOM     47  C   UNL A   1      41.363  31.589  30.652  1.00  0.00     0.031 C 
ATOM     48  C   UNL A   1      40.062  25.436  27.834  1.00  0.00     0.029 A 
ATOM     49  C   UNL A   1      41.419  25.638  28.332  1.00  0.00     0.049 A 
ATOM     50  H   UNL A   1      42.175  27.313  29.312  1.00  0.00     0.167 HD
ATOM     51  C   UNL A   1      43.696  30.951  31.184  1.00  0.00     0.031 A 
ATOM     52  C   UNL A   1      42.422  24.746  28.234  1.00  0.00     0.031 A 
ATOM     53  C   UNL A   1      44.800  30.031  31.211  1.00  0.00     0.049 A 
ATOM     54  C   UNL A   1      43.771  25.089  28.804  1.00  0.00     0.074 A 
ATOM     55  C   UNL A   1      46.059  30.210  31.756  1.00  0.00     0.029 A 
ATOM     56  N   UNL A   1      44.778  28.757  30.663  1.00  0.00    -0.354 N 
ATOM     57  N   UNL A   1      44.158  26.188  29.403  1.00  0.00    -0.248 NA
ATOM     58  C   UNL A   1      44.814  24.060  28.698  1.00  0.00     0.031 C 
ATOM     59  C   UNL A   1      46.815  29.062  31.496  1.00  0.00     0.029 A 
ATOM     60  C   UNL A   1      46.009  28.147  30.838  1.00  0.00     0.049 A 
ATOM     61  H   UNL A   1      44.002  28.348  30.216  1.00  0.00     0.167 HD
ATOM     62  C   UNL A   1      45.482  25.975  29.766  1.00  0.00     0.074 A 
ATOM     63  C   UNL A   1      45.825  24.635  29.335  1.00  0.00     0.031 C 
ATOM     64  C   UNL A   1      46.336  26.815  30.399  1.00  0.00     0.031 A 
BRANCH  51  65
ATOM     65  C   UNL A   1      43.894  32.330  31.752  1.00  0.00    -0.014 A 
ATOM     66  C   UNL A   1      43.385  32.675  33.015  1.00  0.00     0.009 A 
ATOM     67  C   UNL A   1      44.614  33.290  31.024  1.00  0.00     0.009 A 
ATOM     68  C   UNL A   1      43.554  33.967  33.517  1.00  0.00     0.001 A 
ATOM     69  C   UNL A   1      44.809  34.571  31.543  1.00  0.00     0.001 A 
ATOM     70  C   UNL A   1      44.269  34.913  32.783  1.00  0.00     0.000 A 
ENDBRANCH  51  65
BRANCH  52  71
ATOM     71  C   UNL A   1      42.186  23.433  27.578  1.00  0.00    -0.014 A 
ATOM     72  C   UNL A   1      42.540  23.233  26.235  1.00  0.00     0.009 A 
ATOM     73  C   UNL A   1      41.609  22.372  28.294  1.00  0.00     0.009 A 
ATOM     74  C   UNL A   1      42.299  22.004  25.616  1.00  0.00     0.001 A 
ATOM     75  C   UNL A   1      41.396  21.137  27.680  1.00  0.00     0.001 A 
ATOM     76  C   UNL A   1      41.732  20.956  26.340  1.00  0.00     0.000 A 
ENDBRANCH  52  71
BRANCH  64  77
ATOM     77  C   UNL A   1      47.716  26.297  30.693  1.00  0.00    -0.014 A 
ATOM     78  C   UNL A   1      48.737  26.354  29.731  1.00  0.00     0.009 A 
ATOM     79  C   UNL A   1      48.009  25.781  31.964  1.00  0.00     0.009 A 
ATOM     80  C   UNL A   1      50.013  25.873  30.027  1.00  0.00     0.001 A 
ATOM     81  C   UNL A   1      49.294  25.328  32.268  1.00  0.00     0.001 A 
ATOM     82  C   UNL A   1      50.292  25.366  31.296  1.00  0.00     0.000 A 
ENDBRANCH  64  77
ENDBRANCH  38  39
ENDBRANCH  30  33
ENDBRANCH  28  29
ENDBRANCH  27  28
ENDBRANCH  26  27
ENDBRANCH   1  26
TORSDOF 17
ENDMDL
MODEL 3
REMARK VINA RESULT:     -10.8      1.224      5.989
REMARK SMILES CCc1ccsc1C(=O)N(CC(=O)NCCCCNC(=O)c1ccc(-c2c3nc(c(-c4ccccc4)c4ccc([nH]4)c(-c4ccccc4)c4nc(c(-c5ccccc5)c5ccc2[nH]5)C=C4)C=C3)cc1)c1ccccc1N
REMARK SMILES IDX 15 1 14 2 12 3 13 4 11 6 10 7 8 8 9 9 7 10 3 11 4 12 5 13
REMARK SMILES IDX 6 14 2 15 1 16 70 17 71 18 75 19 72 20 74 21 73 22 76 23
REMARK SMILES IDX 16 26 17 27 18 28 19 29 20 30 21 32 22 33 23 34 69 35 24 36
REMARK SMILES IDX 68 37 25 38 26 39 27 40 62 41 28 42 67 43 61 44 63 45 29 46
REMARK SMILES IDX 66 47 60 48 59 49 30 51 52 52 37 53 51 54 38 55 41 56 50 57
REMARK SMILES IDX 64 58 39 59 40 60 49 62 65 63 42 64 31 65 32 66 36 67 33 68
REMARK SMILES IDX 35 69 34 70 53 71 54 72 58 73 55 74 57 75 56 76 43 77 44 78
REMARK SMILES IDX 48 79 45 80 47 81 46 82
REMARK H PARENT 14 5 76 24 76 25 19 31 63 50 41 61
REMARK Flexibility Score: inf
ROOT
ATOM      1  C   UNL A   1      32.499  29.497  27.191  1.00  0.00     0.116 C 
ENDROOT
BRANCH   1   2
ATOM      2  N   UNL A   1      31.874  28.192  27.163  1.00  0.00    -0.355 N 
ATOM      3  C   UNL A   1      32.174  27.049  26.488  1.00  0.00     0.240 C 
ATOM      4  O   UNL A   1      31.635  26.020  26.916  1.00  0.00    -0.273 OA
ATOM      5  H   UNL A   1      31.080  28.116  27.741  1.00  0.00     0.163 HD
BRANCH   3   6
ATOM      6  C   UNL A   1      33.176  26.934  25.316  1.00  0.00     0.226 C 
BRANCH   6   7
ATOM      7  N   UNL A   1      32.712  26.681  23.966  1.00  0.00    -0.296 N 
BRANCH   7   8
ATOM      8  C   UNL A   1      33.173  25.638  23.127  1.00  0.00     0.269 C 
ATOM      9  O   UNL A   1      33.588  25.992  22.010  1.00  0.00    -0.268 OA
BRANCH   8  10
ATOM     10  C   UNL A   1      33.309  24.166  23.487  1.00  0.00     0.096 A 
ATOM     11  C   UNL A   1      34.242  23.186  23.911  1.00  0.00    -0.025 A 
ATOM     12  C   UNL A   1      33.631  21.863  23.966  1.00  0.00     0.016 A 
ATOM     13  C   UNL A   1      32.332  21.811  23.560  1.00  0.00     0.066 A 
ATOM     14  S   UNL A   1      31.753  23.343  23.196  1.00  0.00    -0.138 S 
BRANCH  11  15
ATOM     15  C   UNL A   1      35.702  23.218  24.317  1.00  0.00     0.034 C 
ATOM     16  C   UNL A   1      36.676  22.745  23.239  1.00  0.00     0.009 C 
ENDBRANCH  11  15
ENDBRANCH   8  10
ENDBRANCH   7   8
BRANCH   7  17
ATOM     17  C   UNL A   1      31.538  27.496  23.627  1.00  0.00     0.068 A 
ATOM     18  C   UNL A   1      30.257  26.959  23.900  1.00  0.00     0.028 A 
ATOM     19  C   UNL A   1      31.597  28.711  22.899  1.00  0.00     0.056 A 
ATOM     20  C   UNL A   1      29.085  27.543  23.419  1.00  0.00     0.002 A 
ATOM     21  C   UNL A   1      30.406  29.253  22.377  1.00  0.00     0.028 A 
ATOM     22  C   UNL A   1      29.161  28.681  22.637  1.00  0.00     0.002 A 
BRANCH  19  23
ATOM     23  N   UNL A   1      32.797  29.295  22.471  1.00  0.00    -0.397 N 
ATOM     24  H   UNL A   1      33.522  28.729  22.118  1.00  0.00     0.156 HD
ATOM     25  H   UNL A   1      32.916  30.271  22.522  1.00  0.00     0.156 HD
ENDBRANCH  19  23
ENDBRANCH   7  17
ENDBRANCH   6   7
ENDBRANCH   3   6
ENDBRANCH   1   2
BRANCH   1  26
ATOM     26  C   UNL A   1      31.930  30.502  26.199  1.00  0.00     0.023 C 
BRANCH  26  27
ATOM     27  C   UNL A   1      31.545  31.848  26.809  1.00  0.00     0.023 C 
BRANCH  27  28
ATOM     28  C   UNL A   1      32.711  32.705  27.292  1.00  0.00     0.116 C 
BRANCH  28  29
ATOM     29  N   UNL A   1      32.346  34.081  27.593  1.00  0.00    -0.352 N 
ATOM     30  C   UNL A   1      32.930  34.948  28.487  1.00  0.00     0.251 C 
ATOM     31  H   UNL A   1      31.577  34.438  27.092  1.00  0.00     0.163 HD
ATOM     32  O   UNL A   1      32.444  36.056  28.692  1.00  0.00    -0.269 OA
BRANCH  30  33
ATOM     33  C   UNL A   1      34.131  34.520  29.234  1.00  0.00     0.039 A 
ATOM     34  C   UNL A   1      33.970  33.948  30.499  1.00  0.00     0.014 A 
ATOM     35  C   UNL A   1      35.404  34.644  28.674  1.00  0.00     0.014 A 
ATOM     36  C   UNL A   1      35.079  33.428  31.168  1.00  0.00     0.010 A 
ATOM     37  C   UNL A   1      36.497  34.059  29.307  1.00  0.00     0.010 A 
ATOM     38  C   UNL A   1      36.345  33.442  30.558  1.00  0.00    -0.014 A 
BRANCH  38  39
ATOM     39  C   UNL A   1      37.520  32.809  31.208  1.00  0.00     0.031 A 
ATOM     40  C   UNL A   1      38.166  31.599  30.595  1.00  0.00     0.074 A 
ATOM     41  C   UNL A   1      37.960  33.279  32.393  1.00  0.00     0.049 A 
ATOM     42  N   UNL A   1      39.156  30.873  31.047  1.00  0.00    -0.248 NA
ATOM     43  C   UNL A   1      37.607  31.127  29.318  1.00  0.00     0.031 C 
ATOM     44  C   UNL A   1      37.390  34.415  33.121  1.00  0.00     0.029 A 
ATOM     45  N   UNL A   1      38.985  32.848  33.198  1.00  0.00    -0.354 N 
ATOM     46  C   UNL A   1      39.328  29.852  30.120  1.00  0.00     0.074 A 
ATOM     47  C   UNL A   1      38.306  30.021  29.111  1.00  0.00     0.031 C 
ATOM     48  C   UNL A   1      38.087  34.603  34.254  1.00  0.00     0.029 A 
ATOM     49  C   UNL A   1      39.126  33.583  34.350  1.00  0.00     0.049 A 
ATOM     50  H   UNL A   1      39.564  32.085  32.971  1.00  0.00     0.167 HD
ATOM     51  C   UNL A   1      40.265  28.874  30.099  1.00  0.00     0.031 A 
ATOM     52  C   UNL A   1      39.988  33.448  35.375  1.00  0.00     0.031 A 
ATOM     53  C   UNL A   1      41.285  28.707  31.098  1.00  0.00     0.049 A 
ATOM     54  C   UNL A   1      41.015  32.351  35.331  1.00  0.00     0.074 A 
ATOM     55  C   UNL A   1      42.313  27.781  31.135  1.00  0.00     0.029 A 
ATOM     56  N   UNL A   1      41.405  29.485  32.240  1.00  0.00    -0.354 N 
ATOM     57  N   UNL A   1      41.210  31.438  34.412  1.00  0.00    -0.248 NA
ATOM     58  C   UNL A   1      41.952  32.278  36.462  1.00  0.00     0.031 C 
ATOM     59  C   UNL A   1      43.025  27.967  32.325  1.00  0.00     0.029 A 
ATOM     60  C   UNL A   1      42.475  29.045  33.000  1.00  0.00     0.049 A 
ATOM     61  H   UNL A   1      40.816  30.238  32.474  1.00  0.00     0.167 HD
ATOM     62  C   UNL A   1      42.304  30.697  34.840  1.00  0.00     0.074 A 
ATOM     63  C   UNL A   1      42.741  31.279  36.093  1.00  0.00     0.031 C 
ATOM     64  C   UNL A   1      42.894  29.631  34.247  1.00  0.00     0.031 A 
BRANCH  51  65
ATOM     65  C   UNL A   1      40.216  27.903  28.951  1.00  0.00    -0.014 A 
ATOM     66  C   UNL A   1      39.503  26.697  29.049  1.00  0.00     0.009 A 
ATOM     67  C   UNL A   1      40.875  28.206  27.749  1.00  0.00     0.009 A 
ATOM     68  C   UNL A   1      39.489  25.794  27.983  1.00  0.00     0.001 A 
ATOM     69  C   UNL A   1      40.833  27.316  26.675  1.00  0.00     0.001 A 
ATOM     70  C   UNL A   1      40.151  26.106  26.796  1.00  0.00     0.000 A 
ENDBRANCH  51  65
BRANCH  52  71
ATOM     71  C   UNL A   1      39.925  34.386  36.525  1.00  0.00    -0.014 A 
ATOM     72  C   UNL A   1      39.141  34.085  37.649  1.00  0.00     0.009 A 
ATOM     73  C   UNL A   1      40.654  35.586  36.507  1.00  0.00     0.009 A 
ATOM     74  C   UNL A   1      39.069  34.977  38.721  1.00  0.00     0.001 A 
ATOM     75  C   UNL A   1      40.602  36.462  37.593  1.00  0.00     0.001 A 
ATOM     76  C   UNL A   1      39.803  36.163  38.694  1.00  0.00     0.000 A 
ENDBRANCH  52  71
BRANCH  64  77
ATOM     77  C   UNL A   1      44.096  29.042  34.932  1.00  0.00    -0.014 A 
ATOM     78  C   UNL A   1      43.969  27.993  35.855  1.00  0.00     0.009 A 
ATOM     79  C   UNL A   1      45.378  29.520  34.618  1.00  0.00     0.009 A 
ATOM     80  C   UNL A   1      45.099  27.457  36.475  1.00  0.00     0.001 A 
ATOM     81  C   UNL A   1      46.509  28.963  35.217  1.00  0.00     0.001 A 
ATOM     82  C   UNL A   1      46.367  27.938  36.151  1.00  0.00     0.000 A 
ENDBRANCH  64  77
ENDBRANCH  38  39
ENDBRANCH  30  33
ENDBRANCH  28  29
ENDBRANCH  27  28
ENDBRANCH  26  27
ENDBRANCH   1  26
TORSDOF 17
ENDMDL
