MODEL 1
REMARK VINA RESULT:      -9.6      0.000      0.000
REMARK SMILES COCCN(CC(C)C)C(=O)N1CC[C@@H](C(=O)NCCCCNC(=O)c2ccc(-c3c4nc(c(-c5ccccc5)c5ccc([nH]5)c(-c5ccccc5)c5nc(c(-c6ccccc6)c6ccc3[nH]6)C=C5)C=C4)cc2)[C@H]1C
REMARK SMILES IDX 19 1 18 2 16 3 17 4 15 6 12 7 13 8 74 9 14 10 75 11 10 12
REMARK SMILES IDX 11 13 5 14 4 15 3 16 2 17 1 18 6 19 7 20 8 21 9 22 20 23
REMARK SMILES IDX 21 24 22 25 23 26 24 27 25 29 26 30 27 31 73 32 28 33 72 34
REMARK SMILES IDX 29 35 30 36 31 37 66 38 32 39 71 40 65 41 67 42 33 43 70 44
REMARK SMILES IDX 64 45 63 46 34 48 56 49 41 50 55 51 42 52 45 53 54 54 68 55
REMARK SMILES IDX 43 56 44 57 53 59 69 60 46 61 35 62 36 63 40 64 37 65 39 66
REMARK SMILES IDX 38 67 57 68 58 69 62 70 59 71 61 72 60 73 47 74 48 75 52 76
REMARK SMILES IDX 49 77 51 78 50 79
REMARK H PARENT 18 5 23 28 67 47 45 58
REMARK Flexibility Score: inf
ROOT
ATOM      1  C   UNL A   1      37.905  23.428  25.919  1.00  0.00     0.116 C 
ENDROOT
BRANCH   1   2
ATOM      2  N   UNL A   1      37.296  23.213  24.619  1.00  0.00    -0.356 N 
ATOM      3  C   UNL A   1      36.007  23.063  24.210  1.00  0.00     0.225 C 
ATOM      4  O   UNL A   1      35.844  22.919  22.991  1.00  0.00    -0.275 OA
ATOM      5  H   UNL A   1      37.949  23.166  23.883  1.00  0.00     0.163 HD
BRANCH   3   6
ATOM      6  C   UNL A   1      34.783  23.009  25.127  1.00  0.00     0.102 C 
ATOM      7  N   UNL A   1      32.582  23.989  25.272  1.00  0.00    -0.321 N 
ATOM      8  C   UNL A   1      32.464  22.543  25.413  1.00  0.00     0.122 C 
ATOM      9  C   UNL A   1      34.015  24.324  25.394  1.00  0.00     0.096 C 
ATOM     10  C   UNL A   1      33.726  21.958  24.812  1.00  0.00     0.037 C 
ATOM     11  C   UNL A   1      34.446  25.476  24.528  1.00  0.00     0.032 C 
BRANCH   7  12
ATOM     12  C   UNL A   1      31.610  24.710  25.967  1.00  0.00     0.320 C 
ATOM     13  O   UNL A   1      31.231  24.322  27.073  1.00  0.00    -0.248 OA
BRANCH  12  14
ATOM     14  N   UNL A   1      30.983  25.761  25.302  1.00  0.00    -0.322 N 
BRANCH  14  15
ATOM     15  C   UNL A   1      30.216  25.432  24.084  1.00  0.00     0.149 C 
BRANCH  15  16
ATOM     16  C   UNL A   1      31.098  24.979  22.902  1.00  0.00     0.181 C 
BRANCH  16  17
ATOM     17  O   UNL A   1      31.789  26.065  22.289  1.00  0.00    -0.383 OA
ATOM     18  C   UNL A   1      32.400  25.733  21.051  1.00  0.00     0.194 C 
ENDBRANCH  16  17
ENDBRANCH  15  16
ENDBRANCH  14  15
BRANCH  14  19
ATOM     19  C   UNL A   1      31.066  27.181  25.638  1.00  0.00     0.124 C 
BRANCH  19  20
ATOM     20  C   UNL A   1      32.120  27.542  26.724  1.00  0.00     0.002 C 
ATOM     21  C   UNL A   1      33.363  28.320  26.255  1.00  0.00     0.009 C 
ATOM     22  C   UNL A   1      31.450  28.277  27.892  1.00  0.00     0.009 C 
ENDBRANCH  19  20
ENDBRANCH  14  19
ENDBRANCH  12  14
ENDBRANCH   7  12
ENDBRANCH   3   6
ENDBRANCH   1   2
BRANCH   1  23
ATOM     23  C   UNL A   1      39.075  22.486  26.216  1.00  0.00     0.023 C 
BRANCH  23  24
ATOM     24  C   UNL A   1      39.061  21.111  25.577  1.00  0.00     0.023 C 
BRANCH  24  25
ATOM     25  C   UNL A   1      39.634  19.996  26.420  1.00  0.00     0.116 C 
BRANCH  25  26
ATOM     26  N   UNL A   1      40.769  19.302  25.830  1.00  0.00    -0.352 N 
ATOM     27  C   UNL A   1      42.079  19.730  25.764  1.00  0.00     0.251 C 
ATOM     28  H   UNL A   1      40.580  18.421  25.433  1.00  0.00     0.163 HD
ATOM     29  O   UNL A   1      42.929  19.065  25.194  1.00  0.00    -0.269 OA
BRANCH  27  30
ATOM     30  C   UNL A   1      42.420  21.045  26.352  1.00  0.00     0.039 A 
ATOM     31  C   UNL A   1      42.646  22.134  25.508  1.00  0.00     0.014 A 
ATOM     32  C   UNL A   1      42.418  21.213  27.737  1.00  0.00     0.014 A 
ATOM     33  C   UNL A   1      42.804  23.406  26.061  1.00  0.00     0.010 A 
ATOM     34  C   UNL A   1      42.429  22.490  28.272  1.00  0.00     0.010 A 
ATOM     35  C   UNL A   1      42.664  23.596  27.445  1.00  0.00    -0.014 A 
BRANCH  35  36
ATOM     36  C   UNL A   1      42.852  24.924  28.076  1.00  0.00     0.031 A 
ATOM     37  C   UNL A   1      44.231  25.330  28.526  1.00  0.00     0.074 A 
ATOM     38  C   UNL A   1      41.796  25.728  28.298  1.00  0.00     0.049 A 
ATOM     39  N   UNL A   1      44.613  26.412  29.153  1.00  0.00    -0.248 NA
ATOM     40  C   UNL A   1      45.320  24.366  28.280  1.00  0.00     0.031 C 
ATOM     41  C   UNL A   1      40.403  25.425  27.961  1.00  0.00     0.029 A 
ATOM     42  N   UNL A   1      41.737  26.979  28.856  1.00  0.00    -0.354 N 
ATOM     43  C   UNL A   1      45.968  26.237  29.405  1.00  0.00     0.074 A 
ATOM     44  C   UNL A   1      46.324  24.917  28.941  1.00  0.00     0.031 C 
ATOM     45  C   UNL A   1      39.636  26.484  28.268  1.00  0.00     0.029 A 
ATOM     46  C   UNL A   1      40.477  27.525  28.849  1.00  0.00     0.049 A 
ATOM     47  H   UNL A   1      42.523  27.442  29.227  1.00  0.00     0.167 HD
ATOM     48  C   UNL A   1      46.855  27.111  29.936  1.00  0.00     0.031 A 
ATOM     49  C   UNL A   1      40.058  28.740  29.248  1.00  0.00     0.031 A 
ATOM     50  C   UNL A   1      46.510  28.442  30.348  1.00  0.00     0.049 A 
ATOM     51  C   UNL A   1      41.065  29.714  29.795  1.00  0.00     0.074 A 
ATOM     52  C   UNL A   1      47.333  29.435  30.844  1.00  0.00     0.029 A 
ATOM     53  N   UNL A   1      45.228  28.967  30.292  1.00  0.00    -0.354 N 
ATOM     54  N   UNL A   1      42.355  29.557  29.974  1.00  0.00    -0.248 NA
ATOM     55  C   UNL A   1      40.559  31.040  30.173  1.00  0.00     0.031 C 
ATOM     56  C   UNL A   1      46.542  30.557  31.112  1.00  0.00     0.029 A 
ATOM     57  C   UNL A   1      45.236  30.274  30.742  1.00  0.00     0.049 A 
ATOM     58  H   UNL A   1      44.431  28.482  29.977  1.00  0.00     0.167 HD
ATOM     59  C   UNL A   1      42.822  30.776  30.450  1.00  0.00     0.074 A 
ATOM     60  C   UNL A   1      41.676  31.663  30.521  1.00  0.00     0.031 C 
ATOM     61  C   UNL A   1      44.083  31.134  30.791  1.00  0.00     0.031 A 
BRANCH  48  62
ATOM     62  C   UNL A   1      48.275  26.640  30.073  1.00  0.00    -0.014 A 
ATOM     63  C   UNL A   1      49.216  26.860  29.051  1.00  0.00     0.009 A 
ATOM     64  C   UNL A   1      48.676  25.944  31.222  1.00  0.00     0.009 A 
ATOM     65  C   UNL A   1      50.508  26.342  29.152  1.00  0.00     0.001 A 
ATOM     66  C   UNL A   1      49.979  25.457  31.337  1.00  0.00     0.001 A 
ATOM     67  C   UNL A   1      50.889  25.643  30.297  1.00  0.00     0.000 A 
ENDBRANCH  48  62
BRANCH  49  68
ATOM     68  C   UNL A   1      38.636  29.135  29.072  1.00  0.00    -0.014 A 
ATOM     69  C   UNL A   1      38.177  29.567  27.817  1.00  0.00     0.009 A 
ATOM     70  C   UNL A   1      37.733  29.086  30.144  1.00  0.00     0.009 A 
ATOM     71  C   UNL A   1      36.850  29.966  27.646  1.00  0.00     0.001 A 
ATOM     72  C   UNL A   1      36.400  29.462  29.963  1.00  0.00     0.001 A 
ATOM     73  C   UNL A   1      35.962  29.910  28.718  1.00  0.00     0.000 A 
ENDBRANCH  49  68
BRANCH  61  74
ATOM     74  C   UNL A   1      44.296  32.556  31.220  1.00  0.00    -0.014 A 
ATOM     75  C   UNL A   1      44.590  33.564  30.289  1.00  0.00     0.009 A 
ATOM     76  C   UNL A   1      44.159  32.896  32.575  1.00  0.00     0.009 A 
ATOM     77  C   UNL A   1      44.779  34.879  30.714  1.00  0.00     0.001 A 
ATOM     78  C   UNL A   1      44.321  34.215  32.993  1.00  0.00     0.001 A 
ATOM     79  C   UNL A   1      44.640  35.205  32.064  1.00  0.00     0.000 A 
ENDBRANCH  61  74
ENDBRANCH  35  36
ENDBRANCH  27  30
ENDBRANCH  25  26
ENDBRANCH  24  25
ENDBRANCH  23  24
ENDBRANCH   1  23
TORSDOF 18
ENDMDL
MODEL 2
REMARK VINA RESULT:      -9.5      1.563      6.235
REMARK SMILES COCCN(CC(C)C)C(=O)N1CC[C@@H](C(=O)NCCCCNC(=O)c2ccc(-c3c4nc(c(-c5ccccc5)c5ccc([nH]5)c(-c5ccccc5)c5nc(c(-c6ccccc6)c6ccc3[nH]6)C=C5)C=C4)cc2)[C@H]1C
REMARK SMILES IDX 19 1 18 2 16 3 17 4 15 6 12 7 13 8 74 9 14 10 75 11 10 12
REMARK SMILES IDX 11 13 5 14 4 15 3 16 2 17 1 18 6 19 7 20 8 21 9 22 20 23
REMARK SMILES IDX 21 24 22 25 23 26 24 27 25 29 26 30 27 31 73 32 28 33 72 34
REMARK SMILES IDX 29 35 30 36 31 37 66 38 32 39 71 40 65 41 67 42 33 43 70 44
REMARK SMILES IDX 64 45 63 46 34 48 56 49 41 50 55 51 42 52 45 53 54 54 68 55
REMARK SMILES IDX 43 56 44 57 53 59 69 60 46 61 35 62 36 63 40 64 37 65 39 66
REMARK SMILES IDX 38 67 57 68 58 69 62 70 59 71 61 72 60 73 47 74 48 75 52 76
REMARK SMILES IDX 49 77 51 78 50 79
REMARK H PARENT 18 5 23 28 67 47 45 58
REMARK Flexibility Score: inf
ROOT
ATOM      1  C   UNL A   1      35.462  20.933  25.754  1.00  0.00     0.116 C 
ENDROOT
BRANCH   1   2
ATOM      2  N   UNL A   1      34.160  20.383  25.417  1.00  0.00    -0.356 N 
ATOM      3  C   UNL A   1      32.910  20.917  25.371  1.00  0.00     0.225 C 
ATOM      4  O   UNL A   1      32.011  20.148  25.008  1.00  0.00    -0.275 OA
ATOM      5  H   UNL A   1      34.189  19.430  25.171  1.00  0.00     0.163 HD
BRANCH   3   6
ATOM      6  C   UNL A   1      32.537  22.345  25.774  1.00  0.00     0.102 C 
ATOM      7  N   UNL A   1      31.755  24.378  24.732  1.00  0.00    -0.321 N 
ATOM      8  C   UNL A   1      30.906  24.079  25.878  1.00  0.00     0.122 C 
ATOM      9  C   UNL A   1      32.938  23.498  24.825  1.00  0.00     0.096 C 
ATOM     10  C   UNL A   1      31.086  22.601  26.161  1.00  0.00     0.037 C 
ATOM     11  C   UNL A   1      33.464  23.043  23.491  1.00  0.00     0.032 C 
BRANCH   7  12
ATOM     12  C   UNL A   1      31.889  25.741  24.462  1.00  0.00     0.320 C 
ATOM     13  O   UNL A   1      32.513  26.463  25.242  1.00  0.00    -0.248 OA
BRANCH  12  14
ATOM     14  N   UNL A   1      31.163  26.265  23.396  1.00  0.00    -0.322 N 
BRANCH  14  15
ATOM     15  C   UNL A   1      31.746  26.131  22.046  1.00  0.00     0.149 C 
BRANCH  15  16
ATOM     16  C   UNL A   1      33.280  26.290  22.016  1.00  0.00     0.181 C 
BRANCH  16  17
ATOM     17  O   UNL A   1      33.685  27.597  21.614  1.00  0.00    -0.383 OA
ATOM     18  C   UNL A   1      34.014  28.456  22.695  1.00  0.00     0.194 C 
ENDBRANCH  16  17
ENDBRANCH  15  16
ENDBRANCH  14  15
BRANCH  14  19
ATOM     19  C   UNL A   1      29.909  27.013  23.476  1.00  0.00     0.124 C 
BRANCH  19  20
ATOM     20  C   UNL A   1      30.005  28.508  23.053  1.00  0.00     0.002 C 
ATOM     21  C   UNL A   1      28.698  29.192  22.616  1.00  0.00     0.009 C 
ATOM     22  C   UNL A   1      30.685  29.329  24.157  1.00  0.00     0.009 C 
ENDBRANCH  19  20
ENDBRANCH  14  19
ENDBRANCH  12  14
ENDBRANCH   7  12
ENDBRANCH   3   6
ENDBRANCH   1   2
BRANCH   1  23
ATOM     23  C   UNL A   1      36.497  20.800  24.633  1.00  0.00     0.023 C 
BRANCH  23  24
ATOM     24  C   UNL A   1      37.606  19.781  24.806  1.00  0.00     0.023 C 
BRANCH  24  25
ATOM     25  C   UNL A   1      38.714  20.180  25.753  1.00  0.00     0.116 C 
BRANCH  25  26
ATOM     26  N   UNL A   1      39.870  19.297  25.751  1.00  0.00    -0.352 N 
ATOM     27  C   UNL A   1      41.162  19.596  26.134  1.00  0.00     0.251 C 
ATOM     28  H   UNL A   1      39.712  18.375  25.443  1.00  0.00     0.163 HD
ATOM     29  O   UNL A   1      42.053  18.768  26.037  1.00  0.00    -0.269 OA
BRANCH  27  30
ATOM     30  C   UNL A   1      41.453  20.966  26.613  1.00  0.00     0.039 A 
ATOM     31  C   UNL A   1      41.547  21.205  27.985  1.00  0.00     0.014 A 
ATOM     32  C   UNL A   1      41.728  21.983  25.698  1.00  0.00     0.014 A 
ATOM     33  C   UNL A   1      41.982  22.454  28.433  1.00  0.00     0.010 A 
ATOM     34  C   UNL A   1      42.295  23.166  26.139  1.00  0.00     0.010 A 
ATOM     35  C   UNL A   1      42.390  23.431  27.511  1.00  0.00    -0.014 A 
BRANCH  35  36
ATOM     36  C   UNL A   1      42.831  24.779  27.943  1.00  0.00     0.031 A 
ATOM     37  C   UNL A   1      41.792  25.838  28.206  1.00  0.00     0.074 A 
ATOM     38  C   UNL A   1      44.142  25.068  28.039  1.00  0.00     0.049 A 
ATOM     39  N   UNL A   1      41.954  27.095  28.530  1.00  0.00    -0.248 NA
ATOM     40  C   UNL A   1      40.383  25.442  28.033  1.00  0.00     0.031 C 
ATOM     41  C   UNL A   1      45.244  24.147  27.755  1.00  0.00     0.029 A 
ATOM     42  N   UNL A   1      44.768  26.229  28.414  1.00  0.00    -0.354 N 
ATOM     43  C   UNL A   1      40.676  27.638  28.561  1.00  0.00     0.074 A 
ATOM     44  C   UNL A   1      39.759  26.603  28.144  1.00  0.00     0.031 C 
ATOM     45  C   UNL A   1      46.409  24.761  28.022  1.00  0.00     0.029 A 
ATOM     46  C   UNL A   1      46.136  26.123  28.464  1.00  0.00     0.049 A 
ATOM     47  H   UNL A   1      44.282  27.058  28.628  1.00  0.00     0.167 HD
ATOM     48  C   UNL A   1      40.286  28.875  28.945  1.00  0.00     0.031 A 
ATOM     49  C   UNL A   1      47.060  27.025  28.847  1.00  0.00     0.031 A 
ATOM     50  C   UNL A   1      41.193  29.886  29.410  1.00  0.00     0.049 A 
ATOM     51  C   UNL A   1      46.606  28.381  29.312  1.00  0.00     0.074 A 
ATOM     52  C   UNL A   1      40.910  31.154  29.880  1.00  0.00     0.029 A 
ATOM     53  N   UNL A   1      42.569  29.727  29.477  1.00  0.00    -0.354 N 
ATOM     54  N   UNL A   1      45.389  28.862  29.392  1.00  0.00    -0.248 NA
ATOM     55  C   UNL A   1      47.654  29.307  29.759  1.00  0.00     0.031 C 
ATOM     56  C   UNL A   1      42.120  31.774  30.209  1.00  0.00     0.029 A 
ATOM     57  C   UNL A   1      43.150  30.874  29.983  1.00  0.00     0.049 A 
ATOM     58  H   UNL A   1      43.059  28.917  29.205  1.00  0.00     0.167 HD
ATOM     59  C   UNL A   1      45.520  30.134  29.935  1.00  0.00     0.074 A 
ATOM     60  C   UNL A   1      46.936  30.343  30.171  1.00  0.00     0.031 C 
ATOM     61  C   UNL A   1      44.560  31.047  30.218  1.00  0.00     0.031 A 
BRANCH  48  62
ATOM     62  C   UNL A   1      38.814  29.174  28.887  1.00  0.00    -0.014 A 
ATOM     63  C   UNL A   1      38.216  29.654  27.709  1.00  0.00     0.009 A 
ATOM     64  C   UNL A   1      38.018  29.003  30.028  1.00  0.00     0.009 A 
ATOM     65  C   UNL A   1      36.867  30.011  27.692  1.00  0.00     0.001 A 
ATOM     66  C   UNL A   1      36.661  29.328  30.000  1.00  0.00     0.001 A 
ATOM     67  C   UNL A   1      36.090  29.845  28.838  1.00  0.00     0.000 A 
ENDBRANCH  48  62
BRANCH  49  68
ATOM     68  C   UNL A   1      48.497  26.650  28.884  1.00  0.00    -0.014 A 
ATOM     69  C   UNL A   1      49.007  25.926  29.974  1.00  0.00     0.009 A 
ATOM     70  C   UNL A   1      49.366  27.009  27.843  1.00  0.00     0.009 A 
ATOM     71  C   UNL A   1      50.361  25.592  30.033  1.00  0.00     0.001 A 
ATOM     72  C   UNL A   1      50.715  26.651  27.893  1.00  0.00     0.001 A 
ATOM     73  C   UNL A   1      51.214  25.952  28.991  1.00  0.00     0.000 A 
ENDBRANCH  49  68
BRANCH  61  74
ATOM     74  C   UNL A   1      45.004  32.327  30.864  1.00  0.00    -0.014 A 
ATOM     75  C   UNL A   1      45.343  33.452  30.097  1.00  0.00     0.009 A 
ATOM     76  C   UNL A   1      45.044  32.415  32.264  1.00  0.00     0.009 A 
ATOM     77  C   UNL A   1      45.748  34.631  30.724  1.00  0.00     0.001 A 
ATOM     78  C   UNL A   1      45.422  33.603  32.887  1.00  0.00     0.001 A 
ATOM     79  C   UNL A   1      45.784  34.707  32.117  1.00  0.00     0.000 A 
ENDBRANCH  61  74
ENDBRANCH  35  36
ENDBRANCH  27  30
ENDBRANCH  25  26
ENDBRANCH  24  25
ENDBRANCH  23  24
ENDBRANCH   1  23
TORSDOF 18
ENDMDL
MODEL 3
REMARK VINA RESULT:      -9.5      3.215      8.798
REMARK SMILES COCCN(CC(C)C)C(=O)N1CC[C@@H](C(=O)NCCCCNC(=O)c2ccc(-c3c4nc(c(-c5ccccc5)c5ccc([nH]5)c(-c5ccccc5)c5nc(c(-c6ccccc6)c6ccc3[nH]6)C=C5)C=C4)cc2)[C@H]1C
REMARK SMILES IDX 19 1 18 2 16 3 17 4 15 6 12 7 13 8 74 9 14 10 75 11 10 12
REMARK SMILES IDX 11 13 5 14 4 15 3 16 2 17 1 18 6 19 7 20 8 21 9 22 20 23
REMARK SMILES IDX 21 24 22 25 23 26 24 27 25 29 26 30 27 31 73 32 28 33 72 34
REMARK SMILES IDX 29 35 30 36 31 37 66 38 32 39 71 40 65 41 67 42 33 43 70 44
REMARK SMILES IDX 64 45 63 46 34 48 56 49 41 50 55 51 42 52 45 53 54 54 68 55
REMARK SMILES IDX 43 56 44 57 53 59 69 60 46 61 35 62 36 63 40 64 37 65 39 66
REMARK SMILES IDX 38 67 57 68 58 69 62 70 59 71 61 72 60 73 47 74 48 75 52 76
REMARK SMILES IDX 49 77 51 78 50 79
REMARK H PARENT 18 5 23 28 67 47 45 58
REMARK Flexibility Score: inf
ROOT
ATOM      1  C   UNL A   1      31.264  29.149  25.157  1.00  0.00     0.116 C 
ENDROOT
BRANCH   1   2
ATOM      2  N   UNL A   1      30.877  29.599  23.831  1.00  0.00    -0.356 N 
ATOM      3  C   UNL A   1      30.651  28.948  22.658  1.00  0.00     0.225 C 
ATOM      4  O   UNL A   1      30.302  29.660  21.708  1.00  0.00    -0.275 OA
ATOM      5  H   UNL A   1      30.752  30.574  23.769  1.00  0.00     0.163 HD
BRANCH   3   6
ATOM      6  C   UNL A   1      30.841  27.448  22.422  1.00  0.00     0.102 C 
ATOM      7  N   UNL A   1      32.412  25.707  22.998  1.00  0.00    -0.321 N 
ATOM      8  C   UNL A   1      31.065  25.252  23.318  1.00  0.00     0.122 C 
ATOM      9  C   UNL A   1      32.275  26.926  22.175  1.00  0.00     0.096 C 
ATOM     10  C   UNL A   1      30.216  26.501  23.438  1.00  0.00     0.037 C 
ATOM     11  C   UNL A   1      33.353  27.948  22.418  1.00  0.00     0.032 C 
BRANCH   7  12
ATOM     12  C   UNL A   1      33.288  24.685  22.632  1.00  0.00     0.320 C 
ATOM     13  O   UNL A   1      33.418  24.383  21.445  1.00  0.00    -0.248 OA
BRANCH  12  14
ATOM     14  N   UNL A   1      33.862  23.927  23.650  1.00  0.00    -0.322 N 
BRANCH  14  15
ATOM     15  C   UNL A   1      34.406  24.654  24.814  1.00  0.00     0.149 C 
BRANCH  15  16
ATOM     16  C   UNL A   1      33.571  24.477  26.099  1.00  0.00     0.181 C 
BRANCH  16  17
ATOM     17  O   UNL A   1      34.086  23.454  26.948  1.00  0.00    -0.383 OA
ATOM     18  C   UNL A   1      33.096  22.564  27.442  1.00  0.00     0.194 C 
ENDBRANCH  16  17
ENDBRANCH  15  16
ENDBRANCH  14  15
BRANCH  14  19
ATOM     19  C   UNL A   1      34.058  22.478  23.656  1.00  0.00     0.124 C 
BRANCH  19  20
ATOM     20  C   UNL A   1      32.754  21.636  23.762  1.00  0.00     0.002 C 
ATOM     21  C   UNL A   1      32.003  21.350  22.450  1.00  0.00     0.009 C 
ATOM     22  C   UNL A   1      33.028  20.324  24.508  1.00  0.00     0.009 C 
ENDBRANCH  19  20
ENDBRANCH  14  19
ENDBRANCH  12  14
ENDBRANCH   7  12
ENDBRANCH   3   6
ENDBRANCH   1   2
BRANCH   1  23
ATOM     23  C   UNL A   1      32.334  30.023  25.817  1.00  0.00     0.023 C 
BRANCH  23  24
ATOM     24  C   UNL A   1      31.873  31.159  26.709  1.00  0.00     0.023 C 
BRANCH  24  25
ATOM     25  C   UNL A   1      32.974  32.017  27.288  1.00  0.00     0.116 C 
BRANCH  25  26
ATOM     26  N   UNL A   1      32.567  33.362  27.668  1.00  0.00    -0.352 N 
ATOM     27  C   UNL A   1      33.226  34.237  28.508  1.00  0.00     0.251 C 
ATOM     28  H   UNL A   1      31.725  33.688  27.277  1.00  0.00     0.163 HD
ATOM     29  O   UNL A   1      32.746  35.326  28.781  1.00  0.00    -0.269 OA
BRANCH  27  30
ATOM     30  C   UNL A   1      34.501  33.801  29.118  1.00  0.00     0.039 A 
ATOM     31  C   UNL A   1      34.474  32.991  30.254  1.00  0.00     0.014 A 
ATOM     32  C   UNL A   1      35.714  34.117  28.505  1.00  0.00     0.014 A 
ATOM     33  C   UNL A   1      35.667  32.444  30.732  1.00  0.00     0.010 A 
ATOM     34  C   UNL A   1      36.869  33.461  28.892  1.00  0.00     0.010 A 
ATOM     35  C   UNL A   1      36.867  32.650  30.034  1.00  0.00    -0.014 A 
BRANCH  35  36
ATOM     36  C   UNL A   1      38.159  32.113  30.522  1.00  0.00     0.031 A 
ATOM     37  C   UNL A   1      38.686  30.830  29.933  1.00  0.00     0.074 A 
ATOM     38  C   UNL A   1      38.821  32.729  31.520  1.00  0.00     0.049 A 
ATOM     39  N   UNL A   1      39.758  30.151  30.251  1.00  0.00    -0.248 NA
ATOM     40  C   UNL A   1      37.873  30.202  28.876  1.00  0.00     0.031 C 
ATOM     41  C   UNL A   1      38.386  33.944  32.212  1.00  0.00     0.029 A 
ATOM     42  N   UNL A   1      40.014  32.415  32.118  1.00  0.00    -0.354 N 
ATOM     43  C   UNL A   1      39.721  29.007  29.463  1.00  0.00     0.074 A 
ATOM     44  C   UNL A   1      38.486  29.042  28.715  1.00  0.00     0.031 C 
ATOM     45  C   UNL A   1      39.326  34.304  33.100  1.00  0.00     0.029 A 
ATOM     46  C   UNL A   1      40.412  33.330  33.061  1.00  0.00     0.049 A 
ATOM     47  H   UNL A   1      40.535  31.611  31.893  1.00  0.00     0.167 HD
ATOM     48  C   UNL A   1      40.649  28.032  29.333  1.00  0.00     0.031 A 
ATOM     49  C   UNL A   1      41.540  33.383  33.793  1.00  0.00     0.031 A 
ATOM     50  C   UNL A   1      41.900  28.027  30.039  1.00  0.00     0.049 A 
ATOM     51  C   UNL A   1      42.581  32.314  33.606  1.00  0.00     0.074 A 
ATOM     52  C   UNL A   1      42.942  27.124  29.945  1.00  0.00     0.029 A 
ATOM     53  N   UNL A   1      42.278  28.990  30.960  1.00  0.00    -0.354 N 
ATOM     54  N   UNL A   1      42.559  31.269  32.813  1.00  0.00    -0.248 NA
ATOM     55  C   UNL A   1      43.810  32.447  34.398  1.00  0.00     0.031 C 
ATOM     56  C   UNL A   1      43.945  27.530  30.832  1.00  0.00     0.029 A 
ATOM     57  C   UNL A   1      43.542  28.707  31.443  1.00  0.00     0.049 A 
ATOM     58  H   UNL A   1      41.730  29.763  31.230  1.00  0.00     0.167 HD
ATOM     59  C   UNL A   1      43.786  30.640  32.983  1.00  0.00     0.074 A 
ATOM     60  C   UNL A   1      44.530  31.429  33.947  1.00  0.00     0.031 C 
ATOM     61  C   UNL A   1      44.261  29.516  32.393  1.00  0.00     0.031 A 
BRANCH  48  62
ATOM     62  C   UNL A   1      40.335  26.914  28.380  1.00  0.00    -0.014 A 
ATOM     63  C   UNL A   1      40.795  26.940  27.051  1.00  0.00     0.009 A 
ATOM     64  C   UNL A   1      39.547  25.833  28.801  1.00  0.00     0.009 A 
ATOM     65  C   UNL A   1      40.423  25.941  26.152  1.00  0.00     0.001 A 
ATOM     66  C   UNL A   1      39.205  24.816  27.908  1.00  0.00     0.001 A 
ATOM     67  C   UNL A   1      39.631  24.877  26.582  1.00  0.00     0.000 A 
ENDBRANCH  48  62
BRANCH  49  68
ATOM     68  C   UNL A   1      41.782  34.527  34.710  1.00  0.00    -0.014 A 
ATOM     69  C   UNL A   1      42.389  35.698  34.228  1.00  0.00     0.009 A 
ATOM     70  C   UNL A   1      41.415  34.461  36.062  1.00  0.00     0.009 A 
ATOM     71  C   UNL A   1      42.646  36.769  35.086  1.00  0.00     0.001 A 
ATOM     72  C   UNL A   1      41.651  35.544  36.913  1.00  0.00     0.001 A 
ATOM     73  C   UNL A   1      42.274  36.693  36.427  1.00  0.00     0.000 A 
ENDBRANCH  49  68
BRANCH  61  74
ATOM     74  C   UNL A   1      45.663  29.107  32.733  1.00  0.00    -0.014 A 
ATOM     75  C   UNL A   1      45.931  28.227  33.792  1.00  0.00     0.009 A 
ATOM     76  C   UNL A   1      46.729  29.581  31.951  1.00  0.00     0.009 A 
ATOM     77  C   UNL A   1      47.245  27.859  34.084  1.00  0.00     0.001 A 
ATOM     78  C   UNL A   1      48.037  29.190  32.228  1.00  0.00     0.001 A 
ATOM     79  C   UNL A   1      48.296  28.337  33.300  1.00  0.00     0.000 A 
ENDBRANCH  61  74
ENDBRANCH  35  36
ENDBRANCH  27  30
ENDBRANCH  25  26
ENDBRANCH  24  25
ENDBRANCH  23  24
ENDBRANCH   1  23
TORSDOF 18
ENDMDL
