MODEL 1
REMARK VINA RESULT:     -11.4      0.000      0.000
REMARK SMILES Cc1cc2c(cc1C)/C(=C/C(=O)NCCCCNC(=O)c1ccc(-c3c4nc(c(-c5ccccc5)c5ccc([nH]5)c(-c5ccccc5)c5nc(c(-c6ccccc6)c6ccc3[nH]6)C=C5)C=C4)cc1)CO2
REMARK SMILES IDX 16 1 15 2 14 3 13 4 11 5 12 6 10 8 1 9 2 10 3 11 7 12 4 13
REMARK SMILES IDX 6 14 8 15 5 16 70 17 9 18 69 19 17 20 18 21 19 22 20 24
REMARK SMILES IDX 21 25 22 26 68 27 23 28 67 29 24 30 25 31 26 32 61 33 27 34
REMARK SMILES IDX 66 35 60 36 62 37 28 38 65 39 59 40 58 41 29 43 51 44 36 45
REMARK SMILES IDX 50 46 37 47 40 48 49 49 63 50 38 51 39 52 48 54 64 55 41 56
REMARK SMILES IDX 30 57 31 58 35 59 32 60 34 61 33 62 52 63 53 64 57 65 54 66
REMARK SMILES IDX 56 67 55 68 42 69 43 70 47 71 44 72 46 73 45 74
REMARK H PARENT 13 7 18 23 62 42 40 53
REMARK Flexibility Score: inf
ROOT
ATOM      1  C   UNL A   1      37.614  20.619  25.041  1.00  0.00     0.023 C 
ENDROOT
BRANCH   1   2
ATOM      2  C   UNL A   1      36.980  21.867  24.435  1.00  0.00     0.023 C 
BRANCH   2   3
ATOM      3  C   UNL A   1      35.454  21.811  24.366  1.00  0.00     0.116 C 
BRANCH   3   4
ATOM      4  N   UNL A   1      34.886  21.266  25.585  1.00  0.00    -0.353 N 
ATOM      5  C   UNL A   1      34.438  21.985  26.658  1.00  0.00     0.244 C 
ATOM      6  O   UNL A   1      34.029  21.452  27.679  1.00  0.00    -0.270 OA
ATOM      7  H   UNL A   1      34.817  20.286  25.645  1.00  0.00     0.163 HD
BRANCH   5   8
ATOM      8  C   UNL A   1      34.476  23.448  26.494  1.00  0.00     0.079 C 
ATOM      9  C   UNL A   1      31.744  29.527  25.964  1.00  0.00     0.045 C 
ATOM     10  C   UNL A   1      32.209  28.099  25.888  1.00  0.00    -0.044 A 
ATOM     11  C   UNL A   1      31.433  27.102  26.501  1.00  0.00     0.050 A 
ATOM     12  C   UNL A   1      33.395  27.740  25.194  1.00  0.00    -0.047 A 
ATOM     13  C   UNL A   1      31.893  25.806  26.472  1.00  0.00     0.127 A 
ATOM     14  C   UNL A   1      33.904  26.434  25.310  1.00  0.00     0.016 A 
ATOM     15  C   UNL A   1      34.025  28.675  24.194  1.00  0.00     0.044 C 
ATOM     16  C   UNL A   1      33.155  25.495  25.995  1.00  0.00     0.024 A 
ATOM     17  O   UNL A   1      31.155  24.717  26.876  1.00  0.00    -0.488 OA
ATOM     18  C   UNL A   1      33.330  24.087  26.241  1.00  0.00     0.006 C 
ATOM     19  C   UNL A   1      31.920  23.592  26.366  1.00  0.00     0.266 C 
ENDBRANCH   5   8
ENDBRANCH   3   4
ENDBRANCH   2   3
ENDBRANCH   1   2
BRANCH   1  20
ATOM     20  C   UNL A   1      38.941  20.867  25.741  1.00  0.00     0.116 C 
BRANCH  20  21
ATOM     21  N   UNL A   1      39.823  19.706  25.751  1.00  0.00    -0.352 N 
ATOM     22  C   UNL A   1      41.144  19.658  26.124  1.00  0.00     0.251 C 
ATOM     23  H   UNL A   1      39.424  18.855  25.455  1.00  0.00     0.163 HD
ATOM     24  O   UNL A   1      41.801  18.628  26.014  1.00  0.00    -0.269 OA
BRANCH  22  25
ATOM     25  C   UNL A   1      41.765  20.901  26.611  1.00  0.00     0.039 A 
ATOM     26  C   UNL A   1      41.725  21.204  27.974  1.00  0.00     0.014 A 
ATOM     27  C   UNL A   1      42.248  21.822  25.681  1.00  0.00     0.014 A 
ATOM     28  C   UNL A   1      42.010  22.497  28.387  1.00  0.00     0.010 A 
ATOM     29  C   UNL A   1      42.619  23.094  26.114  1.00  0.00     0.010 A 
ATOM     30  C   UNL A   1      42.454  23.455  27.462  1.00  0.00    -0.014 A 
BRANCH  30  31
ATOM     31  C   UNL A   1      42.747  24.834  27.918  1.00  0.00     0.031 A 
ATOM     32  C   UNL A   1      44.162  25.273  28.175  1.00  0.00     0.074 A 
ATOM     33  C   UNL A   1      41.727  25.699  28.069  1.00  0.00     0.049 A 
ATOM     34  N   UNL A   1      44.593  26.422  28.632  1.00  0.00    -0.248 NA
ATOM     35  C   UNL A   1      45.234  24.306  27.883  1.00  0.00     0.031 C 
ATOM     36  C   UNL A   1      40.319  25.392  27.803  1.00  0.00     0.029 A 
ATOM     37  N   UNL A   1      41.715  27.010  28.465  1.00  0.00    -0.354 N 
ATOM     38  C   UNL A   1      45.975  26.307  28.704  1.00  0.00     0.074 A 
ATOM     39  C   UNL A   1      46.315  24.974  28.261  1.00  0.00     0.031 C 
ATOM     40  C   UNL A   1      39.588  26.498  27.998  1.00  0.00     0.029 A 
ATOM     41  C   UNL A   1      40.459  27.562  28.484  1.00  0.00     0.049 A 
ATOM     42  H   UNL A   1      42.528  27.508  28.709  1.00  0.00     0.167 HD
ATOM     43  C   UNL A   1      46.875  27.238  29.100  1.00  0.00     0.031 A 
ATOM     44  C   UNL A   1      40.041  28.778  28.880  1.00  0.00     0.031 A 
ATOM     45  C   UNL A   1      46.524  28.568  29.526  1.00  0.00     0.049 A 
ATOM     46  C   UNL A   1      41.050  29.763  29.393  1.00  0.00     0.074 A 
ATOM     47  C   UNL A   1      47.368  29.589  29.927  1.00  0.00     0.029 A 
ATOM     48  N   UNL A   1      45.231  29.061  29.602  1.00  0.00    -0.354 N 
ATOM     49  N   UNL A   1      42.352  29.637  29.467  1.00  0.00    -0.248 NA
ATOM     50  C   UNL A   1      40.537  31.048  29.886  1.00  0.00     0.031 C 
ATOM     51  C   UNL A   1      46.582  30.678  30.307  1.00  0.00     0.029 A 
ATOM     52  C   UNL A   1      45.253  30.361  30.076  1.00  0.00     0.049 A 
ATOM     53  H   UNL A   1      44.420  28.562  29.355  1.00  0.00     0.167 HD
ATOM     54  C   UNL A   1      42.818  30.829  30.004  1.00  0.00     0.074 A 
ATOM     55  C   UNL A   1      41.660  31.671  30.223  1.00  0.00     0.031 C 
ATOM     56  C   UNL A   1      44.093  31.188  30.290  1.00  0.00     0.031 A 
BRANCH  43  57
ATOM     57  C   UNL A   1      48.331  26.864  29.119  1.00  0.00    -0.014 A 
ATOM     58  C   UNL A   1      49.100  27.015  27.953  1.00  0.00     0.009 A 
ATOM     59  C   UNL A   1      48.912  26.256  30.241  1.00  0.00     0.009 A 
ATOM     60  C   UNL A   1      50.416  26.551  27.905  1.00  0.00     0.001 A 
ATOM     61  C   UNL A   1      50.239  25.817  30.199  1.00  0.00     0.001 A 
ATOM     62  C   UNL A   1      50.985  25.954  29.028  1.00  0.00     0.000 A 
ENDBRANCH  43  57
BRANCH  44  63
ATOM     63  C   UNL A   1      38.593  29.102  28.816  1.00  0.00    -0.014 A 
ATOM     64  C   UNL A   1      38.039  29.658  27.649  1.00  0.00     0.009 A 
ATOM     65  C   UNL A   1      37.775  28.938  29.942  1.00  0.00     0.009 A 
ATOM     66  C   UNL A   1      36.708  30.078  27.625  1.00  0.00     0.001 A 
ATOM     67  C   UNL A   1      36.434  29.330  29.905  1.00  0.00     0.001 A 
ATOM     68  C   UNL A   1      35.906  29.911  28.752  1.00  0.00     0.000 A 
ENDBRANCH  44  63
BRANCH  56  69
ATOM     69  C   UNL A   1      44.328  32.555  30.861  1.00  0.00    -0.014 A 
ATOM     70  C   UNL A   1      44.261  32.748  32.250  1.00  0.00     0.009 A 
ATOM     71  C   UNL A   1      44.479  33.669  30.022  1.00  0.00     0.009 A 
ATOM     72  C   UNL A   1      44.316  34.034  32.788  1.00  0.00     0.001 A 
ATOM     73  C   UNL A   1      44.560  34.952  30.565  1.00  0.00     0.001 A 
ATOM     74  C   UNL A   1      44.465  35.134  31.946  1.00  0.00     0.000 A 
ENDBRANCH  56  69
ENDBRANCH  30  31
ENDBRANCH  22  25
ENDBRANCH  20  21
ENDBRANCH   1  20
TORSDOF 11
ENDMDL
MODEL 2
REMARK VINA RESULT:     -11.4      0.326      6.120
REMARK SMILES Cc1cc2c(cc1C)/C(=C/C(=O)NCCCCNC(=O)c1ccc(-c3c4nc(c(-c5ccccc5)c5ccc([nH]5)c(-c5ccccc5)c5nc(c(-c6ccccc6)c6ccc3[nH]6)C=C5)C=C4)cc1)CO2
REMARK SMILES IDX 16 1 15 2 14 3 13 4 11 5 12 6 10 8 1 9 2 10 3 11 7 12 4 13
REMARK SMILES IDX 6 14 8 15 5 16 70 17 9 18 69 19 17 20 18 21 19 22 20 24
REMARK SMILES IDX 21 25 22 26 68 27 23 28 67 29 24 30 25 31 26 32 61 33 27 34
REMARK SMILES IDX 66 35 60 36 62 37 28 38 65 39 59 40 58 41 29 43 51 44 36 45
REMARK SMILES IDX 50 46 37 47 40 48 49 49 63 50 38 51 39 52 48 54 64 55 41 56
REMARK SMILES IDX 30 57 31 58 35 59 32 60 34 61 33 62 52 63 53 64 57 65 54 66
REMARK SMILES IDX 56 67 55 68 42 69 43 70 47 71 44 72 46 73 45 74
REMARK H PARENT 13 7 18 23 62 42 40 53
REMARK Flexibility Score: inf
ROOT
ATOM      1  C   UNL A   1      37.683  20.684  25.147  1.00  0.00     0.023 C 
ENDROOT
BRANCH   1   2
ATOM      2  C   UNL A   1      37.037  21.903  24.496  1.00  0.00     0.023 C 
BRANCH   2   3
ATOM      3  C   UNL A   1      35.510  21.839  24.448  1.00  0.00     0.116 C 
BRANCH   3   4
ATOM      4  N   UNL A   1      34.958  21.361  25.701  1.00  0.00    -0.353 N 
ATOM      5  C   UNL A   1      34.498  22.137  26.728  1.00  0.00     0.244 C 
ATOM      6  O   UNL A   1      34.104  21.661  27.783  1.00  0.00    -0.270 OA
ATOM      7  H   UNL A   1      34.911  20.385  25.823  1.00  0.00     0.163 HD
BRANCH   5   8
ATOM      8  C   UNL A   1      34.504  23.587  26.472  1.00  0.00     0.079 C 
ATOM      9  C   UNL A   1      31.648  29.580  25.680  1.00  0.00     0.045 C 
ATOM     10  C   UNL A   1      32.133  28.157  25.674  1.00  0.00    -0.044 A 
ATOM     11  C   UNL A   1      31.401  27.189  26.381  1.00  0.00     0.050 A 
ATOM     12  C   UNL A   1      33.296  27.772  24.954  1.00  0.00    -0.047 A 
ATOM     13  C   UNL A   1      31.882  25.901  26.413  1.00  0.00     0.127 A 
ATOM     14  C   UNL A   1      33.831  26.483  25.128  1.00  0.00     0.016 A 
ATOM     15  C   UNL A   1      33.866  28.651  23.870  1.00  0.00     0.044 C 
ATOM     16  C   UNL A   1      33.128  25.579  25.903  1.00  0.00     0.024 A 
ATOM     17  O   UNL A   1      31.181  24.829  26.916  1.00  0.00    -0.488 OA
ATOM     18  C   UNL A   1      33.337  24.191  26.229  1.00  0.00     0.006 C 
ATOM     19  C   UNL A   1      31.943  23.685  26.445  1.00  0.00     0.266 C 
ENDBRANCH   5   8
ENDBRANCH   3   4
ENDBRANCH   2   3
ENDBRANCH   1   2
BRANCH   1  20
ATOM     20  C   UNL A   1      39.068  20.940  25.722  1.00  0.00     0.116 C 
BRANCH  20  21
ATOM     21  N   UNL A   1      39.949  19.780  25.662  1.00  0.00    -0.352 N 
ATOM     22  C   UNL A   1      41.277  19.715  26.011  1.00  0.00     0.251 C 
ATOM     23  H   UNL A   1      39.545  18.944  25.334  1.00  0.00     0.163 HD
ATOM     24  O   UNL A   1      41.931  18.692  25.841  1.00  0.00    -0.269 OA
BRANCH  22  25
ATOM     25  C   UNL A   1      41.906  20.934  26.544  1.00  0.00     0.039 A 
ATOM     26  C   UNL A   1      41.928  21.153  27.923  1.00  0.00     0.014 A 
ATOM     27  C   UNL A   1      42.335  21.917  25.652  1.00  0.00     0.014 A 
ATOM     28  C   UNL A   1      42.218  22.421  28.403  1.00  0.00     0.010 A 
ATOM     29  C   UNL A   1      42.711  23.165  26.145  1.00  0.00     0.010 A 
ATOM     30  C   UNL A   1      42.607  23.440  27.519  1.00  0.00    -0.014 A 
BRANCH  30  31
ATOM     31  C   UNL A   1      42.906  24.792  28.045  1.00  0.00     0.031 A 
ATOM     32  C   UNL A   1      41.805  25.791  28.271  1.00  0.00     0.074 A 
ATOM     33  C   UNL A   1      44.181  25.104  28.349  1.00  0.00     0.049 A 
ATOM     34  N   UNL A   1      41.895  27.035  28.670  1.00  0.00    -0.248 NA
ATOM     35  C   UNL A   1      40.425  25.342  28.020  1.00  0.00     0.031 C 
ATOM     36  C   UNL A   1      45.322  24.196  28.213  1.00  0.00     0.029 A 
ATOM     37  N   UNL A   1      44.727  26.256  28.848  1.00  0.00    -0.354 N 
ATOM     38  C   UNL A   1      40.595  27.520  28.695  1.00  0.00     0.074 A 
ATOM     39  C   UNL A   1      39.731  26.448  28.255  1.00  0.00     0.031 C 
ATOM     40  C   UNL A   1      46.424  24.811  28.663  1.00  0.00     0.029 A 
ATOM     41  C   UNL A   1      46.085  26.179  29.036  1.00  0.00     0.049 A 
ATOM     42  H   UNL A   1      44.198  27.061  29.053  1.00  0.00     0.167 HD
ATOM     43  C   UNL A   1      40.166  28.752  29.058  1.00  0.00     0.031 A 
ATOM     44  C   UNL A   1      46.970  27.113  29.430  1.00  0.00     0.031 A 
ATOM     45  C   UNL A   1      41.035  29.808  29.508  1.00  0.00     0.049 A 
ATOM     46  C   UNL A   1      46.478  28.494  29.749  1.00  0.00     0.074 A 
ATOM     47  C   UNL A   1      40.691  31.084  29.917  1.00  0.00     0.029 A 
ATOM     48  N   UNL A   1      42.414  29.709  29.611  1.00  0.00    -0.354 N 
ATOM     49  N   UNL A   1      45.247  28.943  29.755  1.00  0.00    -0.248 NA
ATOM     50  C   UNL A   1      47.491  29.498  30.100  1.00  0.00     0.031 C 
ATOM     51  C   UNL A   1      41.865  31.779  30.206  1.00  0.00     0.029 A 
ATOM     52  C   UNL A   1      42.937  30.915  30.045  1.00  0.00     0.049 A 
ATOM     53  H   UNL A   1      42.940  28.904  29.406  1.00  0.00     0.167 HD
ATOM     54  C   UNL A   1      45.333  30.279  30.123  1.00  0.00     0.074 A 
ATOM     55  C   UNL A   1      46.737  30.562  30.344  1.00  0.00     0.031 C 
ATOM     56  C   UNL A   1      44.335  31.184  30.261  1.00  0.00     0.031 A 
BRANCH  43  57
ATOM     57  C   UNL A   1      38.694  29.052  28.973  1.00  0.00    -0.014 A 
ATOM     58  C   UNL A   1      38.154  29.533  27.769  1.00  0.00     0.009 A 
ATOM     59  C   UNL A   1      37.869  28.973  30.103  1.00  0.00     0.009 A 
ATOM     60  C   UNL A   1      36.822  29.945  27.703  1.00  0.00     0.001 A 
ATOM     61  C   UNL A   1      36.527  29.360  30.027  1.00  0.00     0.001 A 
ATOM     62  C   UNL A   1      36.010  29.856  28.831  1.00  0.00     0.000 A 
ENDBRANCH  43  57
BRANCH  44  63
ATOM     63  C   UNL A   1      48.408  26.752  29.521  1.00  0.00    -0.014 A 
ATOM     64  C   UNL A   1      48.929  26.196  30.703  1.00  0.00     0.009 A 
ATOM     65  C   UNL A   1      49.282  27.039  28.464  1.00  0.00     0.009 A 
ATOM     66  C   UNL A   1      50.300  25.971  30.838  1.00  0.00     0.001 A 
ATOM     67  C   UNL A   1      50.650  26.783  28.591  1.00  0.00     0.001 A 
ATOM     68  C   UNL A   1      51.159  26.262  29.781  1.00  0.00     0.000 A 
ENDBRANCH  44  63
BRANCH  56  69
ATOM     69  C   UNL A   1      44.703  32.576  30.685  1.00  0.00    -0.014 A 
ATOM     70  C   UNL A   1      44.703  32.909  32.049  1.00  0.00     0.009 A 
ATOM     71  C   UNL A   1      44.915  33.585  29.735  1.00  0.00     0.009 A 
ATOM     72  C   UNL A   1      44.882  34.232  32.453  1.00  0.00     0.001 A 
ATOM     73  C   UNL A   1      45.121  34.904  30.144  1.00  0.00     0.001 A 
ATOM     74  C   UNL A   1      45.091  35.228  31.501  1.00  0.00     0.000 A 
ENDBRANCH  56  69
ENDBRANCH  30  31
ENDBRANCH  22  25
ENDBRANCH  20  21
ENDBRANCH   1  20
TORSDOF 11
ENDMDL
MODEL 3
REMARK VINA RESULT:     -11.3      4.056      9.358
REMARK SMILES Cc1cc2c(cc1C)/C(=C/C(=O)NCCCCNC(=O)c1ccc(-c3c4nc(c(-c5ccccc5)c5ccc([nH]5)c(-c5ccccc5)c5nc(c(-c6ccccc6)c6ccc3[nH]6)C=C5)C=C4)cc1)CO2
REMARK SMILES IDX 16 1 15 2 14 3 13 4 11 5 12 6 10 8 1 9 2 10 3 11 7 12 4 13
REMARK SMILES IDX 6 14 8 15 5 16 70 17 9 18 69 19 17 20 18 21 19 22 20 24
REMARK SMILES IDX 21 25 22 26 68 27 23 28 67 29 24 30 25 31 26 32 61 33 27 34
REMARK SMILES IDX 66 35 60 36 62 37 28 38 65 39 59 40 58 41 29 43 51 44 36 45
REMARK SMILES IDX 50 46 37 47 40 48 49 49 63 50 38 51 39 52 48 54 64 55 41 56
REMARK SMILES IDX 30 57 31 58 35 59 32 60 34 61 33 62 52 63 53 64 57 65 54 66
REMARK SMILES IDX 56 67 55 68 42 69 43 70 47 71 44 72 46 73 45 74
REMARK H PARENT 13 7 18 23 62 42 40 53
REMARK Flexibility Score: inf
ROOT
ATOM      1  C   UNL A   1      31.936  31.491  26.721  1.00  0.00     0.023 C 
ENDROOT
BRANCH   1   2
ATOM      2  C   UNL A   1      32.182  30.002  26.945  1.00  0.00     0.023 C 
BRANCH   2   3
ATOM      3  C   UNL A   1      31.657  29.114  25.817  1.00  0.00     0.116 C 
BRANCH   3   4
ATOM      4  N   UNL A   1      32.207  29.504  24.532  1.00  0.00    -0.353 N 
ATOM      5  C   UNL A   1      33.264  28.916  23.896  1.00  0.00     0.244 C 
ATOM      6  O   UNL A   1      33.713  29.340  22.841  1.00  0.00    -0.270 OA
ATOM      7  H   UNL A   1      31.779  30.265  24.077  1.00  0.00     0.163 HD
BRANCH   5   8
ATOM      8  C   UNL A   1      33.819  27.728  24.566  1.00  0.00     0.079 C 
ATOM      9  C   UNL A   1      35.583  21.290  24.941  1.00  0.00     0.045 C 
ATOM     10  C   UNL A   1      34.956  22.649  24.796  1.00  0.00    -0.044 A 
ATOM     11  C   UNL A   1      34.831  23.203  23.512  1.00  0.00     0.050 A 
ATOM     12  C   UNL A   1      34.473  23.367  25.922  1.00  0.00    -0.047 A 
ATOM     13  C   UNL A   1      34.305  24.468  23.394  1.00  0.00     0.127 A 
ATOM     14  C   UNL A   1      34.077  24.710  25.778  1.00  0.00     0.016 A 
ATOM     15  C   UNL A   1      34.206  22.672  27.233  1.00  0.00     0.044 C 
ATOM     16  C   UNL A   1      34.047  25.252  24.506  1.00  0.00     0.024 A 
ATOM     17  O   UNL A   1      33.967  25.055  22.196  1.00  0.00    -0.488 OA
ATOM     18  C   UNL A   1      33.636  26.534  23.994  1.00  0.00     0.006 C 
ATOM     19  C   UNL A   1      33.183  26.208  22.602  1.00  0.00     0.266 C 
ENDBRANCH   5   8
ENDBRANCH   3   4
ENDBRANCH   2   3
ENDBRANCH   1   2
BRANCH   1  20
ATOM     20  C   UNL A   1      33.001  32.399  27.317  1.00  0.00     0.116 C 
BRANCH  20  21
ATOM     21  N   UNL A   1      32.522  33.744  27.615  1.00  0.00    -0.352 N 
ATOM     22  C   UNL A   1      33.059  34.650  28.497  1.00  0.00     0.251 C 
ATOM     23  H   UNL A   1      31.719  34.037  27.126  1.00  0.00     0.163 HD
ATOM     24  O   UNL A   1      32.515  35.726  28.715  1.00  0.00    -0.269 OA
BRANCH  22  25
ATOM     25  C   UNL A   1      34.282  34.262  29.218  1.00  0.00     0.039 A 
ATOM     26  C   UNL A   1      35.530  34.507  28.639  1.00  0.00     0.014 A 
ATOM     27  C   UNL A   1      34.166  33.525  30.397  1.00  0.00     0.014 A 
ATOM     28  C   UNL A   1      36.649  33.865  29.149  1.00  0.00     0.010 A 
ATOM     29  C   UNL A   1      35.308  32.955  30.957  1.00  0.00     0.010 A 
ATOM     30  C   UNL A   1      36.548  33.079  30.308  1.00  0.00    -0.014 A 
BRANCH  30  31
ATOM     31  C   UNL A   1      37.751  32.394  30.836  1.00  0.00     0.031 A 
ATOM     32  C   UNL A   1      38.461  32.917  32.054  1.00  0.00     0.074 A 
ATOM     33  C   UNL A   1      38.182  31.275  30.224  1.00  0.00     0.049 A 
ATOM     34  N   UNL A   1      39.558  32.476  32.615  1.00  0.00    -0.248 NA
ATOM     35  C   UNL A   1      37.867  34.081  32.734  1.00  0.00     0.031 C 
ATOM     36  C   UNL A   1      37.543  30.653  29.062  1.00  0.00     0.029 A 
ATOM     37  N   UNL A   1      39.244  30.455  30.501  1.00  0.00    -0.354 N 
ATOM     38  C   UNL A   1      39.798  33.319  33.693  1.00  0.00     0.074 A 
ATOM     39  C   UNL A   1      38.745  34.309  33.702  1.00  0.00     0.031 C 
ATOM     40  C   UNL A   1      38.197  29.525  28.757  1.00  0.00     0.029 A 
ATOM     41  C   UNL A   1      39.348  29.390  29.641  1.00  0.00     0.049 A 
ATOM     42  H   UNL A   1      39.869  30.612  31.245  1.00  0.00     0.167 HD
ATOM     43  C   UNL A   1      40.807  33.261  34.595  1.00  0.00     0.031 A 
ATOM     44  C   UNL A   1      40.284  28.427  29.547  1.00  0.00     0.031 A 
ATOM     45  C   UNL A   1      41.842  32.262  34.583  1.00  0.00     0.049 A 
ATOM     46  C   UNL A   1      41.436  28.435  30.508  1.00  0.00     0.074 A 
ATOM     47  C   UNL A   1      42.896  32.111  35.467  1.00  0.00     0.029 A 
ATOM     48  N   UNL A   1      41.952  31.245  33.648  1.00  0.00    -0.354 N 
ATOM     49  N   UNL A   1      41.657  29.246  31.514  1.00  0.00    -0.248 NA
ATOM     50  C   UNL A   1      42.471  27.412  30.317  1.00  0.00     0.031 C 
ATOM     51  C   UNL A   1      43.679  31.042  35.031  1.00  0.00     0.029 A 
ATOM     52  C   UNL A   1      43.076  30.483  33.915  1.00  0.00     0.049 A 
ATOM     53  H   UNL A   1      41.325  31.089  32.906  1.00  0.00     0.167 HD
ATOM     54  C   UNL A   1      42.849  28.824  32.085  1.00  0.00     0.074 A 
ATOM     55  C   UNL A   1      43.297  27.677  31.322  1.00  0.00     0.031 C 
ATOM     56  C   UNL A   1      43.511  29.345  33.147  1.00  0.00     0.031 A 
BRANCH  43  57
ATOM     57  C   UNL A   1      40.869  34.315  35.667  1.00  0.00    -0.014 A 
ATOM     58  C   UNL A   1      40.140  34.138  36.855  1.00  0.00     0.009 A 
ATOM     59  C   UNL A   1      41.545  35.525  35.459  1.00  0.00     0.009 A 
ATOM     60  C   UNL A   1      40.073  35.158  37.806  1.00  0.00     0.001 A 
ATOM     61  C   UNL A   1      41.499  36.535  36.426  1.00  0.00     0.001 A 
ATOM     62  C   UNL A   1      40.754  36.354  37.591  1.00  0.00     0.000 A 
ENDBRANCH  43  57
BRANCH  44  63
ATOM     63  C   UNL A   1      40.157  27.398  28.484  1.00  0.00    -0.014 A 
ATOM     64  C   UNL A   1      39.518  26.174  28.751  1.00  0.00     0.009 A 
ATOM     65  C   UNL A   1      40.746  27.595  27.228  1.00  0.00     0.009 A 
ATOM     66  C   UNL A   1      39.505  25.156  27.796  1.00  0.00     0.001 A 
ATOM     67  C   UNL A   1      40.703  26.586  26.262  1.00  0.00     0.001 A 
ATOM     68  C   UNL A   1      40.096  25.364  26.551  1.00  0.00     0.000 A 
ENDBRANCH  44  63
BRANCH  56  69
ATOM     69  C   UNL A   1      44.789  28.685  33.572  1.00  0.00    -0.014 A 
ATOM     70  C   UNL A   1      46.002  29.077  32.984  1.00  0.00     0.009 A 
ATOM     71  C   UNL A   1      44.777  27.591  34.449  1.00  0.00     0.009 A 
ATOM     72  C   UNL A   1      47.176  28.369  33.245  1.00  0.00     0.001 A 
ATOM     73  C   UNL A   1      45.957  26.901  34.729  1.00  0.00     0.001 A 
ATOM     74  C   UNL A   1      47.152  27.282  34.117  1.00  0.00     0.000 A 
ENDBRANCH  56  69
ENDBRANCH  30  31
ENDBRANCH  22  25
ENDBRANCH  20  21
ENDBRANCH   1  20
TORSDOF 11
ENDMDL
