MODEL 1
REMARK VINA RESULT:     -11.3      0.000      0.000
REMARK SMILES O=C(NCCCCNC(=O)c1cc(S(=O)(=O)Nc2cccc(Cl)c2)ccc1O)c1ccc(-c2c3nc(c(-c4ccccc4)c4ccc([nH]4)c(-c4ccccc4)c4nc(c(-c5ccccc5)c5ccc2[nH]5)C=C4)C=C3)cc1
REMARK SMILES IDX 6 1 5 2 4 3 3 4 1 5 2 6 29 8 30 9 76 10 31 11 75 12 32 13
REMARK SMILES IDX 33 14 34 15 69 16 35 17 74 18 68 19 70 20 36 21 73 22 67 23
REMARK SMILES IDX 66 24 37 26 59 27 44 28 58 29 45 30 48 31 57 32 71 33 46 34
REMARK SMILES IDX 47 35 56 37 72 38 49 39 38 40 39 41 43 42 40 43 42 44 41 45
REMARK SMILES IDX 60 46 61 47 65 48 62 49 64 50 63 51 50 52 51 53 55 54 52 55
REMARK SMILES IDX 54 56 53 57 7 58 8 59 9 60 10 62 11 63 12 64 27 65 13 66
REMARK SMILES IDX 26 67 25 68 28 69 14 71 15 72 16 73 17 74 18 76 19 77 24 78
REMARK SMILES IDX 20 79 22 80 21 81 23 82
REMARK H PARENT 3 7 70 25 48 36 8 61 28 70 17 75
REMARK Flexibility Score: inf
ROOT
ATOM      1  C   UNL A   1      33.462  29.332  24.895  1.00  0.00     0.023 C 
ENDROOT
BRANCH   1   2
ATOM      2  C   UNL A   1      33.572  28.152  25.854  1.00  0.00     0.023 C 
BRANCH   2   3
ATOM      3  C   UNL A   1      33.490  28.504  27.335  1.00  0.00     0.116 C 
BRANCH   3   4
ATOM      4  N   UNL A   1      33.528  29.937  27.587  1.00  0.00    -0.352 N 
ATOM      5  O   UNL A   1      34.336  31.901  28.345  1.00  0.00    -0.269 OA
ATOM      6  C   UNL A   1      34.543  30.720  28.081  1.00  0.00     0.251 C 
ATOM      7  H   UNL A   1      32.697  30.419  27.369  1.00  0.00     0.163 HD
BRANCH   6   8
ATOM      8  C   UNL A   1      35.876  30.135  28.330  1.00  0.00     0.039 A 
ATOM      9  C   UNL A   1      36.203  29.586  29.571  1.00  0.00     0.014 A 
ATOM     10  C   UNL A   1      36.816  30.135  27.294  1.00  0.00     0.014 A 
ATOM     11  C   UNL A   1      37.509  29.183  29.829  1.00  0.00     0.010 A 
ATOM     12  C   UNL A   1      38.108  29.657  27.531  1.00  0.00     0.010 A 
ATOM     13  C   UNL A   1      38.475  29.216  28.811  1.00  0.00    -0.014 A 
BRANCH  13  14
ATOM     14  C   UNL A   1      39.859  28.762  29.089  1.00  0.00     0.031 A 
ATOM     15  C   UNL A   1      40.843  29.664  29.781  1.00  0.00     0.074 A 
ATOM     16  C   UNL A   1      40.231  27.523  28.714  1.00  0.00     0.049 A 
ATOM     17  N   UNL A   1      42.101  29.445  30.066  1.00  0.00    -0.248 NA
ATOM     18  C   UNL A   1      40.352  30.985  30.201  1.00  0.00     0.031 C 
ATOM     19  C   UNL A   1      39.368  26.550  28.041  1.00  0.00     0.029 A 
ATOM     20  N   UNL A   1      41.429  26.871  28.849  1.00  0.00    -0.354 N 
ATOM     21  C   UNL A   1      42.561  30.606  30.675  1.00  0.00     0.074 A 
ATOM     22  C   UNL A   1      41.450  31.534  30.702  1.00  0.00     0.031 C 
ATOM     23  C   UNL A   1      40.056  25.415  27.846  1.00  0.00     0.029 A 
ATOM     24  C   UNL A   1      41.421  25.601  28.328  1.00  0.00     0.049 A 
ATOM     25  H   UNL A   1      42.218  27.273  29.278  1.00  0.00     0.167 HD
ATOM     26  C   UNL A   1      43.794  30.874  31.167  1.00  0.00     0.031 A 
ATOM     27  C   UNL A   1      42.406  24.691  28.227  1.00  0.00     0.031 A 
ATOM     28  C   UNL A   1      44.897  29.950  31.146  1.00  0.00     0.049 A 
ATOM     29  C   UNL A   1      43.771  25.022  28.750  1.00  0.00     0.074 A 
ATOM     30  C   UNL A   1      46.175  30.121  31.648  1.00  0.00     0.029 A 
ATOM     31  N   UNL A   1      44.852  28.681  30.589  1.00  0.00    -0.354 N 
ATOM     32  N   UNL A   1      44.183  26.119  29.339  1.00  0.00    -0.248 NA
ATOM     33  C   UNL A   1      44.806  23.992  28.594  1.00  0.00     0.031 C 
ATOM     34  C   UNL A   1      46.918  28.971  31.356  1.00  0.00     0.029 A 
ATOM     35  C   UNL A   1      46.087  28.066  30.715  1.00  0.00     0.049 A 
ATOM     36  H   UNL A   1      44.060  28.278  30.166  1.00  0.00     0.167 HD
ATOM     37  C   UNL A   1      45.520  25.905  29.641  1.00  0.00     0.074 A 
ATOM     38  C   UNL A   1      45.847  24.570  29.181  1.00  0.00     0.031 C 
ATOM     39  C   UNL A   1      46.397  26.740  30.248  1.00  0.00     0.031 A 
BRANCH  26  40
ATOM     40  C   UNL A   1      44.024  32.243  31.743  1.00  0.00    -0.014 A 
ATOM     41  C   UNL A   1      43.811  32.508  33.105  1.00  0.00     0.009 A 
ATOM     42  C   UNL A   1      44.491  33.276  30.914  1.00  0.00     0.009 A 
ATOM     43  C   UNL A   1      44.029  33.789  33.619  1.00  0.00     0.001 A 
ATOM     44  C   UNL A   1      44.731  34.549  31.436  1.00  0.00     0.001 A 
ATOM     45  C   UNL A   1      44.491  34.807  32.783  1.00  0.00     0.000 A 
ENDBRANCH  26  40
BRANCH  27  46
ATOM     46  C   UNL A   1      42.125  23.382  27.586  1.00  0.00    -0.014 A 
ATOM     47  C   UNL A   1      42.457  23.160  26.243  1.00  0.00     0.009 A 
ATOM     48  C   UNL A   1      41.560  22.335  28.332  1.00  0.00     0.009 A 
ATOM     49  C   UNL A   1      42.219  21.917  25.655  1.00  0.00     0.001 A 
ATOM     50  C   UNL A   1      41.347  21.086  27.748  1.00  0.00     0.001 A 
ATOM     51  C   UNL A   1      41.671  20.879  26.409  1.00  0.00     0.000 A 
ENDBRANCH  27  46
BRANCH  39  52
ATOM     52  C   UNL A   1      47.786  26.222  30.477  1.00  0.00    -0.014 A 
ATOM     53  C   UNL A   1      48.753  26.264  29.461  1.00  0.00     0.009 A 
ATOM     54  C   UNL A   1      48.142  25.722  31.739  1.00  0.00     0.009 A 
ATOM     55  C   UNL A   1      50.045  25.789  29.699  1.00  0.00     0.001 A 
ATOM     56  C   UNL A   1      49.439  25.268  31.980  1.00  0.00     0.001 A 
ATOM     57  C   UNL A   1      50.387  25.296  30.958  1.00  0.00     0.000 A 
ENDBRANCH  39  52
ENDBRANCH  13  14
ENDBRANCH   6   8
ENDBRANCH   3   4
ENDBRANCH   2   3
ENDBRANCH   1   2
BRANCH   1  58
ATOM     58  C   UNL A   1      33.496  28.977  23.416  1.00  0.00     0.116 C 
BRANCH  58  59
ATOM     59  N   UNL A   1      32.201  29.026  22.753  1.00  0.00    -0.352 N 
ATOM     60  C   UNL A   1      31.341  27.971  22.528  1.00  0.00     0.255 C 
ATOM     61  H   UNL A   1      31.907  29.908  22.431  1.00  0.00     0.163 HD
ATOM     62  O   UNL A   1      30.265  28.141  21.966  1.00  0.00    -0.269 OA
BRANCH  60  63
ATOM     63  C   UNL A   1      31.798  26.607  22.864  1.00  0.00     0.082 A 
ATOM     64  C   UNL A   1      31.288  26.021  24.027  1.00  0.00     0.040 A 
ATOM     65  C   UNL A   1      32.608  25.863  22.000  1.00  0.00     0.128 A 
ATOM     66  C   UNL A   1      31.457  24.649  24.231  1.00  0.00     0.088 A 
ATOM     67  C   UNL A   1      32.693  24.487  22.155  1.00  0.00     0.048 A 
ATOM     68  C   UNL A   1      32.048  23.875  23.231  1.00  0.00     0.026 A 
BRANCH  65  69
ATOM     69  O   UNL A   1      33.267  26.466  20.968  1.00  0.00    -0.507 OA
ATOM     70  H   UNL A   1      33.944  27.090  21.145  1.00  0.00     0.293 HD
ENDBRANCH  65  69
BRANCH  66  71
ATOM     71  S   UNL A   1      31.012  24.016  25.838  1.00  0.00     0.261 S 
ATOM     72  O   UNL A   1      30.187  25.027  26.462  1.00  0.00    -0.201 OA
ATOM     73  O   UNL A   1      30.523  22.669  25.622  1.00  0.00    -0.201 OA
BRANCH  71  74
ATOM     74  N   UNL A   1      32.389  23.827  26.780  1.00  0.00    -0.280 N 
ATOM     75  H   UNL A   1      32.287  23.902  27.757  1.00  0.00     0.180 HD
BRANCH  74  76
ATOM     76  C   UNL A   1      33.690  23.566  26.273  1.00  0.00     0.050 A 
ATOM     77  C   UNL A   1      34.576  24.565  25.863  1.00  0.00     0.027 A 
ATOM     78  C   UNL A   1      34.007  22.221  26.055  1.00  0.00     0.047 A 
ATOM     79  C   UNL A   1      35.708  24.221  25.116  1.00  0.00     0.004 A 
ATOM     80  C   UNL A   1      35.137  21.886  25.314  1.00  0.00     0.043 A 
ATOM     81  C   UNL A   1      35.976  22.881  24.822  1.00  0.00     0.020 A 
ATOM     82  Cl  UNL A   1      35.446  20.236  24.940  1.00  0.00    -0.084 Cl
ENDBRANCH  74  76
ENDBRANCH  71  74
ENDBRANCH  66  71
ENDBRANCH  60  63
ENDBRANCH  58  59
ENDBRANCH   1  58
TORSDOF 15
ENDMDL
MODEL 2
REMARK VINA RESULT:     -11.0      2.483      7.614
REMARK SMILES O=C(NCCCCNC(=O)c1cc(S(=O)(=O)Nc2cccc(Cl)c2)ccc1O)c1ccc(-c2c3nc(c(-c4ccccc4)c4ccc([nH]4)c(-c4ccccc4)c4nc(c(-c5ccccc5)c5ccc2[nH]5)C=C4)C=C3)cc1
REMARK SMILES IDX 6 1 5 2 4 3 3 4 1 5 2 6 29 8 30 9 76 10 31 11 75 12 32 13
REMARK SMILES IDX 33 14 34 15 69 16 35 17 74 18 68 19 70 20 36 21 73 22 67 23
REMARK SMILES IDX 66 24 37 26 59 27 44 28 58 29 45 30 48 31 57 32 71 33 46 34
REMARK SMILES IDX 47 35 56 37 72 38 49 39 38 40 39 41 43 42 40 43 42 44 41 45
REMARK SMILES IDX 60 46 61 47 65 48 62 49 64 50 63 51 50 52 51 53 55 54 52 55
REMARK SMILES IDX 54 56 53 57 7 58 8 59 9 60 10 62 11 63 12 64 27 65 13 66
REMARK SMILES IDX 26 67 25 68 28 69 14 71 15 72 16 73 17 74 18 76 19 77 24 78
REMARK SMILES IDX 20 79 22 80 21 81 23 82
REMARK H PARENT 3 7 70 25 48 36 8 61 28 70 17 75
REMARK Flexibility Score: inf
ROOT
ATOM      1  C   UNL A   1      36.435  20.289  25.002  1.00  0.00     0.023 C 
ENDROOT
BRANCH   1   2
ATOM      2  C   UNL A   1      37.882  19.967  24.646  1.00  0.00     0.023 C 
BRANCH   2   3
ATOM      3  C   UNL A   1      38.911  20.313  25.716  1.00  0.00     0.116 C 
BRANCH   3   4
ATOM      4  N   UNL A   1      40.013  19.365  25.778  1.00  0.00    -0.352 N 
ATOM      5  O   UNL A   1      42.142  18.652  25.991  1.00  0.00    -0.269 OA
ATOM      6  C   UNL A   1      41.328  19.561  26.126  1.00  0.00     0.251 C 
ATOM      7  H   UNL A   1      39.781  18.440  25.534  1.00  0.00     0.163 HD
BRANCH   6   8
ATOM      8  C   UNL A   1      41.773  20.877  26.630  1.00  0.00     0.039 A 
ATOM      9  C   UNL A   1      41.718  21.184  27.990  1.00  0.00     0.014 A 
ATOM     10  C   UNL A   1      42.260  21.818  25.717  1.00  0.00     0.014 A 
ATOM     11  C   UNL A   1      41.995  22.478  28.420  1.00  0.00     0.010 A 
ATOM     12  C   UNL A   1      42.613  23.095  26.161  1.00  0.00     0.010 A 
ATOM     13  C   UNL A   1      42.445  23.447  27.509  1.00  0.00    -0.014 A 
BRANCH  13  14
ATOM     14  C   UNL A   1      42.761  24.816  27.981  1.00  0.00     0.031 A 
ATOM     15  C   UNL A   1      44.175  25.217  28.295  1.00  0.00     0.074 A 
ATOM     16  C   UNL A   1      41.762  25.707  28.125  1.00  0.00     0.049 A 
ATOM     17  N   UNL A   1      44.625  26.357  28.755  1.00  0.00    -0.248 NA
ATOM     18  C   UNL A   1      45.219  24.205  28.071  1.00  0.00     0.031 C 
ATOM     19  C   UNL A   1      40.349  25.443  27.846  1.00  0.00     0.029 A 
ATOM     20  N   UNL A   1      41.783  27.014  28.538  1.00  0.00    -0.354 N 
ATOM     21  C   UNL A   1      45.997  26.194  28.900  1.00  0.00     0.074 A 
ATOM     22  C   UNL A   1      46.304  24.837  28.496  1.00  0.00     0.031 C 
ATOM     23  C   UNL A   1      39.642  26.561  28.069  1.00  0.00     0.029 A 
ATOM     24  C   UNL A   1      40.542  27.600  28.560  1.00  0.00     0.049 A 
ATOM     25  H   UNL A   1      42.608  27.487  28.792  1.00  0.00     0.167 HD
ATOM     26  C   UNL A   1      46.917  27.090  29.330  1.00  0.00     0.031 A 
ATOM     27  C   UNL A   1      40.162  28.829  28.952  1.00  0.00     0.031 A 
ATOM     28  C   UNL A   1      46.614  28.440  29.727  1.00  0.00     0.049 A 
ATOM     29  C   UNL A   1      41.193  29.794  29.454  1.00  0.00     0.074 A 
ATOM     30  C   UNL A   1      47.483  29.432  30.147  1.00  0.00     0.029 A 
ATOM     31  N   UNL A   1      45.340  28.986  29.755  1.00  0.00    -0.354 N 
ATOM     32  N   UNL A   1      42.489  29.628  29.567  1.00  0.00    -0.248 NA
ATOM     33  C   UNL A   1      40.711  31.113  29.882  1.00  0.00     0.031 C 
ATOM     34  C   UNL A   1      46.730  30.566  30.471  1.00  0.00     0.029 A 
ATOM     35  C   UNL A   1      45.397  30.294  30.207  1.00  0.00     0.049 A 
ATOM     36  H   UNL A   1      44.517  28.514  29.493  1.00  0.00     0.167 HD
ATOM     37  C   UNL A   1      42.980  30.827  30.061  1.00  0.00     0.074 A 
ATOM     38  C   UNL A   1      41.846  31.716  30.216  1.00  0.00     0.031 C 
ATOM     39  C   UNL A   1      44.259  31.163  30.359  1.00  0.00     0.031 A 
BRANCH  26  40
ATOM     40  C   UNL A   1      48.343  26.625  29.424  1.00  0.00    -0.014 A 
ATOM     41  C   UNL A   1      48.819  25.952  30.561  1.00  0.00     0.009 A 
ATOM     42  C   UNL A   1      49.216  26.836  28.345  1.00  0.00     0.009 A 
ATOM     43  C   UNL A   1      50.149  25.531  30.628  1.00  0.00     0.001 A 
ATOM     44  C   UNL A   1      50.539  26.393  28.405  1.00  0.00     0.001 A 
ATOM     45  C   UNL A   1      51.006  25.750  29.549  1.00  0.00     0.000 A 
ENDBRANCH  26  40
BRANCH  27  46
ATOM     46  C   UNL A   1      38.726  29.200  28.893  1.00  0.00    -0.014 A 
ATOM     47  C   UNL A   1      38.163  29.679  27.703  1.00  0.00     0.009 A 
ATOM     48  C   UNL A   1      37.904  29.035  30.020  1.00  0.00     0.009 A 
ATOM     49  C   UNL A   1      36.804  29.997  27.645  1.00  0.00     0.001 A 
ATOM     50  C   UNL A   1      36.542  29.329  29.951  1.00  0.00     0.001 A 
ATOM     51  C   UNL A   1      35.994  29.814  28.766  1.00  0.00     0.000 A 
ENDBRANCH  27  46
BRANCH  39  52
ATOM     52  C   UNL A   1      44.502  32.559  30.852  1.00  0.00    -0.014 A 
ATOM     53  C   UNL A   1      44.501  32.855  32.223  1.00  0.00     0.009 A 
ATOM     54  C   UNL A   1      44.774  33.583  29.932  1.00  0.00     0.009 A 
ATOM     55  C   UNL A   1      44.743  34.158  32.662  1.00  0.00     0.001 A 
ATOM     56  C   UNL A   1      45.036  34.880  30.374  1.00  0.00     0.001 A 
ATOM     57  C   UNL A   1      45.014  35.167  31.738  1.00  0.00     0.000 A 
ENDBRANCH  39  52
ENDBRANCH  13  14
ENDBRANCH   6   8
ENDBRANCH   3   4
ENDBRANCH   2   3
ENDBRANCH   1   2
BRANCH   1  58
ATOM     58  C   UNL A   1      36.188  21.696  25.525  1.00  0.00     0.116 C 
BRANCH  58  59
ATOM     59  N   UNL A   1      35.309  21.765  26.682  1.00  0.00    -0.352 N 
ATOM     60  C   UNL A   1      33.929  21.746  26.682  1.00  0.00     0.255 C 
ATOM     61  H   UNL A   1      35.747  21.833  27.561  1.00  0.00     0.163 HD
ATOM     62  O   UNL A   1      33.296  21.798  27.730  1.00  0.00    -0.269 OA
BRANCH  60  63
ATOM     63  C   UNL A   1      33.226  21.789  25.384  1.00  0.00     0.082 A 
ATOM     64  C   UNL A   1      33.408  22.924  24.587  1.00  0.00     0.040 A 
ATOM     65  C   UNL A   1      32.504  20.696  24.896  1.00  0.00     0.128 A 
ATOM     66  C   UNL A   1      33.007  22.889  23.248  1.00  0.00     0.088 A 
ATOM     67  C   UNL A   1      32.194  20.626  23.544  1.00  0.00     0.048 A 
ATOM     68  C   UNL A   1      32.520  21.696  22.710  1.00  0.00     0.026 A 
BRANCH  65  69
ATOM     69  O   UNL A   1      32.154  19.665  25.719  1.00  0.00    -0.507 OA
ATOM     70  H   UNL A   1      32.733  18.936  25.829  1.00  0.00     0.293 HD
ENDBRANCH  65  69
BRANCH  66  71
ATOM     71  S   UNL A   1      33.032  24.437  22.363  1.00  0.00     0.261 S 
ATOM     72  O   UNL A   1      33.919  25.313  23.095  1.00  0.00    -0.201 OA
ATOM     73  O   UNL A   1      33.275  24.105  20.973  1.00  0.00    -0.201 OA
BRANCH  71  74
ATOM     74  N   UNL A   1      31.503  25.129  22.377  1.00  0.00    -0.280 N 
ATOM     75  H   UNL A   1      30.785  24.661  21.890  1.00  0.00     0.180 HD
BRANCH  74  76
ATOM     76  C   UNL A   1      31.165  26.339  23.040  1.00  0.00     0.050 A 
ATOM     77  C   UNL A   1      30.918  27.542  22.376  1.00  0.00     0.027 A 
ATOM     78  C   UNL A   1      31.233  26.316  24.437  1.00  0.00     0.047 A 
ATOM     79  C   UNL A   1      30.878  28.737  23.102  1.00  0.00     0.004 A 
ATOM     80  C   UNL A   1      31.189  27.508  25.154  1.00  0.00     0.043 A 
ATOM     81  C   UNL A   1      31.036  28.723  24.491  1.00  0.00     0.020 A 
ATOM     82  Cl  UNL A   1      31.406  27.480  26.859  1.00  0.00    -0.084 Cl
ENDBRANCH  74  76
ENDBRANCH  71  74
ENDBRANCH  66  71
ENDBRANCH  60  63
ENDBRANCH  58  59
ENDBRANCH   1  58
TORSDOF 15
ENDMDL
MODEL 3
REMARK VINA RESULT:     -10.9      2.782      4.171
REMARK SMILES O=C(NCCCCNC(=O)c1cc(S(=O)(=O)Nc2cccc(Cl)c2)ccc1O)c1ccc(-c2c3nc(c(-c4ccccc4)c4ccc([nH]4)c(-c4ccccc4)c4nc(c(-c5ccccc5)c5ccc2[nH]5)C=C4)C=C3)cc1
REMARK SMILES IDX 6 1 5 2 4 3 3 4 1 5 2 6 29 8 30 9 76 10 31 11 75 12 32 13
REMARK SMILES IDX 33 14 34 15 69 16 35 17 74 18 68 19 70 20 36 21 73 22 67 23
REMARK SMILES IDX 66 24 37 26 59 27 44 28 58 29 45 30 48 31 57 32 71 33 46 34
REMARK SMILES IDX 47 35 56 37 72 38 49 39 38 40 39 41 43 42 40 43 42 44 41 45
REMARK SMILES IDX 60 46 61 47 65 48 62 49 64 50 63 51 50 52 51 53 55 54 52 55
REMARK SMILES IDX 54 56 53 57 7 58 8 59 9 60 10 62 11 63 12 64 27 65 13 66
REMARK SMILES IDX 26 67 25 68 28 69 14 71 15 72 16 73 17 74 18 76 19 77 24 78
REMARK SMILES IDX 20 79 22 80 21 81 23 82
REMARK H PARENT 3 7 70 25 48 36 8 61 28 70 17 75
REMARK Flexibility Score: inf
ROOT
ATOM      1  C   UNL A   1      31.403  30.867  25.746  1.00  0.00     0.023 C 
ENDROOT
BRANCH   1   2
ATOM      2  C   UNL A   1      31.387  31.861  26.902  1.00  0.00     0.023 C 
BRANCH   2   3
ATOM      3  C   UNL A   1      32.684  32.630  27.122  1.00  0.00     0.116 C 
BRANCH   3   4
ATOM      4  N   UNL A   1      32.472  33.979  27.626  1.00  0.00    -0.352 N 
ATOM      5  O   UNL A   1      32.752  35.775  28.961  1.00  0.00    -0.269 OA
ATOM      6  C   UNL A   1      33.168  34.685  28.578  1.00  0.00     0.251 C 
ATOM      7  H   UNL A   1      31.713  34.459  27.223  1.00  0.00     0.163 HD
BRANCH   6   8
ATOM      8  C   UNL A   1      34.399  34.120  29.167  1.00  0.00     0.039 A 
ATOM      9  C   UNL A   1      35.657  34.443  28.656  1.00  0.00     0.014 A 
ATOM     10  C   UNL A   1      34.287  33.251  30.257  1.00  0.00     0.014 A 
ATOM     11  C   UNL A   1      36.787  33.781  29.126  1.00  0.00     0.010 A 
ATOM     12  C   UNL A   1      35.432  32.645  30.781  1.00  0.00     0.010 A 
ATOM     13  C   UNL A   1      36.685  32.875  30.193  1.00  0.00    -0.014 A 
BRANCH  13  14
ATOM     14  C   UNL A   1      37.899  32.192  30.703  1.00  0.00     0.031 A 
ATOM     15  C   UNL A   1      38.664  32.747  31.871  1.00  0.00     0.074 A 
ATOM     16  C   UNL A   1      38.313  31.058  30.105  1.00  0.00     0.049 A 
ATOM     17  N   UNL A   1      39.766  32.303  32.420  1.00  0.00    -0.248 NA
ATOM     18  C   UNL A   1      38.126  33.964  32.500  1.00  0.00     0.031 C 
ATOM     19  C   UNL A   1      37.654  30.414  28.968  1.00  0.00     0.029 A 
ATOM     20  N   UNL A   1      39.384  30.247  30.376  1.00  0.00    -0.354 N 
ATOM     21  C   UNL A   1      40.069  33.196  33.441  1.00  0.00     0.074 A 
ATOM     22  C   UNL A   1      39.043  34.218  33.424  1.00  0.00     0.031 C 
ATOM     23  C   UNL A   1      38.319  29.292  28.654  1.00  0.00     0.029 A 
ATOM     24  C   UNL A   1      39.480  29.169  29.530  1.00  0.00     0.049 A 
ATOM     25  H   UNL A   1      40.022  30.418  31.105  1.00  0.00     0.167 HD
ATOM     26  C   UNL A   1      41.104  33.166  34.313  1.00  0.00     0.031 A 
ATOM     27  C   UNL A   1      40.409  28.200  29.449  1.00  0.00     0.031 A 
ATOM     28  C   UNL A   1      42.121  32.148  34.335  1.00  0.00     0.049 A 
ATOM     29  C   UNL A   1      41.564  28.206  30.405  1.00  0.00     0.074 A 
ATOM     30  C   UNL A   1      43.192  32.016  35.201  1.00  0.00     0.029 A 
ATOM     31  N   UNL A   1      42.192  31.086  33.446  1.00  0.00    -0.354 N 
ATOM     32  N   UNL A   1      41.824  29.048  31.376  1.00  0.00    -0.248 NA
ATOM     33  C   UNL A   1      42.551  27.130  30.254  1.00  0.00     0.031 C 
ATOM     34  C   UNL A   1      43.938  30.898  34.810  1.00  0.00     0.029 A 
ATOM     35  C   UNL A   1      43.302  30.307  33.729  1.00  0.00     0.049 A 
ATOM     36  H   UNL A   1      41.550  30.912  32.722  1.00  0.00     0.167 HD
ATOM     37  C   UNL A   1      42.995  28.594  31.964  1.00  0.00     0.074 A 
ATOM     38  C   UNL A   1      43.388  27.396  31.249  1.00  0.00     0.031 C 
ATOM     39  C   UNL A   1      43.682  29.122  33.006  1.00  0.00     0.031 A 
BRANCH  26  40
ATOM     40  C   UNL A   1      41.208  34.295  35.300  1.00  0.00    -0.014 A 
ATOM     41  C   UNL A   1      40.634  34.203  36.578  1.00  0.00     0.009 A 
ATOM     42  C   UNL A   1      41.917  35.456  34.955  1.00  0.00     0.009 A 
ATOM     43  C   UNL A   1      40.740  35.266  37.479  1.00  0.00     0.001 A 
ATOM     44  C   UNL A   1      42.042  36.507  35.866  1.00  0.00     0.001 A 
ATOM     45  C   UNL A   1      41.446  36.416  37.122  1.00  0.00     0.000 A 
ENDBRANCH  26  40
BRANCH  27  46
ATOM     46  C   UNL A   1      40.279  27.152  28.407  1.00  0.00    -0.014 A 
ATOM     47  C   UNL A   1      40.877  27.319  27.151  1.00  0.00     0.009 A 
ATOM     48  C   UNL A   1      39.589  25.960  28.682  1.00  0.00     0.009 A 
ATOM     49  C   UNL A   1      40.778  26.316  26.185  1.00  0.00     0.001 A 
ATOM     50  C   UNL A   1      39.513  24.950  27.723  1.00  0.00     0.001 A 
ATOM     51  C   UNL A   1      40.103  25.130  26.474  1.00  0.00     0.000 A 
ENDBRANCH  27  46
BRANCH  39  52
ATOM     52  C   UNL A   1      44.913  28.389  33.454  1.00  0.00    -0.014 A 
ATOM     53  C   UNL A   1      46.178  28.717  32.944  1.00  0.00     0.009 A 
ATOM     54  C   UNL A   1      44.807  27.385  34.428  1.00  0.00     0.009 A 
ATOM     55  C   UNL A   1      47.313  28.033  33.384  1.00  0.00     0.001 A 
ATOM     56  C   UNL A   1      45.945  26.718  34.882  1.00  0.00     0.001 A 
ATOM     57  C   UNL A   1      47.196  27.038  34.355  1.00  0.00     0.000 A 
ENDBRANCH  39  52
ENDBRANCH  13  14
ENDBRANCH   6   8
ENDBRANCH   3   4
ENDBRANCH   2   3
ENDBRANCH   1   2
BRANCH   1  58
ATOM     58  C   UNL A   1      32.496  29.810  25.809  1.00  0.00     0.116 C 
BRANCH  58  59
ATOM     59  N   UNL A   1      33.278  29.677  24.589  1.00  0.00    -0.352 N 
ATOM     60  C   UNL A   1      32.970  28.913  23.482  1.00  0.00     0.255 C 
ATOM     61  H   UNL A   1      34.118  30.189  24.549  1.00  0.00     0.163 HD
ATOM     62  O   UNL A   1      33.708  28.891  22.503  1.00  0.00    -0.269 OA
BRANCH  60  63
ATOM     63  C   UNL A   1      31.796  28.018  23.550  1.00  0.00     0.082 A 
ATOM     64  C   UNL A   1      31.804  27.012  24.521  1.00  0.00     0.040 A 
ATOM     65  C   UNL A   1      30.657  28.231  22.768  1.00  0.00     0.128 A 
ATOM     66  C   UNL A   1      30.616  26.337  24.815  1.00  0.00     0.088 A 
ATOM     67  C   UNL A   1      29.458  27.630  23.126  1.00  0.00     0.048 A 
ATOM     68  C   UNL A   1      29.429  26.742  24.203  1.00  0.00     0.026 A 
BRANCH  65  69
ATOM     69  O   UNL A   1      30.693  29.072  21.695  1.00  0.00    -0.507 OA
ATOM     70  H   UNL A   1      30.359  28.789  20.866  1.00  0.00     0.293 HD
ENDBRANCH  65  69
BRANCH  66  71
ATOM     71  S   UNL A   1      30.746  24.905  25.871  1.00  0.00     0.261 S 
ATOM     72  O   UNL A   1      32.063  24.954  26.466  1.00  0.00    -0.201 OA
ATOM     73  O   UNL A   1      29.548  24.893  26.686  1.00  0.00    -0.201 OA
BRANCH  71  74
ATOM     74  N   UNL A   1      30.653  23.505  24.949  1.00  0.00    -0.280 N 
ATOM     75  H   UNL A   1      29.792  23.301  24.515  1.00  0.00     0.180 HD
BRANCH  74  76
ATOM     76  C   UNL A   1      31.723  22.593  24.747  1.00  0.00     0.050 A 
ATOM     77  C   UNL A   1      31.807  21.348  25.376  1.00  0.00     0.027 A 
ATOM     78  C   UNL A   1      32.796  23.061  23.983  1.00  0.00     0.047 A 
ATOM     79  C   UNL A   1      33.015  20.642  25.351  1.00  0.00     0.004 A 
ATOM     80  C   UNL A   1      33.994  22.352  23.960  1.00  0.00     0.043 A 
ATOM     81  C   UNL A   1      34.117  21.156  24.661  1.00  0.00     0.020 A 
ATOM     82  Cl  UNL A   1      35.349  23.004  23.126  1.00  0.00    -0.084 Cl
ENDBRANCH  74  76
ENDBRANCH  71  74
ENDBRANCH  66  71
ENDBRANCH  60  63
ENDBRANCH  58  59
ENDBRANCH   1  58
TORSDOF 15
ENDMDL
