MODEL 1
REMARK VINA RESULT:     -11.0      0.000      0.000
REMARK SMILES [NH3+][C@@H](Cc1c[nH]c2ccccc12)C(=O)NCCC(=O)NCCCCNC(=O)c1ccc(-c2c3nc(c(-c4ccccc4)c4ccc([nH]4)c(-c4ccccc4)c4nc(c(-c5ccccc5)c5ccc2[nH]5)C=C4)C=C3)cc1
REMARK SMILES IDX 21 1 20 2 18 3 19 4 17 6 16 7 15 8 13 9 14 10 2 12 1 13 3 17
REMARK SMILES IDX 4 18 5 19 12 20 6 21 7 22 11 23 8 25 10 26 9 27 22 28 23 29
REMARK SMILES IDX 24 30 25 31 26 32 27 34 28 35 29 36 75 37 30 38 74 39 31 40
REMARK SMILES IDX 32 41 33 42 68 43 34 44 73 45 67 46 69 47 35 48 72 49 66 50
REMARK SMILES IDX 65 51 36 53 58 54 43 55 57 56 44 57 47 58 56 59 70 60 45 61
REMARK SMILES IDX 46 62 55 64 71 65 48 66 37 67 38 68 42 69 39 70 41 71 40 72
REMARK SMILES IDX 59 73 60 74 64 75 61 76 63 77 62 78 49 79 50 80 54 81 51 82
REMARK SMILES IDX 53 83 52 84
REMARK H PARENT 20 5 15 11 1 14 1 15 1 16 6 24 25 33 69 52 47 63
REMARK Flexibility Score: inf
ROOT
ATOM      1  C   UNL A   1      35.647  22.171  24.559  1.00  0.00     0.116 C 
ENDROOT
BRANCH   1   2
ATOM      2  N   UNL A   1      35.311  21.927  25.941  1.00  0.00    -0.356 N 
ATOM      3  C   UNL A   1      34.138  21.418  26.410  1.00  0.00     0.221 C 
ATOM      4  O   UNL A   1      33.881  21.542  27.608  1.00  0.00    -0.275 OA
ATOM      5  H   UNL A   1      35.997  22.150  26.611  1.00  0.00     0.163 HD
BRANCH   3   6
ATOM      6  C   UNL A   1      33.206  20.690  25.462  1.00  0.00     0.121 C 
BRANCH   6   7
ATOM      7  C   UNL A   1      31.994  21.484  24.993  1.00  0.00     0.126 C 
BRANCH   7   8
ATOM      8  N   UNL A   1      31.102  21.951  26.049  1.00  0.00    -0.350 N 
ATOM      9  C   UNL A   1      30.756  23.140  26.579  1.00  0.00     0.278 C 
ATOM     10  O   UNL A   1      30.056  23.051  27.603  1.00  0.00    -0.268 OA
ATOM     11  H   UNL A   1      30.632  21.204  26.487  1.00  0.00     0.163 HD
BRANCH   9  12
ATOM     12  C   UNL A   1      31.189  24.543  26.114  1.00  0.00     0.275 C 
BRANCH  12  13
ATOM     13  N   UNL A   1      30.060  25.489  26.215  1.00  0.00    -0.347 N 
ATOM     14  H   UNL A   1      29.358  25.115  26.853  1.00  0.00     0.345 HD
ATOM     15  H   UNL A   1      29.645  25.622  25.293  1.00  0.00     0.345 HD
ATOM     16  H   UNL A   1      30.398  26.385  26.568  1.00  0.00     0.345 HD
ENDBRANCH  12  13
BRANCH  12  17
ATOM     17  C   UNL A   1      32.597  25.072  26.410  1.00  0.00     0.113 C 
BRANCH  17  18
ATOM     18  C   UNL A   1      33.137  26.328  25.792  1.00  0.00    -0.016 A 
ATOM     19  C   UNL A   1      33.485  27.436  26.552  1.00  0.00     0.087 A 
ATOM     20  C   UNL A   1      33.415  26.680  24.424  1.00  0.00     0.003 A 
ATOM     21  N   UNL A   1      33.855  28.449  25.716  1.00  0.00    -0.361 N 
ATOM     22  C   UNL A   1      33.774  28.034  24.411  1.00  0.00     0.046 A 
ATOM     23  C   UNL A   1      33.328  26.028  23.175  1.00  0.00     0.010 A 
ATOM     24  H   UNL A   1      34.139  29.346  26.006  1.00  0.00     0.166 HD
ATOM     25  C   UNL A   1      33.964  28.767  23.232  1.00  0.00     0.026 A 
ATOM     26  C   UNL A   1      33.495  26.749  21.984  1.00  0.00     0.001 A 
ATOM     27  C   UNL A   1      33.792  28.105  22.015  1.00  0.00     0.002 A 
ENDBRANCH  17  18
ENDBRANCH  12  17
ENDBRANCH   9  12
ENDBRANCH   7   8
ENDBRANCH   6   7
ENDBRANCH   3   6
ENDBRANCH   1   2
BRANCH   1  28
ATOM     28  C   UNL A   1      37.144  21.948  24.353  1.00  0.00     0.023 C 
BRANCH  28  29
ATOM     29  C   UNL A   1      37.692  20.676  24.972  1.00  0.00     0.023 C 
BRANCH  29  30
ATOM     30  C   UNL A   1      38.968  20.875  25.757  1.00  0.00     0.116 C 
BRANCH  30  31
ATOM     31  N   UNL A   1      39.874  19.736  25.688  1.00  0.00    -0.352 N 
ATOM     32  C   UNL A   1      41.209  19.709  26.019  1.00  0.00     0.251 C 
ATOM     33  H   UNL A   1      39.487  18.889  25.369  1.00  0.00     0.163 HD
ATOM     34  O   UNL A   1      41.900  18.718  25.845  1.00  0.00    -0.269 OA
BRANCH  32  35
ATOM     35  C   UNL A   1      41.785  20.952  26.555  1.00  0.00     0.039 A 
ATOM     36  C   UNL A   1      42.218  21.932  25.663  1.00  0.00     0.014 A 
ATOM     37  C   UNL A   1      41.703  21.198  27.928  1.00  0.00     0.014 A 
ATOM     38  C   UNL A   1      42.510  23.204  26.152  1.00  0.00     0.010 A 
ATOM     39  C   UNL A   1      41.886  22.489  28.389  1.00  0.00     0.010 A 
ATOM     40  C   UNL A   1      42.306  23.499  27.509  1.00  0.00    -0.014 A 
BRANCH  40  41
ATOM     41  C   UNL A   1      42.567  24.851  28.053  1.00  0.00     0.031 A 
ATOM     42  C   UNL A   1      43.964  25.211  28.471  1.00  0.00     0.074 A 
ATOM     43  C   UNL A   1      41.550  25.713  28.242  1.00  0.00     0.049 A 
ATOM     44  N   UNL A   1      44.401  26.301  29.043  1.00  0.00    -0.248 NA
ATOM     45  C   UNL A   1      45.004  24.189  28.256  1.00  0.00     0.031 C 
ATOM     46  C   UNL A   1      40.141  25.456  27.931  1.00  0.00     0.029 A 
ATOM     47  N   UNL A   1      41.550  26.990  28.744  1.00  0.00    -0.354 N 
ATOM     48  C   UNL A   1      45.747  26.075  29.296  1.00  0.00     0.074 A 
ATOM     49  C   UNL A   1      46.045  24.728  28.869  1.00  0.00     0.031 C 
ATOM     50  C   UNL A   1      39.422  26.557  28.205  1.00  0.00     0.029 A 
ATOM     51  C   UNL A   1      40.311  27.582  28.743  1.00  0.00     0.049 A 
ATOM     52  H   UNL A   1      42.361  27.439  29.072  1.00  0.00     0.167 HD
ATOM     53  C   UNL A   1      46.665  26.925  29.812  1.00  0.00     0.031 A 
ATOM     54  C   UNL A   1      39.941  28.817  29.126  1.00  0.00     0.031 A 
ATOM     55  C   UNL A   1      46.378  28.282  30.179  1.00  0.00     0.049 A 
ATOM     56  C   UNL A   1      40.987  29.760  29.652  1.00  0.00     0.074 A 
ATOM     57  C   UNL A   1      47.250  29.259  30.622  1.00  0.00     0.029 A 
ATOM     58  N   UNL A   1      45.117  28.854  30.133  1.00  0.00    -0.354 N 
ATOM     59  N   UNL A   1      42.273  29.560  29.814  1.00  0.00    -0.248 NA
ATOM     60  C   UNL A   1      40.532  31.103  30.037  1.00  0.00     0.031 C 
ATOM     61  C   UNL A   1      46.509  30.417  30.876  1.00  0.00     0.029 A 
ATOM     62  C   UNL A   1      45.183  30.170  30.553  1.00  0.00     0.049 A 
ATOM     63  H   UNL A   1      44.296  28.394  29.844  1.00  0.00     0.167 HD
ATOM     64  C   UNL A   1      42.785  30.758  30.293  1.00  0.00     0.074 A 
ATOM     65  C   UNL A   1      41.673  31.683  30.384  1.00  0.00     0.031 C 
ATOM     66  C   UNL A   1      44.061  31.068  30.626  1.00  0.00     0.031 A 
BRANCH  53  67
ATOM     67  C   UNL A   1      48.059  26.397  29.997  1.00  0.00    -0.014 A 
ATOM     68  C   UNL A   1      49.008  26.466  28.964  1.00  0.00     0.009 A 
ATOM     69  C   UNL A   1      48.425  25.816  31.220  1.00  0.00     0.009 A 
ATOM     70  C   UNL A   1      50.281  25.921  29.137  1.00  0.00     0.001 A 
ATOM     71  C   UNL A   1      49.709  25.299  31.399  1.00  0.00     0.001 A 
ATOM     72  C   UNL A   1      50.632  25.342  30.355  1.00  0.00     0.000 A 
ENDBRANCH  53  67
BRANCH  54  73
ATOM     73  C   UNL A   1      38.530  29.255  28.979  1.00  0.00    -0.014 A 
ATOM     74  C   UNL A   1      37.658  29.204  30.079  1.00  0.00     0.009 A 
ATOM     75  C   UNL A   1      38.043  29.721  27.748  1.00  0.00     0.009 A 
ATOM     76  C   UNL A   1      36.322  29.585  29.943  1.00  0.00     0.001 A 
ATOM     77  C   UNL A   1      36.711  30.123  27.621  1.00  0.00     0.001 A 
ATOM     78  C   UNL A   1      35.850  30.048  28.716  1.00  0.00     0.000 A 
ENDBRANCH  54  73
BRANCH  66  79
ATOM     79  C   UNL A   1      44.325  32.472  31.085  1.00  0.00    -0.014 A 
ATOM     80  C   UNL A   1      44.239  32.819  32.442  1.00  0.00     0.009 A 
ATOM     81  C   UNL A   1      44.716  33.443  30.151  1.00  0.00     0.009 A 
ATOM     82  C   UNL A   1      44.514  34.125  32.850  1.00  0.00     0.001 A 
ATOM     83  C   UNL A   1      45.014  34.741  30.567  1.00  0.00     0.001 A 
ATOM     84  C   UNL A   1      44.905  35.083  31.915  1.00  0.00     0.000 A 
ENDBRANCH  66  79
ENDBRANCH  40  41
ENDBRANCH  32  35
ENDBRANCH  30  31
ENDBRANCH  29  30
ENDBRANCH  28  29
ENDBRANCH   1  28
TORSDOF 17
ENDMDL
MODEL 2
REMARK VINA RESULT:     -10.8      1.811      7.356
REMARK SMILES [NH3+][C@@H](Cc1c[nH]c2ccccc12)C(=O)NCCC(=O)NCCCCNC(=O)c1ccc(-c2c3nc(c(-c4ccccc4)c4ccc([nH]4)c(-c4ccccc4)c4nc(c(-c5ccccc5)c5ccc2[nH]5)C=C4)C=C3)cc1
REMARK SMILES IDX 21 1 20 2 18 3 19 4 17 6 16 7 15 8 13 9 14 10 2 12 1 13 3 17
REMARK SMILES IDX 4 18 5 19 12 20 6 21 7 22 11 23 8 25 10 26 9 27 22 28 23 29
REMARK SMILES IDX 24 30 25 31 26 32 27 34 28 35 29 36 75 37 30 38 74 39 31 40
REMARK SMILES IDX 32 41 33 42 68 43 34 44 73 45 67 46 69 47 35 48 72 49 66 50
REMARK SMILES IDX 65 51 36 53 58 54 43 55 57 56 44 57 47 58 56 59 70 60 45 61
REMARK SMILES IDX 46 62 55 64 71 65 48 66 37 67 38 68 42 69 39 70 41 71 40 72
REMARK SMILES IDX 59 73 60 74 64 75 61 76 63 77 62 78 49 79 50 80 54 81 51 82
REMARK SMILES IDX 53 83 52 84
REMARK H PARENT 20 5 15 11 1 14 1 15 1 16 6 24 25 33 69 52 47 63
REMARK Flexibility Score: inf
ROOT
ATOM      1  C   UNL A   1      30.899  26.635  26.097  1.00  0.00     0.116 C 
ENDROOT
BRANCH   1   2
ATOM      2  N   UNL A   1      31.595  25.639  26.875  1.00  0.00    -0.356 N 
ATOM      3  C   UNL A   1      31.479  24.288  26.749  1.00  0.00     0.221 C 
ATOM      4  O   UNL A   1      31.897  23.575  27.662  1.00  0.00    -0.275 OA
ATOM      5  H   UNL A   1      32.215  25.969  27.565  1.00  0.00     0.163 HD
BRANCH   3   6
ATOM      6  C   UNL A   1      30.877  23.704  25.487  1.00  0.00     0.121 C 
BRANCH   6   7
ATOM      7  C   UNL A   1      30.496  22.231  25.562  1.00  0.00     0.126 C 
BRANCH   7   8
ATOM      8  N   UNL A   1      31.605  21.304  25.758  1.00  0.00    -0.350 N 
ATOM      9  C   UNL A   1      32.592  20.788  25.000  1.00  0.00     0.278 C 
ATOM     10  O   UNL A   1      33.238  19.884  25.559  1.00  0.00    -0.268 OA
ATOM     11  H   UNL A   1      31.641  20.969  26.683  1.00  0.00     0.163 HD
BRANCH   9  12
ATOM     12  C   UNL A   1      32.938  21.132  23.539  1.00  0.00     0.275 C 
BRANCH  12  13
ATOM     13  N   UNL A   1      31.864  20.676  22.634  1.00  0.00    -0.347 N 
ATOM     14  H   UNL A   1      32.151  19.811  22.175  1.00  0.00     0.345 HD
ATOM     15  H   UNL A   1      31.684  21.391  21.932  1.00  0.00     0.345 HD
ATOM     16  H   UNL A   1      31.014  20.508  23.174  1.00  0.00     0.345 HD
ENDBRANCH  12  13
BRANCH  12  17
ATOM     17  C   UNL A   1      33.667  22.434  23.187  1.00  0.00     0.113 C 
BRANCH  17  18
ATOM     18  C   UNL A   1      34.613  23.114  24.133  1.00  0.00    -0.016 A 
ATOM     19  C   UNL A   1      34.388  24.398  24.610  1.00  0.00     0.087 A 
ATOM     20  C   UNL A   1      35.846  22.676  24.735  1.00  0.00     0.003 A 
ATOM     21  N   UNL A   1      35.453  24.782  25.371  1.00  0.00    -0.361 N 
ATOM     22  C   UNL A   1      36.380  23.772  25.424  1.00  0.00     0.046 A 
ATOM     23  C   UNL A   1      36.618  21.495  24.711  1.00  0.00     0.010 A 
ATOM     24  H   UNL A   1      35.543  25.654  25.818  1.00  0.00     0.166 HD
ATOM     25  C   UNL A   1      37.655  23.766  26.005  1.00  0.00     0.026 A 
ATOM     26  C   UNL A   1      37.904  21.476  25.270  1.00  0.00     0.001 A 
ATOM     27  C   UNL A   1      38.420  22.604  25.893  1.00  0.00     0.002 A 
ENDBRANCH  17  18
ENDBRANCH  12  17
ENDBRANCH   9  12
ENDBRANCH   7   8
ENDBRANCH   6   7
ENDBRANCH   3   6
ENDBRANCH   1   2
BRANCH   1  28
ATOM     28  C   UNL A   1      31.741  27.907  26.026  1.00  0.00     0.023 C 
BRANCH  28  29
ATOM     29  C   UNL A   1      32.333  28.355  27.350  1.00  0.00     0.023 C 
BRANCH  29  30
ATOM     30  C   UNL A   1      33.662  29.064  27.219  1.00  0.00     0.116 C 
BRANCH  30  31
ATOM     31  N   UNL A   1      33.683  30.377  27.852  1.00  0.00    -0.352 N 
ATOM     32  C   UNL A   1      34.728  30.962  28.527  1.00  0.00     0.251 C 
ATOM     33  H   UNL A   1      32.854  30.905  27.789  1.00  0.00     0.163 HD
ATOM     34  O   UNL A   1      34.613  32.037  29.094  1.00  0.00    -0.269 OA
BRANCH  32  35
ATOM     35  C   UNL A   1      35.991  30.209  28.575  1.00  0.00     0.039 A 
ATOM     36  C   UNL A   1      36.864  30.289  27.491  1.00  0.00     0.014 A 
ATOM     37  C   UNL A   1      36.369  29.599  29.774  1.00  0.00     0.014 A 
ATOM     38  C   UNL A   1      38.163  29.805  27.636  1.00  0.00     0.010 A 
ATOM     39  C   UNL A   1      37.689  29.224  29.948  1.00  0.00     0.010 A 
ATOM     40  C   UNL A   1      38.593  29.309  28.878  1.00  0.00    -0.014 A 
BRANCH  40  41
ATOM     41  C   UNL A   1      39.978  28.826  29.078  1.00  0.00     0.031 A 
ATOM     42  C   UNL A   1      40.989  29.750  29.696  1.00  0.00     0.074 A 
ATOM     43  C   UNL A   1      40.339  27.605  28.640  1.00  0.00     0.049 A 
ATOM     44  N   UNL A   1      42.268  29.565  29.888  1.00  0.00    -0.248 NA
ATOM     45  C   UNL A   1      40.505  31.078  30.112  1.00  0.00     0.031 C 
ATOM     46  C   UNL A   1      39.461  26.641  27.971  1.00  0.00     0.029 A 
ATOM     47  N   UNL A   1      41.551  26.966  28.696  1.00  0.00    -0.354 N 
ATOM     48  C   UNL A   1      42.744  30.763  30.401  1.00  0.00     0.074 A 
ATOM     49  C   UNL A   1      41.634  31.686  30.439  1.00  0.00     0.031 C 
ATOM     50  C   UNL A   1      40.152  25.516  27.722  1.00  0.00     0.029 A 
ATOM     51  C   UNL A   1      41.527  25.693  28.179  1.00  0.00     0.049 A 
ATOM     52  H   UNL A   1      42.362  27.379  29.071  1.00  0.00     0.167 HD
ATOM     53  C   UNL A   1      43.991  31.063  30.833  1.00  0.00     0.031 A 
ATOM     54  C   UNL A   1      42.505  24.773  28.096  1.00  0.00     0.031 A 
ATOM     55  C   UNL A   1      45.076  30.124  30.851  1.00  0.00     0.049 A 
ATOM     56  C   UNL A   1      43.870  25.112  28.626  1.00  0.00     0.074 A 
ATOM     57  C   UNL A   1      46.352  30.290  31.353  1.00  0.00     0.029 A 
ATOM     58  N   UNL A   1      45.001  28.834  30.349  1.00  0.00    -0.354 N 
ATOM     59  N   UNL A   1      44.288  26.224  29.181  1.00  0.00    -0.248 NA
ATOM     60  C   UNL A   1      44.895  24.063  28.528  1.00  0.00     0.031 C 
ATOM     61  C   UNL A   1      47.064  29.108  31.125  1.00  0.00     0.029 A 
ATOM     62  C   UNL A   1      46.216  28.195  30.517  1.00  0.00     0.049 A 
ATOM     63  H   UNL A   1      44.204  28.433  29.935  1.00  0.00     0.167 HD
ATOM     64  C   UNL A   1      45.615  26.001  29.523  1.00  0.00     0.074 A 
ATOM     65  C   UNL A   1      45.928  24.644  29.124  1.00  0.00     0.031 C 
ATOM     66  C   UNL A   1      46.496  26.842  30.116  1.00  0.00     0.031 A 
BRANCH  53  67
ATOM     67  C   UNL A   1      44.228  32.462  31.323  1.00  0.00    -0.014 A 
ATOM     68  C   UNL A   1      44.023  32.809  32.669  1.00  0.00     0.009 A 
ATOM     69  C   UNL A   1      44.655  33.451  30.424  1.00  0.00     0.009 A 
ATOM     70  C   UNL A   1      44.197  34.127  33.094  1.00  0.00     0.001 A 
ATOM     71  C   UNL A   1      44.857  34.761  30.859  1.00  0.00     0.001 A 
ATOM     72  C   UNL A   1      44.616  35.101  32.190  1.00  0.00     0.000 A 
ENDBRANCH  53  67
BRANCH  54  73
ATOM     73  C   UNL A   1      42.220  23.427  27.537  1.00  0.00    -0.014 A 
ATOM     74  C   UNL A   1      42.530  23.139  26.199  1.00  0.00     0.009 A 
ATOM     75  C   UNL A   1      41.636  22.426  28.328  1.00  0.00     0.009 A 
ATOM     76  C   UNL A   1      42.239  21.886  25.656  1.00  0.00     0.001 A 
ATOM     77  C   UNL A   1      41.366  21.166  27.789  1.00  0.00     0.001 A 
ATOM     78  C   UNL A   1      41.661  20.899  26.452  1.00  0.00     0.000 A 
ENDBRANCH  54  73
BRANCH  66  79
ATOM     79  C   UNL A   1      47.868  26.305  30.399  1.00  0.00    -0.014 A 
ATOM     80  C   UNL A   1      48.190  25.762  31.652  1.00  0.00     0.009 A 
ATOM     81  C   UNL A   1      48.831  26.295  29.378  1.00  0.00     0.009 A 
ATOM     82  C   UNL A   1      49.465  25.244  31.885  1.00  0.00     0.001 A 
ATOM     83  C   UNL A   1      50.096  25.754  29.608  1.00  0.00     0.001 A 
ATOM     84  C   UNL A   1      50.415  25.236  30.863  1.00  0.00     0.000 A 
ENDBRANCH  66  79
ENDBRANCH  40  41
ENDBRANCH  32  35
ENDBRANCH  30  31
ENDBRANCH  29  30
ENDBRANCH  28  29
ENDBRANCH   1  28
TORSDOF 17
ENDMDL
MODEL 3
REMARK VINA RESULT:     -10.8      4.373      9.165
REMARK SMILES [NH3+][C@@H](Cc1c[nH]c2ccccc12)C(=O)NCCC(=O)NCCCCNC(=O)c1ccc(-c2c3nc(c(-c4ccccc4)c4ccc([nH]4)c(-c4ccccc4)c4nc(c(-c5ccccc5)c5ccc2[nH]5)C=C4)C=C3)cc1
REMARK SMILES IDX 21 1 20 2 18 3 19 4 17 6 16 7 15 8 13 9 14 10 2 12 1 13 3 17
REMARK SMILES IDX 4 18 5 19 12 20 6 21 7 22 11 23 8 25 10 26 9 27 22 28 23 29
REMARK SMILES IDX 24 30 25 31 26 32 27 34 28 35 29 36 75 37 30 38 74 39 31 40
REMARK SMILES IDX 32 41 33 42 68 43 34 44 73 45 67 46 69 47 35 48 72 49 66 50
REMARK SMILES IDX 65 51 36 53 58 54 43 55 57 56 44 57 47 58 56 59 70 60 45 61
REMARK SMILES IDX 46 62 55 64 71 65 48 66 37 67 38 68 42 69 39 70 41 71 40 72
REMARK SMILES IDX 59 73 60 74 64 75 61 76 63 77 62 78 49 79 50 80 54 81 51 82
REMARK SMILES IDX 53 83 52 84
REMARK H PARENT 20 5 15 11 1 14 1 15 1 16 6 24 25 33 69 52 47 63
REMARK Flexibility Score: inf
ROOT
ATOM      1  C   UNL A   1      31.559  29.604  25.548  1.00  0.00     0.116 C 
ENDROOT
BRANCH   1   2
ATOM      2  N   UNL A   1      32.496  29.336  24.484  1.00  0.00    -0.356 N 
ATOM      3  C   UNL A   1      33.607  28.553  24.564  1.00  0.00     0.221 C 
ATOM      4  O   UNL A   1      34.461  28.654  23.682  1.00  0.00    -0.275 OA
ATOM      5  H   UNL A   1      32.315  29.762  23.615  1.00  0.00     0.163 HD
BRANCH   3   6
ATOM      6  C   UNL A   1      33.745  27.564  25.703  1.00  0.00     0.121 C 
BRANCH   6   7
ATOM      7  C   UNL A   1      33.207  26.166  25.429  1.00  0.00     0.126 C 
BRANCH   7   8
ATOM      8  N   UNL A   1      31.895  25.874  25.996  1.00  0.00    -0.350 N 
ATOM      9  C   UNL A   1      30.631  25.788  25.536  1.00  0.00     0.278 C 
ATOM     10  O   UNL A   1      29.776  25.667  26.431  1.00  0.00    -0.268 OA
ATOM     11  H   UNL A   1      31.946  25.695  26.962  1.00  0.00     0.163 HD
BRANCH   9  12
ATOM     12  C   UNL A   1      30.146  25.901  24.079  1.00  0.00     0.275 C 
BRANCH  12  13
ATOM     13  N   UNL A   1      30.108  24.568  23.445  1.00  0.00    -0.347 N 
ATOM     14  H   UNL A   1      29.472  24.588  22.648  1.00  0.00     0.345 HD
ATOM     15  H   UNL A   1      29.785  23.879  24.122  1.00  0.00     0.345 HD
ATOM     16  H   UNL A   1      31.045  24.317  23.125  1.00  0.00     0.345 HD
ENDBRANCH  12  13
BRANCH  12  17
ATOM     17  C   UNL A   1      29.066  26.914  23.684  1.00  0.00     0.113 C 
BRANCH  17  18
ATOM     18  C   UNL A   1      29.381  28.199  22.976  1.00  0.00    -0.016 A 
ATOM     19  C   UNL A   1      30.480  28.332  22.138  1.00  0.00     0.087 A 
ATOM     20  C   UNL A   1      28.714  29.475  22.963  1.00  0.00     0.003 A 
ATOM     21  N   UNL A   1      30.560  29.626  21.713  1.00  0.00    -0.361 N 
ATOM     22  C   UNL A   1      29.526  30.358  22.240  1.00  0.00     0.046 A 
ATOM     23  C   UNL A   1      27.548  30.011  23.551  1.00  0.00     0.010 A 
ATOM     24  H   UNL A   1      31.256  29.983  21.115  1.00  0.00     0.166 HD
ATOM     25  C   UNL A   1      29.274  31.733  22.150  1.00  0.00     0.026 A 
ATOM     26  C   UNL A   1      27.290  31.388  23.488  1.00  0.00     0.001 A 
ATOM     27  C   UNL A   1      28.153  32.238  22.810  1.00  0.00     0.002 A 
ENDBRANCH  17  18
ENDBRANCH  12  17
ENDBRANCH   9  12
ENDBRANCH   7   8
ENDBRANCH   6   7
ENDBRANCH   3   6
ENDBRANCH   1   2
BRANCH   1  28
ATOM     28  C   UNL A   1      32.267  30.357  26.673  1.00  0.00     0.023 C 
BRANCH  28  29
ATOM     29  C   UNL A   1      31.874  31.817  26.809  1.00  0.00     0.023 C 
BRANCH  29  30
ATOM     30  C   UNL A   1      32.943  32.683  27.434  1.00  0.00     0.116 C 
BRANCH  30  31
ATOM     31  N   UNL A   1      32.493  34.040  27.723  1.00  0.00    -0.352 N 
ATOM     32  C   UNL A   1      33.035  34.925  28.625  1.00  0.00     0.251 C 
ATOM     33  H   UNL A   1      31.713  34.358  27.214  1.00  0.00     0.163 HD
ATOM     34  O   UNL A   1      32.528  36.013  28.851  1.00  0.00    -0.269 OA
BRANCH  32  35
ATOM     35  C   UNL A   1      34.238  34.484  29.347  1.00  0.00     0.039 A 
ATOM     36  C   UNL A   1      34.086  33.737  30.515  1.00  0.00     0.014 A 
ATOM     37  C   UNL A   1      35.488  34.654  28.746  1.00  0.00     0.014 A 
ATOM     38  C   UNL A   1      35.199  33.093  31.051  1.00  0.00     0.010 A 
ATOM     39  C   UNL A   1      36.564  33.924  29.219  1.00  0.00     0.010 A 
ATOM     40  C   UNL A   1      36.434  33.150  30.383  1.00  0.00    -0.014 A 
BRANCH  40  41
ATOM     41  C   UNL A   1      37.626  32.444  30.903  1.00  0.00     0.031 A 
ATOM     42  C   UNL A   1      38.284  32.950  32.155  1.00  0.00     0.074 A 
ATOM     43  C   UNL A   1      38.156  31.413  30.217  1.00  0.00     0.049 A 
ATOM     44  N   UNL A   1      39.378  32.537  32.738  1.00  0.00    -0.248 NA
ATOM     45  C   UNL A   1      37.649  34.104  32.817  1.00  0.00     0.031 C 
ATOM     46  C   UNL A   1      37.641  30.870  28.957  1.00  0.00     0.029 A 
ATOM     47  N   UNL A   1      39.252  30.636  30.490  1.00  0.00    -0.354 N 
ATOM     48  C   UNL A   1      39.583  33.407  33.800  1.00  0.00     0.074 A 
ATOM     49  C   UNL A   1      38.538  34.402  33.750  1.00  0.00     0.031 C 
ATOM     50  C   UNL A   1      38.394  29.818  28.592  1.00  0.00     0.029 A 
ATOM     51  C   UNL A   1      39.461  29.636  29.570  1.00  0.00     0.049 A 
ATOM     52  H   UNL A   1      39.833  30.779  31.271  1.00  0.00     0.167 HD
ATOM     53  C   UNL A   1      40.542  33.366  34.754  1.00  0.00     0.031 A 
ATOM     54  C   UNL A   1      40.404  28.678  29.532  1.00  0.00     0.031 A 
ATOM     55  C   UNL A   1      41.543  32.341  34.835  1.00  0.00     0.049 A 
ATOM     56  C   UNL A   1      41.431  28.623  30.628  1.00  0.00     0.074 A 
ATOM     57  C   UNL A   1      42.503  32.148  35.810  1.00  0.00     0.029 A 
ATOM     58  N   UNL A   1      41.701  31.328  33.903  1.00  0.00    -0.354 N 
ATOM     59  N   UNL A   1      41.569  29.407  31.671  1.00  0.00    -0.248 NA
ATOM     60  C   UNL A   1      42.426  27.544  30.548  1.00  0.00     0.031 C 
ATOM     61  C   UNL A   1      43.266  31.033  35.450  1.00  0.00     0.029 A 
ATOM     62  C   UNL A   1      42.754  30.511  34.272  1.00  0.00     0.049 A 
ATOM     63  H   UNL A   1      41.147  31.207  33.098  1.00  0.00     0.167 HD
ATOM     64  C   UNL A   1      42.646  28.900  32.385  1.00  0.00     0.074 A 
ATOM     65  C   UNL A   1      43.118  27.737  31.663  1.00  0.00     0.031 C 
ATOM     66  C   UNL A   1      43.196  29.356  33.537  1.00  0.00     0.031 A 
BRANCH  53  67
ATOM     67  C   UNL A   1      40.535  34.463  35.780  1.00  0.00    -0.014 A 
ATOM     68  C   UNL A   1      41.346  35.601  35.637  1.00  0.00     0.009 A 
ATOM     69  C   UNL A   1      39.711  34.353  36.909  1.00  0.00     0.009 A 
ATOM     70  C   UNL A   1      41.366  36.584  36.627  1.00  0.00     0.001 A 
ATOM     71  C   UNL A   1      39.711  35.353  37.883  1.00  0.00     0.001 A 
ATOM     72  C   UNL A   1      40.546  36.460  37.748  1.00  0.00     0.000 A 
ENDBRANCH  53  67
BRANCH  54  73
ATOM     73  C   UNL A   1      40.395  27.661  28.450  1.00  0.00    -0.014 A 
ATOM     74  C   UNL A   1      41.093  27.896  27.255  1.00  0.00     0.009 A 
ATOM     75  C   UNL A   1      39.689  26.457  28.598  1.00  0.00     0.009 A 
ATOM     76  C   UNL A   1      41.065  26.959  26.221  1.00  0.00     0.001 A 
ATOM     77  C   UNL A   1      39.682  25.512  27.570  1.00  0.00     0.001 A 
ATOM     78  C   UNL A   1      40.363  25.766  26.380  1.00  0.00     0.000 A 
ENDBRANCH  54  73
BRANCH  66  79
ATOM     79  C   UNL A   1      44.345  28.573  34.101  1.00  0.00    -0.014 A 
ATOM     80  C   UNL A   1      45.667  28.856  33.729  1.00  0.00     0.009 A 
ATOM     81  C   UNL A   1      44.099  27.575  35.057  1.00  0.00     0.009 A 
ATOM     82  C   UNL A   1      46.723  28.132  34.286  1.00  0.00     0.001 A 
ATOM     83  C   UNL A   1      45.158  26.871  35.630  1.00  0.00     0.001 A 
ATOM     84  C   UNL A   1      46.468  27.144  35.238  1.00  0.00     0.000 A 
ENDBRANCH  66  79
ENDBRANCH  40  41
ENDBRANCH  32  35
ENDBRANCH  30  31
ENDBRANCH  29  30
ENDBRANCH  28  29
ENDBRANCH   1  28
TORSDOF 17
ENDMDL
