MODEL 1
REMARK VINA RESULT:      -8.2      0.000      0.000
REMARK SMILES CC(C)[C@H](C(=O)NCCCCNC(=O)c1ccc(-c2c3nc(c(-c4ccccc4)c4ccc([nH]4)c(-c4ccccc4)c4nc(c(-c5ccccc5)c5ccc2[nH]5)C=C4)C=C3)cc1)[C@H](C)[C@@H](C)O
REMARK SMILES IDX 9 1 8 2 7 3 5 4 6 5 4 7 2 8 1 9 3 10 63 11 64 12 65 13 66 14
REMARK SMILES IDX 67 15 10 17 11 18 12 19 13 20 14 22 15 23 16 24 62 25 17 26
REMARK SMILES IDX 61 27 18 28 19 29 20 30 55 31 21 32 60 33 54 34 56 35 22 36
REMARK SMILES IDX 59 37 53 38 52 39 23 41 45 42 30 43 44 44 31 45 34 46 43 47
REMARK SMILES IDX 57 48 32 49 33 50 42 52 58 53 35 54 24 55 25 56 29 57 26 58
REMARK SMILES IDX 28 59 27 60 46 61 47 62 51 63 48 64 50 65 49 66 36 67 37 68
REMARK SMILES IDX 41 69 38 70 40 71 39 72
REMARK H PARENT 7 6 67 16 12 21 56 40 34 51
REMARK Flexibility Score: inf
ROOT
ATOM      1  C   UNL A   1      34.851  32.389  31.088  1.00  0.00     0.023 C 
ENDROOT
BRANCH   1   2
ATOM      2  C   UNL A   1      36.253  32.690  31.619  1.00  0.00     0.116 C 
BRANCH   2   3
ATOM      3  N   UNL A   1      36.296  32.685  33.064  1.00  0.00    -0.356 N 
ATOM      4  C   UNL A   1      37.286  32.330  33.927  1.00  0.00     0.223 C 
ATOM      5  O   UNL A   1      36.957  32.312  35.113  1.00  0.00    -0.275 OA
ATOM      6  H   UNL A   1      35.467  32.992  33.499  1.00  0.00     0.163 HD
BRANCH   4   7
ATOM      7  C   UNL A   1      38.679  31.900  33.420  1.00  0.00     0.086 C 
BRANCH   7   8
ATOM      8  C   UNL A   1      39.816  32.962  33.634  1.00  0.00    -0.005 C 
ATOM      9  C   UNL A   1      39.814  34.172  32.698  1.00  0.00     0.008 C 
ATOM     10  C   UNL A   1      39.963  33.441  35.084  1.00  0.00     0.008 C 
ENDBRANCH   7   8
BRANCH   7  11
ATOM     11  C   UNL A   1      39.033  30.402  33.783  1.00  0.00     0.027 C 
ATOM     12  C   UNL A   1      40.565  30.252  33.871  1.00  0.00     0.011 C 
BRANCH  11  13
ATOM     13  C   UNL A   1      38.421  29.292  32.889  1.00  0.00     0.115 C 
ATOM     14  C   UNL A   1      39.355  28.101  32.666  1.00  0.00     0.038 C 
BRANCH  13  15
ATOM     15  O   UNL A   1      37.225  28.789  33.470  1.00  0.00    -0.393 OA
ATOM     16  H   UNL A   1      36.599  29.517  33.604  1.00  0.00     0.210 HD
ENDBRANCH  13  15
ENDBRANCH  11  13
ENDBRANCH   7  11
ENDBRANCH   4   7
ENDBRANCH   2   3
ENDBRANCH   1   2
BRANCH   1  17
ATOM     17  C   UNL A   1      34.337  33.330  29.990  1.00  0.00     0.023 C 
BRANCH  17  18
ATOM     18  C   UNL A   1      34.613  32.891  28.555  1.00  0.00     0.116 C 
BRANCH  18  19
ATOM     19  N   UNL A   1      33.922  31.660  28.208  1.00  0.00    -0.352 N 
ATOM     20  C   UNL A   1      34.405  30.398  27.969  1.00  0.00     0.251 C 
ATOM     21  H   UNL A   1      32.944  31.747  28.130  1.00  0.00     0.163 HD
ATOM     22  O   UNL A   1      33.646  29.543  27.517  1.00  0.00    -0.269 OA
BRANCH  20  23
ATOM     23  C   UNL A   1      35.822  30.049  28.224  1.00  0.00     0.039 A 
ATOM     24  C   UNL A   1      36.166  29.553  29.485  1.00  0.00     0.014 A 
ATOM     25  C   UNL A   1      36.822  30.254  27.268  1.00  0.00     0.014 A 
ATOM     26  C   UNL A   1      37.491  29.211  29.767  1.00  0.00     0.010 A 
ATOM     27  C   UNL A   1      38.132  29.845  27.525  1.00  0.00     0.010 A 
ATOM     28  C   UNL A   1      38.483  29.325  28.779  1.00  0.00    -0.014 A 
BRANCH  28  29
ATOM     29  C   UNL A   1      39.876  28.883  29.057  1.00  0.00     0.031 A 
ATOM     30  C   UNL A   1      40.843  29.780  29.782  1.00  0.00     0.074 A 
ATOM     31  C   UNL A   1      40.281  27.669  28.635  1.00  0.00     0.049 A 
ATOM     32  N   UNL A   1      42.076  29.532  30.153  1.00  0.00    -0.248 NA
ATOM     33  C   UNL A   1      40.377  31.133  30.117  1.00  0.00     0.031 C 
ATOM     34  C   UNL A   1      39.465  26.722  27.871  1.00  0.00     0.029 A 
ATOM     35  N   UNL A   1      41.480  27.021  28.795  1.00  0.00    -0.354 N 
ATOM     36  C   UNL A   1      42.532  30.699  30.754  1.00  0.00     0.074 A 
ATOM     37  C   UNL A   1      41.464  31.669  30.654  1.00  0.00     0.031 C 
ATOM     38  C   UNL A   1      40.171  25.598  27.669  1.00  0.00     0.029 A 
ATOM     39  C   UNL A   1      41.496  25.755  28.260  1.00  0.00     0.049 A 
ATOM     40  H   UNL A   1      42.254  27.422  29.251  1.00  0.00     0.167 HD
ATOM     41  C   UNL A   1      43.724  30.938  31.354  1.00  0.00     0.031 A 
ATOM     42  C   UNL A   1      42.463  24.819  28.253  1.00  0.00     0.031 A 
ATOM     43  C   UNL A   1      44.789  29.975  31.461  1.00  0.00     0.049 A 
ATOM     44  C   UNL A   1      43.769  25.101  28.940  1.00  0.00     0.074 A 
ATOM     45  C   UNL A   1      46.012  30.108  32.099  1.00  0.00     0.029 A 
ATOM     46  N   UNL A   1      44.763  28.703  30.912  1.00  0.00    -0.354 N 
ATOM     47  N   UNL A   1      44.152  26.181  29.576  1.00  0.00    -0.248 NA
ATOM     48  C   UNL A   1      44.767  24.023  28.924  1.00  0.00     0.031 C 
ATOM     49  C   UNL A   1      46.742  28.932  31.897  1.00  0.00     0.029 A 
ATOM     50  C   UNL A   1      45.953  28.047  31.180  1.00  0.00     0.049 A 
ATOM     51  H   UNL A   1      44.009  28.323  30.406  1.00  0.00     0.167 HD
ATOM     52  C   UNL A   1      45.424  25.903  30.060  1.00  0.00     0.074 A 
ATOM     53  C   UNL A   1      45.737  24.546  29.661  1.00  0.00     0.031 C 
ATOM     54  C   UNL A   1      46.258  26.701  30.771  1.00  0.00     0.031 A 
BRANCH  41  55
ATOM     55  C   UNL A   1      43.939  32.306  31.943  1.00  0.00    -0.014 A 
ATOM     56  C   UNL A   1      44.476  33.352  31.175  1.00  0.00     0.009 A 
ATOM     57  C   UNL A   1      43.564  32.564  33.270  1.00  0.00     0.009 A 
ATOM     58  C   UNL A   1      44.670  34.616  31.736  1.00  0.00     0.001 A 
ATOM     59  C   UNL A   1      43.732  33.837  33.820  1.00  0.00     0.001 A 
ATOM     60  C   UNL A   1      44.294  34.858  33.056  1.00  0.00     0.000 A 
ENDBRANCH  41  55
BRANCH  42  61
ATOM     61  C   UNL A   1      42.218  23.503  27.608  1.00  0.00    -0.014 A 
ATOM     62  C   UNL A   1      41.586  22.469  28.315  1.00  0.00     0.009 A 
ATOM     63  C   UNL A   1      42.621  23.272  26.283  1.00  0.00     0.009 A 
ATOM     64  C   UNL A   1      41.387  21.222  27.720  1.00  0.00     0.001 A 
ATOM     65  C   UNL A   1      42.395  22.033  25.681  1.00  0.00     0.001 A 
ATOM     66  C   UNL A   1      41.788  21.006  26.401  1.00  0.00     0.000 A 
ENDBRANCH  42  61
BRANCH  54  67
ATOM     67  C   UNL A   1      47.575  26.109  31.188  1.00  0.00    -0.014 A 
ATOM     68  C   UNL A   1      48.658  26.033  30.297  1.00  0.00     0.009 A 
ATOM     69  C   UNL A   1      47.737  25.628  32.497  1.00  0.00     0.009 A 
ATOM     70  C   UNL A   1      49.860  25.444  30.696  1.00  0.00     0.001 A 
ATOM     71  C   UNL A   1      48.949  25.067  32.901  1.00  0.00     0.001 A 
ATOM     72  C   UNL A   1      50.006  24.964  31.997  1.00  0.00     0.000 A 
ENDBRANCH  54  67
ENDBRANCH  28  29
ENDBRANCH  20  23
ENDBRANCH  18  19
ENDBRANCH  17  18
ENDBRANCH   1  17
TORSDOF 15
ENDMDL
MODEL 2
REMARK VINA RESULT:      -8.1      4.270      9.801
REMARK SMILES CC(C)[C@H](C(=O)NCCCCNC(=O)c1ccc(-c2c3nc(c(-c4ccccc4)c4ccc([nH]4)c(-c4ccccc4)c4nc(c(-c5ccccc5)c5ccc2[nH]5)C=C4)C=C3)cc1)[C@H](C)[C@@H](C)O
REMARK SMILES IDX 9 1 8 2 7 3 5 4 6 5 4 7 2 8 1 9 3 10 63 11 64 12 65 13 66 14
REMARK SMILES IDX 67 15 10 17 11 18 12 19 13 20 14 22 15 23 16 24 62 25 17 26
REMARK SMILES IDX 61 27 18 28 19 29 20 30 55 31 21 32 60 33 54 34 56 35 22 36
REMARK SMILES IDX 59 37 53 38 52 39 23 41 45 42 30 43 44 44 31 45 34 46 43 47
REMARK SMILES IDX 57 48 32 49 33 50 42 52 58 53 35 54 24 55 25 56 29 57 26 58
REMARK SMILES IDX 28 59 27 60 46 61 47 62 51 63 48 64 50 65 49 66 36 67 37 68
REMARK SMILES IDX 41 69 38 70 40 71 39 72
REMARK H PARENT 7 6 67 16 12 21 56 40 34 51
REMARK Flexibility Score: inf
ROOT
ATOM      1  C   UNL A   1      37.015  20.342  24.618  1.00  0.00     0.023 C 
ENDROOT
BRANCH   1   2
ATOM      2  C   UNL A   1      37.236  21.839  24.835  1.00  0.00     0.116 C 
BRANCH   2   3
ATOM      3  N   UNL A   1      36.586  22.634  23.817  1.00  0.00    -0.356 N 
ATOM      4  C   UNL A   1      35.271  22.905  23.600  1.00  0.00     0.223 C 
ATOM      5  O   UNL A   1      35.033  23.512  22.555  1.00  0.00    -0.275 OA
ATOM      6  H   UNL A   1      37.200  23.050  23.170  1.00  0.00     0.163 HD
BRANCH   4   7
ATOM      7  C   UNL A   1      34.176  22.400  24.563  1.00  0.00     0.086 C 
BRANCH   7   8
ATOM      8  C   UNL A   1      33.851  23.365  25.758  1.00  0.00    -0.005 C 
ATOM      9  C   UNL A   1      34.180  22.856  27.163  1.00  0.00     0.008 C 
ATOM     10  C   UNL A   1      34.407  24.785  25.589  1.00  0.00     0.008 C 
ENDBRANCH   7   8
BRANCH   7  11
ATOM     11  C   UNL A   1      32.937  21.766  23.811  1.00  0.00     0.027 C 
ATOM     12  C   UNL A   1      31.808  22.812  23.724  1.00  0.00     0.011 C 
BRANCH  11  13
ATOM     13  C   UNL A   1      32.397  20.415  24.350  1.00  0.00     0.115 C 
ATOM     14  C   UNL A   1      33.494  19.388  24.637  1.00  0.00     0.038 C 
BRANCH  13  15
ATOM     15  O   UNL A   1      31.676  20.614  25.559  1.00  0.00    -0.393 OA
ATOM     16  H   UNL A   1      32.295  20.631  26.305  1.00  0.00     0.210 HD
ENDBRANCH  13  15
ENDBRANCH  11  13
ENDBRANCH   7  11
ENDBRANCH   4   7
ENDBRANCH   2   3
ENDBRANCH   1   2
BRANCH   1  17
ATOM     17  C   UNL A   1      38.170  19.428  25.052  1.00  0.00     0.023 C 
BRANCH  17  18
ATOM     18  C   UNL A   1      39.319  20.112  25.788  1.00  0.00     0.116 C 
BRANCH  18  19
ATOM     19  N   UNL A   1      40.468  19.239  25.961  1.00  0.00    -0.352 N 
ATOM     20  C   UNL A   1      41.765  19.522  26.306  1.00  0.00     0.251 C 
ATOM     21  H   UNL A   1      40.284  18.284  25.803  1.00  0.00     0.163 HD
ATOM     22  O   UNL A   1      42.613  18.637  26.221  1.00  0.00    -0.269 OA
BRANCH  20  23
ATOM     23  C   UNL A   1      42.169  20.874  26.758  1.00  0.00     0.039 A 
ATOM     24  C   UNL A   1      42.596  21.794  25.796  1.00  0.00     0.014 A 
ATOM     25  C   UNL A   1      42.189  21.231  28.110  1.00  0.00     0.014 A 
ATOM     26  C   UNL A   1      42.986  23.080  26.179  1.00  0.00     0.010 A 
ATOM     27  C   UNL A   1      42.508  22.538  28.485  1.00  0.00     0.010 A 
ATOM     28  C   UNL A   1      42.916  23.475  27.525  1.00  0.00    -0.014 A 
BRANCH  28  29
ATOM     29  C   UNL A   1      43.253  24.870  27.918  1.00  0.00     0.031 A 
ATOM     30  C   UNL A   1      42.174  25.886  28.175  1.00  0.00     0.074 A 
ATOM     31  C   UNL A   1      44.548  25.231  28.025  1.00  0.00     0.049 A 
ATOM     32  N   UNL A   1      42.291  27.128  28.577  1.00  0.00    -0.248 NA
ATOM     33  C   UNL A   1      40.787  25.463  27.932  1.00  0.00     0.031 C 
ATOM     34  C   UNL A   1      45.695  24.363  27.750  1.00  0.00     0.029 A 
ATOM     35  N   UNL A   1      45.115  26.422  28.403  1.00  0.00    -0.354 N 
ATOM     36  C   UNL A   1      40.998  27.635  28.625  1.00  0.00     0.074 A 
ATOM     37  C   UNL A   1      40.117  26.583  28.164  1.00  0.00     0.031 C 
ATOM     38  C   UNL A   1      46.827  25.036  28.010  1.00  0.00     0.029 A 
ATOM     39  C   UNL A   1      46.488  26.389  28.441  1.00  0.00     0.049 A 
ATOM     40  H   UNL A   1      44.590  27.223  28.627  1.00  0.00     0.167 HD
ATOM     41  C   UNL A   1      40.576  28.856  29.034  1.00  0.00     0.031 A 
ATOM     42  C   UNL A   1      47.379  27.334  28.794  1.00  0.00     0.031 A 
ATOM     43  C   UNL A   1      41.447  29.905  29.497  1.00  0.00     0.049 A 
ATOM     44  C   UNL A   1      46.886  28.675  29.260  1.00  0.00     0.074 A 
ATOM     45  C   UNL A   1      41.107  31.157  29.984  1.00  0.00     0.029 A 
ATOM     46  N   UNL A   1      42.830  29.828  29.527  1.00  0.00    -0.354 N 
ATOM     47  N   UNL A   1      45.655  29.108  29.378  1.00  0.00    -0.248 NA
ATOM     48  C   UNL A   1      47.910  29.649  29.662  1.00  0.00     0.031 C 
ATOM     49  C   UNL A   1      42.288  31.853  30.266  1.00  0.00     0.029 A 
ATOM     50  C   UNL A   1      43.360  31.015  30.006  1.00  0.00     0.049 A 
ATOM     51  H   UNL A   1      43.358  29.045  29.248  1.00  0.00     0.167 HD
ATOM     52  C   UNL A   1      45.754  30.393  29.894  1.00  0.00     0.074 A 
ATOM     53  C   UNL A   1      47.165  30.661  30.085  1.00  0.00     0.031 C 
ATOM     54  C   UNL A   1      44.765  31.274  30.183  1.00  0.00     0.031 A 
BRANCH  41  55
ATOM     55  C   UNL A   1      39.096  29.125  28.994  1.00  0.00    -0.014 A 
ATOM     56  C   UNL A   1      38.288  28.910  30.123  1.00  0.00     0.009 A 
ATOM     57  C   UNL A   1      38.507  29.635  27.827  1.00  0.00     0.009 A 
ATOM     58  C   UNL A   1      36.915  29.163  30.070  1.00  0.00     0.001 A 
ATOM     59  C   UNL A   1      37.139  29.915  27.786  1.00  0.00     0.001 A 
ATOM     60  C   UNL A   1      36.344  29.669  28.904  1.00  0.00     0.000 A 
ENDBRANCH  41  55
BRANCH  42  61
ATOM     61  C   UNL A   1      48.834  27.035  28.760  1.00  0.00    -0.014 A 
ATOM     62  C   UNL A   1      49.584  27.279  27.600  1.00  0.00     0.009 A 
ATOM     63  C   UNL A   1      49.479  26.499  29.886  1.00  0.00     0.009 A 
ATOM     64  C   UNL A   1      50.944  26.965  27.557  1.00  0.00     0.001 A 
ATOM     65  C   UNL A   1      50.845  26.213  29.849  1.00  0.00     0.001 A 
ATOM     66  C   UNL A   1      51.575  26.437  28.683  1.00  0.00     0.000 A 
ENDBRANCH  42  61
BRANCH  54  67
ATOM     67  C   UNL A   1      45.179  32.596  30.767  1.00  0.00    -0.014 A 
ATOM     68  C   UNL A   1      45.313  32.774  32.153  1.00  0.00     0.009 A 
ATOM     69  C   UNL A   1      45.450  33.678  29.913  1.00  0.00     0.009 A 
ATOM     70  C   UNL A   1      45.663  34.022  32.674  1.00  0.00     0.001 A 
ATOM     71  C   UNL A   1      45.828  34.915  30.436  1.00  0.00     0.001 A 
ATOM     72  C   UNL A   1      45.922  35.090  31.816  1.00  0.00     0.000 A 
ENDBRANCH  54  67
ENDBRANCH  28  29
ENDBRANCH  20  23
ENDBRANCH  18  19
ENDBRANCH  17  18
ENDBRANCH   1  17
TORSDOF 15
ENDMDL
MODEL 3
REMARK VINA RESULT:      -7.9      3.245      8.751
REMARK SMILES CC(C)[C@H](C(=O)NCCCCNC(=O)c1ccc(-c2c3nc(c(-c4ccccc4)c4ccc([nH]4)c(-c4ccccc4)c4nc(c(-c5ccccc5)c5ccc2[nH]5)C=C4)C=C3)cc1)[C@H](C)[C@@H](C)O
REMARK SMILES IDX 9 1 8 2 7 3 5 4 6 5 4 7 2 8 1 9 3 10 63 11 64 12 65 13 66 14
REMARK SMILES IDX 67 15 10 17 11 18 12 19 13 20 14 22 15 23 16 24 62 25 17 26
REMARK SMILES IDX 61 27 18 28 19 29 20 30 55 31 21 32 60 33 54 34 56 35 22 36
REMARK SMILES IDX 59 37 53 38 52 39 23 41 45 42 30 43 44 44 31 45 34 46 43 47
REMARK SMILES IDX 57 48 32 49 33 50 42 52 58 53 35 54 24 55 25 56 29 57 26 58
REMARK SMILES IDX 28 59 27 60 46 61 47 62 51 63 48 64 50 65 49 66 36 67 37 68
REMARK SMILES IDX 41 69 38 70 40 71 39 72
REMARK H PARENT 7 6 67 16 12 21 56 40 34 51
REMARK Flexibility Score: inf
ROOT
ATOM      1  C   UNL A   1      32.792  28.709  24.787  1.00  0.00     0.023 C 
ENDROOT
BRANCH   1   2
ATOM      2  C   UNL A   1      34.023  28.106  24.110  1.00  0.00     0.116 C 
BRANCH   2   3
ATOM      3  N   UNL A   1      33.713  27.570  22.804  1.00  0.00    -0.356 N 
ATOM      4  C   UNL A   1      33.449  26.298  22.400  1.00  0.00     0.223 C 
ATOM      5  O   UNL A   1      33.356  26.150  21.181  1.00  0.00    -0.275 OA
ATOM      6  H   UNL A   1      33.689  28.240  22.082  1.00  0.00     0.163 HD
BRANCH   4   7
ATOM      7  C   UNL A   1      33.368  25.134  23.411  1.00  0.00     0.086 C 
BRANCH   7   8
ATOM      8  C   UNL A   1      31.937  24.871  24.000  1.00  0.00    -0.005 C 
ATOM      9  C   UNL A   1      31.833  24.726  25.520  1.00  0.00     0.008 C 
ATOM     10  C   UNL A   1      30.864  25.851  23.509  1.00  0.00     0.008 C 
ENDBRANCH   7   8
BRANCH   7  11
ATOM     11  C   UNL A   1      34.189  23.862  22.954  1.00  0.00     0.027 C 
ATOM     12  C   UNL A   1      33.208  22.768  22.487  1.00  0.00     0.011 C 
BRANCH  11  13
ATOM     13  C   UNL A   1      35.219  23.285  23.960  1.00  0.00     0.115 C 
ATOM     14  C   UNL A   1      36.532  22.848  23.308  1.00  0.00     0.038 C 
BRANCH  13  15
ATOM     15  O   UNL A   1      35.541  24.251  24.953  1.00  0.00    -0.393 OA
ATOM     16  H   UNL A   1      34.725  24.650  25.291  1.00  0.00     0.210 HD
ENDBRANCH  13  15
ENDBRANCH  11  13
ENDBRANCH   7  11
ENDBRANCH   4   7
ENDBRANCH   2   3
ENDBRANCH   1   2
BRANCH   1  17
ATOM     17  C   UNL A   1      32.547  28.269  26.237  1.00  0.00     0.023 C 
BRANCH  17  18
ATOM     18  C   UNL A   1      33.664  28.588  27.227  1.00  0.00     0.116 C 
BRANCH  18  19
ATOM     19  N   UNL A   1      33.677  29.988  27.619  1.00  0.00    -0.352 N 
ATOM     20  C   UNL A   1      34.642  30.733  28.249  1.00  0.00     0.251 C 
ATOM     21  H   UNL A   1      32.857  30.484  27.395  1.00  0.00     0.163 HD
ATOM     22  O   UNL A   1      34.364  31.864  28.639  1.00  0.00    -0.269 OA
BRANCH  20  23
ATOM     23  C   UNL A   1      36.003  30.196  28.487  1.00  0.00     0.039 A 
ATOM     24  C   UNL A   1      36.932  30.258  27.444  1.00  0.00     0.014 A 
ATOM     25  C   UNL A   1      36.361  29.587  29.694  1.00  0.00     0.014 A 
ATOM     26  C   UNL A   1      38.226  29.763  27.627  1.00  0.00     0.010 A 
ATOM     27  C   UNL A   1      37.675  29.160  29.901  1.00  0.00     0.010 A 
ATOM     28  C   UNL A   1      38.620  29.238  28.868  1.00  0.00    -0.014 A 
BRANCH  28  29
ATOM     29  C   UNL A   1      40.022  28.788  29.084  1.00  0.00     0.031 A 
ATOM     30  C   UNL A   1      40.461  27.404  28.690  1.00  0.00     0.074 A 
ATOM     31  C   UNL A   1      40.904  29.629  29.659  1.00  0.00     0.049 A 
ATOM     32  N   UNL A   1      41.656  26.869  28.758  1.00  0.00    -0.248 NA
ATOM     33  C   UNL A   1      39.427  26.496  28.172  1.00  0.00     0.031 C 
ATOM     34  C   UNL A   1      40.598  30.978  30.141  1.00  0.00     0.029 A 
ATOM     35  N   UNL A   1      42.241  29.475  29.929  1.00  0.00    -0.354 N 
ATOM     36  C   UNL A   1      41.513  25.564  28.303  1.00  0.00     0.074 A 
ATOM     37  C   UNL A   1      40.110  25.372  28.008  1.00  0.00     0.031 C 
ATOM     38  C   UNL A   1      41.724  31.544  30.606  1.00  0.00     0.029 A 
ATOM     39  C   UNL A   1      42.821  30.590  30.483  1.00  0.00     0.049 A 
ATOM     40  H   UNL A   1      42.737  28.646  29.742  1.00  0.00     0.167 HD
ATOM     41  C   UNL A   1      42.465  24.615  28.124  1.00  0.00     0.031 A 
ATOM     42  C   UNL A   1      44.097  30.828  30.843  1.00  0.00     0.031 A 
ATOM     43  C   UNL A   1      43.863  24.801  28.411  1.00  0.00     0.049 A 
ATOM     44  C   UNL A   1      45.136  29.766  30.619  1.00  0.00     0.074 A 
ATOM     45  C   UNL A   1      44.910  23.916  28.211  1.00  0.00     0.029 A 
ATOM     46  N   UNL A   1      44.411  25.947  28.964  1.00  0.00    -0.354 N 
ATOM     47  N   UNL A   1      44.997  28.567  30.109  1.00  0.00    -0.248 NA
ATOM     48  C   UNL A   1      46.514  30.103  31.004  1.00  0.00     0.031 C 
ATOM     49  C   UNL A   1      46.085  24.511  28.685  1.00  0.00     0.029 A 
ATOM     50  C   UNL A   1      45.777  25.787  29.130  1.00  0.00     0.049 A 
ATOM     51  H   UNL A   1      43.904  26.756  29.204  1.00  0.00     0.167 HD
ATOM     52  C   UNL A   1      46.272  28.017  30.085  1.00  0.00     0.074 A 
ATOM     53  C   UNL A   1      47.173  29.022  30.612  1.00  0.00     0.031 C 
ATOM     54  C   UNL A   1      46.662  26.789  29.664  1.00  0.00     0.031 A 
BRANCH  41  55
ATOM     55  C   UNL A   1      42.018  23.280  27.593  1.00  0.00    -0.014 A 
ATOM     56  C   UNL A   1      41.506  22.291  28.448  1.00  0.00     0.009 A 
ATOM     57  C   UNL A   1      42.073  23.021  26.215  1.00  0.00     0.009 A 
ATOM     58  C   UNL A   1      41.096  21.057  27.940  1.00  0.00     0.001 A 
ATOM     59  C   UNL A   1      41.635  21.796  25.705  1.00  0.00     0.001 A 
ATOM     60  C   UNL A   1      41.157  20.812  26.569  1.00  0.00     0.000 A 
ENDBRANCH  41  55
BRANCH  42  61
ATOM     61  C   UNL A   1      44.474  32.145  31.417  1.00  0.00    -0.014 A 
ATOM     62  C   UNL A   1      44.881  33.196  30.580  1.00  0.00     0.009 A 
ATOM     63  C   UNL A   1      44.435  32.358  32.804  1.00  0.00     0.009 A 
ATOM     64  C   UNL A   1      45.269  34.423  31.122  1.00  0.00     0.001 A 
ATOM     65  C   UNL A   1      44.796  33.595  33.340  1.00  0.00     0.001 A 
ATOM     66  C   UNL A   1      45.222  34.623  32.501  1.00  0.00     0.000 A 
ENDBRANCH  42  61
BRANCH  54  67
ATOM     67  C   UNL A   1      48.132  26.482  29.729  1.00  0.00    -0.014 A 
ATOM     68  C   UNL A   1      48.702  25.867  30.855  1.00  0.00     0.009 A 
ATOM     69  C   UNL A   1      48.958  26.806  28.640  1.00  0.00     0.009 A 
ATOM     70  C   UNL A   1      50.077  25.626  30.908  1.00  0.00     0.001 A 
ATOM     71  C   UNL A   1      50.326  26.536  28.685  1.00  0.00     0.001 A 
ATOM     72  C   UNL A   1      50.887  25.958  29.823  1.00  0.00     0.000 A 
ENDBRANCH  54  67
ENDBRANCH  28  29
ENDBRANCH  20  23
ENDBRANCH  18  19
ENDBRANCH  17  18
ENDBRANCH   1  17
TORSDOF 15
ENDMDL
