MODEL 1
REMARK VINA RESULT:     -10.5      0.000      0.000
REMARK SMILES O=C(NCCCCNC(=O)[C@H]1CC[C@H](CNC(=O)c2ccccc2O)O1)c1ccc(-c2c3nc(c(-c4ccccc4)c4ccc([nH]4)c(-c4ccccc4)c4nc(c(-c5ccccc5)c5ccc2[nH]5)C=C4)C=C3)cc1
REMARK SMILES IDX 6 1 5 2 4 3 3 4 1 5 2 6 27 8 28 9 74 10 29 11 73 12 30 13
REMARK SMILES IDX 31 14 32 15 67 16 33 17 72 18 66 19 68 20 34 21 71 22 65 23
REMARK SMILES IDX 64 24 35 26 57 27 42 28 56 29 43 30 46 31 55 32 69 33 44 34
REMARK SMILES IDX 45 35 54 37 70 38 47 39 36 40 37 41 41 42 38 43 40 44 39 45
REMARK SMILES IDX 58 46 59 47 63 48 60 49 62 50 61 51 48 52 49 53 53 54 50 55
REMARK SMILES IDX 52 56 51 57 7 58 8 59 9 60 10 62 11 63 12 64 26 65 13 66
REMARK SMILES IDX 14 67 15 68 16 69 17 70 18 72 19 73 20 74 24 75 21 76 23 77
REMARK SMILES IDX 22 78 25 79
REMARK H PARENT 3 7 68 25 46 36 8 61 16 71 25 80
REMARK Flexibility Score: inf
ROOT
ATOM      1  C   UNL A   1      33.234  29.111  24.739  1.00  0.00     0.023 C 
ENDROOT
BRANCH   1   2
ATOM      2  C   UNL A   1      33.946  28.166  25.711  1.00  0.00     0.023 C 
BRANCH   2   3
ATOM      3  C   UNL A   1      33.658  28.409  27.188  1.00  0.00     0.116 C 
BRANCH   3   4
ATOM      4  N   UNL A   1      33.537  29.820  27.517  1.00  0.00    -0.352 N 
ATOM      5  O   UNL A   1      34.145  31.790  28.435  1.00  0.00    -0.269 OA
ATOM      6  C   UNL A   1      34.459  30.650  28.106  1.00  0.00     0.251 C 
ATOM      7  H   UNL A   1      32.676  30.238  27.288  1.00  0.00     0.163 HD
BRANCH   6   8
ATOM      8  C   UNL A   1      35.827  30.155  28.368  1.00  0.00     0.039 A 
ATOM      9  C   UNL A   1      36.179  29.663  29.627  1.00  0.00     0.014 A 
ATOM     10  C   UNL A   1      36.768  30.188  27.334  1.00  0.00     0.014 A 
ATOM     11  C   UNL A   1      37.501  29.320  29.888  1.00  0.00     0.010 A 
ATOM     12  C   UNL A   1      38.078  29.773  27.579  1.00  0.00     0.010 A 
ATOM     13  C   UNL A   1      38.462  29.360  28.865  1.00  0.00    -0.014 A 
BRANCH  13  14
ATOM     14  C   UNL A   1      39.844  28.901  29.138  1.00  0.00     0.031 A 
ATOM     15  C   UNL A   1      40.846  29.798  29.807  1.00  0.00     0.074 A 
ATOM     16  C   UNL A   1      40.194  27.655  28.768  1.00  0.00     0.049 A 
ATOM     17  N   UNL A   1      42.097  29.553  30.108  1.00  0.00    -0.248 NA
ATOM     18  C   UNL A   1      40.390  31.146  30.180  1.00  0.00     0.031 C 
ATOM     19  C   UNL A   1      39.312  26.696  28.098  1.00  0.00     0.029 A 
ATOM     20  N   UNL A   1      41.379  26.979  28.906  1.00  0.00    -0.354 N 
ATOM     21  C   UNL A   1      42.585  30.719  30.683  1.00  0.00     0.074 A 
ATOM     22  C   UNL A   1      41.502  31.679  30.671  1.00  0.00     0.031 C 
ATOM     23  C   UNL A   1      39.977  25.548  27.905  1.00  0.00     0.029 A 
ATOM     24  C   UNL A   1      41.345  25.709  28.384  1.00  0.00     0.049 A 
ATOM     25  H   UNL A   1      42.175  27.366  29.336  1.00  0.00     0.167 HD
ATOM     26  C   UNL A   1      43.822  30.964  31.178  1.00  0.00     0.031 A 
ATOM     27  C   UNL A   1      42.312  24.781  28.277  1.00  0.00     0.031 A 
ATOM     28  C   UNL A   1      44.898  30.006  31.185  1.00  0.00     0.049 A 
ATOM     29  C   UNL A   1      43.681  25.086  28.808  1.00  0.00     0.074 A 
ATOM     30  C   UNL A   1      46.173  30.144  31.707  1.00  0.00     0.029 A 
ATOM     31  N   UNL A   1      44.829  28.736  30.631  1.00  0.00    -0.354 N 
ATOM     32  N   UNL A   1      44.111  26.175  29.397  1.00  0.00    -0.248 NA
ATOM     33  C   UNL A   1      44.696  24.035  28.660  1.00  0.00     0.031 C 
ATOM     34  C   UNL A   1      46.892  28.979  31.422  1.00  0.00     0.029 A 
ATOM     35  C   UNL A   1      46.049  28.093  30.770  1.00  0.00     0.049 A 
ATOM     36  H   UNL A   1      44.032  28.349  30.203  1.00  0.00     0.167 HD
ATOM     37  C   UNL A   1      45.443  25.938  29.703  1.00  0.00     0.074 A 
ATOM     38  C   UNL A   1      45.744  24.594  29.252  1.00  0.00     0.031 C 
ATOM     39  C   UNL A   1      46.336  26.762  30.303  1.00  0.00     0.031 A 
BRANCH  26  40
ATOM     40  C   UNL A   1      44.090  32.340  31.722  1.00  0.00    -0.014 A 
ATOM     41  C   UNL A   1      43.834  32.662  33.064  1.00  0.00     0.009 A 
ATOM     42  C   UNL A   1      44.641  33.323  30.883  1.00  0.00     0.009 A 
ATOM     43  C   UNL A   1      44.088  33.950  33.544  1.00  0.00     0.001 A 
ATOM     44  C   UNL A   1      44.918  34.600  31.373  1.00  0.00     0.001 A 
ATOM     45  C   UNL A   1      44.632  34.916  32.700  1.00  0.00     0.000 A 
ENDBRANCH  26  40
BRANCH  27  46
ATOM     46  C   UNL A   1      42.008  23.488  27.615  1.00  0.00    -0.014 A 
ATOM     47  C   UNL A   1      42.390  23.255  26.287  1.00  0.00     0.009 A 
ATOM     48  C   UNL A   1      41.372  22.461  28.332  1.00  0.00     0.009 A 
ATOM     49  C   UNL A   1      42.130  22.021  25.686  1.00  0.00     0.001 A 
ATOM     50  C   UNL A   1      41.141  21.220  27.738  1.00  0.00     0.001 A 
ATOM     51  C   UNL A   1      41.515  21.003  26.414  1.00  0.00     0.000 A 
ENDBRANCH  27  46
BRANCH  39  52
ATOM     52  C   UNL A   1      47.721  26.222  30.520  1.00  0.00    -0.014 A 
ATOM     53  C   UNL A   1      48.679  26.248  29.496  1.00  0.00     0.009 A 
ATOM     54  C   UNL A   1      48.081  25.715  31.779  1.00  0.00     0.009 A 
ATOM     55  C   UNL A   1      49.964  25.750  29.719  1.00  0.00     0.001 A 
ATOM     56  C   UNL A   1      49.374  25.242  32.006  1.00  0.00     0.001 A 
ATOM     57  C   UNL A   1      50.312  25.252  30.975  1.00  0.00     0.000 A 
ENDBRANCH  39  52
ENDBRANCH  13  14
ENDBRANCH   6   8
ENDBRANCH   3   4
ENDBRANCH   2   3
ENDBRANCH   1   2
BRANCH   1  58
ATOM     58  C   UNL A   1      33.613  28.923  23.271  1.00  0.00     0.116 C 
BRANCH  58  59
ATOM     59  N   UNL A   1      32.530  28.334  22.507  1.00  0.00    -0.354 N 
ATOM     60  C   UNL A   1      32.236  27.026  22.253  1.00  0.00     0.249 C 
ATOM     61  H   UNL A   1      31.907  28.982  22.107  1.00  0.00     0.163 HD
ATOM     62  O   UNL A   1      31.258  26.791  21.537  1.00  0.00    -0.272 OA
BRANCH  60  63
ATOM     63  C   UNL A   1      33.084  25.904  22.870  1.00  0.00     0.207 C 
ATOM     64  C   UNL A   1      32.308  25.210  23.984  1.00  0.00     0.045 C 
ATOM     65  O   UNL A   1      33.403  24.912  21.882  1.00  0.00    -0.363 OA
ATOM     66  C   UNL A   1      31.806  23.950  23.318  1.00  0.00     0.037 C 
ATOM     67  C   UNL A   1      32.907  23.634  22.321  1.00  0.00     0.138 C 
BRANCH  67  68
ATOM     68  C   UNL A   1      34.085  22.849  22.920  1.00  0.00     0.148 C 
BRANCH  68  69
ATOM     69  N   UNL A   1      33.683  21.892  23.934  1.00  0.00    -0.349 N 
ATOM     70  C   UNL A   1      34.376  21.472  25.041  1.00  0.00     0.255 C 
ATOM     71  H   UNL A   1      32.792  21.490  23.812  1.00  0.00     0.163 HD
ATOM     72  O   UNL A   1      33.913  20.580  25.750  1.00  0.00    -0.269 OA
BRANCH  70  73
ATOM     73  C   UNL A   1      35.714  22.020  25.346  1.00  0.00     0.081 A 
ATOM     74  C   UNL A   1      36.811  21.170  25.148  1.00  0.00     0.018 A 
ATOM     75  C   UNL A   1      35.916  23.306  25.858  1.00  0.00     0.128 A 
ATOM     76  C   UNL A   1      38.103  21.623  25.411  1.00  0.00     0.001 A 
ATOM     77  C   UNL A   1      37.212  23.762  26.114  1.00  0.00     0.047 A 
ATOM     78  C   UNL A   1      38.303  22.921  25.884  1.00  0.00     0.004 A 
BRANCH  75  79
ATOM     79  O   UNL A   1      34.854  24.130  26.111  1.00  0.00    -0.507 OA
ATOM     80  H   UNL A   1      34.658  24.385  26.991  1.00  0.00     0.293 HD
ENDBRANCH  75  79
ENDBRANCH  70  73
ENDBRANCH  68  69
ENDBRANCH  67  68
ENDBRANCH  60  63
ENDBRANCH  58  59
ENDBRANCH   1  58
TORSDOF 15
ENDMDL
MODEL 2
REMARK VINA RESULT:     -10.5      3.937      9.549
REMARK SMILES O=C(NCCCCNC(=O)[C@H]1CC[C@H](CNC(=O)c2ccccc2O)O1)c1ccc(-c2c3nc(c(-c4ccccc4)c4ccc([nH]4)c(-c4ccccc4)c4nc(c(-c5ccccc5)c5ccc2[nH]5)C=C4)C=C3)cc1
REMARK SMILES IDX 6 1 5 2 4 3 3 4 1 5 2 6 27 8 28 9 74 10 29 11 73 12 30 13
REMARK SMILES IDX 31 14 32 15 67 16 33 17 72 18 66 19 68 20 34 21 71 22 65 23
REMARK SMILES IDX 64 24 35 26 57 27 42 28 56 29 43 30 46 31 55 32 69 33 44 34
REMARK SMILES IDX 45 35 54 37 70 38 47 39 36 40 37 41 41 42 38 43 40 44 39 45
REMARK SMILES IDX 58 46 59 47 63 48 60 49 62 50 61 51 48 52 49 53 53 54 50 55
REMARK SMILES IDX 52 56 51 57 7 58 8 59 9 60 10 62 11 63 12 64 26 65 13 66
REMARK SMILES IDX 14 67 15 68 16 69 17 70 18 72 19 73 20 74 24 75 21 76 23 77
REMARK SMILES IDX 22 78 25 79
REMARK H PARENT 3 7 68 25 46 36 8 61 16 71 25 80
REMARK Flexibility Score: inf
ROOT
ATOM      1  C   UNL A   1      41.646  19.178  26.265  1.00  0.00     0.023 C 
ENDROOT
BRANCH   1   2
ATOM      2  C   UNL A   1      41.363  20.147  27.416  1.00  0.00     0.023 C 
BRANCH   2   3
ATOM      3  C   UNL A   1      41.014  21.572  27.000  1.00  0.00     0.116 C 
BRANCH   3   4
ATOM      4  N   UNL A   1      39.735  21.665  26.316  1.00  0.00    -0.352 N 
ATOM      5  O   UNL A   1      37.776  22.609  25.711  1.00  0.00    -0.269 OA
ATOM      6  C   UNL A   1      38.886  22.741  26.219  1.00  0.00     0.251 C 
ATOM      7  H   UNL A   1      39.435  20.846  25.860  1.00  0.00     0.163 HD
BRANCH   6   8
ATOM      8  C   UNL A   1      39.303  24.054  26.754  1.00  0.00     0.039 A 
ATOM      9  C   UNL A   1      40.020  24.953  25.960  1.00  0.00     0.014 A 
ATOM     10  C   UNL A   1      38.970  24.385  28.070  1.00  0.00     0.014 A 
ATOM     11  C   UNL A   1      40.511  26.127  26.519  1.00  0.00     0.010 A 
ATOM     12  C   UNL A   1      39.401  25.600  28.608  1.00  0.00     0.010 A 
ATOM     13  C   UNL A   1      40.196  26.469  27.844  1.00  0.00    -0.014 A 
BRANCH  13  14
ATOM     14  C   UNL A   1      40.649  27.769  28.393  1.00  0.00     0.031 A 
ATOM     15  C   UNL A   1      39.676  28.876  28.680  1.00  0.00     0.074 A 
ATOM     16  C   UNL A   1      41.963  27.946  28.630  1.00  0.00     0.049 A 
ATOM     17  N   UNL A   1      39.911  30.075  29.152  1.00  0.00    -0.248 NA
ATOM     18  C   UNL A   1      38.258  28.609  28.394  1.00  0.00     0.031 C 
ATOM     19  C   UNL A   1      43.006  26.948  28.377  1.00  0.00     0.029 A 
ATOM     20  N   UNL A   1      42.645  29.021  29.136  1.00  0.00    -0.354 N 
ATOM     21  C   UNL A   1      38.679  30.714  29.198  1.00  0.00     0.074 A 
ATOM     22  C   UNL A   1      37.701  29.777  28.688  1.00  0.00     0.031 C 
ATOM     23  C   UNL A   1      44.191  27.448  28.753  1.00  0.00     0.029 A 
ATOM     24  C   UNL A   1      44.001  28.817  29.217  1.00  0.00     0.049 A 
ATOM     25  H   UNL A   1      42.206  29.857  29.414  1.00  0.00     0.167 HD
ATOM     26  C   UNL A   1      38.391  31.965  29.630  1.00  0.00     0.031 A 
ATOM     27  C   UNL A   1      44.989  29.646  29.598  1.00  0.00     0.031 A 
ATOM     28  C   UNL A   1      39.369  32.896  30.133  1.00  0.00     0.049 A 
ATOM     29  C   UNL A   1      44.648  31.035  30.045  1.00  0.00     0.074 A 
ATOM     30  C   UNL A   1      39.168  34.169  30.639  1.00  0.00     0.029 A 
ATOM     31  N   UNL A   1      40.734  32.657  30.183  1.00  0.00    -0.354 N 
ATOM     32  N   UNL A   1      43.470  31.605  30.133  1.00  0.00    -0.248 NA
ATOM     33  C   UNL A   1      45.769  31.894  30.447  1.00  0.00     0.031 C 
ATOM     34  C   UNL A   1      40.416  34.721  30.944  1.00  0.00     0.029 A 
ATOM     35  C   UNL A   1      41.390  33.772  30.680  1.00  0.00     0.049 A 
ATOM     36  H   UNL A   1      41.171  31.820  29.907  1.00  0.00     0.167 HD
ATOM     37  C   UNL A   1      43.706  32.885  30.612  1.00  0.00     0.074 A 
ATOM     38  C   UNL A   1      45.137  33.001  30.814  1.00  0.00     0.031 C 
ATOM     39  C   UNL A   1      42.815  33.876  30.861  1.00  0.00     0.031 A 
BRANCH  26  40
ATOM     40  C   UNL A   1      36.959  32.416  29.540  1.00  0.00    -0.014 A 
ATOM     41  C   UNL A   1      36.074  32.269  30.620  1.00  0.00     0.009 A 
ATOM     42  C   UNL A   1      36.496  33.030  28.364  1.00  0.00     0.009 A 
ATOM     43  C   UNL A   1      34.747  32.692  30.510  1.00  0.00     0.001 A 
ATOM     44  C   UNL A   1      35.177  33.475  28.268  1.00  0.00     0.001 A 
ATOM     45  C   UNL A   1      34.300  33.297  29.337  1.00  0.00     0.000 A 
ENDBRANCH  26  40
BRANCH  27  46
ATOM     46  C   UNL A   1      46.395  29.173  29.543  1.00  0.00    -0.014 A 
ATOM     47  C   UNL A   1      46.977  28.526  30.641  1.00  0.00     0.009 A 
ATOM     48  C   UNL A   1      47.146  29.327  28.365  1.00  0.00     0.009 A 
ATOM     49  C   UNL A   1      48.289  28.052  30.565  1.00  0.00     0.001 A 
ATOM     50  C   UNL A   1      48.445  28.827  28.283  1.00  0.00     0.001 A 
ATOM     51  C   UNL A   1      49.018  28.195  29.384  1.00  0.00     0.000 A 
ENDBRANCH  27  46
BRANCH  39  52
ATOM     52  C   UNL A   1      43.365  35.168  31.395  1.00  0.00    -0.014 A 
ATOM     53  C   UNL A   1      43.805  36.182  30.531  1.00  0.00     0.009 A 
ATOM     54  C   UNL A   1      43.410  35.384  32.781  1.00  0.00     0.009 A 
ATOM     55  C   UNL A   1      44.304  37.380  31.047  1.00  0.00     0.001 A 
ATOM     56  C   UNL A   1      43.886  36.593  33.292  1.00  0.00     0.001 A 
ATOM     57  C   UNL A   1      44.339  37.586  32.426  1.00  0.00     0.000 A 
ENDBRANCH  39  52
ENDBRANCH  13  14
ENDBRANCH   6   8
ENDBRANCH   3   4
ENDBRANCH   2   3
ENDBRANCH   1   2
BRANCH   1  58
ATOM     58  C   UNL A   1      43.059  18.598  26.253  1.00  0.00     0.116 C 
BRANCH  58  59
ATOM     59  N   UNL A   1      43.726  18.830  24.986  1.00  0.00    -0.354 N 
ATOM     60  C   UNL A   1      44.283  19.966  24.475  1.00  0.00     0.249 C 
ATOM     61  H   UNL A   1      43.787  18.042  24.400  1.00  0.00     0.163 HD
ATOM     62  O   UNL A   1      44.769  19.902  23.342  1.00  0.00    -0.272 OA
BRANCH  60  63
ATOM     63  C   UNL A   1      44.320  21.256  25.306  1.00  0.00     0.207 C 
ATOM     64  C   UNL A   1      45.735  21.824  25.334  1.00  0.00     0.045 C 
ATOM     65  O   UNL A   1      43.465  22.254  24.728  1.00  0.00    -0.363 OA
ATOM     66  C   UNL A   1      45.679  22.933  24.309  1.00  0.00     0.037 C 
ATOM     67  C   UNL A   1      44.246  23.424  24.422  1.00  0.00     0.138 C 
BRANCH  67  68
ATOM     68  C   UNL A   1      44.024  24.449  25.545  1.00  0.00     0.148 C 
BRANCH  68  69
ATOM     69  N   UNL A   1      44.143  25.825  25.100  1.00  0.00    -0.349 N 
ATOM     70  C   UNL A   1      45.238  26.651  25.146  1.00  0.00     0.255 C 
ATOM     71  H   UNL A   1      43.328  26.221  24.714  1.00  0.00     0.163 HD
ATOM     72  O   UNL A   1      45.132  27.827  24.802  1.00  0.00    -0.269 OA
BRANCH  70  73
ATOM     73  C   UNL A   1      46.527  26.165  25.682  1.00  0.00     0.081 A 
ATOM     74  C   UNL A   1      46.533  25.703  27.005  1.00  0.00     0.018 A 
ATOM     75  C   UNL A   1      47.721  26.196  24.951  1.00  0.00     0.128 A 
ATOM     76  C   UNL A   1      47.714  25.226  27.573  1.00  0.00     0.001 A 
ATOM     77  C   UNL A   1      48.900  25.711  25.519  1.00  0.00     0.047 A 
ATOM     78  C   UNL A   1      48.893  25.221  26.827  1.00  0.00     0.004 A 
BRANCH  75  79
ATOM     79  O   UNL A   1      47.745  26.696  23.679  1.00  0.00    -0.507 OA
ATOM     80  H   UNL A   1      48.506  27.145  23.366  1.00  0.00     0.293 HD
ENDBRANCH  75  79
ENDBRANCH  70  73
ENDBRANCH  68  69
ENDBRANCH  67  68
ENDBRANCH  60  63
ENDBRANCH  58  59
ENDBRANCH   1  58
TORSDOF 15
ENDMDL
MODEL 3
REMARK VINA RESULT:     -10.4      3.880      9.704
REMARK SMILES O=C(NCCCCNC(=O)[C@H]1CC[C@H](CNC(=O)c2ccccc2O)O1)c1ccc(-c2c3nc(c(-c4ccccc4)c4ccc([nH]4)c(-c4ccccc4)c4nc(c(-c5ccccc5)c5ccc2[nH]5)C=C4)C=C3)cc1
REMARK SMILES IDX 6 1 5 2 4 3 3 4 1 5 2 6 27 8 28 9 74 10 29 11 73 12 30 13
REMARK SMILES IDX 31 14 32 15 67 16 33 17 72 18 66 19 68 20 34 21 71 22 65 23
REMARK SMILES IDX 64 24 35 26 57 27 42 28 56 29 43 30 46 31 55 32 69 33 44 34
REMARK SMILES IDX 45 35 54 37 70 38 47 39 36 40 37 41 41 42 38 43 40 44 39 45
REMARK SMILES IDX 58 46 59 47 63 48 60 49 62 50 61 51 48 52 49 53 53 54 50 55
REMARK SMILES IDX 52 56 51 57 7 58 8 59 9 60 10 62 11 63 12 64 26 65 13 66
REMARK SMILES IDX 14 67 15 68 16 69 17 70 18 72 19 73 20 74 24 75 21 76 23 77
REMARK SMILES IDX 22 78 25 79
REMARK H PARENT 3 7 68 25 46 36 8 61 16 71 25 80
REMARK Flexibility Score: inf
ROOT
ATOM      1  C   UNL A   1      41.563  19.128  26.097  1.00  0.00     0.023 C 
ENDROOT
BRANCH   1   2
ATOM      2  C   UNL A   1      41.137  20.105  27.196  1.00  0.00     0.023 C 
BRANCH   2   3
ATOM      3  C   UNL A   1      40.896  21.540  26.738  1.00  0.00     0.116 C 
BRANCH   3   4
ATOM      4  N   UNL A   1      39.588  21.729  26.134  1.00  0.00    -0.352 N 
ATOM      5  O   UNL A   1      37.646  22.794  25.694  1.00  0.00    -0.269 OA
ATOM      6  C   UNL A   1      38.788  22.846  26.144  1.00  0.00     0.251 C 
ATOM      7  H   UNL A   1      39.224  20.951  25.653  1.00  0.00     0.163 HD
BRANCH   6   8
ATOM      8  C   UNL A   1      39.297  24.107  26.724  1.00  0.00     0.039 A 
ATOM      9  C   UNL A   1      39.049  24.429  28.060  1.00  0.00     0.014 A 
ATOM     10  C   UNL A   1      40.033  24.975  25.913  1.00  0.00     0.014 A 
ATOM     11  C   UNL A   1      39.428  25.673  28.551  1.00  0.00     0.010 A 
ATOM     12  C   UNL A   1      40.477  26.194  26.429  1.00  0.00     0.010 A 
ATOM     13  C   UNL A   1      40.156  26.563  27.746  1.00  0.00    -0.014 A 
BRANCH  13  14
ATOM     14  C   UNL A   1      40.633  27.846  28.316  1.00  0.00     0.031 A 
ATOM     15  C   UNL A   1      42.089  28.083  28.592  1.00  0.00     0.074 A 
ATOM     16  C   UNL A   1      39.728  28.805  28.589  1.00  0.00     0.049 A 
ATOM     17  N   UNL A   1      42.668  29.144  29.098  1.00  0.00    -0.248 NA
ATOM     18  C   UNL A   1      43.017  26.988  28.269  1.00  0.00     0.031 C 
ATOM     19  C   UNL A   1      38.283  28.685  28.377  1.00  0.00     0.029 A 
ATOM     20  N   UNL A   1      39.887  30.067  29.099  1.00  0.00    -0.354 N 
ATOM     21  C   UNL A   1      44.020  28.839  29.175  1.00  0.00     0.074 A 
ATOM     22  C   UNL A   1      44.175  27.486  28.684  1.00  0.00     0.031 C 
ATOM     23  C   UNL A   1      37.691  29.835  28.730  1.00  0.00     0.029 A 
ATOM     24  C   UNL A   1      38.704  30.748  29.245  1.00  0.00     0.049 A 
ATOM     25  H   UNL A   1      40.763  30.447  29.338  1.00  0.00     0.167 HD
ATOM     26  C   UNL A   1      45.039  29.617  29.613  1.00  0.00     0.031 A 
ATOM     27  C   UNL A   1      38.452  31.965  29.761  1.00  0.00     0.031 A 
ATOM     28  C   UNL A   1      44.880  30.962  30.104  1.00  0.00     0.049 A 
ATOM     29  C   UNL A   1      39.593  32.797  30.264  1.00  0.00     0.074 A 
ATOM     30  C   UNL A   1      45.857  31.848  30.526  1.00  0.00     0.029 A 
ATOM     31  N   UNL A   1      43.663  31.610  30.252  1.00  0.00    -0.354 N 
ATOM     32  N   UNL A   1      40.873  32.513  30.281  1.00  0.00    -0.248 NA
ATOM     33  C   UNL A   1      39.256  34.114  30.818  1.00  0.00     0.031 C 
ATOM     34  C   UNL A   1      45.227  33.012  30.979  1.00  0.00     0.029 A 
ATOM     35  C   UNL A   1      43.862  32.872  30.790  1.00  0.00     0.049 A 
ATOM     36  H   UNL A   1      42.788  31.230  30.012  1.00  0.00     0.167 HD
ATOM     37  C   UNL A   1      41.497  33.621  30.834  1.00  0.00     0.074 A 
ATOM     38  C   UNL A   1      40.458  34.589  31.121  1.00  0.00     0.031 C 
ATOM     39  C   UNL A   1      42.816  33.818  31.083  1.00  0.00     0.031 A 
BRANCH  26  40
ATOM     40  C   UNL A   1      46.418  29.017  29.616  1.00  0.00    -0.014 A 
ATOM     41  C   UNL A   1      47.284  29.164  28.521  1.00  0.00     0.009 A 
ATOM     42  C   UNL A   1      46.869  28.320  30.749  1.00  0.00     0.009 A 
ATOM     43  C   UNL A   1      48.559  28.592  28.546  1.00  0.00     0.001 A 
ATOM     44  C   UNL A   1      48.154  27.773  30.781  1.00  0.00     0.001 A 
ATOM     45  C   UNL A   1      48.994  27.901  29.676  1.00  0.00     0.000 A 
ENDBRANCH  26  40
BRANCH  27  46
ATOM     46  C   UNL A   1      37.049  32.444  29.841  1.00  0.00    -0.014 A 
ATOM     47  C   UNL A   1      36.483  33.180  28.791  1.00  0.00     0.009 A 
ATOM     48  C   UNL A   1      36.256  32.122  30.955  1.00  0.00     0.009 A 
ATOM     49  C   UNL A   1      35.150  33.594  28.862  1.00  0.00     0.001 A 
ATOM     50  C   UNL A   1      34.918  32.512  31.008  1.00  0.00     0.001 A 
ATOM     51  C   UNL A   1      34.368  33.253  29.965  1.00  0.00     0.000 A 
ENDBRANCH  27  46
BRANCH  39  52
ATOM     52  C   UNL A   1      43.206  35.138  31.682  1.00  0.00    -0.014 A 
ATOM     53  C   UNL A   1      43.650  36.198  30.878  1.00  0.00     0.009 A 
ATOM     54  C   UNL A   1      43.094  35.333  33.068  1.00  0.00     0.009 A 
ATOM     55  C   UNL A   1      43.999  37.421  31.453  1.00  0.00     0.001 A 
ATOM     56  C   UNL A   1      43.420  36.565  33.636  1.00  0.00     0.001 A 
ATOM     57  C   UNL A   1      43.879  37.605  32.830  1.00  0.00     0.000 A 
ENDBRANCH  39  52
ENDBRANCH  13  14
ENDBRANCH   6   8
ENDBRANCH   3   4
ENDBRANCH   2   3
ENDBRANCH   1   2
BRANCH   1  58
ATOM     58  C   UNL A   1      42.991  18.602  26.229  1.00  0.00     0.116 C 
BRANCH  58  59
ATOM     59  N   UNL A   1      43.759  18.820  25.018  1.00  0.00    -0.354 N 
ATOM     60  C   UNL A   1      44.343  19.953  24.533  1.00  0.00     0.249 C 
ATOM     61  H   UNL A   1      43.878  18.021  24.456  1.00  0.00     0.163 HD
ATOM     62  O   UNL A   1      44.923  19.874  23.446  1.00  0.00    -0.272 OA
BRANCH  60  63
ATOM     63  C   UNL A   1      44.296  21.259  25.338  1.00  0.00     0.207 C 
ATOM     64  C   UNL A   1      45.693  21.858  25.452  1.00  0.00     0.045 C 
ATOM     65  O   UNL A   1      43.461  22.226  24.682  1.00  0.00    -0.363 OA
ATOM     66  C   UNL A   1      45.685  22.946  24.403  1.00  0.00     0.037 C 
ATOM     67  C   UNL A   1      44.238  23.407  24.408  1.00  0.00     0.138 C 
BRANCH  67  68
ATOM     68  C   UNL A   1      43.917  24.448  25.492  1.00  0.00     0.148 C 
BRANCH  68  69
ATOM     69  N   UNL A   1      44.052  25.818  25.033  1.00  0.00    -0.349 N 
ATOM     70  C   UNL A   1      45.151  26.637  25.090  1.00  0.00     0.255 C 
ATOM     71  H   UNL A   1      43.247  26.214  24.627  1.00  0.00     0.163 HD
ATOM     72  O   UNL A   1      45.059  27.810  24.730  1.00  0.00    -0.269 OA
BRANCH  70  73
ATOM     73  C   UNL A   1      46.427  26.151  25.656  1.00  0.00     0.081 A 
ATOM     74  C   UNL A   1      46.402  25.691  26.980  1.00  0.00     0.018 A 
ATOM     75  C   UNL A   1      47.637  26.177  24.953  1.00  0.00     0.128 A 
ATOM     76  C   UNL A   1      47.568  25.214  27.577  1.00  0.00     0.001 A 
ATOM     77  C   UNL A   1      48.802  25.691  25.549  1.00  0.00     0.047 A 
ATOM     78  C   UNL A   1      48.764  25.205  26.858  1.00  0.00     0.004 A 
BRANCH  75  79
ATOM     79  O   UNL A   1      47.691  26.674  23.680  1.00  0.00    -0.507 OA
ATOM     80  H   UNL A   1      47.915  26.109  22.966  1.00  0.00     0.293 HD
ENDBRANCH  75  79
ENDBRANCH  70  73
ENDBRANCH  68  69
ENDBRANCH  67  68
ENDBRANCH  60  63
ENDBRANCH  58  59
ENDBRANCH   1  58
TORSDOF 15
ENDMDL
