MODEL 1
REMARK VINA RESULT:     -10.2      0.000      0.000
REMARK SMILES O=C(CCn1cc(Cl)c([N+](=O)[O-])n1)NCCCCNC(=O)c1ccc(-c2c3nc(c(-c4ccccc4)c4ccc([nH]4)c(-c4ccccc4)c4nc(c(-c5ccccc5)c5ccc2[nH]5)C=C4)C=C3)cc1
REMARK SMILES IDX 16 1 15 2 14 3 1 4 2 5 3 7 4 8 5 9 6 10 13 11 7 12 9 13 8 14
REMARK SMILES IDX 10 15 11 16 12 17 17 18 18 19 19 20 20 21 21 23 22 24 23 25
REMARK SMILES IDX 69 26 24 27 68 28 25 29 26 30 27 31 62 32 28 33 67 34 61 35
REMARK SMILES IDX 63 36 29 37 66 38 60 39 59 40 30 42 52 43 37 44 51 45 38 46
REMARK SMILES IDX 41 47 50 48 64 49 39 50 40 51 49 53 65 54 42 55 31 56 32 57
REMARK SMILES IDX 36 58 33 59 35 60 34 61 53 62 54 63 58 64 55 65 57 66 56 67
REMARK SMILES IDX 43 68 44 69 48 70 45 71 47 72 46 73
REMARK H PARENT 14 6 19 22 63 41 41 52
REMARK Flexibility Score: inf
ROOT
ATOM      1  C   UNL A   1      40.938  21.288  27.550  1.00  0.00     0.023 C 
ENDROOT
BRANCH   1   2
ATOM      2  C   UNL A   1      40.291  22.019  26.367  1.00  0.00     0.116 C 
BRANCH   2   3
ATOM      3  N   UNL A   1      38.836  22.034  26.387  1.00  0.00    -0.356 N 
ATOM      4  O   UNL A   1      38.688  24.306  26.083  1.00  0.00    -0.275 OA
ATOM      5  C   UNL A   1      38.145  23.208  26.153  1.00  0.00     0.221 C 
ATOM      6  H   UNL A   1      38.341  21.203  26.568  1.00  0.00     0.163 HD
BRANCH   5   7
ATOM      7  C   UNL A   1      36.668  23.043  25.865  1.00  0.00     0.125 C 
BRANCH   7   8
ATOM      8  C   UNL A   1      36.381  21.593  25.455  1.00  0.00     0.179 C 
BRANCH   8   9
ATOM      9  N   UNL A   1      34.996  21.354  25.061  1.00  0.00    -0.178 N 
ATOM     10  C   UNL A   1      34.077  22.277  24.659  1.00  0.00     0.161 A 
ATOM     11  N   UNL A   1      34.522  20.092  24.990  1.00  0.00     0.061 NA
ATOM     12  C   UNL A   1      33.084  21.577  24.022  1.00  0.00     0.160 A 
ATOM     13  C   UNL A   1      33.334  20.234  24.362  1.00  0.00     0.408 A 
ATOM     14  Cl  UNL A   1      31.870  22.263  23.071  1.00  0.00    -0.073 Cl
BRANCH  13  15
ATOM     15  N   UNL A   1      32.516  19.059  24.134  1.00  0.00    -0.020 N 
ATOM     16  O   UNL A   1      32.074  18.482  25.138  1.00  0.00    -0.358 OA
ATOM     17  O   UNL A   1      32.331  18.685  22.968  1.00  0.00    -0.358 OA
ENDBRANCH  13  15
ENDBRANCH   8   9
ENDBRANCH   7   8
ENDBRANCH   5   7
ENDBRANCH   2   3
ENDBRANCH   1   2
BRANCH   1  18
ATOM     18  C   UNL A   1      41.972  20.199  27.225  1.00  0.00     0.023 C 
BRANCH  18  19
ATOM     19  C   UNL A   1      42.074  19.825  25.753  1.00  0.00     0.116 C 
BRANCH  19  20
ATOM     20  N   UNL A   1      43.434  19.600  25.266  1.00  0.00    -0.352 N 
ATOM     21  C   UNL A   1      44.367  20.567  24.899  1.00  0.00     0.251 C 
ATOM     22  H   UNL A   1      43.721  18.662  25.188  1.00  0.00     0.163 HD
ATOM     23  O   UNL A   1      45.316  20.290  24.185  1.00  0.00    -0.269 OA
BRANCH  21  24
ATOM     24  C   UNL A   1      44.194  21.946  25.407  1.00  0.00     0.039 A 
ATOM     25  C   UNL A   1      43.379  22.891  24.772  1.00  0.00     0.014 A 
ATOM     26  C   UNL A   1      44.883  22.287  26.564  1.00  0.00     0.014 A 
ATOM     27  C   UNL A   1      43.221  24.151  25.356  1.00  0.00     0.010 A 
ATOM     28  C   UNL A   1      44.569  23.436  27.235  1.00  0.00     0.010 A 
ATOM     29  C   UNL A   1      43.818  24.414  26.597  1.00  0.00    -0.014 A 
BRANCH  29  30
ATOM     30  C   UNL A   1      43.644  25.678  27.308  1.00  0.00     0.031 A 
ATOM     31  C   UNL A   1      44.599  26.757  26.936  1.00  0.00     0.074 A 
ATOM     32  C   UNL A   1      42.540  25.932  28.050  1.00  0.00     0.049 A 
ATOM     33  N   UNL A   1      45.453  27.360  27.694  1.00  0.00    -0.248 NA
ATOM     34  C   UNL A   1      44.678  27.161  25.528  1.00  0.00     0.031 C 
ATOM     35  C   UNL A   1      41.368  25.067  28.277  1.00  0.00     0.029 A 
ATOM     36  N   UNL A   1      42.169  27.085  28.669  1.00  0.00    -0.354 N 
ATOM     37  C   UNL A   1      46.044  28.347  26.905  1.00  0.00     0.074 A 
ATOM     38  C   UNL A   1      45.635  28.088  25.551  1.00  0.00     0.031 C 
ATOM     39  C   UNL A   1      40.344  25.798  28.771  1.00  0.00     0.029 A 
ATOM     40  C   UNL A   1      40.837  27.125  29.075  1.00  0.00     0.049 A 
ATOM     41  H   UNL A   1      42.792  27.832  28.818  1.00  0.00     0.167 HD
ATOM     42  C   UNL A   1      46.636  29.439  27.461  1.00  0.00     0.031 A 
ATOM     43  C   UNL A   1      40.184  28.171  29.638  1.00  0.00     0.031 A 
ATOM     44  C   UNL A   1      46.893  29.241  28.863  1.00  0.00     0.049 A 
ATOM     45  C   UNL A   1      41.216  29.075  30.186  1.00  0.00     0.074 A 
ATOM     46  C   UNL A   1      47.645  28.346  29.595  1.00  0.00     0.029 A 
ATOM     47  N   UNL A   1      45.983  29.779  29.741  1.00  0.00    -0.354 N 
ATOM     48  N   UNL A   1      41.985  28.751  31.184  1.00  0.00    -0.248 NA
ATOM     49  C   UNL A   1      41.697  30.157  29.347  1.00  0.00     0.031 C 
ATOM     50  C   UNL A   1      46.838  28.034  30.727  1.00  0.00     0.029 A 
ATOM     51  C   UNL A   1      45.680  28.814  30.665  1.00  0.00     0.049 A 
ATOM     52  H   UNL A   1      45.614  30.691  29.711  1.00  0.00     0.167 HD
ATOM     53  C   UNL A   1      43.230  29.257  30.842  1.00  0.00     0.074 A 
ATOM     54  C   UNL A   1      42.965  30.210  29.763  1.00  0.00     0.031 C 
ATOM     55  C   UNL A   1      44.376  28.649  31.268  1.00  0.00     0.031 A 
BRANCH  42  56
ATOM     56  C   UNL A   1      46.592  30.818  26.850  1.00  0.00    -0.014 A 
ATOM     57  C   UNL A   1      47.757  31.607  26.891  1.00  0.00     0.009 A 
ATOM     58  C   UNL A   1      45.394  31.476  26.513  1.00  0.00     0.009 A 
ATOM     59  C   UNL A   1      47.708  32.991  26.694  1.00  0.00     0.001 A 
ATOM     60  C   UNL A   1      45.348  32.853  26.275  1.00  0.00     0.001 A 
ATOM     61  C   UNL A   1      46.501  33.616  26.397  1.00  0.00     0.000 A 
ENDBRANCH  42  56
BRANCH  43  62
ATOM     62  C   UNL A   1      38.759  28.553  29.579  1.00  0.00    -0.014 A 
ATOM     63  C   UNL A   1      38.080  28.989  30.729  1.00  0.00     0.009 A 
ATOM     64  C   UNL A   1      38.144  28.768  28.332  1.00  0.00     0.009 A 
ATOM     65  C   UNL A   1      36.851  29.656  30.630  1.00  0.00     0.001 A 
ATOM     66  C   UNL A   1      36.918  29.438  28.235  1.00  0.00     0.001 A 
ATOM     67  C   UNL A   1      36.279  29.895  29.382  1.00  0.00     0.000 A 
ENDBRANCH  43  62
BRANCH  55  68
ATOM     68  C   UNL A   1      44.244  27.530  32.277  1.00  0.00    -0.014 A 
ATOM     69  C   UNL A   1      43.937  27.750  33.632  1.00  0.00     0.009 A 
ATOM     70  C   UNL A   1      44.261  26.209  31.809  1.00  0.00     0.009 A 
ATOM     71  C   UNL A   1      43.675  26.680  34.495  1.00  0.00     0.001 A 
ATOM     72  C   UNL A   1      43.979  25.141  32.664  1.00  0.00     0.001 A 
ATOM     73  C   UNL A   1      43.689  25.375  34.006  1.00  0.00     0.000 A 
ENDBRANCH  55  68
ENDBRANCH  29  30
ENDBRANCH  21  24
ENDBRANCH  19  20
ENDBRANCH  18  19
ENDBRANCH   1  18
TORSDOF 14
ENDMDL
MODEL 2
REMARK VINA RESULT:     -10.1      4.921     10.074
REMARK SMILES O=C(CCn1cc(Cl)c([N+](=O)[O-])n1)NCCCCNC(=O)c1ccc(-c2c3nc(c(-c4ccccc4)c4ccc([nH]4)c(-c4ccccc4)c4nc(c(-c5ccccc5)c5ccc2[nH]5)C=C4)C=C3)cc1
REMARK SMILES IDX 16 1 15 2 14 3 1 4 2 5 3 7 4 8 5 9 6 10 13 11 7 12 9 13 8 14
REMARK SMILES IDX 10 15 11 16 12 17 17 18 18 19 19 20 20 21 21 23 22 24 23 25
REMARK SMILES IDX 69 26 24 27 68 28 25 29 26 30 27 31 62 32 28 33 67 34 61 35
REMARK SMILES IDX 63 36 29 37 66 38 60 39 59 40 30 42 52 43 37 44 51 45 38 46
REMARK SMILES IDX 41 47 50 48 64 49 39 50 40 51 49 53 65 54 42 55 31 56 32 57
REMARK SMILES IDX 36 58 33 59 35 60 34 61 53 62 54 63 58 64 55 65 57 66 56 67
REMARK SMILES IDX 43 68 44 69 48 70 45 71 47 72 46 73
REMARK H PARENT 14 6 19 22 63 41 41 52
REMARK Flexibility Score: inf
ROOT
ATOM      1  C   UNL A   1      37.214  31.140  32.892  1.00  0.00     0.023 C 
ENDROOT
BRANCH   1   2
ATOM      2  C   UNL A   1      35.937  31.128  32.043  1.00  0.00     0.116 C 
BRANCH   2   3
ATOM      3  N   UNL A   1      36.061  31.792  30.754  1.00  0.00    -0.356 N 
ATOM      4  O   UNL A   1      36.167  29.829  29.566  1.00  0.00    -0.275 OA
ATOM      5  C   UNL A   1      36.083  31.053  29.586  1.00  0.00     0.221 C 
ATOM      6  H   UNL A   1      36.129  32.772  30.713  1.00  0.00     0.163 HD
BRANCH   5   7
ATOM      7  C   UNL A   1      35.875  31.848  28.314  1.00  0.00     0.125 C 
BRANCH   7   8
ATOM      8  C   UNL A   1      34.437  32.379  28.267  1.00  0.00     0.179 C 
BRANCH   8   9
ATOM      9  N   UNL A   1      34.288  33.728  28.802  1.00  0.00    -0.178 N 
ATOM     10  C   UNL A   1      34.517  34.907  28.156  1.00  0.00     0.161 A 
ATOM     11  N   UNL A   1      33.801  33.912  30.047  1.00  0.00     0.061 NA
ATOM     12  C   UNL A   1      33.876  35.876  28.886  1.00  0.00     0.160 A 
ATOM     13  C   UNL A   1      33.562  35.240  30.103  1.00  0.00     0.408 A 
ATOM     14  Cl  UNL A   1      33.584  37.453  28.361  1.00  0.00    -0.073 Cl
BRANCH  13  15
ATOM     15  N   UNL A   1      33.046  35.811  31.332  1.00  0.00    -0.020 N 
ATOM     16  O   UNL A   1      33.601  35.463  32.385  1.00  0.00    -0.358 OA
ATOM     17  O   UNL A   1      32.077  36.579  31.266  1.00  0.00    -0.358 OA
ENDBRANCH  13  15
ENDBRANCH   8   9
ENDBRANCH   7   8
ENDBRANCH   5   7
ENDBRANCH   2   3
ENDBRANCH   1   2
BRANCH   1  18
ATOM     18  C   UNL A   1      37.664  32.493  33.468  1.00  0.00     0.023 C 
BRANCH  18  19
ATOM     19  C   UNL A   1      39.016  32.987  32.974  1.00  0.00     0.116 C 
BRANCH  19  20
ATOM     20  N   UNL A   1      38.969  33.818  31.771  1.00  0.00    -0.352 N 
ATOM     21  C   UNL A   1      39.750  33.686  30.626  1.00  0.00     0.251 C 
ATOM     22  H   UNL A   1      38.312  34.551  31.772  1.00  0.00     0.163 HD
ATOM     23  O   UNL A   1      39.890  34.614  29.847  1.00  0.00    -0.269 OA
BRANCH  21  24
ATOM     24  C   UNL A   1      40.402  32.384  30.361  1.00  0.00     0.039 A 
ATOM     25  C   UNL A   1      41.790  32.206  30.423  1.00  0.00     0.014 A 
ATOM     26  C   UNL A   1      39.577  31.315  30.038  1.00  0.00     0.014 A 
ATOM     27  C   UNL A   1      42.318  30.928  30.221  1.00  0.00     0.010 A 
ATOM     28  C   UNL A   1      40.073  30.041  30.044  1.00  0.00     0.010 A 
ATOM     29  C   UNL A   1      41.447  29.844  30.037  1.00  0.00    -0.014 A 
BRANCH  29  30
ATOM     30  C   UNL A   1      41.914  28.469  29.891  1.00  0.00     0.031 A 
ATOM     31  C   UNL A   1      42.655  27.917  31.058  1.00  0.00     0.074 A 
ATOM     32  C   UNL A   1      41.480  27.671  28.886  1.00  0.00     0.049 A 
ATOM     33  N   UNL A   1      43.873  27.490  31.098  1.00  0.00    -0.248 NA
ATOM     34  C   UNL A   1      41.992  27.919  32.366  1.00  0.00     0.031 C 
ATOM     35  C   UNL A   1      40.517  27.987  27.815  1.00  0.00     0.029 A 
ATOM     36  N   UNL A   1      41.717  26.349  28.676  1.00  0.00    -0.354 N 
ATOM     37  C   UNL A   1      44.069  26.995  32.388  1.00  0.00     0.074 A 
ATOM     38  C   UNL A   1      42.932  27.412  33.163  1.00  0.00     0.031 C 
ATOM     39  C   UNL A   1      40.086  26.847  27.232  1.00  0.00     0.029 A 
ATOM     40  C   UNL A   1      40.875  25.746  27.745  1.00  0.00     0.049 A 
ATOM     41  H   UNL A   1      42.429  25.856  29.145  1.00  0.00     0.167 HD
ATOM     42  C   UNL A   1      45.041  26.081  32.656  1.00  0.00     0.031 A 
ATOM     43  C   UNL A   1      40.835  24.435  27.405  1.00  0.00     0.031 A 
ATOM     44  C   UNL A   1      46.006  26.012  31.591  1.00  0.00     0.049 A 
ATOM     45  C   UNL A   1      42.128  23.847  27.812  1.00  0.00     0.074 A 
ATOM     46  C   UNL A   1      46.881  26.910  31.015  1.00  0.00     0.029 A 
ATOM     47  N   UNL A   1      45.852  24.993  30.681  1.00  0.00    -0.354 N 
ATOM     48  N   UNL A   1      43.260  24.171  27.258  1.00  0.00    -0.248 NA
ATOM     49  C   UNL A   1      42.222  23.240  29.127  1.00  0.00     0.031 C 
ATOM     50  C   UNL A   1      46.813  26.635  29.617  1.00  0.00     0.029 A 
ATOM     51  C   UNL A   1      45.969  25.537  29.429  1.00  0.00     0.049 A 
ATOM     52  H   UNL A   1      45.687  24.046  30.891  1.00  0.00     0.167 HD
ATOM     53  C   UNL A   1      44.158  24.232  28.312  1.00  0.00     0.074 A 
ATOM     54  C   UNL A   1      43.492  23.538  29.415  1.00  0.00     0.031 C 
ATOM     55  C   UNL A   1      45.226  25.082  28.275  1.00  0.00     0.031 A 
BRANCH  42  56
ATOM     56  C   UNL A   1      44.887  24.966  33.661  1.00  0.00    -0.014 A 
ATOM     57  C   UNL A   1      45.867  24.826  34.662  1.00  0.00     0.009 A 
ATOM     58  C   UNL A   1      44.003  23.885  33.487  1.00  0.00     0.009 A 
ATOM     59  C   UNL A   1      46.007  23.635  35.384  1.00  0.00     0.001 A 
ATOM     60  C   UNL A   1      44.114  22.709  34.235  1.00  0.00     0.001 A 
ATOM     61  C   UNL A   1      45.137  22.573  35.163  1.00  0.00     0.000 A 
ENDBRANCH  42  56
BRANCH  43  62
ATOM     62  C   UNL A   1      39.711  23.602  26.931  1.00  0.00    -0.014 A 
ATOM     63  C   UNL A   1      38.510  24.187  26.500  1.00  0.00     0.009 A 
ATOM     64  C   UNL A   1      39.927  22.246  26.629  1.00  0.00     0.009 A 
ATOM     65  C   UNL A   1      37.578  23.453  25.753  1.00  0.00     0.001 A 
ATOM     66  C   UNL A   1      38.997  21.514  25.880  1.00  0.00     0.001 A 
ATOM     67  C   UNL A   1      37.830  22.121  25.429  1.00  0.00     0.000 A 
ENDBRANCH  43  62
BRANCH  55  68
ATOM     68  C   UNL A   1      45.504  25.805  26.976  1.00  0.00    -0.014 A 
ATOM     69  C   UNL A   1      44.871  27.011  26.618  1.00  0.00     0.009 A 
ATOM     70  C   UNL A   1      46.556  25.347  26.173  1.00  0.00     0.009 A 
ATOM     71  C   UNL A   1      45.269  27.723  25.481  1.00  0.00     0.001 A 
ATOM     72  C   UNL A   1      46.968  26.068  25.049  1.00  0.00     0.001 A 
ATOM     73  C   UNL A   1      46.323  27.253  24.701  1.00  0.00     0.000 A 
ENDBRANCH  55  68
ENDBRANCH  29  30
ENDBRANCH  21  24
ENDBRANCH  19  20
ENDBRANCH  18  19
ENDBRANCH   1  18
TORSDOF 14
ENDMDL
MODEL 3
REMARK VINA RESULT:     -10.0      4.927     10.133
REMARK SMILES O=C(CCn1cc(Cl)c([N+](=O)[O-])n1)NCCCCNC(=O)c1ccc(-c2c3nc(c(-c4ccccc4)c4ccc([nH]4)c(-c4ccccc4)c4nc(c(-c5ccccc5)c5ccc2[nH]5)C=C4)C=C3)cc1
REMARK SMILES IDX 16 1 15 2 14 3 1 4 2 5 3 7 4 8 5 9 6 10 13 11 7 12 9 13 8 14
REMARK SMILES IDX 10 15 11 16 12 17 17 18 18 19 19 20 20 21 21 23 22 24 23 25
REMARK SMILES IDX 69 26 24 27 68 28 25 29 26 30 27 31 62 32 28 33 67 34 61 35
REMARK SMILES IDX 63 36 29 37 66 38 60 39 59 40 30 42 52 43 37 44 51 45 38 46
REMARK SMILES IDX 41 47 50 48 64 49 39 50 40 51 49 53 65 54 42 55 31 56 32 57
REMARK SMILES IDX 36 58 33 59 35 60 34 61 53 62 54 63 58 64 55 65 57 66 56 67
REMARK SMILES IDX 43 68 44 69 48 70 45 71 47 72 46 73
REMARK H PARENT 14 6 19 22 63 41 41 52
REMARK Flexibility Score: inf
ROOT
ATOM      1  C   UNL A   1      39.086  31.341  32.256  1.00  0.00     0.023 C 
ENDROOT
BRANCH   1   2
ATOM      2  C   UNL A   1      39.229  32.324  33.425  1.00  0.00     0.116 C 
BRANCH   2   3
ATOM      3  N   UNL A   1      37.996  32.580  34.155  1.00  0.00    -0.356 N 
ATOM      4  O   UNL A   1      37.908  34.797  33.563  1.00  0.00    -0.275 OA
ATOM      5  C   UNL A   1      37.385  33.818  34.086  1.00  0.00     0.221 C 
ATOM      6  H   UNL A   1      37.594  31.867  34.702  1.00  0.00     0.163 HD
BRANCH   5   7
ATOM      7  C   UNL A   1      35.961  33.866  34.597  1.00  0.00     0.125 C 
BRANCH   7   8
ATOM      8  C   UNL A   1      35.021  33.230  33.566  1.00  0.00     0.179 C 
BRANCH   8   9
ATOM      9  N   UNL A   1      34.631  34.132  32.487  1.00  0.00    -0.178 N 
ATOM     10  C   UNL A   1      34.652  33.881  31.148  1.00  0.00     0.161 A 
ATOM     11  N   UNL A   1      34.109  35.342  32.775  1.00  0.00     0.061 NA
ATOM     12  C   UNL A   1      33.844  34.826  30.567  1.00  0.00     0.160 A 
ATOM     13  C   UNL A   1      33.637  35.776  31.585  1.00  0.00     0.408 A 
ATOM     14  Cl  UNL A   1      33.281  34.777  28.977  1.00  0.00    -0.073 Cl
BRANCH  13  15
ATOM     15  N   UNL A   1      33.018  37.085  31.510  1.00  0.00    -0.020 N 
ATOM     16  O   UNL A   1      32.562  37.549  32.565  1.00  0.00    -0.358 OA
ATOM     17  O   UNL A   1      32.955  37.646  30.408  1.00  0.00    -0.358 OA
ENDBRANCH  13  15
ENDBRANCH   8   9
ENDBRANCH   7   8
ENDBRANCH   5   7
ENDBRANCH   2   3
ENDBRANCH   1   2
BRANCH   1  18
ATOM     18  C   UNL A   1      37.667  30.857  31.913  1.00  0.00     0.023 C 
BRANCH  18  19
ATOM     19  C   UNL A   1      37.101  31.393  30.606  1.00  0.00     0.116 C 
BRANCH  19  20
ATOM     20  N   UNL A   1      36.102  30.536  29.969  1.00  0.00    -0.352 N 
ATOM     21  C   UNL A   1      36.304  29.645  28.919  1.00  0.00     0.251 C 
ATOM     22  H   UNL A   1      35.185  30.597  30.322  1.00  0.00     0.163 HD
ATOM     23  O   UNL A   1      35.374  29.254  28.234  1.00  0.00    -0.269 OA
BRANCH  21  24
ATOM     24  C   UNL A   1      37.679  29.164  28.653  1.00  0.00     0.039 A 
ATOM     25  C   UNL A   1      38.456  29.642  27.591  1.00  0.00     0.014 A 
ATOM     26  C   UNL A   1      38.190  28.199  29.511  1.00  0.00     0.014 A 
ATOM     27  C   UNL A   1      39.768  29.181  27.451  1.00  0.00     0.010 A 
ATOM     28  C   UNL A   1      39.525  27.907  29.495  1.00  0.00     0.010 A 
ATOM     29  C   UNL A   1      40.299  28.313  28.417  1.00  0.00    -0.014 A 
BRANCH  29  30
ATOM     30  C   UNL A   1      41.681  27.843  28.384  1.00  0.00     0.031 A 
ATOM     31  C   UNL A   1      41.903  26.558  27.665  1.00  0.00     0.074 A 
ATOM     32  C   UNL A   1      42.714  28.640  28.746  1.00  0.00     0.049 A 
ATOM     33  N   UNL A   1      42.369  25.452  28.138  1.00  0.00    -0.248 NA
ATOM     34  C   UNL A   1      41.471  26.462  26.266  1.00  0.00     0.031 C 
ATOM     35  C   UNL A   1      42.676  30.040  29.206  1.00  0.00     0.029 A 
ATOM     36  N   UNL A   1      44.051  28.403  28.662  1.00  0.00    -0.354 N 
ATOM     37  C   UNL A   1      42.468  24.577  27.055  1.00  0.00     0.074 A 
ATOM     38  C   UNL A   1      41.773  25.200  25.962  1.00  0.00     0.031 C 
ATOM     39  C   UNL A   1      43.911  30.584  29.131  1.00  0.00     0.029 A 
ATOM     40  C   UNL A   1      44.853  29.532  28.809  1.00  0.00     0.049 A 
ATOM     41  H   UNL A   1      44.423  27.504  28.508  1.00  0.00     0.167 HD
ATOM     42  C   UNL A   1      43.317  23.513  27.079  1.00  0.00     0.031 A 
ATOM     43  C   UNL A   1      46.201  29.601  28.690  1.00  0.00     0.031 A 
ATOM     44  C   UNL A   1      43.756  23.221  28.417  1.00  0.00     0.049 A 
ATOM     45  C   UNL A   1      46.716  28.226  28.860  1.00  0.00     0.074 A 
ATOM     46  C   UNL A   1      43.125  22.860  29.589  1.00  0.00     0.029 A 
ATOM     47  N   UNL A   1      44.989  23.706  28.784  1.00  0.00    -0.354 N 
ATOM     48  N   UNL A   1      46.640  27.573  29.982  1.00  0.00    -0.248 NA
ATOM     49  C   UNL A   1      46.909  27.414  27.672  1.00  0.00     0.031 C 
ATOM     50  C   UNL A   1      43.798  23.598  30.606  1.00  0.00     0.029 A 
ATOM     51  C   UNL A   1      44.851  24.299  30.011  1.00  0.00     0.049 A 
ATOM     52  H   UNL A   1      45.819  23.641  28.259  1.00  0.00     0.167 HD
ATOM     53  C   UNL A   1      46.320  26.277  29.610  1.00  0.00     0.074 A 
ATOM     54  C   UNL A   1      46.614  26.213  28.178  1.00  0.00     0.031 C 
ATOM     55  C   UNL A   1      45.584  25.472  30.432  1.00  0.00     0.031 A 
BRANCH  42  56
ATOM     56  C   UNL A   1      44.071  23.017  25.870  1.00  0.00    -0.014 A 
ATOM     57  C   UNL A   1      44.042  21.640  25.581  1.00  0.00     0.009 A 
ATOM     58  C   UNL A   1      45.036  23.785  25.192  1.00  0.00     0.009 A 
ATOM     59  C   UNL A   1      44.985  21.053  24.729  1.00  0.00     0.001 A 
ATOM     60  C   UNL A   1      45.954  23.208  24.310  1.00  0.00     0.001 A 
ATOM     61  C   UNL A   1      45.948  21.836  24.102  1.00  0.00     0.000 A 
ENDBRANCH  42  56
BRANCH  43  62
ATOM     62  C   UNL A   1      47.069  30.714  28.257  1.00  0.00    -0.014 A 
ATOM     63  C   UNL A   1      46.905  31.310  26.997  1.00  0.00     0.009 A 
ATOM     64  C   UNL A   1      47.870  31.383  29.201  1.00  0.00     0.009 A 
ATOM     65  C   UNL A   1      47.484  32.554  26.708  1.00  0.00     0.001 A 
ATOM     66  C   UNL A   1      48.445  32.626  28.912  1.00  0.00     0.001 A 
ATOM     67  C   UNL A   1      48.239  33.219  27.671  1.00  0.00     0.000 A 
ENDBRANCH  43  62
BRANCH  55  68
ATOM     68  C   UNL A   1      45.299  25.971  31.831  1.00  0.00    -0.014 A 
ATOM     69  C   UNL A   1      44.198  26.789  32.145  1.00  0.00     0.009 A 
ATOM     70  C   UNL A   1      46.064  25.459  32.888  1.00  0.00     0.009 A 
ATOM     71  C   UNL A   1      43.886  27.100  33.473  1.00  0.00     0.001 A 
ATOM     72  C   UNL A   1      45.742  25.752  34.215  1.00  0.00     0.001 A 
ATOM     73  C   UNL A   1      44.656  26.574  34.508  1.00  0.00     0.000 A 
ENDBRANCH  55  68
ENDBRANCH  29  30
ENDBRANCH  21  24
ENDBRANCH  19  20
ENDBRANCH  18  19
ENDBRANCH   1  18
TORSDOF 14
ENDMDL
