MODEL 1
REMARK VINA RESULT:     -12.0      0.000      0.000
REMARK SMILES Cc1cc(OC(F)(F)F)cc2c1O[C@H](C(F)(F)F)C(C(=O)NCCCCNC(=O)c1ccc(-c3c4nc(c(-c5ccccc5)c5ccc([nH]5)c(-c5ccccc5)c5nc(c(-c6ccccc6)c6ccc3[nH]6)C=C5)C=C4)cc1)=C2
REMARK SMILES IDX 24 1 23 2 22 3 20 4 21 5 19 7 1 8 2 9 3 10 12 11 4 12 11 13
REMARK SMILES IDX 13 14 10 15 78 16 14 17 5 18 6 19 7 20 8 21 9 22 15 23 16 24
REMARK SMILES IDX 17 25 18 26 25 27 26 28 27 29 28 30 29 32 30 33 31 34 77 35
REMARK SMILES IDX 32 36 76 37 33 38 34 39 35 40 70 41 36 42 75 43 69 44 71 45
REMARK SMILES IDX 37 46 74 47 68 48 67 49 38 51 60 52 45 53 59 54 46 55 49 56
REMARK SMILES IDX 58 57 72 58 47 59 48 60 57 62 73 63 50 64 39 65 40 66 44 67
REMARK SMILES IDX 41 68 43 69 42 70 61 71 62 72 66 73 63 74 65 75 64 76 51 77
REMARK SMILES IDX 52 78 56 79 53 80 55 81 54 82
REMARK H PARENT 22 6 27 31 71 50 49 61
REMARK Flexibility Score: inf
ROOT
ATOM      1  C   UNL A   1      31.972  30.224  26.903  1.00  0.00     0.023 C 
ENDROOT
BRANCH   1   2
ATOM      2  C   UNL A   1      33.432  29.810  26.747  1.00  0.00     0.116 C 
BRANCH   2   3
ATOM      3  N   UNL A   1      33.751  29.455  25.375  1.00  0.00    -0.352 N 
ATOM      4  C   UNL A   1      33.653  28.354  24.594  1.00  0.00     0.251 C 
ATOM      5  O   UNL A   1      34.072  28.494  23.440  1.00  0.00    -0.270 OA
ATOM      6  H   UNL A   1      34.142  30.214  24.886  1.00  0.00     0.163 HD
BRANCH   4   7
ATOM      7  C   UNL A   1      33.095  27.038  25.022  1.00  0.00     0.067 C 
ATOM      8  C   UNL A   1      30.275  23.175  26.884  1.00  0.00     0.048 C 
ATOM      9  C   UNL A   1      31.714  23.346  26.488  1.00  0.00    -0.005 A 
ATOM     10  C   UNL A   1      32.601  22.259  26.547  1.00  0.00     0.054 A 
ATOM     11  C   UNL A   1      32.190  24.588  26.050  1.00  0.00     0.131 A 
ATOM     12  C   UNL A   1      33.942  22.413  26.185  1.00  0.00     0.130 A 
ATOM     13  C   UNL A   1      33.528  24.757  25.692  1.00  0.00     0.021 A 
ATOM     14  O   UNL A   1      31.307  25.633  26.034  1.00  0.00    -0.475 OA
ATOM     15  C   UNL A   1      34.398  23.666  25.759  1.00  0.00     0.058 A 
ATOM     16  C   UNL A   1      34.001  26.077  25.289  1.00  0.00     0.025 C 
ATOM     17  C   UNL A   1      31.630  26.725  25.131  1.00  0.00     0.314 C 
BRANCH  12  18
ATOM     18  O   UNL A   1      34.901  21.440  26.202  1.00  0.00    -0.406 OA
BRANCH  18  19
ATOM     19  C   UNL A   1      35.151  20.736  24.998  1.00  0.00     0.573 C 
ATOM     20  F   UNL A   1      34.761  21.454  23.922  1.00  0.00    -0.132 F 
ATOM     21  F   UNL A   1      36.459  20.421  24.879  1.00  0.00    -0.132 F 
ATOM     22  F   UNL A   1      34.442  19.586  25.012  1.00  0.00    -0.132 F 
ENDBRANCH  18  19
ENDBRANCH  12  18
BRANCH  17  23
ATOM     23  C   UNL A   1      30.974  26.470  23.761  1.00  0.00     0.429 C 
ATOM     24  F   UNL A   1      30.504  27.630  23.237  1.00  0.00    -0.167 F 
ATOM     25  F   UNL A   1      31.849  25.969  22.855  1.00  0.00    -0.167 F 
ATOM     26  F   UNL A   1      29.937  25.605  23.826  1.00  0.00    -0.167 F 
ENDBRANCH  17  23
ENDBRANCH   4   7
ENDBRANCH   2   3
ENDBRANCH   1   2
BRANCH   1  27
ATOM     27  C   UNL A   1      31.735  31.732  26.780  1.00  0.00     0.023 C 
BRANCH  27  28
ATOM     28  C   UNL A   1      32.854  32.618  27.324  1.00  0.00     0.116 C 
BRANCH  28  29
ATOM     29  N   UNL A   1      32.432  33.978  27.629  1.00  0.00    -0.352 N 
ATOM     30  C   UNL A   1      33.007  34.846  28.525  1.00  0.00     0.251 C 
ATOM     31  H   UNL A   1      31.645  34.312  27.139  1.00  0.00     0.163 HD
ATOM     32  O   UNL A   1      32.532  35.955  28.738  1.00  0.00    -0.269 OA
BRANCH  30  33
ATOM     33  C   UNL A   1      34.195  34.386  29.260  1.00  0.00     0.039 A 
ATOM     34  C   UNL A   1      34.015  33.671  30.446  1.00  0.00     0.014 A 
ATOM     35  C   UNL A   1      35.468  34.569  28.710  1.00  0.00     0.014 A 
ATOM     36  C   UNL A   1      35.117  33.070  31.050  1.00  0.00     0.010 A 
ATOM     37  C   UNL A   1      36.558  33.938  29.296  1.00  0.00     0.010 A 
ATOM     38  C   UNL A   1      36.387  33.172  30.460  1.00  0.00    -0.014 A 
BRANCH  38  39
ATOM     39  C   UNL A   1      37.551  32.469  31.039  1.00  0.00     0.031 A 
ATOM     40  C   UNL A   1      38.161  32.961  32.315  1.00  0.00     0.074 A 
ATOM     41  C   UNL A   1      38.087  31.419  30.386  1.00  0.00     0.049 A 
ATOM     42  N   UNL A   1      39.220  32.520  32.942  1.00  0.00    -0.248 NA
ATOM     43  C   UNL A   1      37.504  34.107  32.964  1.00  0.00     0.031 C 
ATOM     44  C   UNL A   1      37.590  30.860  29.127  1.00  0.00     0.029 A 
ATOM     45  N   UNL A   1      39.173  30.640  30.694  1.00  0.00    -0.354 N 
ATOM     46  C   UNL A   1      39.362  33.337  34.054  1.00  0.00     0.074 A 
ATOM     47  C   UNL A   1      38.303  34.320  34.001  1.00  0.00     0.031 C 
ATOM     48  C   UNL A   1      38.355  29.811  28.783  1.00  0.00     0.029 A 
ATOM     49  C   UNL A   1      39.410  29.644  29.779  1.00  0.00     0.049 A 
ATOM     50  H   UNL A   1      39.728  30.780  31.493  1.00  0.00     0.167 HD
ATOM     51  C   UNL A   1      40.285  33.265  35.039  1.00  0.00     0.031 A 
ATOM     52  C   UNL A   1      40.371  28.703  29.746  1.00  0.00     0.031 A 
ATOM     53  C   UNL A   1      41.331  32.282  35.101  1.00  0.00     0.049 A 
ATOM     54  C   UNL A   1      41.397  28.655  30.841  1.00  0.00     0.074 A 
ATOM     55  C   UNL A   1      42.296  32.113  36.078  1.00  0.00     0.029 A 
ATOM     56  N   UNL A   1      41.544  31.300  34.148  1.00  0.00    -0.354 N 
ATOM     57  N   UNL A   1      41.508  29.425  31.895  1.00  0.00    -0.248 NA
ATOM     58  C   UNL A   1      42.427  27.611  30.744  1.00  0.00     0.031 C 
ATOM     59  C   UNL A   1      43.110  31.041  35.704  1.00  0.00     0.029 A 
ATOM     60  C   UNL A   1      42.631  30.525  34.510  1.00  0.00     0.049 A 
ATOM     61  H   UNL A   1      41.004  31.173  33.336  1.00  0.00     0.167 HD
ATOM     62  C   UNL A   1      42.608  28.951  32.595  1.00  0.00     0.074 A 
ATOM     63  C   UNL A   1      43.130  27.824  31.850  1.00  0.00     0.031 C 
ATOM     64  C   UNL A   1      43.135  29.409  33.755  1.00  0.00     0.031 A 
BRANCH  51  65
ATOM     65  C   UNL A   1      40.197  34.277  36.140  1.00  0.00    -0.014 A 
ATOM     66  C   UNL A   1      40.885  35.497  36.046  1.00  0.00     0.009 A 
ATOM     67  C   UNL A   1      39.387  34.031  37.257  1.00  0.00     0.009 A 
ATOM     68  C   UNL A   1      40.776  36.447  37.062  1.00  0.00     0.001 A 
ATOM     69  C   UNL A   1      39.267  34.990  38.265  1.00  0.00     0.001 A 
ATOM     70  C   UNL A   1      39.964  36.194  38.168  1.00  0.00     0.000 A 
ENDBRANCH  51  65
BRANCH  52  71
ATOM     71  C   UNL A   1      40.385  27.708  28.645  1.00  0.00    -0.014 A 
ATOM     72  C   UNL A   1      39.668  26.510  28.771  1.00  0.00     0.009 A 
ATOM     73  C   UNL A   1      41.085  27.966  27.457  1.00  0.00     0.009 A 
ATOM     74  C   UNL A   1      39.656  25.583  27.727  1.00  0.00     0.001 A 
ATOM     75  C   UNL A   1      41.059  27.043  26.409  1.00  0.00     0.001 A 
ATOM     76  C   UNL A   1      40.346  25.851  26.546  1.00  0.00     0.000 A 
ENDBRANCH  52  71
BRANCH  64  77
ATOM     77  C   UNL A   1      44.327  28.690  34.310  1.00  0.00    -0.014 A 
ATOM     78  C   UNL A   1      45.627  29.123  34.015  1.00  0.00     0.009 A 
ATOM     79  C   UNL A   1      44.143  27.636  35.219  1.00  0.00     0.009 A 
ATOM     80  C   UNL A   1      46.725  28.510  34.620  1.00  0.00     0.001 A 
ATOM     81  C   UNL A   1      45.242  27.035  35.833  1.00  0.00     0.001 A 
ATOM     82  C   UNL A   1      46.531  27.472  35.533  1.00  0.00     0.000 A 
ENDBRANCH  64  77
ENDBRANCH  38  39
ENDBRANCH  30  33
ENDBRANCH  28  29
ENDBRANCH  27  28
ENDBRANCH   1  27
TORSDOF 14
ENDMDL
MODEL 2
REMARK VINA RESULT:     -12.0      4.835     10.040
REMARK SMILES Cc1cc(OC(F)(F)F)cc2c1O[C@H](C(F)(F)F)C(C(=O)NCCCCNC(=O)c1ccc(-c3c4nc(c(-c5ccccc5)c5ccc([nH]5)c(-c5ccccc5)c5nc(c(-c6ccccc6)c6ccc3[nH]6)C=C5)C=C4)cc1)=C2
REMARK SMILES IDX 24 1 23 2 22 3 20 4 21 5 19 7 1 8 2 9 3 10 12 11 4 12 11 13
REMARK SMILES IDX 13 14 10 15 78 16 14 17 5 18 6 19 7 20 8 21 9 22 15 23 16 24
REMARK SMILES IDX 17 25 18 26 25 27 26 28 27 29 28 30 29 32 30 33 31 34 77 35
REMARK SMILES IDX 32 36 76 37 33 38 34 39 35 40 70 41 36 42 75 43 69 44 71 45
REMARK SMILES IDX 37 46 74 47 68 48 67 49 38 51 60 52 45 53 59 54 46 55 49 56
REMARK SMILES IDX 58 57 72 58 47 59 48 60 57 62 73 63 50 64 39 65 40 66 44 67
REMARK SMILES IDX 41 68 43 69 42 70 61 71 62 72 66 73 63 74 65 75 64 76 51 77
REMARK SMILES IDX 52 78 56 79 53 80 55 81 54 82
REMARK H PARENT 22 6 27 31 71 50 49 61
REMARK Flexibility Score: inf
ROOT
ATOM      1  C   UNL A   1      37.247  21.234  24.621  1.00  0.00     0.023 C 
ENDROOT
BRANCH   1   2
ATOM      2  C   UNL A   1      37.112  22.254  25.748  1.00  0.00     0.116 C 
BRANCH   2   3
ATOM      3  N   UNL A   1      35.886  22.069  26.503  1.00  0.00    -0.352 N 
ATOM      4  C   UNL A   1      34.614  22.531  26.447  1.00  0.00     0.251 C 
ATOM      5  O   UNL A   1      33.865  22.104  27.331  1.00  0.00    -0.270 OA
ATOM      6  H   UNL A   1      36.012  21.443  27.252  1.00  0.00     0.163 HD
BRANCH   4   7
ATOM      7  C   UNL A   1      34.086  23.484  25.428  1.00  0.00     0.067 C 
ATOM      8  C   UNL A   1      32.559  25.901  21.165  1.00  0.00     0.048 C 
ATOM      9  C   UNL A   1      32.881  26.325  22.570  1.00  0.00    -0.005 A 
ATOM     10  C   UNL A   1      32.725  27.664  22.961  1.00  0.00     0.054 A 
ATOM     11  C   UNL A   1      33.334  25.391  23.510  1.00  0.00     0.131 A 
ATOM     12  C   UNL A   1      33.027  28.066  24.265  1.00  0.00     0.130 A 
ATOM     13  C   UNL A   1      33.644  25.779  24.814  1.00  0.00     0.021 A 
ATOM     14  O   UNL A   1      33.502  24.101  23.088  1.00  0.00    -0.475 OA
ATOM     15  C   UNL A   1      33.488  27.117  25.186  1.00  0.00     0.058 A 
ATOM     16  C   UNL A   1      34.163  24.790  25.752  1.00  0.00     0.025 C 
ATOM     17  C   UNL A   1      33.460  23.081  24.123  1.00  0.00     0.314 C 
BRANCH  12  18
ATOM     18  O   UNL A   1      32.923  29.332  24.766  1.00  0.00    -0.406 OA
BRANCH  18  19
ATOM     19  C   UNL A   1      31.689  29.713  25.352  1.00  0.00     0.573 C 
ATOM     20  F   UNL A   1      30.681  29.638  24.457  1.00  0.00    -0.132 F 
ATOM     21  F   UNL A   1      31.400  28.945  26.423  1.00  0.00    -0.132 F 
ATOM     22  F   UNL A   1      31.785  30.996  25.767  1.00  0.00    -0.132 F 
ENDBRANCH  18  19
ENDBRANCH  12  18
BRANCH  17  23
ATOM     23  C   UNL A   1      32.013  22.578  24.289  1.00  0.00     0.429 C 
ATOM     24  F   UNL A   1      31.320  22.745  23.135  1.00  0.00    -0.167 F 
ATOM     25  F   UNL A   1      31.957  21.256  24.580  1.00  0.00    -0.167 F 
ATOM     26  F   UNL A   1      31.339  23.225  25.265  1.00  0.00    -0.167 F 
ENDBRANCH  17  23
ENDBRANCH   4   7
ENDBRANCH   2   3
ENDBRANCH   1   2
BRANCH   1  27
ATOM     27  C   UNL A   1      38.051  19.988  25.001  1.00  0.00     0.023 C 
BRANCH  27  28
ATOM     28  C   UNL A   1      39.344  20.252  25.773  1.00  0.00     0.116 C 
BRANCH  28  29
ATOM     29  N   UNL A   1      40.253  19.116  25.803  1.00  0.00    -0.352 N 
ATOM     30  C   UNL A   1      41.598  19.134  26.085  1.00  0.00     0.251 C 
ATOM     31  H   UNL A   1      39.861  18.237  25.595  1.00  0.00     0.163 HD
ATOM     32  O   UNL A   1      42.279  18.118  26.029  1.00  0.00    -0.269 OA
BRANCH  30  33
ATOM     33  C   UNL A   1      42.212  20.429  26.418  1.00  0.00     0.039 A 
ATOM     34  C   UNL A   1      42.615  21.268  25.377  1.00  0.00     0.014 A 
ATOM     35  C   UNL A   1      42.277  20.846  27.751  1.00  0.00     0.014 A 
ATOM     36  C   UNL A   1      43.021  22.568  25.670  1.00  0.00     0.010 A 
ATOM     37  C   UNL A   1      42.649  22.154  28.036  1.00  0.00     0.010 A 
ATOM     38  C   UNL A   1      43.007  23.027  26.996  1.00  0.00    -0.014 A 
BRANCH  38  39
ATOM     39  C   UNL A   1      43.352  24.428  27.317  1.00  0.00     0.031 A 
ATOM     40  C   UNL A   1      44.777  24.882  27.245  1.00  0.00     0.074 A 
ATOM     41  C   UNL A   1      42.385  25.275  27.722  1.00  0.00     0.049 A 
ATOM     42  N   UNL A   1      45.284  26.048  27.550  1.00  0.00    -0.248 NA
ATOM     43  C   UNL A   1      45.764  23.892  26.784  1.00  0.00     0.031 C 
ATOM     44  C   UNL A   1      40.964  24.944  27.846  1.00  0.00     0.029 A 
ATOM     45  N   UNL A   1      42.457  26.590  28.106  1.00  0.00    -0.354 N 
ATOM     46  C   UNL A   1      46.648  25.931  27.326  1.00  0.00     0.074 A 
ATOM     47  C   UNL A   1      46.896  24.574  26.891  1.00  0.00     0.031 C 
ATOM     48  C   UNL A   1      40.295  26.035  28.253  1.00  0.00     0.029 A 
ATOM     49  C   UNL A   1      41.242  27.129  28.447  1.00  0.00     0.049 A 
ATOM     50  H   UNL A   1      43.299  27.098  28.134  1.00  0.00     0.167 HD
ATOM     51  C   UNL A   1      47.606  26.876  27.457  1.00  0.00     0.031 A 
ATOM     52  C   UNL A   1      40.926  28.368  28.869  1.00  0.00     0.031 A 
ATOM     53  C   UNL A   1      47.361  28.228  27.878  1.00  0.00     0.049 A 
ATOM     54  C   UNL A   1      42.010  29.394  29.025  1.00  0.00     0.074 A 
ATOM     55  C   UNL A   1      48.267  29.264  28.011  1.00  0.00     0.029 A 
ATOM     56  N   UNL A   1      46.118  28.729  28.226  1.00  0.00    -0.354 N 
ATOM     57  N   UNL A   1      43.294  29.272  28.794  1.00  0.00    -0.248 NA
ATOM     58  C   UNL A   1      41.604  30.725  29.500  1.00  0.00     0.031 C 
ATOM     59  C   UNL A   1      47.575  30.390  28.465  1.00  0.00     0.029 A 
ATOM     60  C   UNL A   1      46.235  30.061  28.582  1.00  0.00     0.049 A 
ATOM     61  H   UNL A   1      45.279  28.216  28.220  1.00  0.00     0.167 HD
ATOM     62  C   UNL A   1      43.848  30.513  29.079  1.00  0.00     0.074 A 
ATOM     63  C   UNL A   1      42.762  31.375  29.496  1.00  0.00     0.031 C 
ATOM     64  C   UNL A   1      45.142  30.901  28.996  1.00  0.00     0.031 A 
BRANCH  51  65
ATOM     65  C   UNL A   1      49.013  26.478  27.133  1.00  0.00    -0.014 A 
ATOM     66  C   UNL A   1      49.864  25.980  28.132  1.00  0.00     0.009 A 
ATOM     67  C   UNL A   1      49.479  26.559  25.813  1.00  0.00     0.009 A 
ATOM     68  C   UNL A   1      51.165  25.585  27.816  1.00  0.00     0.001 A 
ATOM     69  C   UNL A   1      50.776  26.148  25.498  1.00  0.00     0.001 A 
ATOM     70  C   UNL A   1      51.617  25.666  26.500  1.00  0.00     0.000 A 
ENDBRANCH  51  65
BRANCH  52  71
ATOM     71  C   UNL A   1      39.509  28.709  29.144  1.00  0.00    -0.014 A 
ATOM     72  C   UNL A   1      38.985  28.551  30.435  1.00  0.00     0.009 A 
ATOM     73  C   UNL A   1      38.687  29.223  28.130  1.00  0.00     0.009 A 
ATOM     74  C   UNL A   1      37.660  28.896  30.706  1.00  0.00     0.001 A 
ATOM     75  C   UNL A   1      37.366  29.581  28.408  1.00  0.00     0.001 A 
ATOM     76  C   UNL A   1      36.853  29.415  29.694  1.00  0.00     0.000 A 
ENDBRANCH  52  71
BRANCH  64  77
ATOM     77  C   UNL A   1      45.467  32.322  29.345  1.00  0.00    -0.014 A 
ATOM     78  C   UNL A   1      45.385  33.334  28.379  1.00  0.00     0.009 A 
ATOM     79  C   UNL A   1      45.756  32.662  30.676  1.00  0.00     0.009 A 
ATOM     80  C   UNL A   1      45.588  34.666  28.740  1.00  0.00     0.001 A 
ATOM     81  C   UNL A   1      45.944  33.997  31.036  1.00  0.00     0.001 A 
ATOM     82  C   UNL A   1      45.861  34.997  30.068  1.00  0.00     0.000 A 
ENDBRANCH  64  77
ENDBRANCH  38  39
ENDBRANCH  30  33
ENDBRANCH  28  29
ENDBRANCH  27  28
ENDBRANCH   1  27
TORSDOF 14
ENDMDL
MODEL 3
REMARK VINA RESULT:     -12.0      1.856      2.356
REMARK SMILES Cc1cc(OC(F)(F)F)cc2c1O[C@H](C(F)(F)F)C(C(=O)NCCCCNC(=O)c1ccc(-c3c4nc(c(-c5ccccc5)c5ccc([nH]5)c(-c5ccccc5)c5nc(c(-c6ccccc6)c6ccc3[nH]6)C=C5)C=C4)cc1)=C2
REMARK SMILES IDX 24 1 23 2 22 3 20 4 21 5 19 7 1 8 2 9 3 10 12 11 4 12 11 13
REMARK SMILES IDX 13 14 10 15 78 16 14 17 5 18 6 19 7 20 8 21 9 22 15 23 16 24
REMARK SMILES IDX 17 25 18 26 25 27 26 28 27 29 28 30 29 32 30 33 31 34 77 35
REMARK SMILES IDX 32 36 76 37 33 38 34 39 35 40 70 41 36 42 75 43 69 44 71 45
REMARK SMILES IDX 37 46 74 47 68 48 67 49 38 51 60 52 45 53 59 54 46 55 49 56
REMARK SMILES IDX 58 57 72 58 47 59 48 60 57 62 73 63 50 64 39 65 40 66 44 67
REMARK SMILES IDX 41 68 43 69 42 70 61 71 62 72 66 73 63 74 65 75 64 76 51 77
REMARK SMILES IDX 52 78 56 79 53 80 55 81 54 82
REMARK H PARENT 22 6 27 31 71 50 49 61
REMARK Flexibility Score: inf
ROOT
ATOM      1  C   UNL A   1      34.876  30.791  28.016  1.00  0.00     0.023 C 
ENDROOT
BRANCH   1   2
ATOM      2  C   UNL A   1      34.650  29.365  27.524  1.00  0.00     0.116 C 
BRANCH   2   3
ATOM      3  N   UNL A   1      33.314  28.888  27.837  1.00  0.00    -0.352 N 
ATOM      4  C   UNL A   1      32.408  28.055  27.274  1.00  0.00     0.251 C 
ATOM      5  O   UNL A   1      31.348  27.938  27.896  1.00  0.00    -0.270 OA
ATOM      6  H   UNL A   1      32.980  29.272  28.679  1.00  0.00     0.163 HD
BRANCH   4   7
ATOM      7  C   UNL A   1      32.603  27.300  26.000  1.00  0.00     0.067 C 
ATOM      8  C   UNL A   1      32.315  25.313  21.277  1.00  0.00     0.048 C 
ATOM      9  C   UNL A   1      33.006  24.925  22.554  1.00  0.00    -0.005 A 
ATOM     10  C   UNL A   1      33.843  23.799  22.594  1.00  0.00     0.054 A 
ATOM     11  C   UNL A   1      32.831  25.684  23.718  1.00  0.00     0.131 A 
ATOM     12  C   UNL A   1      34.485  23.429  23.779  1.00  0.00     0.130 A 
ATOM     13  C   UNL A   1      33.462  25.323  24.909  1.00  0.00     0.021 A 
ATOM     14  O   UNL A   1      31.987  26.758  23.651  1.00  0.00    -0.475 OA
ATOM     15  C   UNL A   1      34.288  24.196  24.933  1.00  0.00     0.058 A 
ATOM     16  C   UNL A   1      33.217  26.107  26.115  1.00  0.00     0.025 C 
ATOM     17  C   UNL A   1      32.201  27.799  24.642  1.00  0.00     0.314 C 
BRANCH  12  18
ATOM     18  O   UNL A   1      35.315  22.358  23.949  1.00  0.00    -0.406 OA
BRANCH  18  19
ATOM     19  C   UNL A   1      36.711  22.577  23.828  1.00  0.00     0.573 C 
ATOM     20  F   UNL A   1      37.129  23.543  24.674  1.00  0.00    -0.132 F 
ATOM     21  F   UNL A   1      37.404  21.442  24.060  1.00  0.00    -0.132 F 
ATOM     22  F   UNL A   1      36.978  22.982  22.566  1.00  0.00    -0.132 F 
ENDBRANCH  18  19
ENDBRANCH  12  18
BRANCH  17  23
ATOM     23  C   UNL A   1      33.181  28.847  24.080  1.00  0.00     0.429 C 
ATOM     24  F   UNL A   1      33.003  30.041  24.700  1.00  0.00    -0.167 F 
ATOM     25  F   UNL A   1      34.476  28.502  24.281  1.00  0.00    -0.167 F 
ATOM     26  F   UNL A   1      33.030  29.052  22.753  1.00  0.00    -0.167 F 
ENDBRANCH  17  23
ENDBRANCH   4   7
ENDBRANCH   2   3
ENDBRANCH   1   2
BRANCH   1  27
ATOM     27  C   UNL A   1      33.688  31.728  27.780  1.00  0.00     0.023 C 
BRANCH  27  28
ATOM     28  C   UNL A   1      34.040  33.207  27.626  1.00  0.00     0.116 C 
BRANCH  28  29
ATOM     29  N   UNL A   1      33.324  34.081  28.543  1.00  0.00    -0.352 N 
ATOM     30  C   UNL A   1      33.657  34.375  29.843  1.00  0.00     0.251 C 
ATOM     31  H   UNL A   1      32.507  34.507  28.194  1.00  0.00     0.163 HD
ATOM     32  O   UNL A   1      32.948  35.088  30.542  1.00  0.00    -0.269 OA
BRANCH  30  33
ATOM     33  C   UNL A   1      34.882  33.771  30.392  1.00  0.00     0.039 A 
ATOM     34  C   UNL A   1      34.761  32.695  31.273  1.00  0.00     0.014 A 
ATOM     35  C   UNL A   1      36.133  34.200  29.939  1.00  0.00     0.014 A 
ATOM     36  C   UNL A   1      35.905  31.995  31.650  1.00  0.00     0.010 A 
ATOM     37  C   UNL A   1      37.267  33.478  30.289  1.00  0.00     0.010 A 
ATOM     38  C   UNL A   1      37.158  32.361  31.133  1.00  0.00    -0.014 A 
BRANCH  38  39
ATOM     39  C   UNL A   1      38.370  31.578  31.454  1.00  0.00     0.031 A 
ATOM     40  C   UNL A   1      39.213  31.955  32.632  1.00  0.00     0.074 A 
ATOM     41  C   UNL A   1      38.734  30.559  30.650  1.00  0.00     0.049 A 
ATOM     42  N   UNL A   1      40.342  31.432  33.034  1.00  0.00    -0.248 NA
ATOM     43  C   UNL A   1      38.733  33.074  33.458  1.00  0.00     0.031 C 
ATOM     44  C   UNL A   1      38.002  30.109  29.465  1.00  0.00     0.029 A 
ATOM     45  N   UNL A   1      39.818  29.721  30.713  1.00  0.00    -0.354 N 
ATOM     46  C   UNL A   1      40.712  32.163  34.154  1.00  0.00     0.074 A 
ATOM     47  C   UNL A   1      39.707  33.185  34.351  1.00  0.00     0.031 C 
ATOM     48  C   UNL A   1      38.645  29.060  28.926  1.00  0.00     0.029 A 
ATOM     49  C   UNL A   1      39.847  28.786  29.709  1.00  0.00     0.049 A 
ATOM     50  H   UNL A   1      40.509  29.784  31.411  1.00  0.00     0.167 HD
ATOM     51  C   UNL A   1      41.786  31.987  34.957  1.00  0.00     0.031 A 
ATOM     52  C   UNL A   1      40.742  27.815  29.448  1.00  0.00     0.031 A 
ATOM     53  C   UNL A   1      42.779  30.966  34.771  1.00  0.00     0.049 A 
ATOM     54  C   UNL A   1      41.937  27.652  30.342  1.00  0.00     0.074 A 
ATOM     55  C   UNL A   1      43.888  30.693  35.552  1.00  0.00     0.029 A 
ATOM     56  N   UNL A   1      42.777  30.047  33.734  1.00  0.00    -0.354 N 
ATOM     57  N   UNL A   1      42.264  28.341  31.407  1.00  0.00    -0.248 NA
ATOM     58  C   UNL A   1      42.884  26.581  29.999  1.00  0.00     0.031 C 
ATOM     59  C   UNL A   1      44.573  29.621  34.973  1.00  0.00     0.029 A 
ATOM     60  C   UNL A   1      43.872  29.209  33.851  1.00  0.00     0.049 A 
ATOM     61  H   UNL A   1      42.100  29.998  33.023  1.00  0.00     0.167 HD
ATOM     62  C   UNL A   1      43.445  27.778  31.872  1.00  0.00     0.074 A 
ATOM     63  C   UNL A   1      43.776  26.689  30.976  1.00  0.00     0.031 C 
ATOM     64  C   UNL A   1      44.185  28.133  32.949  1.00  0.00     0.031 A 
BRANCH  51  65
ATOM     65  C   UNL A   1      41.937  32.920  36.118  1.00  0.00    -0.014 A 
ATOM     66  C   UNL A   1      42.635  34.130  35.977  1.00  0.00     0.009 A 
ATOM     67  C   UNL A   1      41.342  32.612  37.349  1.00  0.00     0.009 A 
ATOM     68  C   UNL A   1      42.747  35.008  37.056  1.00  0.00     0.001 A 
ATOM     69  C   UNL A   1      41.442  33.500  38.422  1.00  0.00     0.001 A 
ATOM     70  C   UNL A   1      42.148  34.694  38.275  1.00  0.00     0.000 A 
ENDBRANCH  51  65
BRANCH  52  71
ATOM     71  C   UNL A   1      40.519  26.902  28.300  1.00  0.00    -0.014 A 
ATOM     72  C   UNL A   1      39.680  25.787  28.441  1.00  0.00     0.009 A 
ATOM     73  C   UNL A   1      41.114  27.158  27.056  1.00  0.00     0.009 A 
ATOM     74  C   UNL A   1      39.445  24.940  27.357  1.00  0.00     0.001 A 
ATOM     75  C   UNL A   1      40.865  26.316  25.970  1.00  0.00     0.001 A 
ATOM     76  C   UNL A   1      40.033  25.207  26.121  1.00  0.00     0.000 A 
ENDBRANCH  52  71
BRANCH  64  77
ATOM     77  C   UNL A   1      45.419  27.334  33.240  1.00  0.00    -0.014 A 
ATOM     78  C   UNL A   1      46.668  27.742  32.752  1.00  0.00     0.009 A 
ATOM     79  C   UNL A   1      45.343  26.223  34.095  1.00  0.00     0.009 A 
ATOM     80  C   UNL A   1      47.823  27.048  33.116  1.00  0.00     0.001 A 
ATOM     81  C   UNL A   1      46.501  25.541  34.468  1.00  0.00     0.001 A 
ATOM     82  C   UNL A   1      47.740  25.953  33.978  1.00  0.00     0.000 A 
ENDBRANCH  64  77
ENDBRANCH  38  39
ENDBRANCH  30  33
ENDBRANCH  28  29
ENDBRANCH  27  28
ENDBRANCH   1  27
TORSDOF 14
ENDMDL
