MODEL 1
REMARK VINA RESULT:     -11.0      0.000      0.000
REMARK SMILES CCNc1nc(C)c(C(=O)N2CC[NH2+][C@H](C(=O)NCCCCNC(=O)c3ccc(-c4c5nc(c(-c6ccccc6)c6ccc([nH]6)c(-c6ccccc6)c6nc(c(-c7ccccc7)c7ccc4[nH]7)C=C6)C=C5)cc3)C2)s1
REMARK SMILES IDX 19 1 18 2 16 3 17 4 15 6 11 7 12 8 74 9 13 10 14 11 9 14
REMARK SMILES IDX 10 15 8 16 4 17 5 18 75 19 6 20 7 21 3 22 2 24 1 25 20 26
REMARK SMILES IDX 21 27 22 28 23 29 24 30 25 32 26 33 27 34 73 35 28 36 72 37
REMARK SMILES IDX 29 38 30 39 31 40 66 41 32 42 71 43 65 44 67 45 33 46 70 47
REMARK SMILES IDX 64 48 63 49 34 51 56 52 41 53 55 54 42 55 45 56 54 57 68 58
REMARK SMILES IDX 43 59 44 60 53 62 69 63 46 64 35 65 36 66 40 67 37 68 39 69
REMARK SMILES IDX 38 70 57 71 58 72 62 73 59 74 61 75 60 76 47 77 48 78 52 79
REMARK SMILES IDX 49 80 51 81 50 82
REMARK H PARENT 18 5 14 12 14 13 3 23 23 31 67 50 45 61
REMARK Flexibility Score: inf
ROOT
ATOM      1  C   UNL A   1      35.436  20.954  24.797  1.00  0.00     0.116 C 
ENDROOT
BRANCH   1   2
ATOM      2  N   UNL A   1      35.099  21.121  26.197  1.00  0.00    -0.351 N 
ATOM      3  C   UNL A   1      34.115  21.843  26.803  1.00  0.00     0.280 C 
ATOM      4  O   UNL A   1      34.092  21.840  28.037  1.00  0.00    -0.268 OA
ATOM      5  H   UNL A   1      35.683  20.630  26.818  1.00  0.00     0.163 HD
BRANCH   3   6
ATOM      6  C   UNL A   1      33.018  22.550  26.001  1.00  0.00     0.292 C 
ATOM      7  N   UNL A   1      32.344  24.779  25.121  1.00  0.00    -0.326 N 
ATOM      8  C   UNL A   1      31.029  24.616  25.742  1.00  0.00     0.181 C 
ATOM      9  C   UNL A   1      33.414  24.026  25.776  1.00  0.00     0.195 C 
ATOM     10  C   UNL A   1      30.660  23.125  25.850  1.00  0.00     0.283 C 
ATOM     11  N   UNL A   1      31.659  22.315  26.571  1.00  0.00    -0.333 N 
ATOM     12  H   UNL A   1      31.423  21.327  26.480  1.00  0.00     0.347 HD
ATOM     13  H   UNL A   1      31.660  22.583  27.556  1.00  0.00     0.347 HD
BRANCH   7  14
ATOM     14  C   UNL A   1      32.542  25.839  24.238  1.00  0.00     0.266 C 
ATOM     15  O   UNL A   1      33.232  25.651  23.233  1.00  0.00    -0.268 OA
BRANCH  14  16
ATOM     16  C   UNL A   1      31.998  27.152  24.561  1.00  0.00     0.117 A 
ATOM     17  C   UNL A   1      30.839  29.296  24.341  1.00  0.00     0.183 A 
ATOM     18  N   UNL A   1      31.717  29.346  25.309  1.00  0.00    -0.225 NA
ATOM     19  S   UNL A   1      30.704  27.762  23.590  1.00  0.00    -0.092 S 
ATOM     20  C   UNL A   1      32.389  28.145  25.449  1.00  0.00     0.063 A 
ATOM     21  C   UNL A   1      33.466  28.141  26.471  1.00  0.00     0.068 C 
BRANCH  17  22
ATOM     22  N   UNL A   1      30.168  30.411  23.995  1.00  0.00    -0.362 N 
ATOM     23  H   UNL A   1      30.393  31.238  24.479  1.00  0.00     0.162 HD
BRANCH  22  24
ATOM     24  C   UNL A   1      29.150  30.499  22.979  1.00  0.00     0.112 C 
ATOM     25  C   UNL A   1      27.944  31.215  23.573  1.00  0.00     0.027 C 
ENDBRANCH  22  24
ENDBRANCH  17  22
ENDBRANCH  14  16
ENDBRANCH   7  14
ENDBRANCH   3   6
ENDBRANCH   1   2
BRANCH   1  26
ATOM     26  C   UNL A   1      36.919  21.219  24.553  1.00  0.00     0.023 C 
BRANCH  26  27
ATOM     27  C   UNL A   1      37.831  20.043  24.910  1.00  0.00     0.023 C 
BRANCH  27  28
ATOM     28  C   UNL A   1      38.987  20.386  25.842  1.00  0.00     0.116 C 
BRANCH  28  29
ATOM     29  N   UNL A   1      40.057  19.401  25.801  1.00  0.00    -0.352 N 
ATOM     30  C   UNL A   1      41.391  19.572  26.075  1.00  0.00     0.251 C 
ATOM     31  H   UNL A   1      39.788  18.490  25.544  1.00  0.00     0.163 HD
ATOM     32  O   UNL A   1      42.191  18.667  25.859  1.00  0.00    -0.269 OA
BRANCH  30  33
ATOM     33  C   UNL A   1      41.861  20.870  26.599  1.00  0.00     0.039 A 
ATOM     34  C   UNL A   1      42.301  21.843  25.699  1.00  0.00     0.014 A 
ATOM     35  C   UNL A   1      41.827  21.136  27.971  1.00  0.00     0.014 A 
ATOM     36  C   UNL A   1      42.645  23.109  26.171  1.00  0.00     0.010 A 
ATOM     37  C   UNL A   1      42.092  22.421  28.428  1.00  0.00     0.010 A 
ATOM     38  C   UNL A   1      42.507  23.420  27.534  1.00  0.00    -0.014 A 
BRANCH  38  39
ATOM     39  C   UNL A   1      42.784  24.786  28.043  1.00  0.00     0.031 A 
ATOM     40  C   UNL A   1      44.183  25.181  28.424  1.00  0.00     0.074 A 
ATOM     41  C   UNL A   1      41.765  25.647  28.227  1.00  0.00     0.049 A 
ATOM     42  N   UNL A   1      44.614  26.312  28.923  1.00  0.00    -0.248 NA
ATOM     43  C   UNL A   1      45.232  24.164  28.246  1.00  0.00     0.031 C 
ATOM     44  C   UNL A   1      40.357  25.373  27.932  1.00  0.00     0.029 A 
ATOM     45  N   UNL A   1      41.759  26.932  28.708  1.00  0.00    -0.354 N 
ATOM     46  C   UNL A   1      45.974  26.134  29.140  1.00  0.00     0.074 A 
ATOM     47  C   UNL A   1      46.287  24.771  28.767  1.00  0.00     0.031 C 
ATOM     48  C   UNL A   1      39.631  26.470  28.198  1.00  0.00     0.029 A 
ATOM     49  C   UNL A   1      40.513  27.508  28.724  1.00  0.00     0.049 A 
ATOM     50  H   UNL A   1      42.572  27.397  29.013  1.00  0.00     0.167 HD
ATOM     51  C   UNL A   1      46.886  27.026  29.594  1.00  0.00     0.031 A 
ATOM     52  C   UNL A   1      40.122  28.734  29.120  1.00  0.00     0.031 A 
ATOM     53  C   UNL A   1      46.575  28.383  29.957  1.00  0.00     0.049 A 
ATOM     54  C   UNL A   1      41.148  29.700  29.643  1.00  0.00     0.074 A 
ATOM     55  C   UNL A   1      47.439  29.387  30.358  1.00  0.00     0.029 A 
ATOM     56  N   UNL A   1      45.298  28.922  29.974  1.00  0.00    -0.354 N 
ATOM     57  N   UNL A   1      42.444  29.543  29.764  1.00  0.00    -0.248 NA
ATOM     58  C   UNL A   1      40.655  31.014  30.076  1.00  0.00     0.031 C 
ATOM     59  C   UNL A   1      46.677  30.515  30.678  1.00  0.00     0.029 A 
ATOM     60  C   UNL A   1      45.346  30.235  30.415  1.00  0.00     0.049 A 
ATOM     61  H   UNL A   1      44.479  28.444  29.713  1.00  0.00     0.167 HD
ATOM     62  C   UNL A   1      42.925  30.749  30.257  1.00  0.00     0.074 A 
ATOM     63  C   UNL A   1      41.784  31.629  30.400  1.00  0.00     0.031 C 
ATOM     64  C   UNL A   1      44.200  31.097  30.559  1.00  0.00     0.031 A 
BRANCH  51  65
ATOM     65  C   UNL A   1      48.304  26.546  29.744  1.00  0.00    -0.014 A 
ATOM     66  C   UNL A   1      48.750  25.931  30.925  1.00  0.00     0.009 A 
ATOM     67  C   UNL A   1      49.206  26.702  28.680  1.00  0.00     0.009 A 
ATOM     68  C   UNL A   1      50.082  25.530  31.056  1.00  0.00     0.001 A 
ATOM     69  C   UNL A   1      50.528  26.269  28.801  1.00  0.00     0.001 A 
ATOM     70  C   UNL A   1      50.969  25.696  29.993  1.00  0.00     0.000 A 
ENDBRANCH  51  65
BRANCH  52  71
ATOM     71  C   UNL A   1      38.695  29.133  29.001  1.00  0.00    -0.014 A 
ATOM     72  C   UNL A   1      38.200  29.632  27.787  1.00  0.00     0.009 A 
ATOM     73  C   UNL A   1      37.820  29.015  30.093  1.00  0.00     0.009 A 
ATOM     74  C   UNL A   1      36.865  30.024  27.672  1.00  0.00     0.001 A 
ATOM     75  C   UNL A   1      36.479  29.381  29.968  1.00  0.00     0.001 A 
ATOM     76  C   UNL A   1      36.005  29.893  28.761  1.00  0.00     0.000 A 
ENDBRANCH  52  71
BRANCH  64  77
ATOM     77  C   UNL A   1      44.435  32.502  31.040  1.00  0.00    -0.014 A 
ATOM     78  C   UNL A   1      44.473  32.811  32.409  1.00  0.00     0.009 A 
ATOM     79  C   UNL A   1      44.658  33.526  30.106  1.00  0.00     0.009 A 
ATOM     80  C   UNL A   1      44.697  34.124  32.829  1.00  0.00     0.001 A 
ATOM     81  C   UNL A   1      44.913  34.831  30.530  1.00  0.00     0.001 A 
ATOM     82  C   UNL A   1      44.921  35.130  31.891  1.00  0.00     0.000 A 
ENDBRANCH  64  77
ENDBRANCH  38  39
ENDBRANCH  30  33
ENDBRANCH  28  29
ENDBRANCH  27  28
ENDBRANCH  26  27
ENDBRANCH   1  26
TORSDOF 15
ENDMDL
MODEL 2
REMARK VINA RESULT:     -10.8      3.533      9.335
REMARK SMILES CCNc1nc(C)c(C(=O)N2CC[NH2+][C@H](C(=O)NCCCCNC(=O)c3ccc(-c4c5nc(c(-c6ccccc6)c6ccc([nH]6)c(-c6ccccc6)c6nc(c(-c7ccccc7)c7ccc4[nH]7)C=C6)C=C5)cc3)C2)s1
REMARK SMILES IDX 19 1 18 2 16 3 17 4 15 6 11 7 12 8 74 9 13 10 14 11 9 14
REMARK SMILES IDX 10 15 8 16 4 17 5 18 75 19 6 20 7 21 3 22 2 24 1 25 20 26
REMARK SMILES IDX 21 27 22 28 23 29 24 30 25 32 26 33 27 34 73 35 28 36 72 37
REMARK SMILES IDX 29 38 30 39 31 40 66 41 32 42 71 43 65 44 67 45 33 46 70 47
REMARK SMILES IDX 64 48 63 49 34 51 56 52 41 53 55 54 42 55 45 56 54 57 68 58
REMARK SMILES IDX 43 59 44 60 53 62 69 63 46 64 35 65 36 66 40 67 37 68 39 69
REMARK SMILES IDX 38 70 57 71 58 72 62 73 59 74 61 75 60 76 47 77 48 78 52 79
REMARK SMILES IDX 49 80 51 81 50 82
REMARK H PARENT 18 5 14 12 14 13 3 23 23 31 67 50 45 61
REMARK Flexibility Score: inf
ROOT
ATOM      1  C   UNL A   1      33.242  29.780  26.736  1.00  0.00     0.116 C 
ENDROOT
BRANCH   1   2
ATOM      2  N   UNL A   1      33.693  29.302  25.444  1.00  0.00    -0.351 N 
ATOM      3  C   UNL A   1      33.449  28.136  24.783  1.00  0.00     0.280 C 
ATOM      4  O   UNL A   1      34.014  27.975  23.697  1.00  0.00    -0.268 OA
ATOM      5  H   UNL A   1      34.280  29.928  24.962  1.00  0.00     0.163 HD
BRANCH   3   6
ATOM      6  C   UNL A   1      32.442  27.105  25.303  1.00  0.00     0.292 C 
ATOM      7  N   UNL A   1      32.150  24.669  25.716  1.00  0.00    -0.326 N 
ATOM      8  C   UNL A   1      30.902  24.698  24.953  1.00  0.00     0.181 C 
ATOM      9  C   UNL A   1      33.105  25.711  25.343  1.00  0.00     0.195 C 
ATOM     10  C   UNL A   1      30.249  26.091  25.033  1.00  0.00     0.283 C 
ATOM     11  N   UNL A   1      31.132  27.188  24.595  1.00  0.00    -0.333 N 
ATOM     12  H   UNL A   1      30.690  28.083  24.809  1.00  0.00     0.347 HD
ATOM     13  H   UNL A   1      31.289  27.109  23.590  1.00  0.00     0.347 HD
BRANCH   7  14
ATOM     14  C   UNL A   1      32.467  23.518  26.437  1.00  0.00     0.266 C 
ATOM     15  O   UNL A   1      32.059  23.417  27.598  1.00  0.00    -0.268 OA
BRANCH  14  16
ATOM     16  C   UNL A   1      33.327  22.508  25.836  1.00  0.00     0.117 A 
ATOM     17  C   UNL A   1      34.151  20.348  25.032  1.00  0.00     0.183 A 
ATOM     18  N   UNL A   1      35.147  21.169  25.244  1.00  0.00    -0.225 NA
ATOM     19  S   UNL A   1      32.603  21.036  25.292  1.00  0.00    -0.092 S 
ATOM     20  C   UNL A   1      34.705  22.397  25.704  1.00  0.00     0.063 A 
ATOM     21  C   UNL A   1      35.778  23.363  26.052  1.00  0.00     0.068 C 
BRANCH  17  22
ATOM     22  N   UNL A   1      34.405  19.074  24.683  1.00  0.00    -0.362 N 
ATOM     23  H   UNL A   1      35.328  18.752  24.799  1.00  0.00     0.162 HD
BRANCH  22  24
ATOM     24  C   UNL A   1      33.444  18.138  24.155  1.00  0.00     0.112 C 
ATOM     25  C   UNL A   1      34.202  16.948  23.581  1.00  0.00     0.027 C 
ENDBRANCH  22  24
ENDBRANCH  17  22
ENDBRANCH  14  16
ENDBRANCH   7  14
ENDBRANCH   3   6
ENDBRANCH   1   2
BRANCH   1  26
ATOM     26  C   UNL A   1      31.790  30.246  26.675  1.00  0.00     0.023 C 
BRANCH  26  27
ATOM     27  C   UNL A   1      31.621  31.767  26.706  1.00  0.00     0.023 C 
BRANCH  27  28
ATOM     28  C   UNL A   1      32.862  32.542  27.136  1.00  0.00     0.116 C 
BRANCH  28  29
ATOM     29  N   UNL A   1      32.552  33.876  27.627  1.00  0.00    -0.352 N 
ATOM     30  C   UNL A   1      33.174  34.590  28.620  1.00  0.00     0.251 C 
ATOM     31  H   UNL A   1      31.795  34.327  27.187  1.00  0.00     0.163 HD
ATOM     32  O   UNL A   1      32.702  35.654  29.011  1.00  0.00    -0.269 OA
BRANCH  30  33
ATOM     33  C   UNL A   1      34.400  34.049  29.240  1.00  0.00     0.039 A 
ATOM     34  C   UNL A   1      34.281  33.086  30.244  1.00  0.00     0.014 A 
ATOM     35  C   UNL A   1      35.661  34.463  28.801  1.00  0.00     0.014 A 
ATOM     36  C   UNL A   1      35.429  32.488  30.763  1.00  0.00     0.010 A 
ATOM     37  C   UNL A   1      36.797  33.810  29.261  1.00  0.00     0.010 A 
ATOM     38  C   UNL A   1      36.694  32.818  30.248  1.00  0.00    -0.014 A 
BRANCH  38  39
ATOM     39  C   UNL A   1      37.920  32.131  30.723  1.00  0.00     0.031 A 
ATOM     40  C   UNL A   1      38.717  32.708  31.860  1.00  0.00     0.074 A 
ATOM     41  C   UNL A   1      38.354  31.026  30.088  1.00  0.00     0.049 A 
ATOM     42  N   UNL A   1      39.834  32.275  32.388  1.00  0.00    -0.248 NA
ATOM     43  C   UNL A   1      38.207  33.949  32.465  1.00  0.00     0.031 C 
ATOM     44  C   UNL A   1      37.692  30.387  28.948  1.00  0.00     0.029 A 
ATOM     45  N   UNL A   1      39.458  30.243  30.312  1.00  0.00    -0.354 N 
ATOM     46  C   UNL A   1      40.171  33.200  33.368  1.00  0.00     0.074 A 
ATOM     47  C   UNL A   1      39.169  34.244  33.326  1.00  0.00     0.031 C 
ATOM     48  C   UNL A   1      38.380  29.288  28.601  1.00  0.00     0.029 A 
ATOM     49  C   UNL A   1      39.553  29.169  29.461  1.00  0.00     0.049 A 
ATOM     50  H   UNL A   1      40.120  30.434  31.016  1.00  0.00     0.167 HD
ATOM     51  C   UNL A   1      41.210  33.178  34.235  1.00  0.00     0.031 A 
ATOM     52  C   UNL A   1      40.481  28.198  29.382  1.00  0.00     0.031 A 
ATOM     53  C   UNL A   1      42.201  32.136  34.281  1.00  0.00     0.049 A 
ATOM     54  C   UNL A   1      41.639  28.207  30.339  1.00  0.00     0.074 A 
ATOM     55  C   UNL A   1      43.251  31.983  35.170  1.00  0.00     0.029 A 
ATOM     56  N   UNL A   1      42.270  31.074  33.392  1.00  0.00    -0.354 N 
ATOM     57  N   UNL A   1      41.899  29.044  31.314  1.00  0.00    -0.248 NA
ATOM     58  C   UNL A   1      42.628  27.130  30.188  1.00  0.00     0.031 C 
ATOM     59  C   UNL A   1      43.992  30.864  34.780  1.00  0.00     0.029 A 
ATOM     60  C   UNL A   1      43.368  30.282  33.688  1.00  0.00     0.049 A 
ATOM     61  H   UNL A   1      41.635  30.908  32.659  1.00  0.00     0.167 HD
ATOM     62  C   UNL A   1      43.062  28.578  31.913  1.00  0.00     0.074 A 
ATOM     63  C   UNL A   1      43.449  27.378  31.199  1.00  0.00     0.031 C 
ATOM     64  C   UNL A   1      43.745  29.094  32.964  1.00  0.00     0.031 A 
BRANCH  51  65
ATOM     65  C   UNL A   1      41.336  34.335  35.190  1.00  0.00    -0.014 A 
ATOM     66  C   UNL A   1      42.069  35.485  34.857  1.00  0.00     0.009 A 
ATOM     67  C   UNL A   1      40.699  34.276  36.439  1.00  0.00     0.009 A 
ATOM     68  C   UNL A   1      42.205  36.530  35.775  1.00  0.00     0.001 A 
ATOM     69  C   UNL A   1      40.808  35.336  37.342  1.00  0.00     0.001 A 
ATOM     70  C   UNL A   1      41.572  36.455  37.014  1.00  0.00     0.000 A 
ENDBRANCH  51  65
BRANCH  52  71
ATOM     71  C   UNL A   1      40.334  27.110  28.379  1.00  0.00    -0.014 A 
ATOM     72  C   UNL A   1      39.580  25.967  28.684  1.00  0.00     0.009 A 
ATOM     73  C   UNL A   1      40.939  27.208  27.116  1.00  0.00     0.009 A 
ATOM     74  C   UNL A   1      39.451  24.934  27.753  1.00  0.00     0.001 A 
ATOM     75  C   UNL A   1      40.785  26.186  26.177  1.00  0.00     0.001 A 
ATOM     76  C   UNL A   1      40.048  25.047  26.499  1.00  0.00     0.000 A 
ENDBRANCH  52  71
BRANCH  64  77
ATOM     77  C   UNL A   1      44.963  28.345  33.430  1.00  0.00    -0.014 A 
ATOM     78  C   UNL A   1      44.869  27.303  34.365  1.00  0.00     0.009 A 
ATOM     79  C   UNL A   1      46.220  28.665  32.892  1.00  0.00     0.009 A 
ATOM     80  C   UNL A   1      46.015  26.620  34.777  1.00  0.00     0.001 A 
ATOM     81  C   UNL A   1      47.359  27.959  33.282  1.00  0.00     0.001 A 
ATOM     82  C   UNL A   1      47.257  26.945  34.232  1.00  0.00     0.000 A 
ENDBRANCH  64  77
ENDBRANCH  38  39
ENDBRANCH  30  33
ENDBRANCH  28  29
ENDBRANCH  27  28
ENDBRANCH  26  27
ENDBRANCH   1  26
TORSDOF 15
ENDMDL
MODEL 3
REMARK VINA RESULT:     -10.8      4.112      9.461
REMARK SMILES CCNc1nc(C)c(C(=O)N2CC[NH2+][C@H](C(=O)NCCCCNC(=O)c3ccc(-c4c5nc(c(-c6ccccc6)c6ccc([nH]6)c(-c6ccccc6)c6nc(c(-c7ccccc7)c7ccc4[nH]7)C=C6)C=C5)cc3)C2)s1
REMARK SMILES IDX 19 1 18 2 16 3 17 4 15 6 11 7 12 8 74 9 13 10 14 11 9 14
REMARK SMILES IDX 10 15 8 16 4 17 5 18 75 19 6 20 7 21 3 22 2 24 1 25 20 26
REMARK SMILES IDX 21 27 22 28 23 29 24 30 25 32 26 33 27 34 73 35 28 36 72 37
REMARK SMILES IDX 29 38 30 39 31 40 66 41 32 42 71 43 65 44 67 45 33 46 70 47
REMARK SMILES IDX 64 48 63 49 34 51 56 52 41 53 55 54 42 55 45 56 54 57 68 58
REMARK SMILES IDX 43 59 44 60 53 62 69 63 46 64 35 65 36 66 40 67 37 68 39 69
REMARK SMILES IDX 38 70 57 71 58 72 62 73 59 74 61 75 60 76 47 77 48 78 52 79
REMARK SMILES IDX 49 80 51 81 50 82
REMARK H PARENT 18 5 14 12 14 13 3 23 23 31 67 50 45 61
REMARK Flexibility Score: inf
ROOT
ATOM      1  C   UNL A   1      33.207  29.691  26.753  1.00  0.00     0.116 C 
ENDROOT
BRANCH   1   2
ATOM      2  N   UNL A   1      33.655  29.210  25.460  1.00  0.00    -0.351 N 
ATOM      3  C   UNL A   1      33.412  28.042  24.803  1.00  0.00     0.280 C 
ATOM      4  O   UNL A   1      33.974  27.879  23.716  1.00  0.00    -0.268 OA
ATOM      5  H   UNL A   1      34.239  29.836  24.974  1.00  0.00     0.163 HD
BRANCH   3   6
ATOM      6  C   UNL A   1      32.410  27.010  25.330  1.00  0.00     0.292 C 
ATOM      7  N   UNL A   1      32.123  24.573  25.743  1.00  0.00    -0.326 N 
ATOM      8  C   UNL A   1      30.869  24.602  24.989  1.00  0.00     0.181 C 
ATOM      9  C   UNL A   1      33.075  25.616  25.364  1.00  0.00     0.195 C 
ATOM     10  C   UNL A   1      30.216  25.994  25.075  1.00  0.00     0.283 C 
ATOM     11  N   UNL A   1      31.094  27.092  24.631  1.00  0.00    -0.333 N 
ATOM     12  H   UNL A   1      30.653  27.986  24.849  1.00  0.00     0.347 HD
ATOM     13  H   UNL A   1      31.245  27.014  23.625  1.00  0.00     0.347 HD
BRANCH   7  14
ATOM     14  C   UNL A   1      32.446  23.422  26.461  1.00  0.00     0.266 C 
ATOM     15  O   UNL A   1      32.059  23.326  27.629  1.00  0.00    -0.268 OA
BRANCH  14  16
ATOM     16  C   UNL A   1      33.289  22.406  25.847  1.00  0.00     0.117 A 
ATOM     17  C   UNL A   1      34.065  20.248  24.990  1.00  0.00     0.183 A 
ATOM     18  N   UNL A   1      35.080  21.030  25.253  1.00  0.00    -0.225 NA
ATOM     19  S   UNL A   1      32.534  20.976  25.237  1.00  0.00    -0.092 S 
ATOM     20  C   UNL A   1      34.665  22.255  25.743  1.00  0.00     0.063 A 
ATOM     21  C   UNL A   1      35.759  23.175  26.148  1.00  0.00     0.068 C 
BRANCH  17  22
ATOM     22  N   UNL A   1      34.288  18.978  24.605  1.00  0.00    -0.362 N 
ATOM     23  H   UNL A   1      35.180  18.603  24.789  1.00  0.00     0.162 HD
BRANCH  22  24
ATOM     24  C   UNL A   1      33.337  18.119  23.947  1.00  0.00     0.112 C 
ATOM     25  C   UNL A   1      34.081  16.901  23.415  1.00  0.00     0.027 C 
ENDBRANCH  22  24
ENDBRANCH  17  22
ENDBRANCH  14  16
ENDBRANCH   7  14
ENDBRANCH   3   6
ENDBRANCH   1   2
BRANCH   1  26
ATOM     26  C   UNL A   1      31.769  30.198  26.683  1.00  0.00     0.023 C 
BRANCH  26  27
ATOM     27  C   UNL A   1      31.648  31.722  26.613  1.00  0.00     0.023 C 
BRANCH  27  28
ATOM     28  C   UNL A   1      32.803  32.488  27.249  1.00  0.00     0.116 C 
BRANCH  28  29
ATOM     29  N   UNL A   1      32.458  33.864  27.571  1.00  0.00    -0.352 N 
ATOM     30  C   UNL A   1      33.020  34.692  28.510  1.00  0.00     0.251 C 
ATOM     31  H   UNL A   1      31.725  34.255  27.043  1.00  0.00     0.163 HD
ATOM     32  O   UNL A   1      32.521  35.786  28.754  1.00  0.00    -0.269 OA
BRANCH  30  33
ATOM     33  C   UNL A   1      34.213  34.238  29.252  1.00  0.00     0.039 A 
ATOM     34  C   UNL A   1      34.039  33.531  30.444  1.00  0.00     0.014 A 
ATOM     35  C   UNL A   1      35.495  34.475  28.750  1.00  0.00     0.014 A 
ATOM     36  C   UNL A   1      35.151  33.004  31.099  1.00  0.00     0.010 A 
ATOM     37  C   UNL A   1      36.593  33.880  29.360  1.00  0.00     0.010 A 
ATOM     38  C   UNL A   1      36.433  33.141  30.541  1.00  0.00    -0.014 A 
BRANCH  38  39
ATOM     39  C   UNL A   1      37.619  32.513  31.175  1.00  0.00     0.031 A 
ATOM     40  C   UNL A   1      38.246  31.293  30.561  1.00  0.00     0.074 A 
ATOM     41  C   UNL A   1      38.088  33.000  32.339  1.00  0.00     0.049 A 
ATOM     42  N   UNL A   1      39.260  30.583  30.989  1.00  0.00    -0.248 NA
ATOM     43  C   UNL A   1      37.640  30.788  29.319  1.00  0.00     0.031 C 
ATOM     44  C   UNL A   1      37.545  34.156  33.057  1.00  0.00     0.029 A 
ATOM     45  N   UNL A   1      39.132  32.583  33.125  1.00  0.00    -0.354 N 
ATOM     46  C   UNL A   1      39.396  29.538  30.083  1.00  0.00     0.074 A 
ATOM     47  C   UNL A   1      38.332  29.678  29.113  1.00  0.00     0.031 C 
ATOM     48  C   UNL A   1      38.286  34.380  34.153  1.00  0.00     0.029 A 
ATOM     49  C   UNL A   1      39.325  33.359  34.242  1.00  0.00     0.049 A 
ATOM     50  H   UNL A   1      39.690  31.800  32.909  1.00  0.00     0.167 HD
ATOM     51  C   UNL A   1      40.331  28.560  30.051  1.00  0.00     0.031 A 
ATOM     52  C   UNL A   1      40.237  33.260  35.227  1.00  0.00     0.031 A 
ATOM     53  C   UNL A   1      41.394  28.427  31.012  1.00  0.00     0.049 A 
ATOM     54  C   UNL A   1      41.250  32.150  35.183  1.00  0.00     0.074 A 
ATOM     55  C   UNL A   1      42.434  27.514  31.026  1.00  0.00     0.029 A 
ATOM     56  N   UNL A   1      41.545  29.224  32.136  1.00  0.00    -0.354 N 
ATOM     57  N   UNL A   1      41.416  31.219  34.276  1.00  0.00    -0.248 NA
ATOM     58  C   UNL A   1      42.205  32.086  36.298  1.00  0.00     0.031 C 
ATOM     59  C   UNL A   1      43.178  27.718  32.191  1.00  0.00     0.029 A 
ATOM     60  C   UNL A   1      42.641  28.800  32.871  1.00  0.00     0.049 A 
ATOM     61  H   UNL A   1      40.961  29.978  32.377  1.00  0.00     0.167 HD
ATOM     62  C   UNL A   1      42.514  30.477  34.692  1.00  0.00     0.074 A 
ATOM     63  C   UNL A   1      42.980  31.076  35.927  1.00  0.00     0.031 C 
ATOM     64  C   UNL A   1      43.088  29.401  34.102  1.00  0.00     0.031 A 
BRANCH  51  65
ATOM     65  C   UNL A   1      40.224  27.541  28.948  1.00  0.00    -0.014 A 
ATOM     66  C   UNL A   1      39.489  26.356  29.112  1.00  0.00     0.009 A 
ATOM     67  C   UNL A   1      40.862  27.778  27.721  1.00  0.00     0.009 A 
ATOM     68  C   UNL A   1      39.437  25.407  28.088  1.00  0.00     0.001 A 
ATOM     69  C   UNL A   1      40.780  26.843  26.686  1.00  0.00     0.001 A 
ATOM     70  C   UNL A   1      40.080  25.653  26.876  1.00  0.00     0.000 A 
ENDBRANCH  51  65
BRANCH  52  71
ATOM     71  C   UNL A   1      40.258  34.264  36.323  1.00  0.00    -0.014 A 
ATOM     72  C   UNL A   1      41.110  35.376  36.245  1.00  0.00     0.009 A 
ATOM     73  C   UNL A   1      39.429  34.121  37.447  1.00  0.00     0.009 A 
ATOM     74  C   UNL A   1      41.147  36.314  37.278  1.00  0.00     0.001 A 
ATOM     75  C   UNL A   1      39.448  35.076  38.465  1.00  0.00     0.001 A 
ATOM     76  C   UNL A   1      40.312  36.167  38.384  1.00  0.00     0.000 A 
ENDBRANCH  52  71
BRANCH  64  77
ATOM     77  C   UNL A   1      44.307  28.820  34.765  1.00  0.00    -0.014 A 
ATOM     78  C   UNL A   1      45.584  29.363  34.555  1.00  0.00     0.009 A 
ATOM     79  C   UNL A   1      44.165  27.734  35.644  1.00  0.00     0.009 A 
ATOM     80  C   UNL A   1      46.698  28.807  35.186  1.00  0.00     0.001 A 
ATOM     81  C   UNL A   1      45.277  27.201  36.298  1.00  0.00     0.001 A 
ATOM     82  C   UNL A   1      46.544  27.731  36.061  1.00  0.00     0.000 A 
ENDBRANCH  64  77
ENDBRANCH  38  39
ENDBRANCH  30  33
ENDBRANCH  28  29
ENDBRANCH  27  28
ENDBRANCH  26  27
ENDBRANCH   1  26
TORSDOF 15
ENDMDL
