MODEL 1
REMARK VINA RESULT:     -11.2      0.000      0.000
REMARK SMILES C[C@](C(=O)NCCCCNC(=O)c1ccc(-c2c3nc(c(-c4ccccc4)c4ccc([nH]4)c(-c4ccccc4)c4nc(c(-c5ccccc5)c5ccc2[nH]5)C=C4)C=C3)cc1)(c1cc(F)cc(F)c1)[NH+]1CCCC1
REMARK SMILES IDX 8 1 7 2 6 3 5 4 3 5 4 6 2 8 1 9 61 10 62 11 68 12 63 13
REMARK SMILES IDX 66 14 64 15 65 16 67 17 69 18 70 19 73 20 71 22 72 23 9 24
REMARK SMILES IDX 10 25 11 26 12 28 13 29 14 30 60 31 15 32 59 33 16 34 17 35
REMARK SMILES IDX 18 36 53 37 19 38 58 39 52 40 54 41 20 42 57 43 51 44 50 45
REMARK SMILES IDX 21 47 43 48 28 49 42 50 29 51 32 52 41 53 55 54 30 55 31 56
REMARK SMILES IDX 40 58 56 59 33 60 22 61 23 62 27 63 24 64 26 65 25 66 44 67
REMARK SMILES IDX 45 68 49 69 46 70 48 71 47 72 34 73 35 74 39 75 36 76 38 77
REMARK SMILES IDX 37 78
REMARK H PARENT 5 7 69 21 10 27 54 46 32 57
REMARK Flexibility Score: inf
ROOT
ATOM      1  C   UNL A   1      37.380  21.409  24.777  1.00  0.00     0.023 C 
ENDROOT
BRANCH   1   2
ATOM      2  C   UNL A   1      36.027  21.343  25.478  1.00  0.00     0.023 C 
BRANCH   2   3
ATOM      3  C   UNL A   1      35.530  22.709  25.945  1.00  0.00     0.116 C 
BRANCH   3   4
ATOM      4  N   UNL A   1      34.619  22.572  27.066  1.00  0.00    -0.350 N 
ATOM      5  C   UNL A   1      33.265  22.794  27.108  1.00  0.00     0.286 C 
ATOM      6  O   UNL A   1      32.703  22.572  28.185  1.00  0.00    -0.267 OA
ATOM      7  H   UNL A   1      35.029  22.280  27.912  1.00  0.00     0.163 HD
BRANCH   5   8
ATOM      8  C   UNL A   1      32.469  23.283  25.817  1.00  0.00     0.200 C 
ATOM      9  C   UNL A   1      30.999  23.520  26.237  1.00  0.00     0.096 C 
BRANCH   8  10
ATOM     10  C   UNL A   1      33.060  24.659  25.374  1.00  0.00     0.028 A 
ATOM     11  C   UNL A   1      33.261  25.726  26.272  1.00  0.00     0.050 A 
ATOM     12  C   UNL A   1      33.315  24.916  24.010  1.00  0.00     0.050 A 
ATOM     13  C   UNL A   1      33.641  26.990  25.818  1.00  0.00     0.126 A 
ATOM     14  C   UNL A   1      33.677  26.195  23.578  1.00  0.00     0.126 A 
ATOM     15  F   UNL A   1      33.777  27.987  26.702  1.00  0.00    -0.207 F 
ATOM     16  C   UNL A   1      33.835  27.241  24.472  1.00  0.00     0.078 A 
ATOM     17  F   UNL A   1      33.826  26.425  22.267  1.00  0.00    -0.207 F 
ENDBRANCH   8  10
BRANCH   8  18
ATOM     18  N   UNL A   1      32.598  22.243  24.745  1.00  0.00    -0.319 N 
ATOM     19  C   UNL A   1      32.302  20.854  25.115  1.00  0.00     0.263 C 
ATOM     20  C   UNL A   1      31.815  22.431  23.518  1.00  0.00     0.263 C 
ATOM     21  H   UNL A   1      33.594  22.394  24.587  1.00  0.00     0.349 HD
ATOM     22  C   UNL A   1      32.567  20.152  23.792  1.00  0.00     0.067 C 
ATOM     23  C   UNL A   1      32.129  21.158  22.736  1.00  0.00     0.067 C 
ENDBRANCH   8  18
ENDBRANCH   5   8
ENDBRANCH   3   4
ENDBRANCH   2   3
ENDBRANCH   1   2
BRANCH   1  24
ATOM     24  C   UNL A   1      38.574  21.371  25.724  1.00  0.00     0.116 C 
BRANCH  24  25
ATOM     25  N   UNL A   1      39.350  20.143  25.619  1.00  0.00    -0.352 N 
ATOM     26  C   UNL A   1      40.670  19.945  25.956  1.00  0.00     0.251 C 
ATOM     27  H   UNL A   1      38.873  19.358  25.265  1.00  0.00     0.163 HD
ATOM     28  O   UNL A   1      41.238  18.889  25.724  1.00  0.00    -0.269 OA
BRANCH  26  29
ATOM     29  C   UNL A   1      41.399  21.071  26.568  1.00  0.00     0.039 A 
ATOM     30  C   UNL A   1      41.987  22.025  25.738  1.00  0.00     0.014 A 
ATOM     31  C   UNL A   1      41.375  21.239  27.955  1.00  0.00     0.014 A 
ATOM     32  C   UNL A   1      42.475  23.207  26.297  1.00  0.00     0.010 A 
ATOM     33  C   UNL A   1      41.799  22.444  28.500  1.00  0.00     0.010 A 
ATOM     34  C   UNL A   1      42.334  23.445  27.673  1.00  0.00    -0.014 A 
BRANCH  34  35
ATOM     35  C   UNL A   1      42.694  24.752  28.275  1.00  0.00     0.031 A 
ATOM     36  C   UNL A   1      41.637  25.799  28.478  1.00  0.00     0.074 A 
ATOM     37  C   UNL A   1      43.988  25.034  28.527  1.00  0.00     0.049 A 
ATOM     38  N   UNL A   1      41.773  27.043  28.861  1.00  0.00    -0.248 NA
ATOM     39  C   UNL A   1      40.249  25.408  28.182  1.00  0.00     0.031 C 
ATOM     40  C   UNL A   1      45.115  24.119  28.321  1.00  0.00     0.029 A 
ATOM     41  N   UNL A   1      44.578  26.184  28.988  1.00  0.00    -0.354 N 
ATOM     42  C   UNL A   1      40.498  27.589  28.822  1.00  0.00     0.074 A 
ATOM     43  C   UNL A   1      39.604  26.553  28.351  1.00  0.00     0.031 C 
ATOM     44  C   UNL A   1      46.256  24.742  28.660  1.00  0.00     0.029 A 
ATOM     45  C   UNL A   1      45.948  26.108  29.065  1.00  0.00     0.049 A 
ATOM     46  H   UNL A   1      44.068  26.988  29.239  1.00  0.00     0.167 HD
ATOM     47  C   UNL A   1      40.105  28.839  29.160  1.00  0.00     0.031 A 
ATOM     48  C   UNL A   1      46.858  27.042  29.403  1.00  0.00     0.031 A 
ATOM     49  C   UNL A   1      40.988  29.855  29.662  1.00  0.00     0.049 A 
ATOM     50  C   UNL A   1      46.390  28.421  29.776  1.00  0.00     0.074 A 
ATOM     51  C   UNL A   1      40.667  31.117  30.131  1.00  0.00     0.029 A 
ATOM     52  N   UNL A   1      42.365  29.729  29.754  1.00  0.00    -0.354 N 
ATOM     53  N   UNL A   1      45.168  28.892  29.828  1.00  0.00    -0.248 NA
ATOM     54  C   UNL A   1      47.429  29.399  30.137  1.00  0.00     0.031 C 
ATOM     55  C   UNL A   1      41.857  31.775  30.459  1.00  0.00     0.029 A 
ATOM     56  C   UNL A   1      42.911  30.905  30.236  1.00  0.00     0.049 A 
ATOM     57  H   UNL A   1      42.876  28.924  29.512  1.00  0.00     0.167 HD
ATOM     58  C   UNL A   1      45.289  30.211  30.243  1.00  0.00     0.074 A 
ATOM     59  C   UNL A   1      46.700  30.461  30.448  1.00  0.00     0.031 C 
ATOM     60  C   UNL A   1      44.317  31.135  30.432  1.00  0.00     0.031 A 
BRANCH  47  61
ATOM     61  C   UNL A   1      38.654  29.184  28.996  1.00  0.00    -0.014 A 
ATOM     62  C   UNL A   1      37.758  29.087  30.072  1.00  0.00     0.009 A 
ATOM     63  C   UNL A   1      38.193  29.673  27.764  1.00  0.00     0.009 A 
ATOM     64  C   UNL A   1      36.420  29.454  29.908  1.00  0.00     0.001 A 
ATOM     65  C   UNL A   1      36.860  30.061  27.611  1.00  0.00     0.001 A 
ATOM     66  C   UNL A   1      35.975  29.946  28.681  1.00  0.00     0.000 A 
ENDBRANCH  47  61
BRANCH  48  67
ATOM     67  C   UNL A   1      48.309  26.718  29.385  1.00  0.00    -0.014 A 
ATOM     68  C   UNL A   1      49.082  26.972  28.242  1.00  0.00     0.009 A 
ATOM     69  C   UNL A   1      48.919  26.127  30.501  1.00  0.00     0.009 A 
ATOM     70  C   UNL A   1      50.431  26.610  28.207  1.00  0.00     0.001 A 
ATOM     71  C   UNL A   1      50.275  25.791  30.473  1.00  0.00     0.001 A 
ATOM     72  C   UNL A   1      51.027  26.022  29.322  1.00  0.00     0.000 A 
ENDBRANCH  48  67
BRANCH  60  73
ATOM     73  C   UNL A   1      44.745  32.495  30.900  1.00  0.00    -0.014 A 
ATOM     74  C   UNL A   1      45.020  33.520  29.982  1.00  0.00     0.009 A 
ATOM     75  C   UNL A   1      44.819  32.770  32.275  1.00  0.00     0.009 A 
ATOM     76  C   UNL A   1      45.385  34.789  30.433  1.00  0.00     0.001 A 
ATOM     77  C   UNL A   1      45.159  34.046  32.722  1.00  0.00     0.001 A 
ATOM     78  C   UNL A   1      45.448  35.053  31.801  1.00  0.00     0.000 A 
ENDBRANCH  60  73
ENDBRANCH  34  35
ENDBRANCH  26  29
ENDBRANCH  24  25
ENDBRANCH   1  24
TORSDOF 13
ENDMDL
MODEL 2
REMARK VINA RESULT:     -11.1      2.236      7.094
REMARK SMILES C[C@](C(=O)NCCCCNC(=O)c1ccc(-c2c3nc(c(-c4ccccc4)c4ccc([nH]4)c(-c4ccccc4)c4nc(c(-c5ccccc5)c5ccc2[nH]5)C=C4)C=C3)cc1)(c1cc(F)cc(F)c1)[NH+]1CCCC1
REMARK SMILES IDX 8 1 7 2 6 3 5 4 3 5 4 6 2 8 1 9 61 10 62 11 68 12 63 13
REMARK SMILES IDX 66 14 64 15 65 16 67 17 69 18 70 19 73 20 71 22 72 23 9 24
REMARK SMILES IDX 10 25 11 26 12 28 13 29 14 30 60 31 15 32 59 33 16 34 17 35
REMARK SMILES IDX 18 36 53 37 19 38 58 39 52 40 54 41 20 42 57 43 51 44 50 45
REMARK SMILES IDX 21 47 43 48 28 49 42 50 29 51 32 52 41 53 55 54 30 55 31 56
REMARK SMILES IDX 40 58 56 59 33 60 22 61 23 62 27 63 24 64 26 65 25 66 44 67
REMARK SMILES IDX 45 68 49 69 46 70 48 71 47 72 34 73 35 74 39 75 36 76 38 77
REMARK SMILES IDX 37 78
REMARK H PARENT 5 7 69 21 10 27 54 46 32 57
REMARK Flexibility Score: inf
ROOT
ATOM      1  C   UNL A   1      33.473  28.711  25.841  1.00  0.00     0.023 C 
ENDROOT
BRANCH   1   2
ATOM      2  C   UNL A   1      32.762  27.439  25.391  1.00  0.00     0.023 C 
BRANCH   2   3
ATOM      3  C   UNL A   1      33.709  26.254  25.221  1.00  0.00     0.116 C 
BRANCH   3   4
ATOM      4  N   UNL A   1      33.863  25.910  23.820  1.00  0.00    -0.350 N 
ATOM      5  C   UNL A   1      33.828  24.673  23.229  1.00  0.00     0.286 C 
ATOM      6  O   UNL A   1      33.952  24.646  21.999  1.00  0.00    -0.267 OA
ATOM      7  H   UNL A   1      34.012  26.670  23.212  1.00  0.00     0.163 HD
BRANCH   5   8
ATOM      8  C   UNL A   1      33.607  23.351  24.091  1.00  0.00     0.200 C 
ATOM      9  C   UNL A   1      33.094  22.249  23.134  1.00  0.00     0.096 C 
BRANCH   8  10
ATOM     10  C   UNL A   1      34.995  22.890  24.638  1.00  0.00     0.028 A 
ATOM     11  C   UNL A   1      35.995  23.798  25.041  1.00  0.00     0.050 A 
ATOM     12  C   UNL A   1      35.337  21.521  24.644  1.00  0.00     0.050 A 
ATOM     13  C   UNL A   1      37.277  23.360  25.374  1.00  0.00     0.126 A 
ATOM     14  C   UNL A   1      36.633  21.109  24.965  1.00  0.00     0.126 A 
ATOM     15  F   UNL A   1      38.209  24.262  25.707  1.00  0.00    -0.207 F 
ATOM     16  C   UNL A   1      37.613  22.019  25.323  1.00  0.00     0.078 A 
ATOM     17  F   UNL A   1      36.947  19.809  24.875  1.00  0.00    -0.207 F 
ENDBRANCH   8  10
BRANCH   8  18
ATOM     18  N   UNL A   1      32.637  23.649  25.194  1.00  0.00    -0.319 N 
ATOM     19  C   UNL A   1      31.211  23.686  24.847  1.00  0.00     0.263 C 
ATOM     20  C   UNL A   1      32.665  22.780  26.377  1.00  0.00     0.263 C 
ATOM     21  H   UNL A   1      33.007  24.577  25.396  1.00  0.00     0.349 HD
ATOM     22  C   UNL A   1      30.605  24.029  26.199  1.00  0.00     0.067 C 
ATOM     23  C   UNL A   1      31.505  23.324  27.206  1.00  0.00     0.067 C 
ENDBRANCH   8  18
ENDBRANCH   5   8
ENDBRANCH   3   4
ENDBRANCH   2   3
ENDBRANCH   1   2
BRANCH   1  24
ATOM     24  C   UNL A   1      33.516  28.898  27.353  1.00  0.00     0.116 C 
BRANCH  24  25
ATOM     25  N   UNL A   1      33.641  30.292  27.756  1.00  0.00    -0.352 N 
ATOM     26  C   UNL A   1      34.737  30.919  28.305  1.00  0.00     0.251 C 
ATOM     27  H   UNL A   1      32.846  30.856  27.616  1.00  0.00     0.163 HD
ATOM     28  O   UNL A   1      34.683  32.075  28.696  1.00  0.00    -0.269 OA
BRANCH  26  29
ATOM     29  C   UNL A   1      35.976  30.133  28.452  1.00  0.00     0.039 A 
ATOM     30  C   UNL A   1      36.891  30.114  27.400  1.00  0.00     0.014 A 
ATOM     31  C   UNL A   1      36.276  29.537  29.680  1.00  0.00     0.014 A 
ATOM     32  C   UNL A   1      38.160  29.572  27.610  1.00  0.00     0.010 A 
ATOM     33  C   UNL A   1      37.560  29.061  29.906  1.00  0.00     0.010 A 
ATOM     34  C   UNL A   1      38.518  29.092  28.879  1.00  0.00    -0.014 A 
BRANCH  34  35
ATOM     35  C   UNL A   1      39.904  28.658  29.180  1.00  0.00     0.031 A 
ATOM     36  C   UNL A   1      40.881  29.632  29.772  1.00  0.00     0.074 A 
ATOM     37  C   UNL A   1      40.309  27.426  28.812  1.00  0.00     0.049 A 
ATOM     38  N   UNL A   1      42.165  29.486  29.982  1.00  0.00    -0.248 NA
ATOM     39  C   UNL A   1      40.355  30.954  30.150  1.00  0.00     0.031 C 
ATOM     40  C   UNL A   1      39.468  26.406  28.179  1.00  0.00     0.029 A 
ATOM     41  N   UNL A   1      41.543  26.831  28.895  1.00  0.00    -0.354 N 
ATOM     42  C   UNL A   1      42.603  30.703  30.485  1.00  0.00     0.074 A 
ATOM     43  C   UNL A   1      41.458  31.587  30.522  1.00  0.00     0.031 C 
ATOM     44  C   UNL A   1      40.209  25.312  27.937  1.00  0.00     0.029 A 
ATOM     45  C   UNL A   1      41.582  25.566  28.357  1.00  0.00     0.049 A 
ATOM     46  H   UNL A   1      42.327  27.267  29.300  1.00  0.00     0.167 HD
ATOM     47  C   UNL A   1      43.847  31.049  30.890  1.00  0.00     0.031 A 
ATOM     48  C   UNL A   1      42.613  24.714  28.200  1.00  0.00     0.031 A 
ATOM     49  C   UNL A   1      44.974  30.159  30.886  1.00  0.00     0.049 A 
ATOM     50  C   UNL A   1      43.983  25.127  28.662  1.00  0.00     0.074 A 
ATOM     51  C   UNL A   1      46.250  30.385  31.375  1.00  0.00     0.029 A 
ATOM     52  N   UNL A   1      44.966  28.876  30.361  1.00  0.00    -0.354 N 
ATOM     53  N   UNL A   1      44.360  26.247  29.226  1.00  0.00    -0.248 NA
ATOM     54  C   UNL A   1      45.070  24.155  28.465  1.00  0.00     0.031 C 
ATOM     55  C   UNL A   1      47.028  29.256  31.100  1.00  0.00     0.029 A 
ATOM     56  C   UNL A   1      46.224  28.313  30.481  1.00  0.00     0.049 A 
ATOM     57  H   UNL A   1      44.182  28.434  29.964  1.00  0.00     0.167 HD
ATOM     58  C   UNL A   1      45.721  26.111  29.466  1.00  0.00     0.074 A 
ATOM     59  C   UNL A   1      46.099  24.791  29.006  1.00  0.00     0.031 C 
ATOM     60  C   UNL A   1      46.581  27.000  30.016  1.00  0.00     0.031 A 
BRANCH  47  61
ATOM     61  C   UNL A   1      44.060  32.454  31.371  1.00  0.00    -0.014 A 
ATOM     62  C   UNL A   1      44.433  33.477  30.485  1.00  0.00     0.009 A 
ATOM     63  C   UNL A   1      43.823  32.769  32.717  1.00  0.00     0.009 A 
ATOM     64  C   UNL A   1      44.585  34.787  30.946  1.00  0.00     0.001 A 
ATOM     65  C   UNL A   1      43.953  34.085  33.169  1.00  0.00     0.001 A 
ATOM     66  C   UNL A   1      44.339  35.090  32.284  1.00  0.00     0.000 A 
ENDBRANCH  47  61
BRANCH  48  67
ATOM     67  C   UNL A   1      42.403  23.391  27.556  1.00  0.00    -0.014 A 
ATOM     68  C   UNL A   1      41.895  22.311  28.294  1.00  0.00     0.009 A 
ATOM     69  C   UNL A   1      42.738  23.195  26.207  1.00  0.00     0.009 A 
ATOM     70  C   UNL A   1      41.756  21.054  27.702  1.00  0.00     0.001 A 
ATOM     71  C   UNL A   1      42.572  21.942  25.611  1.00  0.00     0.001 A 
ATOM     72  C   UNL A   1      42.093  20.870  26.362  1.00  0.00     0.000 A 
ENDBRANCH  48  67
BRANCH  60  73
ATOM     73  C   UNL A   1      48.011  26.570  30.164  1.00  0.00    -0.014 A 
ATOM     74  C   UNL A   1      48.442  25.875  31.304  1.00  0.00     0.009 A 
ATOM     75  C   UNL A   1      48.925  26.813  29.126  1.00  0.00     0.009 A 
ATOM     76  C   UNL A   1      49.767  25.453  31.413  1.00  0.00     0.001 A 
ATOM     77  C   UNL A   1      50.242  26.368  29.226  1.00  0.00     0.001 A 
ATOM     78  C   UNL A   1      50.664  25.694  30.372  1.00  0.00     0.000 A 
ENDBRANCH  60  73
ENDBRANCH  34  35
ENDBRANCH  26  29
ENDBRANCH  24  25
ENDBRANCH   1  24
TORSDOF 13
ENDMDL
MODEL 3
REMARK VINA RESULT:     -11.1      3.627      8.277
REMARK SMILES C[C@](C(=O)NCCCCNC(=O)c1ccc(-c2c3nc(c(-c4ccccc4)c4ccc([nH]4)c(-c4ccccc4)c4nc(c(-c5ccccc5)c5ccc2[nH]5)C=C4)C=C3)cc1)(c1cc(F)cc(F)c1)[NH+]1CCCC1
REMARK SMILES IDX 8 1 7 2 6 3 5 4 3 5 4 6 2 8 1 9 61 10 62 11 68 12 63 13
REMARK SMILES IDX 66 14 64 15 65 16 67 17 69 18 70 19 73 20 71 22 72 23 9 24
REMARK SMILES IDX 10 25 11 26 12 28 13 29 14 30 60 31 15 32 59 33 16 34 17 35
REMARK SMILES IDX 18 36 53 37 19 38 58 39 52 40 54 41 20 42 57 43 51 44 50 45
REMARK SMILES IDX 21 47 43 48 28 49 42 50 29 51 32 52 41 53 55 54 30 55 31 56
REMARK SMILES IDX 40 58 56 59 33 60 22 61 23 62 27 63 24 64 26 65 25 66 44 67
REMARK SMILES IDX 45 68 49 69 46 70 48 71 47 72 34 73 35 74 39 75 36 76 38 77
REMARK SMILES IDX 37 78
REMARK H PARENT 5 7 69 21 10 27 54 46 32 57
REMARK Flexibility Score: inf
ROOT
ATOM      1  C   UNL A   1      32.240  30.066  26.390  1.00  0.00     0.023 C 
ENDROOT
BRANCH   1   2
ATOM      2  C   UNL A   1      31.779  28.869  27.214  1.00  0.00     0.023 C 
BRANCH   2   3
ATOM      3  C   UNL A   1      32.246  27.534  26.642  1.00  0.00     0.116 C 
BRANCH   3   4
ATOM      4  N   UNL A   1      31.280  26.486  26.913  1.00  0.00    -0.350 N 
ATOM      5  C   UNL A   1      30.891  25.444  26.109  1.00  0.00     0.286 C 
ATOM      6  O   UNL A   1      30.068  24.657  26.587  1.00  0.00    -0.267 OA
ATOM      7  H   UNL A   1      30.844  26.530  27.795  1.00  0.00     0.163 HD
BRANCH   5   8
ATOM      8  C   UNL A   1      31.503  25.255  24.649  1.00  0.00     0.200 C 
ATOM      9  C   UNL A   1      30.730  24.102  23.965  1.00  0.00     0.096 C 
BRANCH   8  10
ATOM     10  C   UNL A   1      31.224  26.557  23.833  1.00  0.00     0.028 A 
ATOM     11  C   UNL A   1      32.255  27.382  23.340  1.00  0.00     0.050 A 
ATOM     12  C   UNL A   1      29.901  27.014  23.654  1.00  0.00     0.050 A 
ATOM     13  C   UNL A   1      31.974  28.617  22.755  1.00  0.00     0.126 A 
ATOM     14  C   UNL A   1      29.646  28.262  23.080  1.00  0.00     0.126 A 
ATOM     15  F   UNL A   1      32.987  29.389  22.341  1.00  0.00    -0.207 F 
ATOM     16  C   UNL A   1      30.675  29.075  22.635  1.00  0.00     0.078 A 
ATOM     17  F   UNL A   1      28.383  28.702  23.006  1.00  0.00    -0.207 F 
ENDBRANCH   8  10
BRANCH   8  18
ATOM     18  N   UNL A   1      32.969  24.969  24.772  1.00  0.00    -0.319 N 
ATOM     19  C   UNL A   1      33.404  24.154  25.912  1.00  0.00     0.263 C 
ATOM     20  C   UNL A   1      33.633  24.323  23.633  1.00  0.00     0.263 C 
ATOM     21  H   UNL A   1      33.247  25.945  24.870  1.00  0.00     0.349 HD
ATOM     22  C   UNL A   1      34.906  24.126  25.676  1.00  0.00     0.067 C 
ATOM     23  C   UNL A   1      35.050  24.116  24.160  1.00  0.00     0.067 C 
ENDBRANCH   8  18
ENDBRANCH   5   8
ENDBRANCH   3   4
ENDBRANCH   2   3
ENDBRANCH   1   2
BRANCH   1  24
ATOM     24  C   UNL A   1      33.120  31.047  27.157  1.00  0.00     0.116 C 
BRANCH  24  25
ATOM     25  N   UNL A   1      32.521  32.368  27.295  1.00  0.00    -0.352 N 
ATOM     26  C   UNL A   1      33.008  33.448  27.995  1.00  0.00     0.251 C 
ATOM     27  H   UNL A   1      31.664  32.505  26.829  1.00  0.00     0.163 HD
ATOM     28  O   UNL A   1      32.359  34.475  28.120  1.00  0.00    -0.269 OA
BRANCH  26  29
ATOM     29  C   UNL A   1      34.329  33.312  28.637  1.00  0.00     0.039 A 
ATOM     30  C   UNL A   1      34.415  32.678  29.876  1.00  0.00     0.014 A 
ATOM     31  C   UNL A   1      35.478  33.694  27.941  1.00  0.00     0.014 A 
ATOM     32  C   UNL A   1      35.670  32.339  30.382  1.00  0.00     0.010 A 
ATOM     33  C   UNL A   1      36.721  33.295  28.414  1.00  0.00     0.010 A 
ATOM     34  C   UNL A   1      36.826  32.597  29.628  1.00  0.00    -0.014 A 
BRANCH  34  35
ATOM     35  C   UNL A   1      38.158  32.108  30.060  1.00  0.00     0.031 A 
ATOM     36  C   UNL A   1      38.694  30.816  29.514  1.00  0.00     0.074 A 
ATOM     37  C   UNL A   1      38.827  32.768  31.027  1.00  0.00     0.049 A 
ATOM     38  N   UNL A   1      39.768  30.157  29.865  1.00  0.00    -0.248 NA
ATOM     39  C   UNL A   1      37.904  30.163  28.458  1.00  0.00     0.031 C 
ATOM     40  C   UNL A   1      38.385  34.006  31.675  1.00  0.00     0.029 A 
ATOM     41  N   UNL A   1      40.012  32.473  31.653  1.00  0.00    -0.354 N 
ATOM     42  C   UNL A   1      39.766  29.001  29.098  1.00  0.00     0.074 A 
ATOM     43  C   UNL A   1      38.570  29.031  28.284  1.00  0.00     0.031 C 
ATOM     44  C   UNL A   1      39.289  34.365  32.601  1.00  0.00     0.029 A 
ATOM     45  C   UNL A   1      40.350  33.365  32.642  1.00  0.00     0.049 A 
ATOM     46  H   UNL A   1      40.568  31.696  31.417  1.00  0.00     0.167 HD
ATOM     47  C   UNL A   1      40.685  28.008  29.066  1.00  0.00     0.031 A 
ATOM     48  C   UNL A   1      41.386  33.367  33.502  1.00  0.00     0.031 A 
ATOM     49  C   UNL A   1      41.889  27.997  29.849  1.00  0.00     0.049 A 
ATOM     50  C   UNL A   1      42.392  32.251  33.441  1.00  0.00     0.074 A 
ATOM     51  C   UNL A   1      42.932  27.087  29.809  1.00  0.00     0.029 A 
ATOM     52  N   UNL A   1      42.210  28.934  30.817  1.00  0.00    -0.354 N 
ATOM     53  N   UNL A   1      42.426  31.214  32.640  1.00  0.00    -0.248 NA
ATOM     54  C   UNL A   1      43.503  32.306  34.404  1.00  0.00     0.031 C 
ATOM     55  C   UNL A   1      43.861  27.446  30.790  1.00  0.00     0.029 A 
ATOM     56  C   UNL A   1      43.416  28.604  31.408  1.00  0.00     0.049 A 
ATOM     57  H   UNL A   1      41.661  29.717  31.050  1.00  0.00     0.167 HD
ATOM     58  C   UNL A   1      43.566  30.504  32.989  1.00  0.00     0.074 A 
ATOM     59  C   UNL A   1      44.208  31.238  34.060  1.00  0.00     0.031 C 
ATOM     60  C   UNL A   1      44.038  29.345  32.472  1.00  0.00     0.031 A 
BRANCH  47  61
ATOM     61  C   UNL A   1      40.424  26.843  28.157  1.00  0.00    -0.014 A 
ATOM     62  C   UNL A   1      40.958  26.799  26.860  1.00  0.00     0.009 A 
ATOM     63  C   UNL A   1      39.687  25.747  28.629  1.00  0.00     0.009 A 
ATOM     64  C   UNL A   1      40.738  25.686  26.045  1.00  0.00     0.001 A 
ATOM     65  C   UNL A   1      39.489  24.625  27.821  1.00  0.00     0.001 A 
ATOM     66  C   UNL A   1      40.011  24.599  26.529  1.00  0.00     0.000 A 
ENDBRANCH  47  61
BRANCH  48  67
ATOM     67  C   UNL A   1      41.522  34.447  34.514  1.00  0.00    -0.014 A 
ATOM     68  C   UNL A   1      40.950  34.307  35.788  1.00  0.00     0.009 A 
ATOM     69  C   UNL A   1      42.197  35.636  34.200  1.00  0.00     0.009 A 
ATOM     70  C   UNL A   1      41.026  35.348  36.715  1.00  0.00     0.001 A 
ATOM     71  C   UNL A   1      42.295  36.665  35.140  1.00  0.00     0.001 A 
ATOM     72  C   UNL A   1      41.700  36.525  36.392  1.00  0.00     0.000 A 
ENDBRANCH  48  67
BRANCH  60  73
ATOM     73  C   UNL A   1      45.316  28.807  33.046  1.00  0.00    -0.014 A 
ATOM     74  C   UNL A   1      45.302  27.888  34.106  1.00  0.00     0.009 A 
ATOM     75  C   UNL A   1      46.546  29.181  32.482  1.00  0.00     0.009 A 
ATOM     76  C   UNL A   1      46.497  27.372  34.606  1.00  0.00     0.001 A 
ATOM     77  C   UNL A   1      47.738  28.644  32.967  1.00  0.00     0.001 A 
ATOM     78  C   UNL A   1      47.713  27.745  34.033  1.00  0.00     0.000 A 
ENDBRANCH  60  73
ENDBRANCH  34  35
ENDBRANCH  26  29
ENDBRANCH  24  25
ENDBRANCH   1  24
TORSDOF 13
ENDMDL
