MODEL 1
REMARK VINA RESULT:     -14.3      0.000      0.000
REMARK SMILES Cc1ccccc1C(=O)Nc1cc(C(=O)NCCCCNC(=O)c2ccc(-c3c4nc(c(-c5ccccc5)c5ccc([nH]5)c(-c5ccccc5)c5nc(c(-c6ccccc6)c6ccc3[nH]6)C=C5)C=C4)cc2)ccc1N1CC[NH+](CC(=O)Nc2ccc(F)cc2)CC1
REMARK SMILES IDX 17 1 16 2 14 3 15 4 13 6 11 7 12 8 74 9 73 10 72 11 10 12
REMARK SMILES IDX 8 13 9 14 7 16 1 17 2 18 3 19 4 20 6 21 5 22 75 23 76 24
REMARK SMILES IDX 91 25 77 26 90 27 78 28 79 30 80 31 81 32 82 33 83 35 84 36
REMARK SMILES IDX 89 37 85 38 88 39 86 40 87 41 18 42 19 43 20 44 21 45 22 46
REMARK SMILES IDX 23 48 24 49 25 50 71 51 26 52 70 53 27 54 28 55 29 56 64 57
REMARK SMILES IDX 30 58 69 59 63 60 65 61 31 62 68 63 62 64 61 65 32 67 54 68
REMARK SMILES IDX 39 69 53 70 40 71 43 72 52 73 66 74 41 75 42 76 51 78 67 79
REMARK SMILES IDX 44 80 33 81 34 82 38 83 35 84 37 85 36 86 55 87 56 88 60 89
REMARK SMILES IDX 57 90 59 91 58 92 45 93 46 94 50 95 47 96 49 97 48 98
REMARK H PARENT 16 5 10 15 78 29 82 34 21 47 65 66 43 77
REMARK Flexibility Score: inf
ROOT
ATOM      1  C   UNL A   1      39.132  22.371  26.127  1.00  0.00     0.116 C 
ENDROOT
BRANCH   1   2
ATOM      2  N   UNL A   1      38.618  21.069  25.728  1.00  0.00    -0.352 N 
ATOM      3  C   UNL A   1      37.521  20.660  25.002  1.00  0.00     0.251 C 
ATOM      4  O   UNL A   1      37.433  19.456  24.759  1.00  0.00    -0.269 OA
ATOM      5  H   UNL A   1      39.173  20.319  26.045  1.00  0.00     0.163 HD
BRANCH   3   6
ATOM      6  C   UNL A   1      36.457  21.572  24.481  1.00  0.00     0.042 A 
ATOM      7  C   UNL A   1      34.192  22.436  24.441  1.00  0.00     0.065 A 
ATOM      8  C   UNL A   1      35.129  21.490  24.848  1.00  0.00     0.042 A 
ATOM      9  C   UNL A   1      34.502  23.470  23.524  1.00  0.00     0.061 A 
ATOM     10  C   UNL A   1      35.837  23.505  23.095  1.00  0.00     0.029 A 
ATOM     11  C   UNL A   1      36.803  22.597  23.587  1.00  0.00     0.016 A 
BRANCH   7  12
ATOM     12  N   UNL A   1      32.910  22.321  24.998  1.00  0.00    -0.320 N 
ATOM     13  C   UNL A   1      32.131  21.176  25.081  1.00  0.00     0.255 C 
ATOM     14  O   UNL A   1      31.160  21.183  25.842  1.00  0.00    -0.269 OA
ATOM     15  H   UNL A   1      32.519  23.145  25.370  1.00  0.00     0.170 HD
BRANCH  13  16
ATOM     16  C   UNL A   1      32.387  19.944  24.282  1.00  0.00     0.043 A 
ATOM     17  C   UNL A   1      31.831  20.806  21.897  1.00  0.00     0.045 C 
ATOM     18  C   UNL A   1      32.225  19.753  22.890  1.00  0.00    -0.038 A 
ATOM     19  C   UNL A   1      32.450  18.467  22.354  1.00  0.00     0.004 A 
ATOM     20  C   UNL A   1      32.892  17.419  23.155  1.00  0.00     0.000 A 
ATOM     21  C   UNL A   1      32.878  18.888  25.064  1.00  0.00     0.014 A 
ATOM     22  C   UNL A   1      33.120  17.639  24.506  1.00  0.00     0.001 A 
ENDBRANCH  13  16
ENDBRANCH   7  12
BRANCH   9  23
ATOM     23  N   UNL A   1      33.571  24.424  23.132  1.00  0.00    -0.359 N 
ATOM     24  C   UNL A   1      33.100  24.616  21.734  1.00  0.00     0.178 C 
ATOM     25  C   UNL A   1      33.447  25.663  23.895  1.00  0.00     0.178 C 
ATOM     26  C   UNL A   1      31.795  25.514  21.643  1.00  0.00     0.284 C 
ATOM     27  C   UNL A   1      31.958  25.993  23.978  1.00  0.00     0.284 C 
ATOM     28  N   UNL A   1      31.503  26.518  22.698  1.00  0.00    -0.324 N 
ATOM     29  H   UNL A   1      30.489  26.627  22.675  1.00  0.00     0.348 HD
BRANCH  28  30
ATOM     30  C   UNL A   1      31.892  27.932  22.473  1.00  0.00     0.364 C 
BRANCH  30  31
ATOM     31  C   UNL A   1      30.882  29.028  22.811  1.00  0.00     0.279 C 
ATOM     32  O   UNL A   1      30.037  29.356  21.965  1.00  0.00    -0.268 OA
ATOM     33  N   UNL A   1      30.781  29.660  24.023  1.00  0.00    -0.321 N 
ATOM     34  H   UNL A   1      29.889  30.060  24.136  1.00  0.00     0.170 HD
BRANCH  33  35
ATOM     35  C   UNL A   1      31.588  29.903  25.159  1.00  0.00     0.041 A 
ATOM     36  C   UNL A   1      31.265  31.047  25.913  1.00  0.00     0.029 A 
ATOM     37  C   UNL A   1      32.730  29.200  25.527  1.00  0.00     0.029 A 
ATOM     38  C   UNL A   1      32.083  31.492  26.962  1.00  0.00     0.041 A 
ATOM     39  C   UNL A   1      33.589  29.674  26.534  1.00  0.00     0.041 A 
ATOM     40  C   UNL A   1      33.256  30.815  27.246  1.00  0.00     0.123 A 
ATOM     41  F   UNL A   1      34.068  31.262  28.213  1.00  0.00    -0.207 F 
ENDBRANCH  33  35
ENDBRANCH  30  31
ENDBRANCH  28  30
ENDBRANCH   9  23
ENDBRANCH   3   6
ENDBRANCH   1   2
BRANCH   1  42
ATOM     42  C   UNL A   1      40.417  22.286  26.972  1.00  0.00     0.023 C 
BRANCH  42  43
ATOM     43  C   UNL A   1      40.784  20.866  27.395  1.00  0.00     0.023 C 
BRANCH  43  44
ATOM     44  C   UNL A   1      42.283  20.672  27.549  1.00  0.00     0.116 C 
BRANCH  44  45
ATOM     45  N   UNL A   1      42.935  19.953  26.465  1.00  0.00    -0.352 N 
ATOM     46  C   UNL A   1      43.648  20.440  25.377  1.00  0.00     0.251 C 
ATOM     47  H   UNL A   1      42.858  18.972  26.509  1.00  0.00     0.163 HD
ATOM     48  O   UNL A   1      44.017  19.669  24.511  1.00  0.00    -0.269 OA
BRANCH  46  49
ATOM     49  C   UNL A   1      44.106  21.860  25.342  1.00  0.00     0.039 A 
ATOM     50  C   UNL A   1      45.208  22.204  26.141  1.00  0.00     0.014 A 
ATOM     51  C   UNL A   1      43.351  22.867  24.756  1.00  0.00     0.014 A 
ATOM     52  C   UNL A   1      45.359  23.518  26.580  1.00  0.00     0.010 A 
ATOM     53  C   UNL A   1      43.400  24.129  25.298  1.00  0.00     0.010 A 
ATOM     54  C   UNL A   1      44.361  24.432  26.263  1.00  0.00    -0.014 A 
BRANCH  54  55
ATOM     55  C   UNL A   1      44.144  25.687  26.963  1.00  0.00     0.031 A 
ATOM     56  C   UNL A   1      42.844  26.366  26.869  1.00  0.00     0.074 A 
ATOM     57  C   UNL A   1      45.082  26.105  27.839  1.00  0.00     0.049 A 
ATOM     58  N   UNL A   1      42.647  27.594  27.202  1.00  0.00    -0.248 NA
ATOM     59  C   UNL A   1      41.659  25.721  26.314  1.00  0.00     0.031 C 
ATOM     60  C   UNL A   1      44.940  27.084  28.912  1.00  0.00     0.029 A 
ATOM     61  N   UNL A   1      46.450  25.856  27.791  1.00  0.00    -0.354 N 
ATOM     62  C   UNL A   1      41.288  27.796  27.222  1.00  0.00     0.074 A 
ATOM     63  C   UNL A   1      40.733  26.656  26.535  1.00  0.00     0.031 C 
ATOM     64  C   UNL A   1      46.156  27.564  29.220  1.00  0.00     0.029 A 
ATOM     65  C   UNL A   1      47.091  27.014  28.251  1.00  0.00     0.049 A 
ATOM     66  H   UNL A   1      46.885  25.025  27.492  1.00  0.00     0.167 HD
ATOM     67  C   UNL A   1      40.790  28.824  27.963  1.00  0.00     0.031 A 
ATOM     68  C   UNL A   1      47.964  27.733  27.491  1.00  0.00     0.031 A 
ATOM     69  C   UNL A   1      41.867  29.683  28.468  1.00  0.00     0.049 A 
ATOM     70  C   UNL A   1      47.461  29.143  27.278  1.00  0.00     0.074 A 
ATOM     71  C   UNL A   1      42.462  29.826  29.711  1.00  0.00     0.029 A 
ATOM     72  N   UNL A   1      42.704  30.326  27.557  1.00  0.00    -0.354 N 
ATOM     73  N   UNL A   1      46.208  29.484  27.427  1.00  0.00    -0.248 NA
ATOM     74  C   UNL A   1      48.302  30.271  26.891  1.00  0.00     0.031 C 
ATOM     75  C   UNL A   1      43.716  30.469  29.522  1.00  0.00     0.029 A 
ATOM     76  C   UNL A   1      43.860  30.759  28.176  1.00  0.00     0.049 A 
ATOM     77  H   UNL A   1      42.499  30.455  26.602  1.00  0.00     0.167 HD
ATOM     78  C   UNL A   1      46.074  30.831  27.241  1.00  0.00     0.074 A 
ATOM     79  C   UNL A   1      47.408  31.277  26.876  1.00  0.00     0.031 C 
ATOM     80  C   UNL A   1      44.883  31.473  27.418  1.00  0.00     0.031 A 
BRANCH  67  81
ATOM     81  C   UNL A   1      39.361  28.889  28.465  1.00  0.00    -0.014 A 
ATOM     82  C   UNL A   1      38.354  29.404  27.626  1.00  0.00     0.009 A 
ATOM     83  C   UNL A   1      38.944  28.548  29.764  1.00  0.00     0.009 A 
ATOM     84  C   UNL A   1      37.042  29.620  28.077  1.00  0.00     0.001 A 
ATOM     85  C   UNL A   1      37.639  28.769  30.228  1.00  0.00     0.001 A 
ATOM     86  C   UNL A   1      36.687  29.315  29.385  1.00  0.00     0.000 A 
ENDBRANCH  67  81
BRANCH  68  87
ATOM     87  C   UNL A   1      48.719  26.902  26.511  1.00  0.00    -0.014 A 
ATOM     88  C   UNL A   1      48.396  27.072  25.146  1.00  0.00     0.009 A 
ATOM     89  C   UNL A   1      49.973  26.363  26.836  1.00  0.00     0.009 A 
ATOM     90  C   UNL A   1      49.349  26.850  24.148  1.00  0.00     0.001 A 
ATOM     91  C   UNL A   1      50.922  26.131  25.828  1.00  0.00     0.001 A 
ATOM     92  C   UNL A   1      50.625  26.415  24.495  1.00  0.00     0.000 A 
ENDBRANCH  68  87
BRANCH  80  93
ATOM     93  C   UNL A   1      44.575  32.877  26.967  1.00  0.00    -0.014 A 
ATOM     94  C   UNL A   1      44.506  33.268  25.624  1.00  0.00     0.009 A 
ATOM     95  C   UNL A   1      44.164  33.827  27.929  1.00  0.00     0.009 A 
ATOM     96  C   UNL A   1      44.082  34.553  25.262  1.00  0.00     0.001 A 
ATOM     97  C   UNL A   1      43.695  35.091  27.571  1.00  0.00     0.001 A 
ATOM     98  C   UNL A   1      43.664  35.458  26.234  1.00  0.00     0.000 A 
ENDBRANCH  80  93
ENDBRANCH  54  55
ENDBRANCH  46  49
ENDBRANCH  44  45
ENDBRANCH  43  44
ENDBRANCH  42  43
ENDBRANCH   1  42
TORSDOF 17
ENDMDL
MODEL 2
REMARK VINA RESULT:     -14.0      3.326      5.036
REMARK SMILES Cc1ccccc1C(=O)Nc1cc(C(=O)NCCCCNC(=O)c2ccc(-c3c4nc(c(-c5ccccc5)c5ccc([nH]5)c(-c5ccccc5)c5nc(c(-c6ccccc6)c6ccc3[nH]6)C=C5)C=C4)cc2)ccc1N1CC[NH+](CC(=O)Nc2ccc(F)cc2)CC1
REMARK SMILES IDX 17 1 16 2 14 3 15 4 13 6 11 7 12 8 74 9 73 10 72 11 10 12
REMARK SMILES IDX 8 13 9 14 7 16 1 17 2 18 3 19 4 20 6 21 5 22 75 23 76 24
REMARK SMILES IDX 91 25 77 26 90 27 78 28 79 30 80 31 81 32 82 33 83 35 84 36
REMARK SMILES IDX 89 37 85 38 88 39 86 40 87 41 18 42 19 43 20 44 21 45 22 46
REMARK SMILES IDX 23 48 24 49 25 50 71 51 26 52 70 53 27 54 28 55 29 56 64 57
REMARK SMILES IDX 30 58 69 59 63 60 65 61 31 62 68 63 62 64 61 65 32 67 54 68
REMARK SMILES IDX 39 69 53 70 40 71 43 72 52 73 66 74 41 75 42 76 51 78 67 79
REMARK SMILES IDX 44 80 33 81 34 82 38 83 35 84 37 85 36 86 55 87 56 88 60 89
REMARK SMILES IDX 57 90 59 91 58 92 45 93 46 94 50 95 47 96 49 97 48 98
REMARK H PARENT 16 5 10 15 78 29 82 34 21 47 65 66 43 77
REMARK Flexibility Score: inf
ROOT
ATOM      1  C   UNL A   1      39.183  22.304  26.374  1.00  0.00     0.116 C 
ENDROOT
BRANCH   1   2
ATOM      2  N   UNL A   1      38.737  21.033  25.822  1.00  0.00    -0.352 N 
ATOM      3  C   UNL A   1      37.687  20.664  25.010  1.00  0.00     0.251 C 
ATOM      4  O   UNL A   1      37.657  19.489  24.641  1.00  0.00    -0.269 OA
ATOM      5  H   UNL A   1      39.309  20.275  26.084  1.00  0.00     0.163 HD
BRANCH   3   6
ATOM      6  C   UNL A   1      36.609  21.587  24.540  1.00  0.00     0.042 A 
ATOM      7  C   UNL A   1      34.345  22.451  24.585  1.00  0.00     0.065 A 
ATOM      8  C   UNL A   1      35.292  21.497  24.944  1.00  0.00     0.042 A 
ATOM      9  C   UNL A   1      34.628  23.505  23.681  1.00  0.00     0.061 A 
ATOM     10  C   UNL A   1      35.950  23.549  23.215  1.00  0.00     0.029 A 
ATOM     11  C   UNL A   1      36.929  22.631  23.659  1.00  0.00     0.016 A 
BRANCH   7  12
ATOM     12  N   UNL A   1      33.079  22.324  25.175  1.00  0.00    -0.320 N 
ATOM     13  C   UNL A   1      32.269  21.199  25.190  1.00  0.00     0.255 C 
ATOM     14  O   UNL A   1      31.324  21.167  25.983  1.00  0.00    -0.269 OA
ATOM     15  H   UNL A   1      32.726  23.124  25.630  1.00  0.00     0.170 HD
BRANCH  13  16
ATOM     16  C   UNL A   1      32.460  20.033  24.280  1.00  0.00     0.043 A 
ATOM     17  C   UNL A   1      31.843  21.109  22.000  1.00  0.00     0.045 C 
ATOM     18  C   UNL A   1      32.242  19.965  22.885  1.00  0.00    -0.038 A 
ATOM     19  C   UNL A   1      32.411  18.724  22.233  1.00  0.00     0.004 A 
ATOM     20  C   UNL A   1      32.851  17.601  22.926  1.00  0.00     0.000 A 
ATOM     21  C   UNL A   1      32.948  18.902  24.952  1.00  0.00     0.014 A 
ATOM     22  C   UNL A   1      33.134  17.699  24.281  1.00  0.00     0.001 A 
ENDBRANCH  13  16
ENDBRANCH   7  12
BRANCH   9  23
ATOM     23  N   UNL A   1      33.687  24.468  23.337  1.00  0.00    -0.359 N 
ATOM     24  C   UNL A   1      33.285  24.790  21.941  1.00  0.00     0.178 C 
ATOM     25  C   UNL A   1      33.479  25.616  24.215  1.00  0.00     0.178 C 
ATOM     26  C   UNL A   1      31.956  25.654  21.870  1.00  0.00     0.284 C 
ATOM     27  C   UNL A   1      31.977  25.892  24.246  1.00  0.00     0.284 C 
ATOM     28  N   UNL A   1      31.574  26.534  23.003  1.00  0.00    -0.324 N 
ATOM     29  H   UNL A   1      30.559  26.616  22.934  1.00  0.00     0.348 HD
BRANCH  28  30
ATOM     30  C   UNL A   1      31.925  27.974  22.947  1.00  0.00     0.364 C 
BRANCH  30  31
ATOM     31  C   UNL A   1      30.963  28.984  23.572  1.00  0.00     0.279 C 
ATOM     32  O   UNL A   1      29.977  29.366  22.923  1.00  0.00    -0.268 OA
ATOM     33  N   UNL A   1      31.056  29.475  24.848  1.00  0.00    -0.321 N 
ATOM     34  H   UNL A   1      30.188  29.823  25.154  1.00  0.00     0.170 HD
BRANCH  33  35
ATOM     35  C   UNL A   1      32.040  29.628  25.853  1.00  0.00     0.041 A 
ATOM     36  C   UNL A   1      32.133  30.904  26.439  1.00  0.00     0.029 A 
ATOM     37  C   UNL A   1      32.994  28.686  26.225  1.00  0.00     0.029 A 
ATOM     38  C   UNL A   1      33.169  31.234  27.325  1.00  0.00     0.041 A 
ATOM     39  C   UNL A   1      34.071  29.026  27.062  1.00  0.00     0.041 A 
ATOM     40  C   UNL A   1      34.148  30.297  27.607  1.00  0.00     0.123 A 
ATOM     41  F   UNL A   1      35.168  30.620  28.413  1.00  0.00    -0.207 F 
ENDBRANCH  33  35
ENDBRANCH  30  31
ENDBRANCH  28  30
ENDBRANCH   9  23
ENDBRANCH   3   6
ENDBRANCH   1   2
BRANCH   1  42
ATOM     42  C   UNL A   1      40.484  22.191  27.190  1.00  0.00     0.023 C 
BRANCH  42  43
ATOM     43  C   UNL A   1      41.738  22.044  26.334  1.00  0.00     0.023 C 
BRANCH  43  44
ATOM     44  C   UNL A   1      42.653  23.255  26.424  1.00  0.00     0.116 C 
BRANCH  44  45
ATOM     45  N   UNL A   1      42.245  24.405  25.634  1.00  0.00    -0.352 N 
ATOM     46  C   UNL A   1      41.536  25.539  26.013  1.00  0.00     0.251 C 
ATOM     47  H   UNL A   1      42.511  24.376  24.687  1.00  0.00     0.163 HD
ATOM     48  O   UNL A   1      41.192  26.340  25.164  1.00  0.00    -0.269 OA
BRANCH  46  49
ATOM     49  C   UNL A   1      41.339  25.865  27.456  1.00  0.00     0.039 A 
ATOM     50  C   UNL A   1      40.028  25.820  27.956  1.00  0.00     0.014 A 
ATOM     51  C   UNL A   1      42.342  26.430  28.231  1.00  0.00     0.014 A 
ATOM     52  C   UNL A   1      39.686  26.589  29.066  1.00  0.00     0.010 A 
ATOM     53  C   UNL A   1      41.990  27.307  29.230  1.00  0.00     0.010 A 
ATOM     54  C   UNL A   1      40.650  27.436  29.597  1.00  0.00    -0.014 A 
BRANCH  54  55
ATOM     55  C   UNL A   1      40.362  28.577  30.450  1.00  0.00     0.031 A 
ATOM     56  C   UNL A   1      39.634  29.734  29.908  1.00  0.00     0.074 A 
ATOM     57  C   UNL A   1      40.604  28.469  31.773  1.00  0.00     0.049 A 
ATOM     58  N   UNL A   1      39.586  30.886  30.480  1.00  0.00    -0.248 NA
ATOM     59  C   UNL A   1      38.953  29.700  28.619  1.00  0.00     0.031 C 
ATOM     60  C   UNL A   1      40.067  29.286  32.857  1.00  0.00     0.029 A 
ATOM     61  N   UNL A   1      41.578  27.690  32.391  1.00  0.00    -0.354 N 
ATOM     62  C   UNL A   1      38.625  31.622  29.829  1.00  0.00     0.074 A 
ATOM     63  C   UNL A   1      38.366  30.898  28.610  1.00  0.00     0.031 C 
ATOM     64  C   UNL A   1      40.887  29.188  33.916  1.00  0.00     0.029 A 
ATOM     65  C   UNL A   1      42.048  28.423  33.489  1.00  0.00     0.049 A 
ATOM     66  H   UNL A   1      41.879  26.796  32.110  1.00  0.00     0.167 HD
ATOM     67  C   UNL A   1      38.048  32.668  30.484  1.00  0.00     0.031 A 
ATOM     68  C   UNL A   1      43.348  28.807  33.626  1.00  0.00     0.031 A 
ATOM     69  C   UNL A   1      38.736  32.946  31.749  1.00  0.00     0.049 A 
ATOM     70  C   UNL A   1      43.464  30.314  33.676  1.00  0.00     0.074 A 
ATOM     71  C   UNL A   1      38.425  32.685  33.074  1.00  0.00     0.029 A 
ATOM     72  N   UNL A   1      40.085  33.295  31.725  1.00  0.00    -0.354 N 
ATOM     73  N   UNL A   1      42.534  31.116  33.230  1.00  0.00    -0.248 NA
ATOM     74  C   UNL A   1      44.607  31.037  34.222  1.00  0.00     0.031 C 
ATOM     75  C   UNL A   1      39.627  32.777  33.829  1.00  0.00     0.029 A 
ATOM     76  C   UNL A   1      40.653  33.140  32.974  1.00  0.00     0.049 A 
ATOM     77  H   UNL A   1      40.568  33.608  30.925  1.00  0.00     0.167 HD
ATOM     78  C   UNL A   1      42.888  32.412  33.479  1.00  0.00     0.074 A 
ATOM     79  C   UNL A   1      44.210  32.315  34.074  1.00  0.00     0.031 C 
ATOM     80  C   UNL A   1      42.061  33.459  33.192  1.00  0.00     0.031 A 
BRANCH  67  81
ATOM     81  C   UNL A   1      36.697  33.251  30.117  1.00  0.00    -0.014 A 
ATOM     82  C   UNL A   1      35.604  33.067  30.984  1.00  0.00     0.009 A 
ATOM     83  C   UNL A   1      36.403  33.913  28.911  1.00  0.00     0.009 A 
ATOM     84  C   UNL A   1      34.300  33.459  30.639  1.00  0.00     0.001 A 
ATOM     85  C   UNL A   1      35.103  34.299  28.551  1.00  0.00     0.001 A 
ATOM     86  C   UNL A   1      34.047  34.064  29.414  1.00  0.00     0.000 A 
ENDBRANCH  67  81
BRANCH  68  87
ATOM     87  C   UNL A   1      44.314  27.863  32.996  1.00  0.00    -0.014 A 
ATOM     88  C   UNL A   1      44.336  26.542  33.497  1.00  0.00     0.009 A 
ATOM     89  C   UNL A   1      44.812  28.094  31.705  1.00  0.00     0.009 A 
ATOM     90  C   UNL A   1      44.703  25.470  32.679  1.00  0.00     0.001 A 
ATOM     91  C   UNL A   1      45.191  27.013  30.893  1.00  0.00     0.001 A 
ATOM     92  C   UNL A   1      45.094  25.704  31.364  1.00  0.00     0.000 A 
ENDBRANCH  68  87
BRANCH  80  93
ATOM     93  C   UNL A   1      42.468  34.909  33.163  1.00  0.00    -0.014 A 
ATOM     94  C   UNL A   1      42.255  35.801  34.221  1.00  0.00     0.009 A 
ATOM     95  C   UNL A   1      43.259  35.372  32.088  1.00  0.00     0.009 A 
ATOM     96  C   UNL A   1      42.777  37.101  34.191  1.00  0.00     0.001 A 
ATOM     97  C   UNL A   1      43.821  36.649  32.076  1.00  0.00     0.001 A 
ATOM     98  C   UNL A   1      43.570  37.519  33.126  1.00  0.00     0.000 A 
ENDBRANCH  80  93
ENDBRANCH  54  55
ENDBRANCH  46  49
ENDBRANCH  44  45
ENDBRANCH  43  44
ENDBRANCH  42  43
ENDBRANCH   1  42
TORSDOF 17
ENDMDL
MODEL 3
REMARK VINA RESULT:     -13.2      1.953      2.392
REMARK SMILES Cc1ccccc1C(=O)Nc1cc(C(=O)NCCCCNC(=O)c2ccc(-c3c4nc(c(-c5ccccc5)c5ccc([nH]5)c(-c5ccccc5)c5nc(c(-c6ccccc6)c6ccc3[nH]6)C=C5)C=C4)cc2)ccc1N1CC[NH+](CC(=O)Nc2ccc(F)cc2)CC1
REMARK SMILES IDX 17 1 16 2 14 3 15 4 13 6 11 7 12 8 74 9 73 10 72 11 10 12
REMARK SMILES IDX 8 13 9 14 7 16 1 17 2 18 3 19 4 20 6 21 5 22 75 23 76 24
REMARK SMILES IDX 91 25 77 26 90 27 78 28 79 30 80 31 81 32 82 33 83 35 84 36
REMARK SMILES IDX 89 37 85 38 88 39 86 40 87 41 18 42 19 43 20 44 21 45 22 46
REMARK SMILES IDX 23 48 24 49 25 50 71 51 26 52 70 53 27 54 28 55 29 56 64 57
REMARK SMILES IDX 30 58 69 59 63 60 65 61 31 62 68 63 62 64 61 65 32 67 54 68
REMARK SMILES IDX 39 69 53 70 40 71 43 72 52 73 66 74 41 75 42 76 51 78 67 79
REMARK SMILES IDX 44 80 33 81 34 82 38 83 35 84 37 85 36 86 55 87 56 88 60 89
REMARK SMILES IDX 57 90 59 91 58 92 45 93 46 94 50 95 47 96 49 97 48 98
REMARK H PARENT 16 5 10 15 78 29 82 34 21 47 65 66 43 77
REMARK Flexibility Score: inf
ROOT
ATOM      1  C   UNL A   1      39.004  22.874  26.289  1.00  0.00     0.116 C 
ENDROOT
BRANCH   1   2
ATOM      2  N   UNL A   1      38.666  21.527  25.851  1.00  0.00    -0.352 N 
ATOM      3  C   UNL A   1      37.655  21.005  25.076  1.00  0.00     0.251 C 
ATOM      4  O   UNL A   1      37.723  19.803  24.812  1.00  0.00    -0.269 OA
ATOM      5  H   UNL A   1      39.296  20.845  26.178  1.00  0.00     0.163 HD
BRANCH   3   6
ATOM      6  C   UNL A   1      36.509  21.791  24.527  1.00  0.00     0.042 A 
ATOM      7  C   UNL A   1      34.185  22.480  24.507  1.00  0.00     0.065 A 
ATOM      8  C   UNL A   1      35.203  21.642  24.949  1.00  0.00     0.042 A 
ATOM      9  C   UNL A   1      34.385  23.458  23.501  1.00  0.00     0.061 A 
ATOM     10  C   UNL A   1      35.700  23.558  23.022  1.00  0.00     0.029 A 
ATOM     11  C   UNL A   1      36.747  22.765  23.545  1.00  0.00     0.016 A 
BRANCH   7  12
ATOM     12  N   UNL A   1      32.933  22.315  25.118  1.00  0.00    -0.320 N 
ATOM     13  C   UNL A   1      32.175  21.156  25.179  1.00  0.00     0.255 C 
ATOM     14  O   UNL A   1      31.243  21.107  25.985  1.00  0.00    -0.269 OA
ATOM     15  H   UNL A   1      32.549  23.113  25.551  1.00  0.00     0.170 HD
BRANCH  13  16
ATOM     16  C   UNL A   1      32.409  19.971  24.304  1.00  0.00     0.043 A 
ATOM     17  C   UNL A   1      31.900  20.998  21.975  1.00  0.00     0.045 C 
ATOM     18  C   UNL A   1      32.257  19.873  22.902  1.00  0.00    -0.038 A 
ATOM     19  C   UNL A   1      32.455  18.619  22.285  1.00  0.00     0.004 A 
ATOM     20  C   UNL A   1      32.861  17.511  23.022  1.00  0.00     0.000 A 
ATOM     21  C   UNL A   1      32.864  18.855  25.021  1.00  0.00     0.014 A 
ATOM     22  C   UNL A   1      33.081  17.638  24.386  1.00  0.00     0.001 A 
ENDBRANCH  13  16
ENDBRANCH   7  12
BRANCH   9  23
ATOM     23  N   UNL A   1      33.373  24.308  23.073  1.00  0.00    -0.359 N 
ATOM     24  C   UNL A   1      33.555  25.400  22.079  1.00  0.00     0.178 C 
ATOM     25  C   UNL A   1      32.253  24.600  23.964  1.00  0.00     0.178 C 
ATOM     26  C   UNL A   1      32.179  25.958  21.520  1.00  0.00     0.284 C 
ATOM     27  C   UNL A   1      30.990  24.625  23.106  1.00  0.00     0.284 C 
ATOM     28  N   UNL A   1      30.945  25.863  22.341  1.00  0.00    -0.324 N 
ATOM     29  H   UNL A   1      30.184  25.857  21.661  1.00  0.00     0.348 HD
BRANCH  28  30
ATOM     30  C   UNL A   1      30.524  27.034  23.147  1.00  0.00     0.364 C 
BRANCH  30  31
ATOM     31  C   UNL A   1      29.050  27.164  23.530  1.00  0.00     0.279 C 
ATOM     32  O   UNL A   1      28.446  26.171  23.963  1.00  0.00    -0.268 OA
ATOM     33  N   UNL A   1      28.326  28.327  23.497  1.00  0.00    -0.321 N 
ATOM     34  H   UNL A   1      27.539  28.267  24.084  1.00  0.00     0.170 HD
BRANCH  33  35
ATOM     35  C   UNL A   1      28.384  29.590  22.862  1.00  0.00     0.041 A 
ATOM     36  C   UNL A   1      27.915  30.683  23.616  1.00  0.00     0.029 A 
ATOM     37  C   UNL A   1      28.738  29.835  21.540  1.00  0.00     0.029 A 
ATOM     38  C   UNL A   1      27.764  31.957  23.050  1.00  0.00     0.041 A 
ATOM     39  C   UNL A   1      28.530  31.092  20.947  1.00  0.00     0.041 A 
ATOM     40  C   UNL A   1      28.047  32.144  21.707  1.00  0.00     0.123 A 
ATOM     41  F   UNL A   1      27.858  33.345  21.146  1.00  0.00    -0.207 F 
ENDBRANCH  33  35
ENDBRANCH  30  31
ENDBRANCH  28  30
ENDBRANCH   9  23
ENDBRANCH   3   6
ENDBRANCH   1   2
BRANCH   1  42
ATOM     42  C   UNL A   1      40.303  22.939  27.114  1.00  0.00     0.023 C 
BRANCH  42  43
ATOM     43  C   UNL A   1      40.814  21.574  27.567  1.00  0.00     0.023 C 
BRANCH  43  44
ATOM     44  C   UNL A   1      42.332  21.504  27.610  1.00  0.00     0.116 C 
BRANCH  44  45
ATOM     45  N   UNL A   1      42.969  21.008  26.400  1.00  0.00    -0.352 N 
ATOM     46  C   UNL A   1      43.913  21.612  25.579  1.00  0.00     0.251 C 
ATOM     47  H   UNL A   1      42.687  20.107  26.120  1.00  0.00     0.163 HD
ATOM     48  O   UNL A   1      44.234  21.070  24.538  1.00  0.00    -0.269 OA
BRANCH  46  49
ATOM     49  C   UNL A   1      44.652  22.826  26.037  1.00  0.00     0.039 A 
ATOM     50  C   UNL A   1      45.143  22.826  27.352  1.00  0.00     0.014 A 
ATOM     51  C   UNL A   1      44.655  24.008  25.310  1.00  0.00     0.014 A 
ATOM     52  C   UNL A   1      45.345  24.036  28.012  1.00  0.00     0.010 A 
ATOM     53  C   UNL A   1      44.705  25.201  25.992  1.00  0.00     0.010 A 
ATOM     54  C   UNL A   1      44.981  25.207  27.359  1.00  0.00    -0.014 A 
BRANCH  54  55
ATOM     55  C   UNL A   1      44.732  26.475  28.023  1.00  0.00     0.031 A 
ATOM     56  C   UNL A   1      43.354  26.959  28.191  1.00  0.00     0.074 A 
ATOM     57  C   UNL A   1      45.762  27.092  28.641  1.00  0.00     0.049 A 
ATOM     58  N   UNL A   1      43.048  28.172  28.495  1.00  0.00    -0.248 NA
ATOM     59  C   UNL A   1      42.190  26.112  27.954  1.00  0.00     0.031 C 
ATOM     60  C   UNL A   1      45.708  28.130  29.665  1.00  0.00     0.029 A 
ATOM     61  N   UNL A   1      47.109  27.029  28.297  1.00  0.00    -0.354 N 
ATOM     62  C   UNL A   1      41.711  28.186  28.812  1.00  0.00     0.074 A 
ATOM     63  C   UNL A   1      41.202  26.927  28.329  1.00  0.00     0.031 C 
ATOM     64  C   UNL A   1      46.873  28.797  29.663  1.00  0.00     0.029 A 
ATOM     65  C   UNL A   1      47.649  28.300  28.538  1.00  0.00     0.049 A 
ATOM     66  H   UNL A   1      47.590  26.243  27.951  1.00  0.00     0.167 HD
ATOM     67  C   UNL A   1      41.235  29.196  29.592  1.00  0.00     0.031 A 
ATOM     68  C   UNL A   1      48.216  29.064  27.563  1.00  0.00     0.031 A 
ATOM     69  C   UNL A   1      42.251  30.234  29.793  1.00  0.00     0.049 A 
ATOM     70  C   UNL A   1      47.470  30.368  27.396  1.00  0.00     0.074 A 
ATOM     71  C   UNL A   1      43.072  30.563  30.860  1.00  0.00     0.029 A 
ATOM     72  N   UNL A   1      42.762  30.906  28.684  1.00  0.00    -0.354 N 
ATOM     73  N   UNL A   1      46.242  30.545  27.807  1.00  0.00    -0.248 NA
ATOM     74  C   UNL A   1      48.024  31.563  26.769  1.00  0.00     0.031 C 
ATOM     75  C   UNL A   1      44.142  31.354  30.358  1.00  0.00     0.029 A 
ATOM     76  C   UNL A   1      43.945  31.545  29.001  1.00  0.00     0.049 A 
ATOM     77  H   UNL A   1      42.338  30.924  27.795  1.00  0.00     0.167 HD
ATOM     78  C   UNL A   1      45.866  31.840  27.586  1.00  0.00     0.074 A 
ATOM     79  C   UNL A   1      47.005  32.433  26.905  1.00  0.00     0.031 C 
ATOM     80  C   UNL A   1      44.658  32.326  27.995  1.00  0.00     0.031 A 
BRANCH  67  81
ATOM     81  C   UNL A   1      39.955  29.106  30.400  1.00  0.00    -0.014 A 
ATOM     82  C   UNL A   1      39.975  28.489  31.665  1.00  0.00     0.009 A 
ATOM     83  C   UNL A   1      38.687  29.523  29.955  1.00  0.00     0.009 A 
ATOM     84  C   UNL A   1      38.803  28.251  32.400  1.00  0.00     0.001 A 
ATOM     85  C   UNL A   1      37.509  29.280  30.675  1.00  0.00     0.001 A 
ATOM     86  C   UNL A   1      37.566  28.634  31.898  1.00  0.00     0.000 A 
ENDBRANCH  67  81
BRANCH  68  87
ATOM     87  C   UNL A   1      48.859  28.264  26.482  1.00  0.00    -0.014 A 
ATOM     88  C   UNL A   1      49.992  27.501  26.840  1.00  0.00     0.009 A 
ATOM     89  C   UNL A   1      48.143  27.895  25.334  1.00  0.00     0.009 A 
ATOM     90  C   UNL A   1      50.309  26.322  26.159  1.00  0.00     0.001 A 
ATOM     91  C   UNL A   1      48.474  26.716  24.647  1.00  0.00     0.001 A 
ATOM     92  C   UNL A   1      49.525  25.911  25.085  1.00  0.00     0.000 A 
ENDBRANCH  68  87
BRANCH  80  93
ATOM     93  C   UNL A   1      44.048  33.630  27.552  1.00  0.00    -0.014 A 
ATOM     94  C   UNL A   1      43.661  33.903  26.234  1.00  0.00     0.009 A 
ATOM     95  C   UNL A   1      43.684  34.579  28.533  1.00  0.00     0.009 A 
ATOM     96  C   UNL A   1      42.975  35.080  25.908  1.00  0.00     0.001 A 
ATOM     97  C   UNL A   1      42.959  35.729  28.220  1.00  0.00     0.001 A 
ATOM     98  C   UNL A   1      42.613  35.985  26.902  1.00  0.00     0.000 A 
ENDBRANCH  80  93
ENDBRANCH  54  55
ENDBRANCH  46  49
ENDBRANCH  44  45
ENDBRANCH  43  44
ENDBRANCH  42  43
ENDBRANCH   1  42
TORSDOF 17
ENDMDL
