MODEL 1
REMARK VINA RESULT:     -11.9      0.000      0.000
REMARK SMILES O=C(NCCCCNC(=O)c1ccc(-c2c3nc(c(-c4ccccc4)c4ccc([nH]4)c(-c4ccccc4)c4nc(c(-c5ccccc5)c5ccc2[nH]5)C=C4)C=C3)cc1)C1=Cc2cc(Cl)cc(Cl)c2O[C@@H]1C(F)(F)F
REMARK SMILES IDX 6 1 5 2 4 3 3 4 1 5 2 6 59 8 60 9 70 10 61 11 69 12 62 13
REMARK SMILES IDX 68 14 63 15 66 16 64 17 65 18 67 19 71 20 72 21 73 22 74 23
REMARK SMILES IDX 7 24 8 25 9 26 10 28 11 29 12 30 58 31 13 32 57 33 14 34
REMARK SMILES IDX 15 35 16 36 51 37 17 38 56 39 50 40 52 41 18 42 55 43 49 44
REMARK SMILES IDX 48 45 19 47 41 48 26 49 40 50 27 51 30 52 39 53 53 54 28 55
REMARK SMILES IDX 29 56 38 58 54 59 31 60 20 61 21 62 25 63 22 64 24 65 23 66
REMARK SMILES IDX 42 67 43 68 47 69 44 70 46 71 45 72 32 73 33 74 37 75 34 76
REMARK SMILES IDX 36 77 35 78
REMARK H PARENT 3 7 8 27 52 46 30 57
REMARK Flexibility Score: inf
ROOT
ATOM      1  C   UNL A   1      32.998  28.390  27.245  1.00  0.00     0.023 C 
ENDROOT
BRANCH   1   2
ATOM      2  C   UNL A   1      31.602  28.122  26.686  1.00  0.00     0.023 C 
BRANCH   2   3
ATOM      3  C   UNL A   1      31.472  26.796  25.937  1.00  0.00     0.116 C 
BRANCH   3   4
ATOM      4  N   UNL A   1      31.284  25.635  26.807  1.00  0.00    -0.352 N 
ATOM      5  O   UNL A   1      31.808  23.605  27.679  1.00  0.00    -0.270 OA
ATOM      6  C   UNL A   1      31.857  24.385  26.738  1.00  0.00     0.251 C 
ATOM      7  H   UNL A   1      30.655  25.769  27.553  1.00  0.00     0.163 HD
BRANCH   6   8
ATOM      8  C   UNL A   1      32.605  24.050  25.511  1.00  0.00     0.067 C 
ATOM      9  C   UNL A   1      33.880  24.452  25.430  1.00  0.00     0.025 C 
ATOM     10  C   UNL A   1      32.039  22.989  24.622  1.00  0.00     0.314 C 
ATOM     11  C   UNL A   1      34.791  23.368  25.028  1.00  0.00     0.020 A 
ATOM     12  O   UNL A   1      32.934  21.857  24.505  1.00  0.00    -0.474 OA
ATOM     13  C   UNL A   1      36.135  23.503  25.398  1.00  0.00     0.032 A 
ATOM     14  C   UNL A   1      34.274  22.088  24.725  1.00  0.00     0.146 A 
ATOM     15  C   UNL A   1      36.929  22.368  25.548  1.00  0.00     0.043 A 
ATOM     16  C   UNL A   1      35.102  20.962  24.846  1.00  0.00     0.085 A 
ATOM     17  Cl  UNL A   1      38.511  22.531  26.202  1.00  0.00    -0.084 Cl
ATOM     18  C   UNL A   1      36.420  21.099  25.282  1.00  0.00     0.045 A 
ATOM     19  Cl  UNL A   1      34.476  19.366  24.632  1.00  0.00    -0.080 Cl
BRANCH  10  20
ATOM     20  C   UNL A   1      31.676  23.544  23.235  1.00  0.00     0.429 C 
ATOM     21  F   UNL A   1      32.293  22.845  22.252  1.00  0.00    -0.167 F 
ATOM     22  F   UNL A   1      30.346  23.471  22.993  1.00  0.00    -0.167 F 
ATOM     23  F   UNL A   1      32.040  24.841  23.092  1.00  0.00    -0.167 F 
ENDBRANCH  10  20
ENDBRANCH   6   8
ENDBRANCH   3   4
ENDBRANCH   2   3
ENDBRANCH   1   2
BRANCH   1  24
ATOM     24  C   UNL A   1      33.695  29.656  26.752  1.00  0.00     0.116 C 
BRANCH  24  25
ATOM     25  N   UNL A   1      33.708  30.758  27.705  1.00  0.00    -0.352 N 
ATOM     26  C   UNL A   1      34.710  31.093  28.592  1.00  0.00     0.251 C 
ATOM     27  H   UNL A   1      32.907  31.329  27.717  1.00  0.00     0.163 HD
ATOM     28  O   UNL A   1      34.590  32.041  29.359  1.00  0.00    -0.269 OA
BRANCH  26  29
ATOM     29  C   UNL A   1      35.918  30.246  28.634  1.00  0.00     0.039 A 
ATOM     30  C   UNL A   1      36.789  30.251  27.542  1.00  0.00     0.014 A 
ATOM     31  C   UNL A   1      36.253  29.576  29.813  1.00  0.00     0.014 A 
ATOM     32  C   UNL A   1      38.055  29.674  27.671  1.00  0.00     0.010 A 
ATOM     33  C   UNL A   1      37.540  29.070  29.962  1.00  0.00     0.010 A 
ATOM     34  C   UNL A   1      38.461  29.134  28.902  1.00  0.00    -0.014 A 
BRANCH  34  35
ATOM     35  C   UNL A   1      39.846  28.643  29.133  1.00  0.00     0.031 A 
ATOM     36  C   UNL A   1      40.891  29.593  29.646  1.00  0.00     0.074 A 
ATOM     37  C   UNL A   1      40.192  27.392  28.766  1.00  0.00     0.049 A 
ATOM     38  N   UNL A   1      42.186  29.432  29.729  1.00  0.00    -0.248 NA
ATOM     39  C   UNL A   1      40.419  30.918  30.086  1.00  0.00     0.031 C 
ATOM     40  C   UNL A   1      39.286  26.379  28.216  1.00  0.00     0.029 A 
ATOM     41  N   UNL A   1      41.416  26.767  28.776  1.00  0.00    -0.354 N 
ATOM     42  C   UNL A   1      42.686  30.646  30.183  1.00  0.00     0.074 A 
ATOM     43  C   UNL A   1      41.561  31.542  30.331  1.00  0.00     0.031 C 
ATOM     44  C   UNL A   1      39.983  25.259  27.954  1.00  0.00     0.029 A 
ATOM     45  C   UNL A   1      41.389  25.488  28.271  1.00  0.00     0.049 A 
ATOM     46  H   UNL A   1      42.236  27.195  29.113  1.00  0.00     0.167 HD
ATOM     47  C   UNL A   1      43.968  30.981  30.462  1.00  0.00     0.031 A 
ATOM     48  C   UNL A   1      42.386  24.605  28.070  1.00  0.00     0.031 A 
ATOM     49  C   UNL A   1      45.080  30.077  30.365  1.00  0.00     0.049 A 
ATOM     50  C   UNL A   1      43.797  24.994  28.422  1.00  0.00     0.074 A 
ATOM     51  C   UNL A   1      46.403  30.303  30.699  1.00  0.00     0.029 A 
ATOM     52  N   UNL A   1      44.995  28.771  29.910  1.00  0.00    -0.354 N 
ATOM     53  N   UNL A   1      44.243  26.128  28.904  1.00  0.00    -0.248 NA
ATOM     54  C   UNL A   1      44.838  23.978  28.209  1.00  0.00     0.031 C 
ATOM     55  C   UNL A   1      47.127  29.141  30.418  1.00  0.00     0.029 A 
ATOM     56  C   UNL A   1      46.245  28.180  29.949  1.00  0.00     0.049 A 
ATOM     57  H   UNL A   1      44.169  28.330  29.607  1.00  0.00     0.167 HD
ATOM     58  C   UNL A   1      45.609  25.948  29.087  1.00  0.00     0.074 A 
ATOM     59  C   UNL A   1      45.917  24.597  28.670  1.00  0.00     0.031 C 
ATOM     60  C   UNL A   1      46.526  26.825  29.559  1.00  0.00     0.031 A 
BRANCH  47  61
ATOM     61  C   UNL A   1      44.237  32.390  30.903  1.00  0.00    -0.014 A 
ATOM     62  C   UNL A   1      44.325  33.440  29.976  1.00  0.00     0.009 A 
ATOM     63  C   UNL A   1      44.356  32.679  32.273  1.00  0.00     0.009 A 
ATOM     64  C   UNL A   1      44.556  34.746  30.409  1.00  0.00     0.001 A 
ATOM     65  C   UNL A   1      44.560  33.990  32.703  1.00  0.00     0.001 A 
ATOM     66  C   UNL A   1      44.667  35.022  31.772  1.00  0.00     0.000 A 
ENDBRANCH  47  61
BRANCH  48  67
ATOM     67  C   UNL A   1      42.101  23.258  27.509  1.00  0.00    -0.014 A 
ATOM     68  C   UNL A   1      41.627  22.229  28.339  1.00  0.00     0.009 A 
ATOM     69  C   UNL A   1      42.338  22.979  26.154  1.00  0.00     0.009 A 
ATOM     70  C   UNL A   1      41.429  20.943  27.834  1.00  0.00     0.001 A 
ATOM     71  C   UNL A   1      42.112  21.697  25.645  1.00  0.00     0.001 A 
ATOM     72  C   UNL A   1      41.670  20.678  26.486  1.00  0.00     0.000 A 
ENDBRANCH  48  67
BRANCH  60  73
ATOM     73  C   UNL A   1      47.936  26.338  29.715  1.00  0.00    -0.014 A 
ATOM     74  C   UNL A   1      48.859  26.426  28.663  1.00  0.00     0.009 A 
ATOM     75  C   UNL A   1      48.361  25.845  30.959  1.00  0.00     0.009 A 
ATOM     76  C   UNL A   1      50.179  26.011  28.850  1.00  0.00     0.001 A 
ATOM     77  C   UNL A   1      49.686  25.453  31.150  1.00  0.00     0.001 A 
ATOM     78  C   UNL A   1      50.592  25.530  30.093  1.00  0.00     0.000 A 
ENDBRANCH  60  73
ENDBRANCH  34  35
ENDBRANCH  26  29
ENDBRANCH  24  25
ENDBRANCH   1  24
TORSDOF 12
ENDMDL
MODEL 2
REMARK VINA RESULT:     -11.5      3.218      8.017
REMARK SMILES O=C(NCCCCNC(=O)c1ccc(-c2c3nc(c(-c4ccccc4)c4ccc([nH]4)c(-c4ccccc4)c4nc(c(-c5ccccc5)c5ccc2[nH]5)C=C4)C=C3)cc1)C1=Cc2cc(Cl)cc(Cl)c2O[C@@H]1C(F)(F)F
REMARK SMILES IDX 6 1 5 2 4 3 3 4 1 5 2 6 59 8 60 9 70 10 61 11 69 12 62 13
REMARK SMILES IDX 68 14 63 15 66 16 64 17 65 18 67 19 71 20 72 21 73 22 74 23
REMARK SMILES IDX 7 24 8 25 9 26 10 28 11 29 12 30 58 31 13 32 57 33 14 34
REMARK SMILES IDX 15 35 16 36 51 37 17 38 56 39 50 40 52 41 18 42 55 43 49 44
REMARK SMILES IDX 48 45 19 47 41 48 26 49 40 50 27 51 30 52 39 53 53 54 28 55
REMARK SMILES IDX 29 56 38 58 54 59 31 60 20 61 21 62 25 63 22 64 24 65 23 66
REMARK SMILES IDX 42 67 43 68 47 69 44 70 46 71 45 72 32 73 33 74 37 75 34 76
REMARK SMILES IDX 36 77 35 78
REMARK H PARENT 3 7 8 27 52 46 30 57
REMARK Flexibility Score: inf
ROOT
ATOM      1  C   UNL A   1      36.826  22.845  24.263  1.00  0.00     0.023 C 
ENDROOT
BRANCH   1   2
ATOM      2  C   UNL A   1      35.557  21.998  24.172  1.00  0.00     0.023 C 
BRANCH   2   3
ATOM      3  C   UNL A   1      34.278  22.811  23.970  1.00  0.00     0.116 C 
BRANCH   3   4
ATOM      4  N   UNL A   1      34.384  23.846  22.943  1.00  0.00    -0.352 N 
ATOM      5  O   UNL A   1      34.295  25.968  22.136  1.00  0.00    -0.270 OA
ATOM      6  C   UNL A   1      33.906  25.137  22.947  1.00  0.00     0.251 C 
ATOM      7  H   UNL A   1      34.871  23.580  22.129  1.00  0.00     0.163 HD
BRANCH   6   8
ATOM      8  C   UNL A   1      32.964  25.507  24.020  1.00  0.00     0.067 C 
ATOM      9  C   UNL A   1      33.475  26.008  25.152  1.00  0.00     0.025 C 
ATOM     10  C   UNL A   1      31.521  25.657  23.655  1.00  0.00     0.314 C 
ATOM     11  C   UNL A   1      32.810  27.252  25.572  1.00  0.00     0.020 A 
ATOM     12  O   UNL A   1      31.049  27.006  23.887  1.00  0.00    -0.474 OA
ATOM     13  C   UNL A   1      33.546  28.115  26.394  1.00  0.00     0.032 A 
ATOM     14  C   UNL A   1      31.720  27.755  24.828  1.00  0.00     0.146 A 
ATOM     15  C   UNL A   1      33.254  29.477  26.404  1.00  0.00     0.043 A 
ATOM     16  C   UNL A   1      31.418  29.125  24.883  1.00  0.00     0.085 A 
ATOM     17  Cl  UNL A   1      34.294  30.553  27.251  1.00  0.00    -0.084 Cl
ATOM     18  C   UNL A   1      32.201  29.988  25.649  1.00  0.00     0.045 A 
ATOM     19  Cl  UNL A   1      30.193  29.811  23.876  1.00  0.00    -0.080 Cl
BRANCH  10  20
ATOM     20  C   UNL A   1      30.640  24.635  24.393  1.00  0.00     0.429 C 
ATOM     21  F   UNL A   1      30.017  23.807  23.518  1.00  0.00    -0.167 F 
ATOM     22  F   UNL A   1      31.363  23.852  25.227  1.00  0.00    -0.167 F 
ATOM     23  F   UNL A   1      29.677  25.231  25.135  1.00  0.00    -0.167 F 
ENDBRANCH  10  20
ENDBRANCH   6   8
ENDBRANCH   3   4
ENDBRANCH   2   3
ENDBRANCH   1   2
BRANCH   1  24
ATOM     24  C   UNL A   1      37.468  22.955  25.645  1.00  0.00     0.116 C 
BRANCH  24  25
ATOM     25  N   UNL A   1      38.797  22.367  25.751  1.00  0.00    -0.352 N 
ATOM     26  C   UNL A   1      39.926  22.930  26.309  1.00  0.00     0.251 C 
ATOM     27  H   UNL A   1      38.901  21.462  25.379  1.00  0.00     0.163 HD
ATOM     28  O   UNL A   1      40.996  22.334  26.320  1.00  0.00    -0.269 OA
BRANCH  26  29
ATOM     29  C   UNL A   1      39.828  24.301  26.850  1.00  0.00     0.039 A 
ATOM     30  C   UNL A   1      39.278  24.491  28.119  1.00  0.00     0.014 A 
ATOM     31  C   UNL A   1      40.421  25.361  26.161  1.00  0.00     0.014 A 
ATOM     32  C   UNL A   1      39.423  25.729  28.752  1.00  0.00     0.010 A 
ATOM     33  C   UNL A   1      40.628  26.567  26.822  1.00  0.00     0.010 A 
ATOM     34  C   UNL A   1      40.152  26.756  28.131  1.00  0.00    -0.014 A 
BRANCH  34  35
ATOM     35  C   UNL A   1      40.459  28.037  28.821  1.00  0.00     0.031 A 
ATOM     36  C   UNL A   1      41.741  28.172  29.594  1.00  0.00     0.074 A 
ATOM     37  C   UNL A   1      39.540  29.024  28.860  1.00  0.00     0.049 A 
ATOM     38  N   UNL A   1      42.112  29.114  30.422  1.00  0.00    -0.248 NA
ATOM     39  C   UNL A   1      42.718  27.079  29.445  1.00  0.00     0.031 C 
ATOM     40  C   UNL A   1      38.237  29.008  28.188  1.00  0.00     0.029 A 
ATOM     41  N   UNL A   1      39.554  30.229  29.521  1.00  0.00    -0.354 N 
ATOM     42  C   UNL A   1      43.339  28.704  30.927  1.00  0.00     0.074 A 
ATOM     43  C   UNL A   1      43.638  27.418  30.337  1.00  0.00     0.031 C 
ATOM     44  C   UNL A   1      37.586  30.152  28.462  1.00  0.00     0.029 A 
ATOM     45  C   UNL A   1      38.399  30.961  29.364  1.00  0.00     0.049 A 
ATOM     46  H   UNL A   1      40.319  30.540  30.056  1.00  0.00     0.167 HD
ATOM     47  C   UNL A   1      44.152  29.347  31.799  1.00  0.00     0.031 A 
ATOM     48  C   UNL A   1      38.031  32.140  29.899  1.00  0.00     0.031 A 
ATOM     49  C   UNL A   1      43.883  30.647  32.348  1.00  0.00     0.049 A 
ATOM     50  C   UNL A   1      38.970  32.848  30.839  1.00  0.00     0.074 A 
ATOM     51  C   UNL A   1      44.682  31.412  33.178  1.00  0.00     0.029 A 
ATOM     52  N   UNL A   1      42.730  31.378  32.109  1.00  0.00    -0.354 N 
ATOM     53  N   UNL A   1      40.152  32.472  31.262  1.00  0.00    -0.248 NA
ATOM     54  C   UNL A   1      38.526  34.146  31.367  1.00  0.00     0.031 C 
ATOM     55  C   UNL A   1      43.999  32.597  33.469  1.00  0.00     0.029 A 
ATOM     56  C   UNL A   1      42.795  32.585  32.783  1.00  0.00     0.049 A 
ATOM     57  H   UNL A   1      41.980  31.084  31.544  1.00  0.00     0.167 HD
ATOM     58  C   UNL A   1      40.608  33.503  32.074  1.00  0.00     0.074 A 
ATOM     59  C   UNL A   1      39.579  34.522  32.080  1.00  0.00     0.031 C 
ATOM     60  C   UNL A   1      41.775  33.598  32.753  1.00  0.00     0.031 A 
BRANCH  47  61
ATOM     61  C   UNL A   1      45.416  28.651  32.214  1.00  0.00    -0.014 A 
ATOM     62  C   UNL A   1      46.615  28.838  31.508  1.00  0.00     0.009 A 
ATOM     63  C   UNL A   1      45.417  27.836  33.356  1.00  0.00     0.009 A 
ATOM     64  C   UNL A   1      47.784  28.198  31.922  1.00  0.00     0.001 A 
ATOM     65  C   UNL A   1      46.595  27.219  33.782  1.00  0.00     0.001 A 
ATOM     66  C   UNL A   1      47.775  27.394  33.062  1.00  0.00     0.000 A 
ENDBRANCH  47  61
BRANCH  48  67
ATOM     67  C   UNL A   1      36.713  32.742  29.567  1.00  0.00    -0.014 A 
ATOM     68  C   UNL A   1      35.619  32.576  30.432  1.00  0.00     0.009 A 
ATOM     69  C   UNL A   1      36.528  33.451  28.370  1.00  0.00     0.009 A 
ATOM     70  C   UNL A   1      34.360  33.075  30.088  1.00  0.00     0.001 A 
ATOM     71  C   UNL A   1      35.274  33.974  28.043  1.00  0.00     0.001 A 
ATOM     72  C   UNL A   1      34.189  33.775  28.895  1.00  0.00     0.000 A 
ENDBRANCH  48  67
BRANCH  60  73
ATOM     73  C   UNL A   1      42.037  34.867  33.508  1.00  0.00    -0.014 A 
ATOM     74  C   UNL A   1      41.558  35.053  34.813  1.00  0.00     0.009 A 
ATOM     75  C   UNL A   1      42.835  35.864  32.924  1.00  0.00     0.009 A 
ATOM     76  C   UNL A   1      41.859  36.224  35.511  1.00  0.00     0.001 A 
ATOM     77  C   UNL A   1      43.154  37.022  33.633  1.00  0.00     0.001 A 
ATOM     78  C   UNL A   1      42.660  37.203  34.923  1.00  0.00     0.000 A 
ENDBRANCH  60  73
ENDBRANCH  34  35
ENDBRANCH  26  29
ENDBRANCH  24  25
ENDBRANCH   1  24
TORSDOF 12
ENDMDL
MODEL 3
REMARK VINA RESULT:     -11.5      2.783      7.353
REMARK SMILES O=C(NCCCCNC(=O)c1ccc(-c2c3nc(c(-c4ccccc4)c4ccc([nH]4)c(-c4ccccc4)c4nc(c(-c5ccccc5)c5ccc2[nH]5)C=C4)C=C3)cc1)C1=Cc2cc(Cl)cc(Cl)c2O[C@@H]1C(F)(F)F
REMARK SMILES IDX 6 1 5 2 4 3 3 4 1 5 2 6 59 8 60 9 70 10 61 11 69 12 62 13
REMARK SMILES IDX 68 14 63 15 66 16 64 17 65 18 67 19 71 20 72 21 73 22 74 23
REMARK SMILES IDX 7 24 8 25 9 26 10 28 11 29 12 30 58 31 13 32 57 33 14 34
REMARK SMILES IDX 15 35 16 36 51 37 17 38 56 39 50 40 52 41 18 42 55 43 49 44
REMARK SMILES IDX 48 45 19 47 41 48 26 49 40 50 27 51 30 52 39 53 53 54 28 55
REMARK SMILES IDX 29 56 38 58 54 59 31 60 20 61 21 62 25 63 22 64 24 65 23 66
REMARK SMILES IDX 42 67 43 68 47 69 44 70 46 71 45 72 32 73 33 74 37 75 34 76
REMARK SMILES IDX 36 77 35 78
REMARK H PARENT 3 7 8 27 52 46 30 57
REMARK Flexibility Score: inf
ROOT
ATOM      1  C   UNL A   1      37.924  19.876  24.709  1.00  0.00     0.023 C 
ENDROOT
BRANCH   1   2
ATOM      2  C   UNL A   1      36.682  20.738  24.929  1.00  0.00     0.023 C 
BRANCH   2   3
ATOM      3  C   UNL A   1      36.840  22.189  24.473  1.00  0.00     0.116 C 
BRANCH   3   4
ATOM      4  N   UNL A   1      35.867  22.606  23.463  1.00  0.00    -0.352 N 
ATOM      5  O   UNL A   1      34.244  23.931  22.588  1.00  0.00    -0.270 OA
ATOM      6  C   UNL A   1      34.808  23.478  23.575  1.00  0.00     0.251 C 
ATOM      7  H   UNL A   1      35.990  22.204  22.573  1.00  0.00     0.163 HD
BRANCH   6   8
ATOM      8  C   UNL A   1      34.428  23.912  24.933  1.00  0.00     0.067 C 
ATOM      9  C   UNL A   1      34.810  25.133  25.327  1.00  0.00     0.025 C 
ATOM     10  C   UNL A   1      33.348  23.145  25.629  1.00  0.00     0.314 C 
ATOM     11  C   UNL A   1      33.703  25.916  25.899  1.00  0.00     0.020 A 
ATOM     12  O   UNL A   1      32.202  23.981  25.919  1.00  0.00    -0.474 OA
ATOM     13  C   UNL A   1      33.832  27.311  25.863  1.00  0.00     0.032 A 
ATOM     14  C   UNL A   1      32.422  25.336  26.030  1.00  0.00     0.146 A 
ATOM     15  C   UNL A   1      32.691  28.111  25.870  1.00  0.00     0.043 A 
ATOM     16  C   UNL A   1      31.289  26.162  26.074  1.00  0.00     0.085 A 
ATOM     17  Cl  UNL A   1      32.853  29.804  25.615  1.00  0.00    -0.084 Cl
ATOM     18  C   UNL A   1      31.422  27.546  25.967  1.00  0.00     0.045 A 
ATOM     19  Cl  UNL A   1      29.695  25.494  26.083  1.00  0.00    -0.080 Cl
BRANCH  10  20
ATOM     20  C   UNL A   1      33.867  22.466  26.907  1.00  0.00     0.429 C 
ATOM     21  F   UNL A   1      33.051  22.718  27.960  1.00  0.00    -0.167 F 
ATOM     22  F   UNL A   1      33.933  21.121  26.774  1.00  0.00    -0.167 F 
ATOM     23  F   UNL A   1      35.105  22.897  27.249  1.00  0.00    -0.167 F 
ENDBRANCH  10  20
ENDBRANCH   6   8
ENDBRANCH   3   4
ENDBRANCH   2   3
ENDBRANCH   1   2
BRANCH   1  24
ATOM     24  C   UNL A   1      38.747  19.544  25.952  1.00  0.00     0.116 C 
BRANCH  24  25
ATOM     25  N   UNL A   1      40.022  18.892  25.685  1.00  0.00    -0.352 N 
ATOM     26  C   UNL A   1      41.288  19.375  25.947  1.00  0.00     0.251 C 
ATOM     27  H   UNL A   1      39.974  18.002  25.267  1.00  0.00     0.163 HD
ATOM     28  O   UNL A   1      42.288  18.730  25.657  1.00  0.00    -0.269 OA
BRANCH  26  29
ATOM     29  C   UNL A   1      41.412  20.720  26.544  1.00  0.00     0.039 A 
ATOM     30  C   UNL A   1      41.771  20.835  27.888  1.00  0.00     0.014 A 
ATOM     31  C   UNL A   1      41.322  21.849  25.728  1.00  0.00     0.014 A 
ATOM     32  C   UNL A   1      42.153  22.082  28.392  1.00  0.00     0.010 A 
ATOM     33  C   UNL A   1      41.774  23.072  26.212  1.00  0.00     0.010 A 
ATOM     34  C   UNL A   1      42.214  23.197  27.541  1.00  0.00    -0.014 A 
BRANCH  34  35
ATOM     35  C   UNL A   1      42.753  24.507  27.992  1.00  0.00     0.031 A 
ATOM     36  C   UNL A   1      41.802  25.611  28.362  1.00  0.00     0.074 A 
ATOM     37  C   UNL A   1      44.081  24.747  27.949  1.00  0.00     0.049 A 
ATOM     38  N   UNL A   1      42.049  26.875  28.588  1.00  0.00    -0.248 NA
ATOM     39  C   UNL A   1      40.376  25.249  28.449  1.00  0.00     0.031 C 
ATOM     40  C   UNL A   1      45.113  23.778  27.571  1.00  0.00     0.029 A 
ATOM     41  N   UNL A   1      44.787  25.897  28.204  1.00  0.00    -0.354 N 
ATOM     42  C   UNL A   1      40.810  27.467  28.794  1.00  0.00     0.074 A 
ATOM     43  C   UNL A   1      39.811  26.432  28.641  1.00  0.00     0.031 C 
ATOM     44  C   UNL A   1      46.318  24.372  27.629  1.00  0.00     0.029 A 
ATOM     45  C   UNL A   1      46.142  25.771  28.002  1.00  0.00     0.049 A 
ATOM     46  H   UNL A   1      44.364  26.734  28.502  1.00  0.00     0.167 HD
ATOM     47  C   UNL A   1      40.528  28.756  29.096  1.00  0.00     0.031 A 
ATOM     48  C   UNL A   1      47.129  26.684  28.091  1.00  0.00     0.031 A 
ATOM     49  C   UNL A   1      41.521  29.774  29.300  1.00  0.00     0.049 A 
ATOM     50  C   UNL A   1      46.790  28.102  28.462  1.00  0.00     0.074 A 
ATOM     51  C   UNL A   1      41.337  31.091  29.684  1.00  0.00     0.029 A 
ATOM     52  N   UNL A   1      42.885  29.585  29.149  1.00  0.00    -0.354 N 
ATOM     53  N   UNL A   1      45.617  28.631  28.710  1.00  0.00    -0.248 NA
ATOM     54  C   UNL A   1      47.912  29.046  28.573  1.00  0.00     0.031 C 
ATOM     55  C   UNL A   1      42.590  31.708  29.736  1.00  0.00     0.029 A 
ATOM     56  C   UNL A   1      43.554  30.763  29.426  1.00  0.00     0.049 A 
ATOM     57  H   UNL A   1      43.313  28.738  28.885  1.00  0.00     0.167 HD
ATOM     58  C   UNL A   1      45.864  29.957  29.043  1.00  0.00     0.074 A 
ATOM     59  C   UNL A   1      47.296  30.151  28.971  1.00  0.00     0.031 C 
ATOM     60  C   UNL A   1      44.982  30.928  29.378  1.00  0.00     0.031 A 
BRANCH  47  61
ATOM     61  C   UNL A   1      39.083  29.140  29.227  1.00  0.00    -0.014 A 
ATOM     62  C   UNL A   1      38.349  29.600  28.123  1.00  0.00     0.009 A 
ATOM     63  C   UNL A   1      38.435  28.993  30.464  1.00  0.00     0.009 A 
ATOM     64  C   UNL A   1      37.001  29.932  28.261  1.00  0.00     0.001 A 
ATOM     65  C   UNL A   1      37.080  29.301  30.592  1.00  0.00     0.001 A 
ATOM     66  C   UNL A   1      36.365  29.777  29.494  1.00  0.00     0.000 A 
ENDBRANCH  47  61
BRANCH  48  67
ATOM     67  C   UNL A   1      48.541  26.298  27.828  1.00  0.00    -0.014 A 
ATOM     68  C   UNL A   1      49.061  26.352  26.525  1.00  0.00     0.009 A 
ATOM     69  C   UNL A   1      49.365  25.837  28.866  1.00  0.00     0.009 A 
ATOM     70  C   UNL A   1      50.362  25.920  26.260  1.00  0.00     0.001 A 
ATOM     71  C   UNL A   1      50.676  25.432  28.603  1.00  0.00     0.001 A 
ATOM     72  C   UNL A   1      51.169  25.462  27.300  1.00  0.00     0.000 A 
ENDBRANCH  48  67
BRANCH  60  73
ATOM     73  C   UNL A   1      45.538  32.269  29.758  1.00  0.00    -0.014 A 
ATOM     74  C   UNL A   1      45.922  32.553  31.077  1.00  0.00     0.009 A 
ATOM     75  C   UNL A   1      45.740  33.237  28.762  1.00  0.00     0.009 A 
ATOM     76  C   UNL A   1      46.482  33.792  31.393  1.00  0.00     0.001 A 
ATOM     77  C   UNL A   1      46.321  34.465  29.077  1.00  0.00     0.001 A 
ATOM     78  C   UNL A   1      46.687  34.744  30.393  1.00  0.00     0.000 A 
ENDBRANCH  60  73
ENDBRANCH  34  35
ENDBRANCH  26  29
ENDBRANCH  24  25
ENDBRANCH   1  24
TORSDOF 12
ENDMDL
