MODEL 1
REMARK VINA RESULT:     -10.1      0.000      0.000
REMARK SMILES Cc1cc(O[C@@H](C)C(=O)NCCCCNC(=O)c2ccc(-c3c4nc(c(-c5ccccc5)c5ccc([nH]5)c(-c5ccccc5)c5nc(c(-c6ccccc6)c6ccc3[nH]6)C=C5)C=C4)cc2)n(C)n1
REMARK SMILES IDX 12 1 11 2 10 3 8 4 9 5 6 7 7 8 5 9 4 10 1 11 2 12 3 13 68 14
REMARK SMILES IDX 66 15 67 16 13 17 14 18 15 19 16 20 17 22 18 23 19 24 65 25
REMARK SMILES IDX 20 26 64 27 21 28 22 29 23 30 58 31 24 32 63 33 57 34 59 35
REMARK SMILES IDX 25 36 62 37 56 38 55 39 26 41 48 42 33 43 47 44 34 45 37 46
REMARK SMILES IDX 46 47 60 48 35 49 36 50 45 52 61 53 38 54 27 55 28 56 32 57
REMARK SMILES IDX 29 58 31 59 30 60 49 61 50 62 54 63 51 64 53 65 52 66 39 67
REMARK SMILES IDX 40 68 44 69 41 70 43 71 42 72
REMARK H PARENT 10 6 15 21 59 40 37 51
REMARK Flexibility Score: inf
ROOT
ATOM      1  C   UNL A   1      37.059  22.134  24.386  1.00  0.00     0.023 C 
ENDROOT
BRANCH   1   2
ATOM      2  C   UNL A   1      36.873  23.299  25.358  1.00  0.00     0.116 C 
BRANCH   2   3
ATOM      3  N   UNL A   1      36.051  22.919  26.484  1.00  0.00    -0.353 N 
ATOM      4  C   UNL A   1      34.700  22.862  26.628  1.00  0.00     0.260 C 
ATOM      5  O   UNL A   1      34.290  22.592  27.764  1.00  0.00    -0.271 OA
ATOM      6  H   UNL A   1      36.558  22.657  27.286  1.00  0.00     0.163 HD
BRANCH   4   7
ATOM      7  C   UNL A   1      33.691  23.068  25.464  1.00  0.00     0.260 C 
ATOM      8  C   UNL A   1      32.332  23.605  25.905  1.00  0.00     0.064 C 
BRANCH   7   9
ATOM      9  O   UNL A   1      33.707  22.149  24.379  1.00  0.00    -0.465 OA
BRANCH   9  10
ATOM     10  C   UNL A   1      33.253  20.902  24.489  1.00  0.00     0.212 A 
ATOM     11  C   UNL A   1      32.618  17.391  25.375  1.00  0.00     0.069 C 
ATOM     12  C   UNL A   1      32.684  18.777  24.853  1.00  0.00     0.063 A 
ATOM     13  C   UNL A   1      33.286  19.912  25.449  1.00  0.00     0.093 A 
ATOM     14  N   UNL A   1      32.188  19.067  23.647  1.00  0.00    -0.175 NA
ATOM     15  N   UNL A   1      32.470  20.375  23.486  1.00  0.00    -0.237 N 
ATOM     16  C   UNL A   1      31.979  21.051  22.309  1.00  0.00     0.178 C 
ENDBRANCH   9  10
ENDBRANCH   7   9
ENDBRANCH   4   7
ENDBRANCH   2   3
ENDBRANCH   1   2
BRANCH   1  17
ATOM     17  C   UNL A   1      37.584  20.851  25.025  1.00  0.00     0.023 C 
BRANCH  17  18
ATOM     18  C   UNL A   1      38.888  21.003  25.804  1.00  0.00     0.116 C 
BRANCH  18  19
ATOM     19  N   UNL A   1      39.797  19.870  25.693  1.00  0.00    -0.352 N 
ATOM     20  C   UNL A   1      41.131  19.812  26.030  1.00  0.00     0.251 C 
ATOM     21  H   UNL A   1      39.408  19.040  25.334  1.00  0.00     0.163 HD
ATOM     22  O   UNL A   1      41.785  18.791  25.846  1.00  0.00    -0.269 OA
BRANCH  20  23
ATOM     23  C   UNL A   1      41.775  21.028  26.565  1.00  0.00     0.039 A 
ATOM     24  C   UNL A   1      42.313  21.957  25.672  1.00  0.00     0.014 A 
ATOM     25  C   UNL A   1      41.735  21.296  27.935  1.00  0.00     0.014 A 
ATOM     26  C   UNL A   1      42.717  23.208  26.145  1.00  0.00     0.010 A 
ATOM     27  C   UNL A   1      42.060  22.567  28.390  1.00  0.00     0.010 A 
ATOM     28  C   UNL A   1      42.539  23.541  27.497  1.00  0.00    -0.014 A 
BRANCH  28  29
ATOM     29  C   UNL A   1      42.809  24.909  28.007  1.00  0.00     0.031 A 
ATOM     30  C   UNL A   1      44.191  25.275  28.471  1.00  0.00     0.074 A 
ATOM     31  C   UNL A   1      41.791  25.777  28.166  1.00  0.00     0.049 A 
ATOM     32  N   UNL A   1      44.597  26.362  29.077  1.00  0.00    -0.248 NA
ATOM     33  C   UNL A   1      45.244  24.268  28.267  1.00  0.00     0.031 C 
ATOM     34  C   UNL A   1      40.392  25.523  27.817  1.00  0.00     0.029 A 
ATOM     35  N   UNL A   1      41.777  27.049  28.681  1.00  0.00    -0.354 N 
ATOM     36  C   UNL A   1      45.939  26.150  29.364  1.00  0.00     0.074 A 
ATOM     37  C   UNL A   1      46.268  24.819  28.901  1.00  0.00     0.031 C 
ATOM     38  C   UNL A   1      39.660  26.611  28.108  1.00  0.00     0.029 A 
ATOM     39  C   UNL A   1      40.530  27.624  28.697  1.00  0.00     0.049 A 
ATOM     40  H   UNL A   1      42.585  27.506  29.010  1.00  0.00     0.167 HD
ATOM     41  C   UNL A   1      46.823  26.992  29.948  1.00  0.00     0.031 A 
ATOM     42  C   UNL A   1      40.128  28.829  29.140  1.00  0.00     0.031 A 
ATOM     43  C   UNL A   1      46.509  28.330  30.370  1.00  0.00     0.049 A 
ATOM     44  C   UNL A   1      41.139  29.769  29.732  1.00  0.00     0.074 A 
ATOM     45  C   UNL A   1      47.356  29.292  30.891  1.00  0.00     0.029 A 
ATOM     46  N   UNL A   1      45.245  28.896  30.310  1.00  0.00    -0.354 N 
ATOM     47  N   UNL A   1      42.420  29.581  29.933  1.00  0.00    -0.248 NA
ATOM     48  C   UNL A   1      40.649  31.092  30.148  1.00  0.00     0.031 C 
ATOM     49  C   UNL A   1      46.597  30.433  31.175  1.00  0.00     0.029 A 
ATOM     50  C   UNL A   1      45.286  30.191  30.796  1.00  0.00     0.049 A 
ATOM     51  H   UNL A   1      44.439  28.444  29.972  1.00  0.00     0.167 HD
ATOM     52  C   UNL A   1      42.895  30.766  30.478  1.00  0.00     0.074 A 
ATOM     53  C   UNL A   1      41.767  31.672  30.564  1.00  0.00     0.031 C 
ATOM     54  C   UNL A   1      44.154  31.076  30.872  1.00  0.00     0.031 A 
BRANCH  41  55
ATOM     55  C   UNL A   1      48.219  26.479  30.164  1.00  0.00    -0.014 A 
ATOM     56  C   UNL A   1      49.213  26.637  29.186  1.00  0.00     0.009 A 
ATOM     57  C   UNL A   1      48.545  25.832  31.367  1.00  0.00     0.009 A 
ATOM     58  C   UNL A   1      50.493  26.116  29.388  1.00  0.00     0.001 A 
ATOM     59  C   UNL A   1      49.833  25.338  31.578  1.00  0.00     0.001 A 
ATOM     60  C   UNL A   1      50.802  25.470  30.584  1.00  0.00     0.000 A 
ENDBRANCH  41  55
BRANCH  42  61
ATOM     61  C   UNL A   1      38.703  29.227  29.016  1.00  0.00    -0.014 A 
ATOM     62  C   UNL A   1      38.212  29.723  27.799  1.00  0.00     0.009 A 
ATOM     63  C   UNL A   1      37.825  29.101  30.103  1.00  0.00     0.009 A 
ATOM     64  C   UNL A   1      36.873  30.105  27.678  1.00  0.00     0.001 A 
ATOM     65  C   UNL A   1      36.481  29.462  29.973  1.00  0.00     0.001 A 
ATOM     66  C   UNL A   1      36.009  29.970  28.764  1.00  0.00     0.000 A 
ENDBRANCH  42  61
BRANCH  54  67
ATOM     67  C   UNL A   1      44.383  32.460  31.406  1.00  0.00    -0.014 A 
ATOM     68  C   UNL A   1      44.705  33.522  30.548  1.00  0.00     0.009 A 
ATOM     69  C   UNL A   1      44.226  32.711  32.777  1.00  0.00     0.009 A 
ATOM     70  C   UNL A   1      44.891  34.807  31.059  1.00  0.00     0.001 A 
ATOM     71  C   UNL A   1      44.390  34.001  33.282  1.00  0.00     0.001 A 
ATOM     72  C   UNL A   1      44.728  35.046  32.425  1.00  0.00     0.000 A 
ENDBRANCH  54  67
ENDBRANCH  28  29
ENDBRANCH  20  23
ENDBRANCH  18  19
ENDBRANCH  17  18
ENDBRANCH   1  17
TORSDOF 13
ENDMDL
MODEL 2
REMARK VINA RESULT:      -9.9      1.463      6.704
REMARK SMILES Cc1cc(O[C@@H](C)C(=O)NCCCCNC(=O)c2ccc(-c3c4nc(c(-c5ccccc5)c5ccc([nH]5)c(-c5ccccc5)c5nc(c(-c6ccccc6)c6ccc3[nH]6)C=C5)C=C4)cc2)n(C)n1
REMARK SMILES IDX 12 1 11 2 10 3 8 4 9 5 6 7 7 8 5 9 4 10 1 11 2 12 3 13 68 14
REMARK SMILES IDX 66 15 67 16 13 17 14 18 15 19 16 20 17 22 18 23 19 24 65 25
REMARK SMILES IDX 20 26 64 27 21 28 22 29 23 30 58 31 24 32 63 33 57 34 59 35
REMARK SMILES IDX 25 36 62 37 56 38 55 39 26 41 48 42 33 43 47 44 34 45 37 46
REMARK SMILES IDX 46 47 60 48 35 49 36 50 45 52 61 53 38 54 27 55 28 56 32 57
REMARK SMILES IDX 29 58 31 59 30 60 49 61 50 62 54 63 51 64 53 65 52 66 39 67
REMARK SMILES IDX 40 68 44 69 41 70 43 71 42 72
REMARK H PARENT 10 6 15 21 59 40 37 51
REMARK Flexibility Score: inf
ROOT
ATOM      1  C   UNL A   1      35.954  21.702  25.126  1.00  0.00     0.023 C 
ENDROOT
BRANCH   1   2
ATOM      2  C   UNL A   1      35.568  22.996  25.842  1.00  0.00     0.116 C 
BRANCH   2   3
ATOM      3  N   UNL A   1      34.754  22.732  27.006  1.00  0.00    -0.353 N 
ATOM      4  C   UNL A   1      33.406  22.640  27.154  1.00  0.00     0.260 C 
ATOM      5  O   UNL A   1      33.000  22.502  28.315  1.00  0.00    -0.271 OA
ATOM      6  H   UNL A   1      35.266  22.597  27.836  1.00  0.00     0.163 HD
BRANCH   4   7
ATOM      7  C   UNL A   1      32.397  22.652  25.972  1.00  0.00     0.260 C 
ATOM      8  C   UNL A   1      32.250  21.308  25.264  1.00  0.00     0.064 C 
BRANCH   7   9
ATOM      9  O   UNL A   1      32.303  23.824  25.171  1.00  0.00    -0.465 OA
BRANCH   9  10
ATOM     10  C   UNL A   1      32.363  25.051  25.685  1.00  0.00     0.212 A 
ATOM     11  C   UNL A   1      33.360  28.262  27.171  1.00  0.00     0.069 C 
ATOM     12  C   UNL A   1      32.724  27.062  26.576  1.00  0.00     0.063 A 
ATOM     13  C   UNL A   1      33.334  26.018  25.840  1.00  0.00     0.093 A 
ATOM     14  N   UNL A   1      31.421  26.829  26.763  1.00  0.00    -0.175 NA
ATOM     15  N   UNL A   1      31.211  25.650  26.144  1.00  0.00    -0.237 N 
ATOM     16  C   UNL A   1      29.864  25.139  26.064  1.00  0.00     0.178 C 
ENDBRANCH   9  10
ENDBRANCH   7   9
ENDBRANCH   4   7
ENDBRANCH   2   3
ENDBRANCH   1   2
BRANCH   1  17
ATOM     17  C   UNL A   1      37.409  21.640  24.666  1.00  0.00     0.023 C 
BRANCH  17  18
ATOM     18  C   UNL A   1      38.428  21.405  25.777  1.00  0.00     0.116 C 
BRANCH  18  19
ATOM     19  N   UNL A   1      39.208  20.182  25.637  1.00  0.00    -0.352 N 
ATOM     20  C   UNL A   1      40.520  19.964  25.994  1.00  0.00     0.251 C 
ATOM     21  H   UNL A   1      38.738  19.415  25.237  1.00  0.00     0.163 HD
ATOM     22  O   UNL A   1      41.061  18.884  25.780  1.00  0.00    -0.269 OA
BRANCH  20  23
ATOM     23  C   UNL A   1      41.283  21.079  26.589  1.00  0.00     0.039 A 
ATOM     24  C   UNL A   1      41.907  21.998  25.744  1.00  0.00     0.014 A 
ATOM     25  C   UNL A   1      41.274  21.273  27.972  1.00  0.00     0.014 A 
ATOM     26  C   UNL A   1      42.434  23.175  26.282  1.00  0.00     0.010 A 
ATOM     27  C   UNL A   1      41.725  22.478  28.493  1.00  0.00     0.010 A 
ATOM     28  C   UNL A   1      42.294  23.449  27.652  1.00  0.00    -0.014 A 
BRANCH  28  29
ATOM     29  C   UNL A   1      42.700  24.753  28.234  1.00  0.00     0.031 A 
ATOM     30  C   UNL A   1      41.669  25.818  28.477  1.00  0.00     0.074 A 
ATOM     31  C   UNL A   1      44.006  25.020  28.429  1.00  0.00     0.049 A 
ATOM     32  N   UNL A   1      41.838  27.063  28.841  1.00  0.00    -0.248 NA
ATOM     33  C   UNL A   1      40.266  25.445  28.235  1.00  0.00     0.031 C 
ATOM     34  C   UNL A   1      45.113  24.097  28.171  1.00  0.00     0.029 A 
ATOM     35  N   UNL A   1      44.625  26.161  28.874  1.00  0.00    -0.354 N 
ATOM     36  C   UNL A   1      40.571  27.632  28.830  1.00  0.00     0.074 A 
ATOM     37  C   UNL A   1      39.650  26.608  28.386  1.00  0.00     0.031 C 
ATOM     38  C   UNL A   1      46.272  24.701  28.482  1.00  0.00     0.029 A 
ATOM     39  C   UNL A   1      45.994  26.062  28.926  1.00  0.00     0.049 A 
ATOM     40  H   UNL A   1      44.134  26.975  29.132  1.00  0.00     0.167 HD
ATOM     41  C   UNL A   1      40.204  28.890  29.171  1.00  0.00     0.031 A 
ATOM     42  C   UNL A   1      46.923  26.966  29.285  1.00  0.00     0.031 A 
ATOM     43  C   UNL A   1      41.112  29.895  29.652  1.00  0.00     0.049 A 
ATOM     44  C   UNL A   1      46.487  28.338  29.715  1.00  0.00     0.074 A 
ATOM     45  C   UNL A   1      40.825  31.169  30.107  1.00  0.00     0.029 A 
ATOM     46  N   UNL A   1      42.485  29.732  29.748  1.00  0.00    -0.354 N 
ATOM     47  N   UNL A   1      45.278  28.840  29.765  1.00  0.00    -0.248 NA
ATOM     48  C   UNL A   1      47.544  29.264  30.148  1.00  0.00     0.031 C 
ATOM     49  C   UNL A   1      42.032  31.791  30.450  1.00  0.00     0.029 A 
ATOM     50  C   UNL A   1      43.062  30.888  30.244  1.00  0.00     0.049 A 
ATOM     51  H   UNL A   1      42.976  28.916  29.502  1.00  0.00     0.167 HD
ATOM     52  C   UNL A   1      45.423  30.130  30.254  1.00  0.00     0.074 A 
ATOM     53  C   UNL A   1      46.837  30.331  30.499  1.00  0.00     0.031 C 
ATOM     54  C   UNL A   1      44.470  31.067  30.481  1.00  0.00     0.031 A 
BRANCH  41  55
ATOM     55  C   UNL A   1      38.750  29.242  29.027  1.00  0.00    -0.014 A 
ATOM     56  C   UNL A   1      38.237  29.740  27.819  1.00  0.00     0.009 A 
ATOM     57  C   UNL A   1      37.881  29.068  30.115  1.00  0.00     0.009 A 
ATOM     58  C   UNL A   1      36.892  30.100  27.718  1.00  0.00     0.001 A 
ATOM     59  C   UNL A   1      36.530  29.401  30.002  1.00  0.00     0.001 A 
ATOM     60  C   UNL A   1      36.040  29.928  28.809  1.00  0.00     0.000 A 
ENDBRANCH  41  55
BRANCH  42  61
ATOM     61  C   UNL A   1      48.360  26.594  29.280  1.00  0.00    -0.014 A 
ATOM     62  C   UNL A   1      48.938  25.992  30.407  1.00  0.00     0.009 A 
ATOM     63  C   UNL A   1      49.158  26.824  28.148  1.00  0.00     0.009 A 
ATOM     64  C   UNL A   1      50.292  25.645  30.410  1.00  0.00     0.001 A 
ATOM     65  C   UNL A   1      50.505  26.456  28.145  1.00  0.00     0.001 A 
ATOM     66  C   UNL A   1      51.072  25.874  29.277  1.00  0.00     0.000 A 
ENDBRANCH  42  61
BRANCH  54  67
ATOM     67  C   UNL A   1      44.923  32.381  31.046  1.00  0.00    -0.014 A 
ATOM     68  C   UNL A   1      45.020  32.577  32.432  1.00  0.00     0.009 A 
ATOM     69  C   UNL A   1      45.301  33.417  30.179  1.00  0.00     0.009 A 
ATOM     70  C   UNL A   1      45.467  33.799  32.939  1.00  0.00     0.001 A 
ATOM     71  C   UNL A   1      45.768  34.629  30.688  1.00  0.00     0.001 A 
ATOM     72  C   UNL A   1      45.844  34.821  32.067  1.00  0.00     0.000 A 
ENDBRANCH  54  67
ENDBRANCH  28  29
ENDBRANCH  20  23
ENDBRANCH  18  19
ENDBRANCH  17  18
ENDBRANCH   1  17
TORSDOF 13
ENDMDL
MODEL 3
REMARK VINA RESULT:      -9.9      3.340      6.221
REMARK SMILES Cc1cc(O[C@@H](C)C(=O)NCCCCNC(=O)c2ccc(-c3c4nc(c(-c5ccccc5)c5ccc([nH]5)c(-c5ccccc5)c5nc(c(-c6ccccc6)c6ccc3[nH]6)C=C5)C=C4)cc2)n(C)n1
REMARK SMILES IDX 12 1 11 2 10 3 8 4 9 5 6 7 7 8 5 9 4 10 1 11 2 12 3 13 68 14
REMARK SMILES IDX 66 15 67 16 13 17 14 18 15 19 16 20 17 22 18 23 19 24 65 25
REMARK SMILES IDX 20 26 64 27 21 28 22 29 23 30 58 31 24 32 63 33 57 34 59 35
REMARK SMILES IDX 25 36 62 37 56 38 55 39 26 41 48 42 33 43 47 44 34 45 37 46
REMARK SMILES IDX 46 47 60 48 35 49 36 50 45 52 61 53 38 54 27 55 28 56 32 57
REMARK SMILES IDX 29 58 31 59 30 60 49 61 50 62 54 63 51 64 53 65 52 66 39 67
REMARK SMILES IDX 40 68 44 69 41 70 43 71 42 72
REMARK H PARENT 10 6 15 21 59 40 37 51
REMARK Flexibility Score: inf
ROOT
ATOM      1  C   UNL A   1      42.136  21.844  28.216  1.00  0.00     0.023 C 
ENDROOT
BRANCH   1   2
ATOM      2  C   UNL A   1      42.767  23.102  27.620  1.00  0.00     0.116 C 
BRANCH   2   3
ATOM      3  N   UNL A   1      44.200  22.968  27.502  1.00  0.00    -0.353 N 
ATOM      4  C   UNL A   1      44.994  22.771  26.416  1.00  0.00     0.260 C 
ATOM      5  O   UNL A   1      46.196  22.594  26.652  1.00  0.00    -0.271 OA
ATOM      6  H   UNL A   1      44.686  23.029  28.356  1.00  0.00     0.163 HD
BRANCH   4   7
ATOM      7  C   UNL A   1      44.486  22.804  24.948  1.00  0.00     0.260 C 
ATOM      8  C   UNL A   1      43.452  23.892  24.671  1.00  0.00     0.064 C 
BRANCH   7   9
ATOM      9  O   UNL A   1      44.338  21.573  24.251  1.00  0.00    -0.465 OA
BRANCH   9  10
ATOM     10  C   UNL A   1      44.220  20.403  24.878  1.00  0.00     0.212 A 
ATOM     11  C   UNL A   1      43.176  17.527  26.915  1.00  0.00     0.069 C 
ATOM     12  C   UNL A   1      43.798  18.545  26.035  1.00  0.00     0.063 A 
ATOM     13  C   UNL A   1      43.188  19.668  25.425  1.00  0.00     0.093 A 
ATOM     14  N   UNL A   1      45.109  18.505  25.781  1.00  0.00    -0.175 NA
ATOM     15  N   UNL A   1      45.324  19.591  25.012  1.00  0.00    -0.237 N 
ATOM     16  C   UNL A   1      46.641  19.805  24.464  1.00  0.00     0.178 C 
ENDBRANCH   9  10
ENDBRANCH   7   9
ENDBRANCH   4   7
ENDBRANCH   2   3
ENDBRANCH   1   2
BRANCH   1  17
ATOM     17  C   UNL A   1      40.810  21.435  27.579  1.00  0.00     0.023 C 
BRANCH  17  18
ATOM     18  C   UNL A   1      40.632  21.866  26.126  1.00  0.00     0.116 C 
BRANCH  18  19
ATOM     19  N   UNL A   1      39.263  22.205  25.757  1.00  0.00    -0.352 N 
ATOM     20  C   UNL A   1      38.571  23.365  26.026  1.00  0.00     0.251 C 
ATOM     21  H   UNL A   1      38.772  21.519  25.250  1.00  0.00     0.163 HD
ATOM     22  O   UNL A   1      37.401  23.496  25.681  1.00  0.00    -0.269 OA
BRANCH  20  23
ATOM     23  C   UNL A   1      39.251  24.429  26.792  1.00  0.00     0.039 A 
ATOM     24  C   UNL A   1      40.062  25.339  26.111  1.00  0.00     0.014 A 
ATOM     25  C   UNL A   1      38.984  24.590  28.153  1.00  0.00     0.014 A 
ATOM     26  C   UNL A   1      40.523  26.477  26.777  1.00  0.00     0.010 A 
ATOM     27  C   UNL A   1      39.375  25.761  28.789  1.00  0.00     0.010 A 
ATOM     28  C   UNL A   1      40.134  26.724  28.103  1.00  0.00    -0.014 A 
BRANCH  28  29
ATOM     29  C   UNL A   1      40.473  27.993  28.794  1.00  0.00     0.031 A 
ATOM     30  C   UNL A   1      41.793  28.134  29.497  1.00  0.00     0.074 A 
ATOM     31  C   UNL A   1      39.549  28.969  28.892  1.00  0.00     0.049 A 
ATOM     32  N   UNL A   1      42.218  29.099  30.271  1.00  0.00    -0.248 NA
ATOM     33  C   UNL A   1      42.744  27.021  29.344  1.00  0.00     0.031 C 
ATOM     34  C   UNL A   1      38.204  28.931  28.311  1.00  0.00     0.029 A 
ATOM     35  N   UNL A   1      39.597  30.180  29.535  1.00  0.00    -0.354 N 
ATOM     36  C   UNL A   1      43.463  28.691  30.731  1.00  0.00     0.074 A 
ATOM     37  C   UNL A   1      43.707  27.375  30.180  1.00  0.00     0.031 C 
ATOM     38  C   UNL A   1      37.565  30.075  28.607  1.00  0.00     0.029 A 
ATOM     39  C   UNL A   1      38.437  30.909  29.426  1.00  0.00     0.049 A 
ATOM     40  H   UNL A   1      40.387  30.498  30.029  1.00  0.00     0.167 HD
ATOM     41  C   UNL A   1      44.331  29.355  31.529  1.00  0.00     0.031 A 
ATOM     42  C   UNL A   1      38.109  32.112  29.933  1.00  0.00     0.031 A 
ATOM     43  C   UNL A   1      44.108  30.679  32.042  1.00  0.00     0.049 A 
ATOM     44  C   UNL A   1      39.112  32.856  30.768  1.00  0.00     0.074 A 
ATOM     45  C   UNL A   1      44.963  31.472  32.785  1.00  0.00     0.029 A 
ATOM     46  N   UNL A   1      42.943  31.407  31.856  1.00  0.00    -0.354 N 
ATOM     47  N   UNL A   1      40.313  32.485  31.137  1.00  0.00    -0.248 NA
ATOM     48  C   UNL A   1      38.716  34.188  31.247  1.00  0.00     0.031 C 
ATOM     49  C   UNL A   1      44.303  32.672  33.076  1.00  0.00     0.029 A 
ATOM     50  C   UNL A   1      43.053  32.637  32.481  1.00  0.00     0.049 A 
ATOM     51  H   UNL A   1      42.156  31.097  31.354  1.00  0.00     0.167 HD
ATOM     52  C   UNL A   1      40.826  33.544  31.873  1.00  0.00     0.074 A 
ATOM     53  C   UNL A   1      39.811  34.578  31.887  1.00  0.00     0.031 C 
ATOM     54  C   UNL A   1      42.032  33.652  32.482  1.00  0.00     0.031 A 
BRANCH  41  55
ATOM     55  C   UNL A   1      45.605  28.647  31.895  1.00  0.00    -0.014 A 
ATOM     56  C   UNL A   1      45.695  27.862  33.056  1.00  0.00     0.009 A 
ATOM     57  C   UNL A   1      46.730  28.762  31.063  1.00  0.00     0.009 A 
ATOM     58  C   UNL A   1      46.900  27.246  33.400  1.00  0.00     0.001 A 
ATOM     59  C   UNL A   1      47.924  28.120  31.395  1.00  0.00     0.001 A 
ATOM     60  C   UNL A   1      48.011  27.373  32.569  1.00  0.00     0.000 A 
ENDBRANCH  41  55
BRANCH  42  61
ATOM     61  C   UNL A   1      36.779  32.701  29.640  1.00  0.00    -0.014 A 
ATOM     62  C   UNL A   1      36.547  33.353  28.419  1.00  0.00     0.009 A 
ATOM     63  C   UNL A   1      35.731  32.605  30.569  1.00  0.00     0.009 A 
ATOM     64  C   UNL A   1      35.298  33.914  28.142  1.00  0.00     0.001 A 
ATOM     65  C   UNL A   1      34.477  33.147  30.280  1.00  0.00     0.001 A 
ATOM     66  C   UNL A   1      34.264  33.807  29.070  1.00  0.00     0.000 A 
ENDBRANCH  42  61
BRANCH  54  67
ATOM     67  C   UNL A   1      42.328  34.940  33.191  1.00  0.00    -0.014 A 
ATOM     68  C   UNL A   1      41.848  35.180  34.488  1.00  0.00     0.009 A 
ATOM     69  C   UNL A   1      43.136  35.905  32.571  1.00  0.00     0.009 A 
ATOM     70  C   UNL A   1      42.154  36.375  35.141  1.00  0.00     0.001 A 
ATOM     71  C   UNL A   1      43.459  37.089  33.235  1.00  0.00     0.001 A 
ATOM     72  C   UNL A   1      42.963  37.326  34.516  1.00  0.00     0.000 A 
ENDBRANCH  54  67
ENDBRANCH  28  29
ENDBRANCH  20  23
ENDBRANCH  18  19
ENDBRANCH  17  18
ENDBRANCH   1  17
TORSDOF 13
ENDMDL
