MODEL 1
REMARK VINA RESULT:     -11.7      0.000      0.000
REMARK SMILES O=C(Cn1cnc(-c2ccccc2)c1-c1ccccc1)NCCCCNC(=O)c1ccc(-c2c3nc(c(-c4ccccc4)c4ccc([nH]4)c(-c4ccccc4)c4nc(c(-c5ccccc5)c5ccc2[nH]5)C=C4)C=C3)cc1
REMARK SMILES IDX 23 1 22 2 21 3 1 4 2 5 3 7 4 8 5 9 14 10 6 11 7 12 15 13
REMARK SMILES IDX 16 14 20 15 17 16 19 17 18 18 8 19 9 20 13 21 10 22 12 23
REMARK SMILES IDX 11 24 24 25 25 26 26 27 27 28 28 30 29 31 30 32 76 33 31 34
REMARK SMILES IDX 75 35 32 36 33 37 34 38 69 39 35 40 74 41 68 42 70 43 36 44
REMARK SMILES IDX 73 45 67 46 66 47 37 49 59 50 44 51 58 52 45 53 48 54 57 55
REMARK SMILES IDX 71 56 46 57 47 58 56 60 72 61 49 62 38 63 39 64 43 65 40 66
REMARK SMILES IDX 42 67 41 68 60 69 61 70 65 71 62 72 64 73 63 74 50 75 51 76
REMARK SMILES IDX 55 77 52 78 54 79 53 80
REMARK H PARENT 21 6 26 29 70 48 48 59
REMARK Flexibility Score: inf
ROOT
ATOM      1  C   UNL A   1      36.917  20.984  24.535  1.00  0.00     0.023 C 
ENDROOT
BRANCH   1   2
ATOM      2  C   UNL A   1      36.853  22.221  25.439  1.00  0.00     0.116 C 
BRANCH   2   3
ATOM      3  N   UNL A   1      35.513  22.499  25.932  1.00  0.00    -0.355 N 
ATOM      4  O   UNL A   1      35.051  24.174  24.427  1.00  0.00    -0.273 OA
ATOM      5  C   UNL A   1      34.701  23.464  25.366  1.00  0.00     0.239 C 
ATOM      6  H   UNL A   1      35.172  21.981  26.696  1.00  0.00     0.163 HD
BRANCH   5   7
ATOM      7  C   UNL A   1      33.345  23.634  26.022  1.00  0.00     0.223 C 
BRANCH   7   8
ATOM      8  N   UNL A   1      32.321  24.169  25.137  1.00  0.00    -0.321 N 
ATOM      9  C   UNL A   1      31.633  23.448  24.197  1.00  0.00     0.201 A 
ATOM     10  C   UNL A   1      31.890  25.481  25.063  1.00  0.00     0.076 A 
ATOM     11  N   UNL A   1      30.746  24.186  23.572  1.00  0.00    -0.236 NA
ATOM     12  C   UNL A   1      30.927  25.456  24.059  1.00  0.00     0.096 A 
BRANCH  10  13
ATOM     13  C   UNL A   1      32.367  26.594  25.882  1.00  0.00     0.000 A 
ATOM     14  C   UNL A   1      31.521  27.162  26.845  1.00  0.00     0.010 A 
ATOM     15  C   UNL A   1      33.626  27.165  25.660  1.00  0.00     0.010 A 
ATOM     16  C   UNL A   1      31.922  28.287  27.567  1.00  0.00     0.001 A 
ATOM     17  C   UNL A   1      34.028  28.288  26.387  1.00  0.00     0.001 A 
ATOM     18  C   UNL A   1      33.175  28.851  27.336  1.00  0.00     0.000 A 
ENDBRANCH  10  13
BRANCH  12  19
ATOM     19  C   UNL A   1      30.196  26.608  23.563  1.00  0.00     0.002 A 
ATOM     20  C   UNL A   1      28.826  26.733  23.818  1.00  0.00     0.010 A 
ATOM     21  C   UNL A   1      30.855  27.615  22.843  1.00  0.00     0.010 A 
ATOM     22  C   UNL A   1      28.133  27.867  23.386  1.00  0.00     0.001 A 
ATOM     23  C   UNL A   1      30.160  28.745  22.409  1.00  0.00     0.001 A 
ATOM     24  C   UNL A   1      28.801  28.873  22.687  1.00  0.00     0.000 A 
ENDBRANCH  12  19
ENDBRANCH   7   8
ENDBRANCH   5   7
ENDBRANCH   2   3
ENDBRANCH   1   2
BRANCH   1  25
ATOM     25  C   UNL A   1      37.803  19.824  25.014  1.00  0.00     0.023 C 
BRANCH  25  26
ATOM     26  C   UNL A   1      39.025  20.235  25.820  1.00  0.00     0.116 C 
BRANCH  26  27
ATOM     27  N   UNL A   1      40.127  19.274  25.771  1.00  0.00    -0.352 N 
ATOM     28  C   UNL A   1      41.481  19.547  25.858  1.00  0.00     0.251 C 
ATOM     29  H   UNL A   1      39.877  18.328  25.663  1.00  0.00     0.163 HD
ATOM     30  O   UNL A   1      42.317  18.758  25.414  1.00  0.00    -0.269 OA
BRANCH  28  31
ATOM     31  C   UNL A   1      41.913  20.806  26.492  1.00  0.00     0.039 A 
ATOM     32  C   UNL A   1      42.334  21.909  25.746  1.00  0.00     0.014 A 
ATOM     33  C   UNL A   1      41.849  20.879  27.880  1.00  0.00     0.014 A 
ATOM     34  C   UNL A   1      42.595  23.106  26.413  1.00  0.00     0.010 A 
ATOM     35  C   UNL A   1      41.915  22.096  28.507  1.00  0.00     0.010 A 
ATOM     36  C   UNL A   1      42.350  23.203  27.797  1.00  0.00    -0.014 A 
BRANCH  36  37
ATOM     37  C   UNL A   1      42.432  24.486  28.490  1.00  0.00     0.031 A 
ATOM     38  C   UNL A   1      41.327  25.420  28.160  1.00  0.00     0.074 A 
ATOM     39  C   UNL A   1      43.310  24.775  29.477  1.00  0.00     0.049 A 
ATOM     40  N   UNL A   1      41.411  26.474  27.420  1.00  0.00    -0.248 NA
ATOM     41  C   UNL A   1      39.954  25.072  28.555  1.00  0.00     0.031 C 
ATOM     42  C   UNL A   1      44.277  23.888  30.135  1.00  0.00     0.029 A 
ATOM     43  N   UNL A   1      43.455  25.934  30.179  1.00  0.00    -0.354 N 
ATOM     44  C   UNL A   1      40.150  27.054  27.437  1.00  0.00     0.074 A 
ATOM     45  C   UNL A   1      39.259  26.061  27.986  1.00  0.00     0.031 C 
ATOM     46  C   UNL A   1      44.720  24.460  31.278  1.00  0.00     0.029 A 
ATOM     47  C   UNL A   1      44.222  25.820  31.334  1.00  0.00     0.049 A 
ATOM     48  H   UNL A   1      43.049  26.784  29.892  1.00  0.00     0.167 HD
ATOM     49  C   UNL A   1      40.005  28.396  27.258  1.00  0.00     0.031 A 
ATOM     50  C   UNL A   1      44.439  26.777  32.272  1.00  0.00     0.031 A 
ATOM     51  C   UNL A   1      41.210  28.992  26.731  1.00  0.00     0.049 A 
ATOM     52  C   UNL A   1      44.164  28.084  31.639  1.00  0.00     0.074 A 
ATOM     53  C   UNL A   1      41.985  28.802  25.604  1.00  0.00     0.029 A 
ATOM     54  N   UNL A   1      42.010  29.663  27.625  1.00  0.00    -0.354 N 
ATOM     55  N   UNL A   1      44.908  28.591  30.701  1.00  0.00    -0.248 NA
ATOM     56  C   UNL A   1      42.816  28.618  31.727  1.00  0.00     0.031 C 
ATOM     57  C   UNL A   1      43.333  28.925  26.060  1.00  0.00     0.029 A 
ATOM     58  C   UNL A   1      43.305  29.269  27.412  1.00  0.00     0.049 A 
ATOM     59  H   UNL A   1      41.706  30.311  28.301  1.00  0.00     0.167 HD
ATOM     60  C   UNL A   1      44.004  29.126  29.797  1.00  0.00     0.074 A 
ATOM     61  C   UNL A   1      42.744  29.216  30.534  1.00  0.00     0.031 C 
ATOM     62  C   UNL A   1      44.295  29.172  28.461  1.00  0.00     0.031 A 
BRANCH  49  63
ATOM     63  C   UNL A   1      38.975  29.220  27.995  1.00  0.00    -0.014 A 
ATOM     64  C   UNL A   1      39.095  29.342  29.391  1.00  0.00     0.009 A 
ATOM     65  C   UNL A   1      37.746  29.609  27.430  1.00  0.00     0.009 A 
ATOM     66  C   UNL A   1      38.011  29.735  30.184  1.00  0.00     0.001 A 
ATOM     67  C   UNL A   1      36.674  30.042  28.215  1.00  0.00     0.001 A 
ATOM     68  C   UNL A   1      36.797  30.073  29.596  1.00  0.00     0.000 A 
ENDBRANCH  49  63
BRANCH  50  69
ATOM     69  C   UNL A   1      44.629  26.650  33.731  1.00  0.00    -0.014 A 
ATOM     70  C   UNL A   1      43.692  25.959  34.519  1.00  0.00     0.009 A 
ATOM     71  C   UNL A   1      45.882  26.935  34.301  1.00  0.00     0.009 A 
ATOM     72  C   UNL A   1      44.019  25.519  35.809  1.00  0.00     0.001 A 
ATOM     73  C   UNL A   1      46.209  26.492  35.588  1.00  0.00     0.001 A 
ATOM     74  C   UNL A   1      45.283  25.769  36.335  1.00  0.00     0.000 A 
ENDBRANCH  50  69
BRANCH  62  75
ATOM     75  C   UNL A   1      45.718  28.876  28.042  1.00  0.00    -0.014 A 
ATOM     76  C   UNL A   1      46.219  27.579  27.828  1.00  0.00     0.009 A 
ATOM     77  C   UNL A   1      46.560  29.963  27.760  1.00  0.00     0.009 A 
ATOM     78  C   UNL A   1      47.537  27.379  27.399  1.00  0.00     0.001 A 
ATOM     79  C   UNL A   1      47.867  29.764  27.309  1.00  0.00     0.001 A 
ATOM     80  C   UNL A   1      48.360  28.472  27.141  1.00  0.00     0.000 A 
ENDBRANCH  62  75
ENDBRANCH  36  37
ENDBRANCH  28  31
ENDBRANCH  26  27
ENDBRANCH  25  26
ENDBRANCH   1  25
TORSDOF 14
ENDMDL
MODEL 2
REMARK VINA RESULT:     -11.5      2.586      7.546
REMARK SMILES O=C(Cn1cnc(-c2ccccc2)c1-c1ccccc1)NCCCCNC(=O)c1ccc(-c2c3nc(c(-c4ccccc4)c4ccc([nH]4)c(-c4ccccc4)c4nc(c(-c5ccccc5)c5ccc2[nH]5)C=C4)C=C3)cc1
REMARK SMILES IDX 23 1 22 2 21 3 1 4 2 5 3 7 4 8 5 9 14 10 6 11 7 12 15 13
REMARK SMILES IDX 16 14 20 15 17 16 19 17 18 18 8 19 9 20 13 21 10 22 12 23
REMARK SMILES IDX 11 24 24 25 25 26 26 27 27 28 28 30 29 31 30 32 76 33 31 34
REMARK SMILES IDX 75 35 32 36 33 37 34 38 69 39 35 40 74 41 68 42 70 43 36 44
REMARK SMILES IDX 73 45 67 46 66 47 37 49 59 50 44 51 58 52 45 53 48 54 57 55
REMARK SMILES IDX 71 56 46 57 47 58 56 60 72 61 49 62 38 63 39 64 43 65 40 66
REMARK SMILES IDX 42 67 41 68 60 69 61 70 65 71 62 72 64 73 63 74 50 75 51 76
REMARK SMILES IDX 55 77 52 78 54 79 53 80
REMARK H PARENT 21 6 26 29 70 48 48 59
REMARK Flexibility Score: inf
ROOT
ATOM      1  C   UNL A   1      33.632  29.082  25.476  1.00  0.00     0.023 C 
ENDROOT
BRANCH   1   2
ATOM      2  C   UNL A   1      32.984  27.835  24.861  1.00  0.00     0.116 C 
BRANCH   2   3
ATOM      3  N   UNL A   1      33.091  26.659  25.709  1.00  0.00    -0.355 N 
ATOM      4  O   UNL A   1      32.786  25.124  24.025  1.00  0.00    -0.273 OA
ATOM      5  C   UNL A   1      32.993  25.374  25.210  1.00  0.00     0.239 C 
ATOM      6  H   UNL A   1      33.238  26.782  26.675  1.00  0.00     0.163 HD
BRANCH   5   7
ATOM      7  C   UNL A   1      33.106  24.268  26.241  1.00  0.00     0.223 C 
BRANCH   7   8
ATOM      8  N   UNL A   1      32.559  22.992  25.805  1.00  0.00    -0.321 N 
ATOM      9  C   UNL A   1      31.255  22.600  25.948  1.00  0.00     0.201 A 
ATOM     10  C   UNL A   1      33.250  21.952  25.211  1.00  0.00     0.076 A 
ATOM     11  N   UNL A   1      31.044  21.413  25.429  1.00  0.00    -0.236 NA
ATOM     12  C   UNL A   1      32.277  20.977  25.016  1.00  0.00     0.096 A 
BRANCH  10  13
ATOM     13  C   UNL A   1      34.675  21.940  24.880  1.00  0.00     0.000 A 
ATOM     14  C   UNL A   1      35.590  21.356  25.767  1.00  0.00     0.010 A 
ATOM     15  C   UNL A   1      35.154  22.583  23.733  1.00  0.00     0.010 A 
ATOM     16  C   UNL A   1      36.962  21.423  25.516  1.00  0.00     0.001 A 
ATOM     17  C   UNL A   1      36.526  22.644  23.480  1.00  0.00     0.001 A 
ATOM     18  C   UNL A   1      37.429  22.069  24.373  1.00  0.00     0.000 A 
ENDBRANCH  10  13
BRANCH  12  19
ATOM     19  C   UNL A   1      32.505  19.658  24.455  1.00  0.00     0.002 A 
ATOM     20  C   UNL A   1      32.297  19.428  23.091  1.00  0.00     0.010 A 
ATOM     21  C   UNL A   1      32.956  18.606  25.267  1.00  0.00     0.010 A 
ATOM     22  C   UNL A   1      32.567  18.172  22.541  1.00  0.00     0.001 A 
ATOM     23  C   UNL A   1      33.221  17.351  24.718  1.00  0.00     0.001 A 
ATOM     24  C   UNL A   1      33.032  17.137  23.354  1.00  0.00     0.000 A 
ENDBRANCH  12  19
ENDBRANCH   7   8
ENDBRANCH   5   7
ENDBRANCH   2   3
ENDBRANCH   1   2
BRANCH   1  25
ATOM     25  C   UNL A   1      33.876  29.055  26.992  1.00  0.00     0.023 C 
BRANCH  25  26
ATOM     26  C   UNL A   1      35.307  29.335  27.421  1.00  0.00     0.116 C 
BRANCH  26  27
ATOM     27  N   UNL A   1      35.432  29.893  28.768  1.00  0.00    -0.352 N 
ATOM     28  C   UNL A   1      36.425  29.630  29.695  1.00  0.00     0.251 C 
ATOM     29  H   UNL A   1      34.730  30.525  29.045  1.00  0.00     0.163 HD
ATOM     30  O   UNL A   1      36.236  29.817  30.898  1.00  0.00    -0.269 OA
BRANCH  28  31
ATOM     31  C   UNL A   1      37.723  29.115  29.220  1.00  0.00     0.039 A 
ATOM     32  C   UNL A   1      38.393  29.677  28.131  1.00  0.00     0.014 A 
ATOM     33  C   UNL A   1      38.290  28.058  29.925  1.00  0.00     0.014 A 
ATOM     34  C   UNL A   1      39.676  29.223  27.830  1.00  0.00     0.010 A 
ATOM     35  C   UNL A   1      39.614  27.750  29.752  1.00  0.00     0.010 A 
ATOM     36  C   UNL A   1      40.298  28.277  28.668  1.00  0.00    -0.014 A 
BRANCH  36  37
ATOM     37  C   UNL A   1      41.703  27.920  28.493  1.00  0.00     0.031 A 
ATOM     38  C   UNL A   1      41.915  26.685  27.697  1.00  0.00     0.074 A 
ATOM     39  C   UNL A   1      42.748  28.700  28.851  1.00  0.00     0.049 A 
ATOM     40  N   UNL A   1      42.282  25.534  28.152  1.00  0.00    -0.248 NA
ATOM     41  C   UNL A   1      41.533  26.674  26.277  1.00  0.00     0.031 C 
ATOM     42  C   UNL A   1      42.733  30.069  29.379  1.00  0.00     0.029 A 
ATOM     43  N   UNL A   1      44.082  28.452  28.721  1.00  0.00    -0.354 N 
ATOM     44  C   UNL A   1      42.398  24.705  27.045  1.00  0.00     0.074 A 
ATOM     45  C   UNL A   1      41.750  25.395  25.957  1.00  0.00     0.031 C 
ATOM     46  C   UNL A   1      43.971  30.607  29.292  1.00  0.00     0.029 A 
ATOM     47  C   UNL A   1      44.897  29.568  28.886  1.00  0.00     0.049 A 
ATOM     48  H   UNL A   1      44.440  27.556  28.527  1.00  0.00     0.167 HD
ATOM     49  C   UNL A   1      43.260  23.651  27.059  1.00  0.00     0.031 A 
ATOM     50  C   UNL A   1      46.240  29.636  28.707  1.00  0.00     0.031 A 
ATOM     51  C   UNL A   1      43.705  23.350  28.399  1.00  0.00     0.049 A 
ATOM     52  C   UNL A   1      46.768  28.259  28.805  1.00  0.00     0.074 A 
ATOM     53  C   UNL A   1      43.083  23.014  29.585  1.00  0.00     0.029 A 
ATOM     54  N   UNL A   1      44.960  23.790  28.747  1.00  0.00    -0.354 N 
ATOM     55  N   UNL A   1      46.777  27.577  29.913  1.00  0.00    -0.248 NA
ATOM     56  C   UNL A   1      46.868  27.475  27.587  1.00  0.00     0.031 C 
ATOM     57  C   UNL A   1      43.805  23.725  30.592  1.00  0.00     0.029 A 
ATOM     58  C   UNL A   1      44.875  24.380  29.981  1.00  0.00     0.049 A 
ATOM     59  H   UNL A   1      45.777  23.698  28.205  1.00  0.00     0.167 HD
ATOM     60  C   UNL A   1      46.394  26.301  29.534  1.00  0.00     0.074 A 
ATOM     61  C   UNL A   1      46.577  26.269  28.083  1.00  0.00     0.031 C 
ATOM     62  C   UNL A   1      45.697  25.496  30.392  1.00  0.00     0.031 A 
BRANCH  49  63
ATOM     63  C   UNL A   1      44.055  23.220  25.849  1.00  0.00    -0.014 A 
ATOM     64  C   UNL A   1      44.049  21.858  25.497  1.00  0.00     0.009 A 
ATOM     65  C   UNL A   1      45.037  24.025  25.242  1.00  0.00     0.009 A 
ATOM     66  C   UNL A   1      45.035  21.316  24.665  1.00  0.00     0.001 A 
ATOM     67  C   UNL A   1      45.998  23.495  24.377  1.00  0.00     0.001 A 
ATOM     68  C   UNL A   1      46.016  22.133  24.114  1.00  0.00     0.000 A 
ENDBRANCH  49  63
BRANCH  50  69
ATOM     69  C   UNL A   1      47.078  30.751  28.220  1.00  0.00    -0.014 A 
ATOM     70  C   UNL A   1      46.814  31.357  26.979  1.00  0.00     0.009 A 
ATOM     71  C   UNL A   1      47.935  31.422  29.108  1.00  0.00     0.009 A 
ATOM     72  C   UNL A   1      47.344  32.615  26.663  1.00  0.00     0.001 A 
ATOM     73  C   UNL A   1      48.461  32.682  28.794  1.00  0.00     0.001 A 
ATOM     74  C   UNL A   1      48.151  33.285  27.579  1.00  0.00     0.000 A 
ENDBRANCH  50  69
BRANCH  62  75
ATOM     75  C   UNL A   1      45.595  25.932  31.837  1.00  0.00    -0.014 A 
ATOM     76  C   UNL A   1      44.613  26.816  32.322  1.00  0.00     0.009 A 
ATOM     77  C   UNL A   1      46.471  25.349  32.764  1.00  0.00     0.009 A 
ATOM     78  C   UNL A   1      44.549  27.145  33.681  1.00  0.00     0.001 A 
ATOM     79  C   UNL A   1      46.393  25.658  34.124  1.00  0.00     0.001 A 
ATOM     80  C   UNL A   1      45.441  26.566  34.581  1.00  0.00     0.000 A 
ENDBRANCH  62  75
ENDBRANCH  36  37
ENDBRANCH  28  31
ENDBRANCH  26  27
ENDBRANCH  25  26
ENDBRANCH   1  25
TORSDOF 14
ENDMDL
MODEL 3
REMARK VINA RESULT:     -11.4      2.830      7.521
REMARK SMILES O=C(Cn1cnc(-c2ccccc2)c1-c1ccccc1)NCCCCNC(=O)c1ccc(-c2c3nc(c(-c4ccccc4)c4ccc([nH]4)c(-c4ccccc4)c4nc(c(-c5ccccc5)c5ccc2[nH]5)C=C4)C=C3)cc1
REMARK SMILES IDX 23 1 22 2 21 3 1 4 2 5 3 7 4 8 5 9 14 10 6 11 7 12 15 13
REMARK SMILES IDX 16 14 20 15 17 16 19 17 18 18 8 19 9 20 13 21 10 22 12 23
REMARK SMILES IDX 11 24 24 25 25 26 26 27 27 28 28 30 29 31 30 32 76 33 31 34
REMARK SMILES IDX 75 35 32 36 33 37 34 38 69 39 35 40 74 41 68 42 70 43 36 44
REMARK SMILES IDX 73 45 67 46 66 47 37 49 59 50 44 51 58 52 45 53 48 54 57 55
REMARK SMILES IDX 71 56 46 57 47 58 56 60 72 61 49 62 38 63 39 64 43 65 40 66
REMARK SMILES IDX 42 67 41 68 60 69 61 70 65 71 62 72 64 73 63 74 50 75 51 76
REMARK SMILES IDX 55 77 52 78 54 79 53 80
REMARK H PARENT 21 6 26 29 70 48 48 59
REMARK Flexibility Score: inf
ROOT
ATOM      1  C   UNL A   1      32.023  29.004  25.305  1.00  0.00     0.023 C 
ENDROOT
BRANCH   1   2
ATOM      2  C   UNL A   1      31.371  27.691  24.855  1.00  0.00     0.116 C 
BRANCH   2   3
ATOM      3  N   UNL A   1      32.219  26.529  25.073  1.00  0.00    -0.355 N 
ATOM      4  O   UNL A   1      31.127  25.791  26.957  1.00  0.00    -0.273 OA
ATOM      5  C   UNL A   1      32.015  25.650  26.120  1.00  0.00     0.239 C 
ATOM      6  H   UNL A   1      32.964  26.363  24.453  1.00  0.00     0.163 HD
BRANCH   5   7
ATOM      7  C   UNL A   1      33.008  24.507  26.209  1.00  0.00     0.223 C 
BRANCH   7   8
ATOM      8  N   UNL A   1      32.471  23.221  25.793  1.00  0.00    -0.321 N 
ATOM      9  C   UNL A   1      31.168  22.824  25.939  1.00  0.00     0.201 A 
ATOM     10  C   UNL A   1      33.170  22.175  25.220  1.00  0.00     0.076 A 
ATOM     11  N   UNL A   1      30.966  21.626  25.441  1.00  0.00    -0.236 NA
ATOM     12  C   UNL A   1      32.203  21.191  25.038  1.00  0.00     0.096 A 
BRANCH  10  13
ATOM     13  C   UNL A   1      34.596  22.165  24.894  1.00  0.00     0.000 A 
ATOM     14  C   UNL A   1      35.515  21.635  25.809  1.00  0.00     0.010 A 
ATOM     15  C   UNL A   1      35.070  22.761  23.719  1.00  0.00     0.010 A 
ATOM     16  C   UNL A   1      36.887  21.707  25.559  1.00  0.00     0.001 A 
ATOM     17  C   UNL A   1      36.443  22.828  23.468  1.00  0.00     0.001 A 
ATOM     18  C   UNL A   1      37.349  22.305  24.389  1.00  0.00     0.000 A 
ENDBRANCH  10  13
BRANCH  12  19
ATOM     19  C   UNL A   1      32.441  19.863  24.502  1.00  0.00     0.002 A 
ATOM     20  C   UNL A   1      32.223  19.605  23.145  1.00  0.00     0.010 A 
ATOM     21  C   UNL A   1      32.911  18.833  25.330  1.00  0.00     0.010 A 
ATOM     22  C   UNL A   1      32.501  18.341  22.617  1.00  0.00     0.001 A 
ATOM     23  C   UNL A   1      33.185  17.570  24.803  1.00  0.00     0.001 A 
ATOM     24  C   UNL A   1      32.986  17.327  23.445  1.00  0.00     0.000 A 
ENDBRANCH  12  19
ENDBRANCH   7   8
ENDBRANCH   5   7
ENDBRANCH   2   3
ENDBRANCH   1   2
BRANCH   1  25
ATOM     25  C   UNL A   1      32.103  29.251  26.819  1.00  0.00     0.023 C 
BRANCH  25  26
ATOM     26  C   UNL A   1      33.485  29.607  27.343  1.00  0.00     0.116 C 
BRANCH  26  27
ATOM     27  N   UNL A   1      33.901  30.980  27.053  1.00  0.00    -0.352 N 
ATOM     28  C   UNL A   1      34.985  31.657  27.585  1.00  0.00     0.251 C 
ATOM     29  H   UNL A   1      33.349  31.476  26.407  1.00  0.00     0.163 HD
ATOM     30  O   UNL A   1      35.020  32.888  27.597  1.00  0.00    -0.269 OA
BRANCH  28  31
ATOM     31  C   UNL A   1      36.104  30.877  28.147  1.00  0.00     0.039 A 
ATOM     32  C   UNL A   1      36.234  29.503  27.934  1.00  0.00     0.014 A 
ATOM     33  C   UNL A   1      37.066  31.570  28.875  1.00  0.00     0.014 A 
ATOM     34  C   UNL A   1      37.391  28.865  28.382  1.00  0.00     0.010 A 
ATOM     35  C   UNL A   1      38.277  30.987  29.140  1.00  0.00     0.010 A 
ATOM     36  C   UNL A   1      38.429  29.622  28.958  1.00  0.00    -0.014 A 
BRANCH  36  37
ATOM     37  C   UNL A   1      39.723  29.020  29.266  1.00  0.00     0.031 A 
ATOM     38  C   UNL A   1      39.999  28.894  30.719  1.00  0.00     0.074 A 
ATOM     39  C   UNL A   1      40.548  28.456  28.354  1.00  0.00     0.049 A 
ATOM     40  N   UNL A   1      40.823  29.610  31.407  1.00  0.00    -0.248 NA
ATOM     41  C   UNL A   1      39.166  27.992  31.529  1.00  0.00     0.031 C 
ATOM     42  C   UNL A   1      40.315  28.226  26.923  1.00  0.00     0.029 A 
ATOM     43  N   UNL A   1      41.763  27.869  28.549  1.00  0.00    -0.354 N 
ATOM     44  C   UNL A   1      40.784  29.102  32.698  1.00  0.00     0.074 A 
ATOM     45  C   UNL A   1      39.625  28.246  32.758  1.00  0.00     0.031 C 
ATOM     46  C   UNL A   1      41.227  27.350  26.445  1.00  0.00     0.029 A 
ATOM     47  C   UNL A   1      42.216  27.106  27.477  1.00  0.00     0.049 A 
ATOM     48  H   UNL A   1      42.277  27.977  29.381  1.00  0.00     0.167 HD
ATOM     49  C   UNL A   1      41.867  29.214  33.517  1.00  0.00     0.031 A 
ATOM     50  C   UNL A   1      43.328  26.331  27.436  1.00  0.00     0.031 A 
ATOM     51  C   UNL A   1      42.819  30.171  33.006  1.00  0.00     0.049 A 
ATOM     52  C   UNL A   1      44.238  26.808  28.498  1.00  0.00     0.074 A 
ATOM     53  C   UNL A   1      42.778  31.511  32.674  1.00  0.00     0.029 A 
ATOM     54  N   UNL A   1      43.927  29.663  32.370  1.00  0.00    -0.354 N 
ATOM     55  N   UNL A   1      44.833  27.964  28.459  1.00  0.00    -0.248 NA
ATOM     56  C   UNL A   1      44.134  26.202  29.813  1.00  0.00     0.031 C 
ATOM     57  C   UNL A   1      43.562  31.620  31.485  1.00  0.00     0.029 A 
ATOM     58  C   UNL A   1      44.107  30.366  31.207  1.00  0.00     0.049 A 
ATOM     59  H   UNL A   1      44.492  28.924  32.694  1.00  0.00     0.167 HD
ATOM     60  C   UNL A   1      44.737  28.444  29.756  1.00  0.00     0.074 A 
ATOM     61  C   UNL A   1      44.403  27.272  30.566  1.00  0.00     0.031 C 
ATOM     62  C   UNL A   1      44.653  29.787  30.000  1.00  0.00     0.031 A 
BRANCH  49  63
ATOM     63  C   UNL A   1      42.279  28.134  34.490  1.00  0.00    -0.014 A 
ATOM     64  C   UNL A   1      42.834  26.949  33.974  1.00  0.00     0.009 A 
ATOM     65  C   UNL A   1      41.865  28.105  35.835  1.00  0.00     0.009 A 
ATOM     66  C   UNL A   1      42.876  25.773  34.733  1.00  0.00     0.001 A 
ATOM     67  C   UNL A   1      41.945  26.945  36.609  1.00  0.00     0.001 A 
ATOM     68  C   UNL A   1      42.421  25.770  36.047  1.00  0.00     0.000 A 
ENDBRANCH  49  63
BRANCH  50  69
ATOM     69  C   UNL A   1      43.575  25.062  26.721  1.00  0.00    -0.014 A 
ATOM     70  C   UNL A   1      42.870  23.896  27.066  1.00  0.00     0.009 A 
ATOM     71  C   UNL A   1      44.270  25.070  25.499  1.00  0.00     0.009 A 
ATOM     72  C   UNL A   1      42.817  22.800  26.194  1.00  0.00     0.001 A 
ATOM     73  C   UNL A   1      44.213  23.978  24.626  1.00  0.00     0.001 A 
ATOM     74  C   UNL A   1      43.471  22.850  24.966  1.00  0.00     0.000 A 
ENDBRANCH  50  69
BRANCH  62  75
ATOM     75  C   UNL A   1      44.937  30.729  28.851  1.00  0.00    -0.014 A 
ATOM     76  C   UNL A   1      43.978  31.113  27.897  1.00  0.00     0.009 A 
ATOM     77  C   UNL A   1      46.204  31.327  28.788  1.00  0.00     0.009 A 
ATOM     78  C   UNL A   1      44.297  32.023  26.882  1.00  0.00     0.001 A 
ATOM     79  C   UNL A   1      46.516  32.253  27.791  1.00  0.00     0.001 A 
ATOM     80  C   UNL A   1      45.567  32.592  26.829  1.00  0.00     0.000 A 
ENDBRANCH  62  75
ENDBRANCH  36  37
ENDBRANCH  28  31
ENDBRANCH  26  27
ENDBRANCH  25  26
ENDBRANCH   1  25
TORSDOF 14
ENDMDL
