MODEL 1
REMARK VINA RESULT:     -11.8      0.000      0.000
REMARK SMILES O=C(NCCCCNC(=O)c1ccc(C[N@H+]2CC[N@H+]3CCCC[C@@H]3C2)c(F)c1)c1ccc(-c2c3nc(c(-c4ccccc4)c4ccc([nH]4)c(-c4ccccc4)c4nc(c(-c5ccccc5)c5ccc2[nH]5)C=C4)C=C3)cc1
REMARK SMILES IDX 5 1 4 2 3 3 1 4 2 5 29 7 30 8 76 9 31 10 75 11 32 12 33 13
REMARK SMILES IDX 34 14 69 15 35 16 74 17 68 18 70 19 36 20 73 21 67 22 66 23
REMARK SMILES IDX 37 25 59 26 44 27 58 28 45 29 48 30 57 31 71 32 46 33 47 34
REMARK SMILES IDX 56 36 72 37 49 38 38 39 39 40 43 41 40 42 42 43 41 44 60 45
REMARK SMILES IDX 61 46 65 47 62 48 64 49 63 50 50 51 51 52 55 53 52 54 54 55
REMARK SMILES IDX 53 56 6 57 7 58 8 59 9 60 10 62 11 63 12 64 28 65 13 66
REMARK SMILES IDX 26 67 14 68 27 69 15 70 16 71 17 72 25 73 18 75 24 76 19 77
REMARK SMILES IDX 23 78 20 79 22 81 21 82
REMARK H PARENT 3 6 70 24 48 35 8 61 16 74 19 80
REMARK Flexibility Score: inf
ROOT
ATOM      1  C   UNL A   1      33.827  28.353  25.693  1.00  0.00     0.023 C 
ENDROOT
BRANCH   1   2
ATOM      2  C   UNL A   1      33.477  28.573  27.161  1.00  0.00     0.116 C 
BRANCH   2   3
ATOM      3  N   UNL A   1      33.439  29.972  27.567  1.00  0.00    -0.352 N 
ATOM      4  O   UNL A   1      34.230  31.896  28.455  1.00  0.00    -0.269 OA
ATOM      5  C   UNL A   1      34.448  30.739  28.106  1.00  0.00     0.251 C 
ATOM      6  H   UNL A   1      32.577  30.429  27.439  1.00  0.00     0.163 HD
BRANCH   5   7
ATOM      7  C   UNL A   1      35.787  30.146  28.308  1.00  0.00     0.039 A 
ATOM      8  C   UNL A   1      36.129  29.563  29.529  1.00  0.00     0.014 A 
ATOM      9  C   UNL A   1      36.726  30.214  27.274  1.00  0.00     0.014 A 
ATOM     10  C   UNL A   1      37.450  29.206  29.775  1.00  0.00     0.010 A 
ATOM     11  C   UNL A   1      38.034  29.774  27.496  1.00  0.00     0.010 A 
ATOM     12  C   UNL A   1      38.417  29.307  28.762  1.00  0.00    -0.014 A 
BRANCH  12  13
ATOM     13  C   UNL A   1      39.811  28.882  29.045  1.00  0.00     0.031 A 
ATOM     14  C   UNL A   1      40.758  29.767  29.808  1.00  0.00     0.074 A 
ATOM     15  C   UNL A   1      40.206  27.658  28.647  1.00  0.00     0.049 A 
ATOM     16  N   UNL A   1      41.995  29.529  30.169  1.00  0.00    -0.248 NA
ATOM     17  C   UNL A   1      40.258  31.088  30.222  1.00  0.00     0.031 C 
ATOM     18  C   UNL A   1      39.376  26.705  27.906  1.00  0.00     0.029 A 
ATOM     19  N   UNL A   1      41.392  26.996  28.830  1.00  0.00    -0.354 N 
ATOM     20  C   UNL A   1      42.427  30.671  30.831  1.00  0.00     0.074 A 
ATOM     21  C   UNL A   1      41.327  31.612  30.806  1.00  0.00     0.031 C 
ATOM     22  C   UNL A   1      40.059  25.562  27.746  1.00  0.00     0.029 A 
ATOM     23  C   UNL A   1      41.392  25.723  28.313  1.00  0.00     0.049 A 
ATOM     24  H   UNL A   1      42.167  27.394  29.288  1.00  0.00     0.167 HD
ATOM     25  C   UNL A   1      43.628  30.913  31.408  1.00  0.00     0.031 A 
ATOM     26  C   UNL A   1      42.360  24.791  28.283  1.00  0.00     0.031 A 
ATOM     27  C   UNL A   1      44.722  29.977  31.434  1.00  0.00     0.049 A 
ATOM     28  C   UNL A   1      43.694  25.101  28.894  1.00  0.00     0.074 A 
ATOM     29  C   UNL A   1      45.970  30.123  32.016  1.00  0.00     0.029 A 
ATOM     30  N   UNL A   1      44.700  28.719  30.851  1.00  0.00    -0.354 N 
ATOM     31  N   UNL A   1      44.078  26.182  29.529  1.00  0.00    -0.248 NA
ATOM     32  C   UNL A   1      44.728  24.065  28.780  1.00  0.00     0.031 C 
ATOM     33  C   UNL A   1      46.720  28.974  31.744  1.00  0.00     0.029 A 
ATOM     34  C   UNL A   1      45.920  28.091  31.037  1.00  0.00     0.049 A 
ATOM     35  H   UNL A   1      43.931  28.331  30.374  1.00  0.00     0.167 HD
ATOM     36  C   UNL A   1      45.395  25.951  29.900  1.00  0.00     0.074 A 
ATOM     37  C   UNL A   1      45.735  24.620  29.439  1.00  0.00     0.031 C 
ATOM     38  C   UNL A   1      46.247  26.772  30.561  1.00  0.00     0.031 A 
BRANCH  25  39
ATOM     39  C   UNL A   1      43.838  32.260  32.043  1.00  0.00    -0.014 A 
ATOM     40  C   UNL A   1      43.555  32.479  33.400  1.00  0.00     0.009 A 
ATOM     41  C   UNL A   1      44.379  33.311  31.284  1.00  0.00     0.009 A 
ATOM     42  C   UNL A   1      43.783  33.732  33.977  1.00  0.00     0.001 A 
ATOM     43  C   UNL A   1      44.627  34.554  31.869  1.00  0.00     0.001 A 
ATOM     44  C   UNL A   1      44.323  34.765  33.213  1.00  0.00     0.000 A 
ENDBRANCH  25  39
BRANCH  26  45
ATOM     45  C   UNL A   1      42.100  23.482  27.635  1.00  0.00    -0.014 A 
ATOM     46  C   UNL A   1      42.453  23.265  26.296  1.00  0.00     0.009 A 
ATOM     47  C   UNL A   1      41.517  22.433  28.365  1.00  0.00     0.009 A 
ATOM     48  C   UNL A   1      42.217  22.026  25.696  1.00  0.00     0.001 A 
ATOM     49  C   UNL A   1      41.307  21.188  27.771  1.00  0.00     0.001 A 
ATOM     50  C   UNL A   1      41.650  20.988  26.435  1.00  0.00     0.000 A 
ENDBRANCH  26  45
BRANCH  38  51
ATOM     51  C   UNL A   1      47.622  26.239  30.838  1.00  0.00    -0.014 A 
ATOM     52  C   UNL A   1      47.954  25.706  32.094  1.00  0.00     0.009 A 
ATOM     53  C   UNL A   1      48.591  26.249  29.823  1.00  0.00     0.009 A 
ATOM     54  C   UNL A   1      49.242  25.225  32.337  1.00  0.00     0.001 A 
ATOM     55  C   UNL A   1      49.870  25.744  30.062  1.00  0.00     0.001 A 
ATOM     56  C   UNL A   1      50.196  25.241  31.321  1.00  0.00     0.000 A 
ENDBRANCH  38  51
ENDBRANCH  12  13
ENDBRANCH   5   7
ENDBRANCH   2   3
ENDBRANCH   1   2
BRANCH   1  57
ATOM     57  C   UNL A   1      33.299  29.411  24.728  1.00  0.00     0.023 C 
BRANCH  57  58
ATOM     58  C   UNL A   1      33.328  29.027  23.247  1.00  0.00     0.116 C 
BRANCH  58  59
ATOM     59  N   UNL A   1      32.033  29.198  22.612  1.00  0.00    -0.352 N 
ATOM     60  C   UNL A   1      30.958  28.340  22.593  1.00  0.00     0.251 C 
ATOM     61  H   UNL A   1      31.907  30.045  22.127  1.00  0.00     0.163 HD
ATOM     62  O   UNL A   1      29.977  28.579  21.900  1.00  0.00    -0.269 OA
BRANCH  60  63
ATOM     63  C   UNL A   1      30.994  27.106  23.399  1.00  0.00     0.042 A 
ATOM     64  C   UNL A   1      30.540  27.105  24.721  1.00  0.00     0.014 A 
ATOM     65  C   UNL A   1      31.469  25.935  22.813  1.00  0.00     0.053 A 
ATOM     66  C   UNL A   1      30.645  25.938  25.487  1.00  0.00     0.013 A 
ATOM     67  C   UNL A   1      31.586  24.788  23.593  1.00  0.00     0.132 A 
ATOM     68  C   UNL A   1      31.236  24.782  24.948  1.00  0.00     0.042 A 
ATOM     69  F   UNL A   1      32.098  23.684  23.031  1.00  0.00    -0.206 F 
BRANCH  68  70
ATOM     70  C   UNL A   1      31.512  23.570  25.809  1.00  0.00     0.302 C 
BRANCH  70  71
ATOM     71  N   UNL A   1      32.690  23.587  26.690  1.00  0.00    -0.322 N 
ATOM     72  C   UNL A   1      32.978  22.343  27.418  1.00  0.00     0.324 C 
ATOM     73  C   UNL A   1      33.922  24.154  26.127  1.00  0.00     0.328 C 
ATOM     74  H   UNL A   1      32.357  24.259  27.382  1.00  0.00     0.348 HD
ATOM     75  C   UNL A   1      33.930  21.342  26.715  1.00  0.00     0.324 C 
ATOM     76  C   UNL A   1      34.780  23.143  25.330  1.00  0.00     0.239 C 
ATOM     77  N   UNL A   1      35.145  21.951  26.125  1.00  0.00    -0.323 N 
ATOM     78  C   UNL A   1      36.037  23.811  24.761  1.00  0.00     0.071 C 
ATOM     79  C   UNL A   1      35.831  20.964  25.280  1.00  0.00     0.262 C 
ATOM     80  H   UNL A   1      35.775  22.242  26.873  1.00  0.00     0.348 HD
ATOM     81  C   UNL A   1      36.745  22.837  23.825  1.00  0.00     0.012 C 
ATOM     82  C   UNL A   1      37.056  21.536  24.557  1.00  0.00     0.062 C 
ENDBRANCH  70  71
ENDBRANCH  68  70
ENDBRANCH  60  63
ENDBRANCH  58  59
ENDBRANCH  57  58
ENDBRANCH   1  57
TORSDOF 13
ENDMDL
MODEL 2
REMARK VINA RESULT:     -11.7      0.305      5.891
REMARK SMILES O=C(NCCCCNC(=O)c1ccc(C[N@H+]2CC[N@H+]3CCCC[C@@H]3C2)c(F)c1)c1ccc(-c2c3nc(c(-c4ccccc4)c4ccc([nH]4)c(-c4ccccc4)c4nc(c(-c5ccccc5)c5ccc2[nH]5)C=C4)C=C3)cc1
REMARK SMILES IDX 5 1 4 2 3 3 1 4 2 5 29 7 30 8 76 9 31 10 75 11 32 12 33 13
REMARK SMILES IDX 34 14 69 15 35 16 74 17 68 18 70 19 36 20 73 21 67 22 66 23
REMARK SMILES IDX 37 25 59 26 44 27 58 28 45 29 48 30 57 31 71 32 46 33 47 34
REMARK SMILES IDX 56 36 72 37 49 38 38 39 39 40 43 41 40 42 42 43 41 44 60 45
REMARK SMILES IDX 61 46 65 47 62 48 64 49 63 50 50 51 51 52 55 53 52 54 54 55
REMARK SMILES IDX 53 56 6 57 7 58 8 59 9 60 10 62 11 63 12 64 28 65 13 66
REMARK SMILES IDX 26 67 14 68 27 69 15 70 16 71 17 72 25 73 18 75 24 76 19 77
REMARK SMILES IDX 23 78 20 79 22 81 21 82
REMARK H PARENT 3 6 70 24 48 35 8 61 16 74 19 80
REMARK Flexibility Score: inf
ROOT
ATOM      1  C   UNL A   1      33.811  28.373  25.757  1.00  0.00     0.023 C 
ENDROOT
BRANCH   1   2
ATOM      2  C   UNL A   1      33.507  28.599  27.235  1.00  0.00     0.116 C 
BRANCH   2   3
ATOM      3  N   UNL A   1      33.496  29.999  27.638  1.00  0.00    -0.352 N 
ATOM      4  O   UNL A   1      34.323  31.909  28.522  1.00  0.00    -0.269 OA
ATOM      5  C   UNL A   1      34.519  30.748  28.175  1.00  0.00     0.251 C 
ATOM      6  H   UNL A   1      32.642  30.472  27.511  1.00  0.00     0.163 HD
BRANCH   5   7
ATOM      7  C   UNL A   1      35.848  30.130  28.375  1.00  0.00     0.039 A 
ATOM      8  C   UNL A   1      36.183  29.546  29.598  1.00  0.00     0.014 A 
ATOM      9  C   UNL A   1      36.785  30.177  27.338  1.00  0.00     0.014 A 
ATOM     10  C   UNL A   1      37.497  29.165  29.840  1.00  0.00     0.010 A 
ATOM     11  C   UNL A   1      38.085  29.714  27.557  1.00  0.00     0.010 A 
ATOM     12  C   UNL A   1      38.464  29.244  28.825  1.00  0.00    -0.014 A 
BRANCH  12  13
ATOM     13  C   UNL A   1      39.850  28.794  29.105  1.00  0.00     0.031 A 
ATOM     14  C   UNL A   1      40.331  27.434  28.680  1.00  0.00     0.074 A 
ATOM     15  C   UNL A   1      40.696  29.649  29.711  1.00  0.00     0.049 A 
ATOM     16  N   UNL A   1      41.521  26.903  28.818  1.00  0.00    -0.248 NA
ATOM     17  C   UNL A   1      39.356  26.555  28.015  1.00  0.00     0.031 C 
ATOM     18  C   UNL A   1      40.349  30.998  30.164  1.00  0.00     0.029 A 
ATOM     19  N   UNL A   1      42.024  29.522  30.025  1.00  0.00    -0.354 N 
ATOM     20  C   UNL A   1      41.434  25.626  28.278  1.00  0.00     0.074 A 
ATOM     21  C   UNL A   1      40.069  25.452  27.826  1.00  0.00     0.031 C 
ATOM     22  C   UNL A   1      41.449  31.594  30.648  1.00  0.00     0.029 A 
ATOM     23  C   UNL A   1      42.559  30.649  30.600  1.00  0.00     0.049 A 
ATOM     24  H   UNL A   1      42.543  28.703  29.856  1.00  0.00     0.167 HD
ATOM     25  C   UNL A   1      42.403  24.686  28.165  1.00  0.00     0.031 A 
ATOM     26  C   UNL A   1      43.801  30.896  31.052  1.00  0.00     0.031 A 
ATOM     27  C   UNL A   1      43.761  24.859  28.612  1.00  0.00     0.049 A 
ATOM     28  C   UNL A   1      44.843  29.822  30.953  1.00  0.00     0.074 A 
ATOM     29  C   UNL A   1      44.820  23.972  28.521  1.00  0.00     0.029 A 
ATOM     30  N   UNL A   1      44.248  25.996  29.239  1.00  0.00    -0.354 N 
ATOM     31  N   UNL A   1      44.745  28.627  30.424  1.00  0.00    -0.248 NA
ATOM     32  C   UNL A   1      46.163  30.132  31.515  1.00  0.00     0.031 C 
ATOM     33  C   UNL A   1      45.935  24.553  29.134  1.00  0.00     0.029 A 
ATOM     34  C   UNL A   1      45.584  25.823  29.561  1.00  0.00     0.049 A 
ATOM     35  H   UNL A   1      43.722  26.806  29.427  1.00  0.00     0.167 HD
ATOM     36  C   UNL A   1      45.995  28.045  30.581  1.00  0.00     0.074 A 
ATOM     37  C   UNL A   1      46.838  29.026  31.233  1.00  0.00     0.031 C 
ATOM     38  C   UNL A   1      46.405  26.804  30.220  1.00  0.00     0.031 A 
BRANCH  25  39
ATOM     39  C   UNL A   1      42.025  23.366  27.553  1.00  0.00    -0.014 A 
ATOM     40  C   UNL A   1      42.251  23.100  26.194  1.00  0.00     0.009 A 
ATOM     41  C   UNL A   1      41.484  22.352  28.362  1.00  0.00     0.009 A 
ATOM     42  C   UNL A   1      41.918  21.855  25.652  1.00  0.00     0.001 A 
ATOM     43  C   UNL A   1      41.174  21.103  27.823  1.00  0.00     0.001 A 
ATOM     44  C   UNL A   1      41.385  20.857  26.467  1.00  0.00     0.000 A 
ENDBRANCH  25  39
BRANCH  26  45
ATOM     45  C   UNL A   1      44.114  32.216  31.655  1.00  0.00    -0.014 A 
ATOM     46  C   UNL A   1      43.947  32.430  33.030  1.00  0.00     0.009 A 
ATOM     47  C   UNL A   1      44.608  33.260  30.856  1.00  0.00     0.009 A 
ATOM     48  C   UNL A   1      44.256  33.671  33.592  1.00  0.00     0.001 A 
ATOM     49  C   UNL A   1      44.942  34.489  31.426  1.00  0.00     0.001 A 
ATOM     50  C   UNL A   1      44.759  34.696  32.792  1.00  0.00     0.000 A 
ENDBRANCH  26  45
BRANCH  38  51
ATOM     51  C   UNL A   1      47.836  26.454  30.508  1.00  0.00    -0.014 A 
ATOM     52  C   UNL A   1      48.208  25.873  31.730  1.00  0.00     0.009 A 
ATOM     53  C   UNL A   1      48.819  26.686  29.534  1.00  0.00     0.009 A 
ATOM     54  C   UNL A   1      49.545  25.564  31.984  1.00  0.00     0.001 A 
ATOM     55  C   UNL A   1      50.151  26.353  29.782  1.00  0.00     0.001 A 
ATOM     56  C   UNL A   1      50.514  25.800  31.010  1.00  0.00     0.000 A 
ENDBRANCH  38  51
ENDBRANCH  12  13
ENDBRANCH   5   7
ENDBRANCH   2   3
ENDBRANCH   1   2
BRANCH   1  57
ATOM     57  C   UNL A   1      33.201  29.394  24.799  1.00  0.00     0.023 C 
BRANCH  57  58
ATOM     58  C   UNL A   1      33.273  29.030  23.314  1.00  0.00     0.116 C 
BRANCH  58  59
ATOM     59  N   UNL A   1      31.989  29.178  22.653  1.00  0.00    -0.352 N 
ATOM     60  C   UNL A   1      30.933  28.298  22.604  1.00  0.00     0.251 C 
ATOM     61  H   UNL A   1      31.855  30.027  22.172  1.00  0.00     0.163 HD
ATOM     62  O   UNL A   1      29.961  28.522  21.891  1.00  0.00    -0.269 OA
BRANCH  60  63
ATOM     63  C   UNL A   1      30.978  27.059  23.402  1.00  0.00     0.042 A 
ATOM     64  C   UNL A   1      30.502  27.040  24.716  1.00  0.00     0.014 A 
ATOM     65  C   UNL A   1      31.482  25.901  22.814  1.00  0.00     0.053 A 
ATOM     66  C   UNL A   1      30.616  25.869  25.475  1.00  0.00     0.013 A 
ATOM     67  C   UNL A   1      31.606  24.750  23.588  1.00  0.00     0.132 A 
ATOM     68  C   UNL A   1      31.235  24.728  24.937  1.00  0.00     0.042 A 
ATOM     69  F   UNL A   1      32.146  23.660  23.026  1.00  0.00    -0.206 F 
BRANCH  68  70
ATOM     70  C   UNL A   1      31.519  23.514  25.794  1.00  0.00     0.302 C 
BRANCH  70  71
ATOM     71  N   UNL A   1      32.682  23.545  26.693  1.00  0.00    -0.322 N 
ATOM     72  C   UNL A   1      32.970  22.306  27.429  1.00  0.00     0.324 C 
ATOM     73  C   UNL A   1      33.918  24.121  26.147  1.00  0.00     0.328 C 
ATOM     74  H   UNL A   1      32.333  24.215  27.377  1.00  0.00     0.348 HD
ATOM     75  C   UNL A   1      33.942  21.311  26.744  1.00  0.00     0.324 C 
ATOM     76  C   UNL A   1      34.797  23.115  25.367  1.00  0.00     0.239 C 
ATOM     77  N   UNL A   1      35.161  21.929  26.171  1.00  0.00    -0.323 N 
ATOM     78  C   UNL A   1      36.057  23.793  24.815  1.00  0.00     0.071 C 
ATOM     79  C   UNL A   1      35.869  20.945  25.341  1.00  0.00     0.262 C 
ATOM     80  H   UNL A   1      35.776  22.228  26.928  1.00  0.00     0.348 HD
ATOM     81  C   UNL A   1      36.789  22.822  23.894  1.00  0.00     0.012 C 
ATOM     82  C   UNL A   1      37.099  21.526  24.635  1.00  0.00     0.062 C 
ENDBRANCH  70  71
ENDBRANCH  68  70
ENDBRANCH  60  63
ENDBRANCH  58  59
ENDBRANCH  57  58
ENDBRANCH   1  57
TORSDOF 13
ENDMDL
MODEL 3
REMARK VINA RESULT:     -11.7      2.539      7.675
REMARK SMILES O=C(NCCCCNC(=O)c1ccc(C[N@H+]2CC[N@H+]3CCCC[C@@H]3C2)c(F)c1)c1ccc(-c2c3nc(c(-c4ccccc4)c4ccc([nH]4)c(-c4ccccc4)c4nc(c(-c5ccccc5)c5ccc2[nH]5)C=C4)C=C3)cc1
REMARK SMILES IDX 5 1 4 2 3 3 1 4 2 5 29 7 30 8 76 9 31 10 75 11 32 12 33 13
REMARK SMILES IDX 34 14 69 15 35 16 74 17 68 18 70 19 36 20 73 21 67 22 66 23
REMARK SMILES IDX 37 25 59 26 44 27 58 28 45 29 48 30 57 31 71 32 46 33 47 34
REMARK SMILES IDX 56 36 72 37 49 38 38 39 39 40 43 41 40 42 42 43 41 44 60 45
REMARK SMILES IDX 61 46 65 47 62 48 64 49 63 50 50 51 51 52 55 53 52 54 54 55
REMARK SMILES IDX 53 56 6 57 7 58 8 59 9 60 10 62 11 63 12 64 28 65 13 66
REMARK SMILES IDX 26 67 14 68 27 69 15 70 16 71 17 72 25 73 18 75 24 76 19 77
REMARK SMILES IDX 23 78 20 79 22 81 21 82
REMARK H PARENT 3 6 70 24 48 35 8 61 16 74 19 80
REMARK Flexibility Score: inf
ROOT
ATOM      1  C   UNL A   1      37.363  20.184  24.977  1.00  0.00     0.023 C 
ENDROOT
BRANCH   1   2
ATOM      2  C   UNL A   1      38.662  20.560  25.684  1.00  0.00     0.116 C 
BRANCH   2   3
ATOM      3  N   UNL A   1      39.698  19.537  25.620  1.00  0.00    -0.352 N 
ATOM      4  O   UNL A   1      41.783  18.683  25.807  1.00  0.00    -0.269 OA
ATOM      5  C   UNL A   1      41.022  19.629  25.987  1.00  0.00     0.251 C 
ATOM      6  H   UNL A   1      39.413  18.664  25.266  1.00  0.00     0.163 HD
BRANCH   5   7
ATOM      7  C   UNL A   1      41.535  20.894  26.557  1.00  0.00     0.039 A 
ATOM      8  C   UNL A   1      41.507  21.114  27.935  1.00  0.00     0.014 A 
ATOM      9  C   UNL A   1      42.007  21.888  25.695  1.00  0.00     0.014 A 
ATOM     10  C   UNL A   1      41.790  22.380  28.435  1.00  0.00     0.010 A 
ATOM     11  C   UNL A   1      42.373  23.135  26.210  1.00  0.00     0.010 A 
ATOM     12  C   UNL A   1      42.225  23.405  27.579  1.00  0.00    -0.014 A 
BRANCH  12  13
ATOM     13  C   UNL A   1      42.554  24.735  28.149  1.00  0.00     0.031 A 
ATOM     14  C   UNL A   1      43.968  25.108  28.498  1.00  0.00     0.074 A 
ATOM     15  C   UNL A   1      41.563  25.633  28.308  1.00  0.00     0.049 A 
ATOM     16  N   UNL A   1      44.428  26.240  28.971  1.00  0.00    -0.248 NA
ATOM     17  C   UNL A   1      45.003  24.081  28.291  1.00  0.00     0.031 C 
ATOM     18  C   UNL A   1      40.151  25.393  27.999  1.00  0.00     0.029 A 
ATOM     19  N   UNL A   1      41.592  26.933  28.741  1.00  0.00    -0.354 N 
ATOM     20  C   UNL A   1      45.795  26.058  29.137  1.00  0.00     0.074 A 
ATOM     21  C   UNL A   1      46.091  24.700  28.733  1.00  0.00     0.031 C 
ATOM     22  C   UNL A   1      39.459  26.523  28.200  1.00  0.00     0.029 A 
ATOM     23  C   UNL A   1      40.363  27.546  28.714  1.00  0.00     0.049 A 
ATOM     24  H   UNL A   1      42.414  27.383  29.044  1.00  0.00     0.167 HD
ATOM     25  C   UNL A   1      46.719  26.943  29.582  1.00  0.00     0.031 A 
ATOM     26  C   UNL A   1      39.997  28.788  29.073  1.00  0.00     0.031 A 
ATOM     27  C   UNL A   1      46.426  28.295  29.982  1.00  0.00     0.049 A 
ATOM     28  C   UNL A   1      41.034  29.733  29.601  1.00  0.00     0.074 A 
ATOM     29  C   UNL A   1      47.300  29.273  30.426  1.00  0.00     0.029 A 
ATOM     30  N   UNL A   1      45.159  28.859  29.991  1.00  0.00    -0.354 N 
ATOM     31  N   UNL A   1      42.325  29.548  29.736  1.00  0.00    -0.248 NA
ATOM     32  C   UNL A   1      40.563  31.056  30.030  1.00  0.00     0.031 C 
ATOM     33  C   UNL A   1      46.556  30.414  30.747  1.00  0.00     0.029 A 
ATOM     34  C   UNL A   1      45.226  30.163  30.455  1.00  0.00     0.049 A 
ATOM     35  H   UNL A   1      44.335  28.401  29.709  1.00  0.00     0.167 HD
ATOM     36  C   UNL A   1      42.822  30.735  30.255  1.00  0.00     0.074 A 
ATOM     37  C   UNL A   1      41.698  31.639  30.389  1.00  0.00     0.031 C 
ATOM     38  C   UNL A   1      44.097  31.045  30.594  1.00  0.00     0.031 A 
BRANCH  25  39
ATOM     39  C   UNL A   1      48.143  26.470  29.686  1.00  0.00    -0.014 A 
ATOM     40  C   UNL A   1      48.617  25.833  30.843  1.00  0.00     0.009 A 
ATOM     41  C   UNL A   1      49.007  26.615  28.588  1.00  0.00     0.009 A 
ATOM     42  C   UNL A   1      49.937  25.376  30.908  1.00  0.00     0.001 A 
ATOM     43  C   UNL A   1      50.317  26.137  28.648  1.00  0.00     0.001 A 
ATOM     44  C   UNL A   1      50.783  25.524  29.810  1.00  0.00     0.000 A 
ENDBRANCH  25  39
BRANCH  26  45
ATOM     45  C   UNL A   1      38.575  29.198  28.957  1.00  0.00    -0.014 A 
ATOM     46  C   UNL A   1      37.722  29.140  30.068  1.00  0.00     0.009 A 
ATOM     47  C   UNL A   1      38.072  29.673  27.734  1.00  0.00     0.009 A 
ATOM     48  C   UNL A   1      36.389  29.539  29.954  1.00  0.00     0.001 A 
ATOM     49  C   UNL A   1      36.747  30.096  27.631  1.00  0.00     0.001 A 
ATOM     50  C   UNL A   1      35.904  30.022  28.739  1.00  0.00     0.000 A 
ENDBRANCH  26  45
BRANCH  38  51
ATOM     51  C   UNL A   1      44.340  32.428  31.124  1.00  0.00    -0.014 A 
ATOM     52  C   UNL A   1      44.296  32.695  32.501  1.00  0.00     0.009 A 
ATOM     53  C   UNL A   1      44.638  33.473  30.235  1.00  0.00     0.009 A 
ATOM     54  C   UNL A   1      44.513  33.990  32.975  1.00  0.00     0.001 A 
ATOM     55  C   UNL A   1      44.879  34.760  30.715  1.00  0.00     0.001 A 
ATOM     56  C   UNL A   1      44.808  35.020  32.083  1.00  0.00     0.000 A 
ENDBRANCH  38  51
ENDBRANCH  12  13
ENDBRANCH   5   7
ENDBRANCH   2   3
ENDBRANCH   1   2
BRANCH   1  57
ATOM     57  C   UNL A   1      36.364  21.324  24.796  1.00  0.00     0.023 C 
BRANCH  57  58
ATOM     58  C   UNL A   1      35.202  21.346  25.792  1.00  0.00     0.116 C 
BRANCH  58  59
ATOM     59  N   UNL A   1      34.361  20.167  25.678  1.00  0.00    -0.352 N 
ATOM     60  C   UNL A   1      33.052  20.074  25.265  1.00  0.00     0.251 C 
ATOM     61  H   UNL A   1      34.787  19.317  25.931  1.00  0.00     0.163 HD
ATOM     62  O   UNL A   1      32.442  19.014  25.348  1.00  0.00    -0.269 OA
BRANCH  60  63
ATOM     63  C   UNL A   1      32.366  21.266  24.736  1.00  0.00     0.042 A 
ATOM     64  C   UNL A   1      32.489  21.621  23.390  1.00  0.00     0.014 A 
ATOM     65  C   UNL A   1      31.575  22.022  25.598  1.00  0.00     0.053 A 
ATOM     66  C   UNL A   1      31.881  22.794  22.926  1.00  0.00     0.013 A 
ATOM     67  C   UNL A   1      30.994  23.196  25.127  1.00  0.00     0.132 A 
ATOM     68  C   UNL A   1      31.182  23.633  23.811  1.00  0.00     0.042 A 
ATOM     69  F   UNL A   1      30.282  23.943  25.983  1.00  0.00    -0.206 F 
BRANCH  68  70
ATOM     70  C   UNL A   1      30.667  24.984  23.366  1.00  0.00     0.302 C 
BRANCH  70  71
ATOM     71  N   UNL A   1      31.640  26.006  22.954  1.00  0.00    -0.322 N 
ATOM     72  C   UNL A   1      31.084  27.281  22.478  1.00  0.00     0.324 C 
ATOM     73  C   UNL A   1      32.768  26.242  23.864  1.00  0.00     0.328 C 
ATOM     74  H   UNL A   1      32.026  25.534  22.137  1.00  0.00     0.348 HD
ATOM     75  C   UNL A   1      30.878  28.382  23.550  1.00  0.00     0.324 C 
ATOM     76  C   UNL A   1      32.473  27.260  24.991  1.00  0.00     0.239 C 
ATOM     77  N   UNL A   1      32.020  28.569  24.475  1.00  0.00    -0.323 N 
ATOM     78  C   UNL A   1      33.690  27.440  25.907  1.00  0.00     0.071 C 
ATOM     79  C   UNL A   1      31.617  29.445  25.584  1.00  0.00     0.262 C 
ATOM     80  H   UNL A   1      32.793  29.005  23.973  1.00  0.00     0.348 HD
ATOM     81  C   UNL A   1      33.295  28.293  27.108  1.00  0.00     0.012 C 
ATOM     82  C   UNL A   1      32.714  29.623  26.640  1.00  0.00     0.062 C 
ENDBRANCH  70  71
ENDBRANCH  68  70
ENDBRANCH  60  63
ENDBRANCH  58  59
ENDBRANCH  57  58
ENDBRANCH   1  57
TORSDOF 13
ENDMDL
