MODEL 1
REMARK VINA RESULT:     -12.7      0.000      0.000
REMARK SMILES Cc1cc(C)c(NS(=O)(=O)c2cccc3cc(C)cnc23)c(C(=O)NCCCCNC(=O)c2ccc(-c3c4nc(c(-c5ccccc5)c5ccc([nH]5)c(-c5ccccc5)c5nc(c(-c6ccccc6)c6ccc3[nH]6)C=C5)C=C4)cc2)c1
REMARK SMILES IDX 27 1 26 2 25 3 23 4 24 5 22 7 1 8 2 9 3 10 81 11 4 12 5 13
REMARK SMILES IDX 6 14 7 15 8 17 9 18 10 19 11 20 12 21 21 22 13 23 15 24
REMARK SMILES IDX 20 25 14 26 16 27 19 28 17 29 18 30 28 31 29 32 30 33 31 34
REMARK SMILES IDX 32 36 33 37 34 38 80 39 35 40 79 41 36 42 37 43 38 44 73 45
REMARK SMILES IDX 39 46 78 47 72 48 74 49 40 50 77 51 71 52 70 53 41 55 63 56
REMARK SMILES IDX 48 57 62 58 49 59 52 60 61 61 75 62 50 63 51 64 60 66 76 67
REMARK SMILES IDX 53 68 42 69 43 70 47 71 44 72 46 73 45 74 64 75 65 76 69 77
REMARK SMILES IDX 66 78 68 79 67 80 54 81 55 82 59 83 56 84 58 85 57 86
REMARK H PARENT 25 6 7 16 30 35 74 54 52 65
REMARK Flexibility Score: inf
ROOT
ATOM      1  C   UNL A   1      31.784  28.877  27.306  1.00  0.00     0.023 C 
ENDROOT
BRANCH   1   2
ATOM      2  C   UNL A   1      32.396  27.730  26.495  1.00  0.00     0.116 C 
BRANCH   2   3
ATOM      3  N   UNL A   1      31.696  26.495  26.801  1.00  0.00    -0.352 N 
ATOM      4  C   UNL A   1      31.831  25.219  26.302  1.00  0.00     0.253 C 
ATOM      5  O   UNL A   1      31.046  24.359  26.699  1.00  0.00    -0.269 OA
ATOM      6  H   UNL A   1      30.999  26.586  27.491  1.00  0.00     0.163 HD
BRANCH   4   7
ATOM      7  C   UNL A   1      32.961  24.833  25.404  1.00  0.00     0.064 A 
ATOM      8  C   UNL A   1      36.582  23.783  25.793  1.00  0.00     0.044 C 
ATOM      9  C   UNL A   1      35.234  24.020  25.179  1.00  0.00    -0.050 A 
ATOM     10  C   UNL A   1      34.907  23.550  23.904  1.00  0.00     0.009 A 
ATOM     11  C   UNL A   1      34.244  24.652  25.927  1.00  0.00     0.019 A 
ATOM     12  C   UNL A   1      33.642  23.803  23.324  1.00  0.00    -0.026 A 
ATOM     13  C   UNL A   1      33.351  23.184  21.987  1.00  0.00     0.046 C 
ATOM     14  C   UNL A   1      32.715  24.591  24.029  1.00  0.00     0.065 A 
BRANCH  14  15
ATOM     15  N   UNL A   1      31.477  25.070  23.468  1.00  0.00    -0.278 N 
ATOM     16  H   UNL A   1      30.705  24.461  23.525  1.00  0.00     0.180 HD
BRANCH  15  17
ATOM     17  S   UNL A   1      31.207  26.560  22.726  1.00  0.00     0.264 S 
ATOM     18  O   UNL A   1      32.267  27.406  23.251  1.00  0.00    -0.201 OA
ATOM     19  O   UNL A   1      31.163  26.309  21.299  1.00  0.00    -0.201 OA
BRANCH  17  20
ATOM     20  C   UNL A   1      29.699  27.396  23.132  1.00  0.00     0.114 A 
ATOM     21  C   UNL A   1      28.775  26.624  23.877  1.00  0.00     0.024 A 
ATOM     22  C   UNL A   1      29.363  28.657  22.648  1.00  0.00     0.091 A 
ATOM     23  C   UNL A   1      27.467  27.047  24.047  1.00  0.00     0.002 A 
ATOM     24  C   UNL A   1      27.990  29.005  22.723  1.00  0.00     0.002 A 
ATOM     25  N   UNL A   1      30.247  29.510  22.088  1.00  0.00    -0.255 NA
ATOM     26  C   UNL A   1      27.063  28.218  23.426  1.00  0.00     0.010 A 
ATOM     27  C   UNL A   1      27.542  30.135  22.031  1.00  0.00     0.015 A 
ATOM     28  C   UNL A   1      29.782  30.619  21.466  1.00  0.00     0.115 A 
ATOM     29  C   UNL A   1      28.442  30.933  21.335  1.00  0.00    -0.032 A 
ATOM     30  C   UNL A   1      27.965  32.035  20.447  1.00  0.00     0.046 C 
ENDBRANCH  17  20
ENDBRANCH  15  17
ENDBRANCH  14  15
ENDBRANCH   4   7
ENDBRANCH   2   3
ENDBRANCH   1   2
BRANCH   1  31
ATOM     31  C   UNL A   1      31.829  30.222  26.577  1.00  0.00     0.023 C 
BRANCH  31  32
ATOM     32  C   UNL A   1      32.911  31.165  27.086  1.00  0.00     0.116 C 
BRANCH  32  33
ATOM     33  N   UNL A   1      32.432  32.524  27.300  1.00  0.00    -0.352 N 
ATOM     34  C   UNL A   1      33.029  33.528  28.023  1.00  0.00     0.251 C 
ATOM     35  H   UNL A   1      31.574  32.751  26.875  1.00  0.00     0.163 HD
ATOM     36  O   UNL A   1      32.462  34.602  28.197  1.00  0.00    -0.269 OA
BRANCH  34  37
ATOM     37  C   UNL A   1      34.348  33.271  28.632  1.00  0.00     0.039 A 
ATOM     38  C   UNL A   1      34.403  32.625  29.868  1.00  0.00     0.014 A 
ATOM     39  C   UNL A   1      35.519  33.596  27.942  1.00  0.00     0.014 A 
ATOM     40  C   UNL A   1      35.639  32.236  30.382  1.00  0.00     0.010 A 
ATOM     41  C   UNL A   1      36.744  33.147  28.423  1.00  0.00     0.010 A 
ATOM     42  C   UNL A   1      36.814  32.458  29.644  1.00  0.00    -0.014 A 
BRANCH  42  43
ATOM     43  C   UNL A   1      38.125  31.962  30.126  1.00  0.00     0.031 A 
ATOM     44  C   UNL A   1      38.688  30.677  29.592  1.00  0.00     0.074 A 
ATOM     45  C   UNL A   1      38.776  32.638  31.094  1.00  0.00     0.049 A 
ATOM     46  N   UNL A   1      39.797  30.064  29.919  1.00  0.00    -0.248 NA
ATOM     47  C   UNL A   1      37.889  29.974  28.574  1.00  0.00     0.031 C 
ATOM     48  C   UNL A   1      38.309  33.871  31.731  1.00  0.00     0.029 A 
ATOM     49  N   UNL A   1      39.971  32.376  31.714  1.00  0.00    -0.354 N 
ATOM     50  C   UNL A   1      39.821  28.900  29.162  1.00  0.00     0.074 A 
ATOM     51  C   UNL A   1      38.595  28.867  28.396  1.00  0.00     0.031 C 
ATOM     52  C   UNL A   1      39.221  34.273  32.630  1.00  0.00     0.029 A 
ATOM     53  C   UNL A   1      40.318  33.312  32.657  1.00  0.00     0.049 A 
ATOM     54  H   UNL A   1      40.528  31.591  31.503  1.00  0.00     0.167 HD
ATOM     55  C   UNL A   1      40.786  27.954  29.094  1.00  0.00     0.031 A 
ATOM     56  C   UNL A   1      41.400  33.387  33.454  1.00  0.00     0.031 A 
ATOM     57  C   UNL A   1      42.012  27.993  29.844  1.00  0.00     0.049 A 
ATOM     58  C   UNL A   1      42.459  32.324  33.357  1.00  0.00     0.074 A 
ATOM     59  C   UNL A   1      43.079  27.113  29.799  1.00  0.00     0.029 A 
ATOM     60  N   UNL A   1      42.334  28.967  30.776  1.00  0.00    -0.354 N 
ATOM     61  N   UNL A   1      42.502  31.271  32.579  1.00  0.00    -0.248 NA
ATOM     62  C   UNL A   1      43.626  32.472  34.239  1.00  0.00     0.031 C 
ATOM     63  C   UNL A   1      44.029  27.531  30.736  1.00  0.00     0.029 A 
ATOM     64  C   UNL A   1      43.575  28.699  31.329  1.00  0.00     0.049 A 
ATOM     65  H   UNL A   1      41.764  29.734  31.012  1.00  0.00     0.167 HD
ATOM     66  C   UNL A   1      43.710  30.644  32.858  1.00  0.00     0.074 A 
ATOM     67  C   UNL A   1      44.376  31.445  33.865  1.00  0.00     0.031 C 
ATOM     68  C   UNL A   1      44.222  29.508  32.326  1.00  0.00     0.031 A 
BRANCH  55  69
ATOM     69  C   UNL A   1      40.549  26.794  28.170  1.00  0.00    -0.014 A 
ATOM     70  C   UNL A   1      39.803  25.678  28.584  1.00  0.00     0.009 A 
ATOM     71  C   UNL A   1      41.053  26.827  26.860  1.00  0.00     0.009 A 
ATOM     72  C   UNL A   1      39.599  24.604  27.716  1.00  0.00     0.001 A 
ATOM     73  C   UNL A   1      40.822  25.763  25.987  1.00  0.00     0.001 A 
ATOM     74  C   UNL A   1      40.105  24.648  26.419  1.00  0.00     0.000 A 
ENDBRANCH  55  69
BRANCH  56  75
ATOM     75  C   UNL A   1      41.556  34.524  34.398  1.00  0.00    -0.014 A 
ATOM     76  C   UNL A   1      41.037  34.443  35.699  1.00  0.00     0.009 A 
ATOM     77  C   UNL A   1      42.214  35.699  34.000  1.00  0.00     0.009 A 
ATOM     78  C   UNL A   1      41.149  35.526  36.574  1.00  0.00     0.001 A 
ATOM     79  C   UNL A   1      42.346  36.770  34.886  1.00  0.00     0.001 A 
ATOM     80  C   UNL A   1      41.805  36.686  36.168  1.00  0.00     0.000 A 
ENDBRANCH  56  75
BRANCH  68  81
ATOM     81  C   UNL A   1      45.583  29.083  32.798  1.00  0.00    -0.014 A 
ATOM     82  C   UNL A   1      45.737  28.222  33.895  1.00  0.00     0.009 A 
ATOM     83  C   UNL A   1      46.724  29.519  32.107  1.00  0.00     0.009 A 
ATOM     84  C   UNL A   1      47.011  27.829  34.309  1.00  0.00     0.001 A 
ATOM     85  C   UNL A   1      47.995  29.104  32.507  1.00  0.00     0.001 A 
ATOM     86  C   UNL A   1      48.137  28.267  33.612  1.00  0.00     0.000 A 
ENDBRANCH  68  81
ENDBRANCH  42  43
ENDBRANCH  34  37
ENDBRANCH  32  33
ENDBRANCH  31  32
ENDBRANCH   1  31
TORSDOF 14
ENDMDL
MODEL 2
REMARK VINA RESULT:     -12.7      1.600      4.573
REMARK SMILES Cc1cc(C)c(NS(=O)(=O)c2cccc3cc(C)cnc23)c(C(=O)NCCCCNC(=O)c2ccc(-c3c4nc(c(-c5ccccc5)c5ccc([nH]5)c(-c5ccccc5)c5nc(c(-c6ccccc6)c6ccc3[nH]6)C=C5)C=C4)cc2)c1
REMARK SMILES IDX 27 1 26 2 25 3 23 4 24 5 22 7 1 8 2 9 3 10 81 11 4 12 5 13
REMARK SMILES IDX 6 14 7 15 8 17 9 18 10 19 11 20 12 21 21 22 13 23 15 24
REMARK SMILES IDX 20 25 14 26 16 27 19 28 17 29 18 30 28 31 29 32 30 33 31 34
REMARK SMILES IDX 32 36 33 37 34 38 80 39 35 40 79 41 36 42 37 43 38 44 73 45
REMARK SMILES IDX 39 46 78 47 72 48 74 49 40 50 77 51 71 52 70 53 41 55 63 56
REMARK SMILES IDX 48 57 62 58 49 59 52 60 61 61 75 62 50 63 51 64 60 66 76 67
REMARK SMILES IDX 53 68 42 69 43 70 47 71 44 72 46 73 45 74 64 75 65 76 69 77
REMARK SMILES IDX 66 78 68 79 67 80 54 81 55 82 59 83 56 84 58 85 57 86
REMARK H PARENT 25 6 7 16 30 35 74 54 52 65
REMARK Flexibility Score: inf
ROOT
ATOM      1  C   UNL A   1      31.767  28.908  27.353  1.00  0.00     0.023 C 
ENDROOT
BRANCH   1   2
ATOM      2  C   UNL A   1      32.651  27.846  26.690  1.00  0.00     0.116 C 
BRANCH   2   3
ATOM      3  N   UNL A   1      32.057  26.535  26.880  1.00  0.00    -0.352 N 
ATOM      4  C   UNL A   1      31.192  25.800  26.099  1.00  0.00     0.253 C 
ATOM      5  O   UNL A   1      30.788  24.726  26.542  1.00  0.00    -0.269 OA
ATOM      6  H   UNL A   1      32.319  26.091  27.718  1.00  0.00     0.163 HD
BRANCH   4   7
ATOM      7  C   UNL A   1      30.841  26.207  24.705  1.00  0.00     0.064 A 
ATOM      8  C   UNL A   1      28.635  28.802  23.043  1.00  0.00     0.044 C 
ATOM      9  C   UNL A   1      29.686  27.750  23.234  1.00  0.00    -0.050 A 
ATOM     10  C   UNL A   1      30.588  27.410  22.221  1.00  0.00     0.009 A 
ATOM     11  C   UNL A   1      29.832  27.148  24.481  1.00  0.00     0.019 A 
ATOM     12  C   UNL A   1      31.557  26.397  22.403  1.00  0.00    -0.026 A 
ATOM     13  C   UNL A   1      32.539  26.163  21.290  1.00  0.00     0.046 C 
ATOM     14  C   UNL A   1      31.576  25.681  23.613  1.00  0.00     0.065 A 
BRANCH  14  15
ATOM     15  N   UNL A   1      32.386  24.512  23.843  1.00  0.00    -0.278 N 
ATOM     16  H   UNL A   1      31.907  23.655  23.919  1.00  0.00     0.180 HD
BRANCH  15  17
ATOM     17  S   UNL A   1      34.065  24.452  23.995  1.00  0.00     0.264 S 
ATOM     18  O   UNL A   1      34.538  24.453  22.620  1.00  0.00    -0.201 OA
ATOM     19  O   UNL A   1      34.440  25.554  24.859  1.00  0.00    -0.201 OA
BRANCH  17  20
ATOM     20  C   UNL A   1      34.752  22.991  24.724  1.00  0.00     0.114 A 
ATOM     21  C   UNL A   1      36.072  23.137  25.214  1.00  0.00     0.024 A 
ATOM     22  C   UNL A   1      34.122  21.750  24.701  1.00  0.00     0.091 A 
ATOM     23  C   UNL A   1      36.824  22.032  25.575  1.00  0.00     0.002 A 
ATOM     24  C   UNL A   1      34.953  20.628  24.951  1.00  0.00     0.002 A 
ATOM     25  N   UNL A   1      32.814  21.574  24.415  1.00  0.00    -0.255 NA
ATOM     26  C   UNL A   1      36.278  20.771  25.396  1.00  0.00     0.010 A 
ATOM     27  C   UNL A   1      34.452  19.347  24.694  1.00  0.00     0.015 A 
ATOM     28  C   UNL A   1      32.352  20.315  24.218  1.00  0.00     0.115 A 
ATOM     29  C   UNL A   1      33.142  19.182  24.260  1.00  0.00    -0.032 A 
ATOM     30  C   UNL A   1      32.645  17.847  23.811  1.00  0.00     0.046 C 
ENDBRANCH  17  20
ENDBRANCH  15  17
ENDBRANCH  14  15
ENDBRANCH   4   7
ENDBRANCH   2   3
ENDBRANCH   1   2
BRANCH   1  31
ATOM     31  C   UNL A   1      31.779  30.248  26.616  1.00  0.00     0.023 C 
BRANCH  31  32
ATOM     32  C   UNL A   1      32.880  31.196  27.073  1.00  0.00     0.116 C 
BRANCH  32  33
ATOM     33  N   UNL A   1      32.398  32.542  27.351  1.00  0.00    -0.352 N 
ATOM     34  C   UNL A   1      33.013  33.526  28.086  1.00  0.00     0.251 C 
ATOM     35  H   UNL A   1      31.524  32.776  26.963  1.00  0.00     0.163 HD
ATOM     36  O   UNL A   1      32.445  34.589  28.316  1.00  0.00    -0.269 OA
BRANCH  34  37
ATOM     37  C   UNL A   1      34.354  33.261  28.639  1.00  0.00     0.039 A 
ATOM     38  C   UNL A   1      34.458  32.575  29.850  1.00  0.00     0.014 A 
ATOM     39  C   UNL A   1      35.497  33.618  27.919  1.00  0.00     0.014 A 
ATOM     40  C   UNL A   1      35.715  32.180  30.306  1.00  0.00     0.010 A 
ATOM     41  C   UNL A   1      36.742  33.163  28.341  1.00  0.00     0.010 A 
ATOM     42  C   UNL A   1      36.861  32.435  29.535  1.00  0.00    -0.014 A 
BRANCH  42  43
ATOM     43  C   UNL A   1      38.192  31.934  29.954  1.00  0.00     0.031 A 
ATOM     44  C   UNL A   1      38.696  30.615  29.444  1.00  0.00     0.074 A 
ATOM     45  C   UNL A   1      38.916  32.640  30.845  1.00  0.00     0.049 A 
ATOM     46  N   UNL A   1      39.813  29.995  29.727  1.00  0.00    -0.248 NA
ATOM     47  C   UNL A   1      37.819  29.884  28.514  1.00  0.00     0.031 C 
ATOM     48  C   UNL A   1      38.514  33.909  31.454  1.00  0.00     0.029 A 
ATOM     49  N   UNL A   1      40.145  32.382  31.398  1.00  0.00    -0.354 N 
ATOM     50  C   UNL A   1      39.766  28.798  29.025  1.00  0.00     0.074 A 
ATOM     51  C   UNL A   1      38.492  28.756  28.342  1.00  0.00     0.031 C 
ATOM     52  C   UNL A   1      39.491  34.333  32.272  1.00  0.00     0.029 A 
ATOM     53  C   UNL A   1      40.570  33.352  32.272  1.00  0.00     0.049 A 
ATOM     54  H   UNL A   1      40.673  31.576  31.188  1.00  0.00     0.167 HD
ATOM     55  C   UNL A   1      40.708  27.830  28.937  1.00  0.00     0.031 A 
ATOM     56  C   UNL A   1      41.703  33.440  32.993  1.00  0.00     0.031 A 
ATOM     57  C   UNL A   1      41.981  27.877  29.604  1.00  0.00     0.049 A 
ATOM     58  C   UNL A   1      42.735  32.353  32.877  1.00  0.00     0.074 A 
ATOM     59  C   UNL A   1      43.027  26.974  29.531  1.00  0.00     0.029 A 
ATOM     60  N   UNL A   1      42.381  28.885  30.467  1.00  0.00    -0.354 N 
ATOM     61  N   UNL A   1      42.708  31.264  32.148  1.00  0.00    -0.248 NA
ATOM     62  C   UNL A   1      43.959  32.516  33.674  1.00  0.00     0.031 C 
ATOM     63  C   UNL A   1      44.044  27.415  30.384  1.00  0.00     0.029 A 
ATOM     64  C   UNL A   1      43.650  28.617  30.950  1.00  0.00     0.049 A 
ATOM     65  H   UNL A   1      41.841  29.675  30.704  1.00  0.00     0.167 HD
ATOM     66  C   UNL A   1      43.920  30.626  32.376  1.00  0.00     0.074 A 
ATOM     67  C   UNL A   1      44.665  31.457  33.300  1.00  0.00     0.031 C 
ATOM     68  C   UNL A   1      44.376  29.457  31.865  1.00  0.00     0.031 A 
BRANCH  55  69
ATOM     69  C   UNL A   1      40.390  26.635  28.085  1.00  0.00    -0.014 A 
ATOM     70  C   UNL A   1      40.861  26.539  26.766  1.00  0.00     0.009 A 
ATOM     71  C   UNL A   1      39.634  25.578  28.616  1.00  0.00     0.009 A 
ATOM     72  C   UNL A   1      40.550  25.426  25.983  1.00  0.00     0.001 A 
ATOM     73  C   UNL A   1      39.348  24.454  27.839  1.00  0.00     0.001 A 
ATOM     74  C   UNL A   1      39.798  24.383  26.521  1.00  0.00     0.000 A 
ENDBRANCH  55  69
BRANCH  56  75
ATOM     75  C   UNL A   1      41.940  34.615  33.871  1.00  0.00    -0.014 A 
ATOM     76  C   UNL A   1      41.539  34.590  35.215  1.00  0.00     0.009 A 
ATOM     77  C   UNL A   1      42.559  35.770  33.368  1.00  0.00     0.009 A 
ATOM     78  C   UNL A   1      41.726  35.708  36.031  1.00  0.00     0.001 A 
ATOM     79  C   UNL A   1      42.768  36.877  34.194  1.00  0.00     0.001 A 
ATOM     80  C   UNL A   1      42.343  36.848  35.521  1.00  0.00     0.000 A 
ENDBRANCH  56  75
BRANCH  68  81
ATOM     81  C   UNL A   1      45.757  29.025  32.267  1.00  0.00    -0.014 A 
ATOM     82  C   UNL A   1      46.888  29.434  31.544  1.00  0.00     0.009 A 
ATOM     83  C   UNL A   1      45.928  28.232  33.413  1.00  0.00     0.009 A 
ATOM     84  C   UNL A   1      48.163  29.030  31.945  1.00  0.00     0.001 A 
ATOM     85  C   UNL A   1      47.206  27.852  33.825  1.00  0.00     0.001 A 
ATOM     86  C   UNL A   1      48.321  28.245  33.086  1.00  0.00     0.000 A 
ENDBRANCH  68  81
ENDBRANCH  42  43
ENDBRANCH  34  37
ENDBRANCH  32  33
ENDBRANCH  31  32
ENDBRANCH   1  31
TORSDOF 14
ENDMDL
MODEL 3
REMARK VINA RESULT:     -12.6      2.606      7.657
REMARK SMILES Cc1cc(C)c(NS(=O)(=O)c2cccc3cc(C)cnc23)c(C(=O)NCCCCNC(=O)c2ccc(-c3c4nc(c(-c5ccccc5)c5ccc([nH]5)c(-c5ccccc5)c5nc(c(-c6ccccc6)c6ccc3[nH]6)C=C5)C=C4)cc2)c1
REMARK SMILES IDX 27 1 26 2 25 3 23 4 24 5 22 7 1 8 2 9 3 10 81 11 4 12 5 13
REMARK SMILES IDX 6 14 7 15 8 17 9 18 10 19 11 20 12 21 21 22 13 23 15 24
REMARK SMILES IDX 20 25 14 26 16 27 19 28 17 29 18 30 28 31 29 32 30 33 31 34
REMARK SMILES IDX 32 36 33 37 34 38 80 39 35 40 79 41 36 42 37 43 38 44 73 45
REMARK SMILES IDX 39 46 78 47 72 48 74 49 40 50 77 51 71 52 70 53 41 55 63 56
REMARK SMILES IDX 48 57 62 58 49 59 52 60 61 61 75 62 50 63 51 64 60 66 76 67
REMARK SMILES IDX 53 68 42 69 43 70 47 71 44 72 46 73 45 74 64 75 65 76 69 77
REMARK SMILES IDX 66 78 68 79 67 80 54 81 55 82 59 83 56 84 58 85 57 86
REMARK H PARENT 25 6 7 16 30 35 74 54 52 65
REMARK Flexibility Score: inf
ROOT
ATOM      1  C   UNL A   1      31.938  26.597  26.504  1.00  0.00     0.023 C 
ENDROOT
BRANCH   1   2
ATOM      2  C   UNL A   1      30.507  26.049  26.505  1.00  0.00     0.116 C 
BRANCH   2   3
ATOM      3  N   UNL A   1      30.374  25.039  25.470  1.00  0.00    -0.352 N 
ATOM      4  C   UNL A   1      30.375  25.132  24.096  1.00  0.00     0.253 C 
ATOM      5  O   UNL A   1      30.172  24.104  23.450  1.00  0.00    -0.269 OA
ATOM      6  H   UNL A   1      30.264  24.123  25.813  1.00  0.00     0.163 HD
BRANCH   4   7
ATOM      7  C   UNL A   1      30.731  26.396  23.386  1.00  0.00     0.064 A 
ATOM      8  C   UNL A   1      29.258  29.865  22.983  1.00  0.00     0.044 C 
ATOM      9  C   UNL A   1      30.239  28.730  22.952  1.00  0.00    -0.050 A 
ATOM     10  C   UNL A   1      31.583  28.920  22.619  1.00  0.00     0.009 A 
ATOM     11  C   UNL A   1      29.826  27.460  23.347  1.00  0.00     0.019 A 
ATOM     12  C   UNL A   1      32.492  27.838  22.566  1.00  0.00    -0.026 A 
ATOM     13  C   UNL A   1      33.933  28.151  22.285  1.00  0.00     0.046 C 
ATOM     14  C   UNL A   1      32.016  26.536  22.803  1.00  0.00     0.065 A 
BRANCH  14  15
ATOM     15  N   UNL A   1      32.799  25.344  22.595  1.00  0.00    -0.278 N 
ATOM     16  H   UNL A   1      32.621  24.842  21.767  1.00  0.00     0.180 HD
BRANCH  15  17
ATOM     17  S   UNL A   1      33.985  24.716  23.616  1.00  0.00     0.264 S 
ATOM     18  O   UNL A   1      34.974  24.168  22.702  1.00  0.00    -0.201 OA
ATOM     19  O   UNL A   1      34.380  25.794  24.501  1.00  0.00    -0.201 OA
BRANCH  17  20
ATOM     20  C   UNL A   1      33.511  23.364  24.658  1.00  0.00     0.114 A 
ATOM     21  C   UNL A   1      33.844  23.523  26.025  1.00  0.00     0.024 A 
ATOM     22  C   UNL A   1      32.984  22.169  24.176  1.00  0.00     0.091 A 
ATOM     23  C   UNL A   1      33.769  22.457  26.905  1.00  0.00     0.002 A 
ATOM     24  C   UNL A   1      33.040  21.064  25.064  1.00  0.00     0.002 A 
ATOM     25  N   UNL A   1      32.484  22.013  22.932  1.00  0.00    -0.255 NA
ATOM     26  C   UNL A   1      33.412  21.213  26.410  1.00  0.00     0.010 A 
ATOM     27  C   UNL A   1      32.768  19.785  24.566  1.00  0.00     0.015 A 
ATOM     28  C   UNL A   1      32.188  20.765  22.498  1.00  0.00     0.115 A 
ATOM     29  C   UNL A   1      32.391  19.615  23.239  1.00  0.00    -0.032 A 
ATOM     30  C   UNL A   1      32.271  18.251  22.644  1.00  0.00     0.046 C 
ENDBRANCH  17  20
ENDBRANCH  15  17
ENDBRANCH  14  15
ENDBRANCH   4   7
ENDBRANCH   2   3
ENDBRANCH   1   2
BRANCH   1  31
ATOM     31  C   UNL A   1      32.006  28.108  26.734  1.00  0.00     0.023 C 
BRANCH  31  32
ATOM     32  C   UNL A   1      33.356  28.595  27.242  1.00  0.00     0.116 C 
BRANCH  32  33
ATOM     33  N   UNL A   1      33.357  30.006  27.602  1.00  0.00    -0.352 N 
ATOM     34  C   UNL A   1      34.386  30.744  28.136  1.00  0.00     0.251 C 
ATOM     35  H   UNL A   1      32.516  30.493  27.444  1.00  0.00     0.163 HD
ATOM     36  O   UNL A   1      34.215  31.909  28.478  1.00  0.00    -0.269 OA
BRANCH  34  37
ATOM     37  C   UNL A   1      35.693  30.090  28.337  1.00  0.00     0.039 A 
ATOM     38  C   UNL A   1      36.623  30.113  27.296  1.00  0.00     0.014 A 
ATOM     39  C   UNL A   1      36.020  29.532  29.575  1.00  0.00     0.014 A 
ATOM     40  C   UNL A   1      37.914  29.640  27.522  1.00  0.00     0.010 A 
ATOM     41  C   UNL A   1      37.327  29.123  29.818  1.00  0.00     0.010 A 
ATOM     42  C   UNL A   1      38.287  29.179  28.796  1.00  0.00    -0.014 A 
BRANCH  42  43
ATOM     43  C   UNL A   1      39.682  28.767  29.082  1.00  0.00     0.031 A 
ATOM     44  C   UNL A   1      40.626  29.719  29.756  1.00  0.00     0.074 A 
ATOM     45  C   UNL A   1      40.113  27.556  28.674  1.00  0.00     0.049 A 
ATOM     46  N   UNL A   1      41.890  29.554  30.054  1.00  0.00    -0.248 NA
ATOM     47  C   UNL A   1      40.089  31.040  30.122  1.00  0.00     0.031 C 
ATOM     48  C   UNL A   1      39.308  26.561  27.964  1.00  0.00     0.029 A 
ATOM     49  N   UNL A   1      41.343  26.961  28.797  1.00  0.00    -0.354 N 
ATOM     50  C   UNL A   1      42.301  30.750  30.625  1.00  0.00     0.074 A 
ATOM     51  C   UNL A   1      41.169  31.649  30.588  1.00  0.00     0.031 C 
ATOM     52  C   UNL A   1      40.056  25.469  27.740  1.00  0.00     0.029 A 
ATOM     53  C   UNL A   1      41.399  25.699  28.260  1.00  0.00     0.049 A 
ATOM     54  H   UNL A   1      42.113  27.398  29.229  1.00  0.00     0.167 HD
ATOM     55  C   UNL A   1      43.506  31.067  31.152  1.00  0.00     0.031 A 
ATOM     56  C   UNL A   1      42.420  24.824  28.194  1.00  0.00     0.031 A 
ATOM     57  C   UNL A   1      44.629  30.170  31.202  1.00  0.00     0.049 A 
ATOM     58  C   UNL A   1      43.749  25.199  28.789  1.00  0.00     0.074 A 
ATOM     59  C   UNL A   1      45.874  30.376  31.770  1.00  0.00     0.029 A 
ATOM     60  N   UNL A   1      44.641  28.893  30.662  1.00  0.00    -0.354 N 
ATOM     61  N   UNL A   1      44.098  26.307  29.395  1.00  0.00    -0.248 NA
ATOM     62  C   UNL A   1      44.818  24.194  28.703  1.00  0.00     0.031 C 
ATOM     63  C   UNL A   1      46.654  29.239  31.536  1.00  0.00     0.029 A 
ATOM     64  C   UNL A   1      45.878  28.307  30.866  1.00  0.00     0.049 A 
ATOM     65  H   UNL A   1      43.882  28.467  30.201  1.00  0.00     0.167 HD
ATOM     66  C   UNL A   1      45.418  26.124  29.787  1.00  0.00     0.074 A 
ATOM     67  C   UNL A   1      45.801  24.792  29.363  1.00  0.00     0.031 C 
ATOM     68  C   UNL A   1      46.239  26.981  30.440  1.00  0.00     0.031 A 
BRANCH  55  69
ATOM     69  C   UNL A   1      43.669  32.448  31.720  1.00  0.00    -0.014 A 
ATOM     70  C   UNL A   1      44.097  33.517  30.916  1.00  0.00     0.009 A 
ATOM     71  C   UNL A   1      43.363  32.692  33.068  1.00  0.00     0.009 A 
ATOM     72  C   UNL A   1      44.252  34.793  31.460  1.00  0.00     0.001 A 
ATOM     73  C   UNL A   1      43.492  33.975  33.601  1.00  0.00     0.001 A 
ATOM     74  C   UNL A   1      43.946  35.022  32.800  1.00  0.00     0.000 A 
ENDBRANCH  55  69
BRANCH  56  75
ATOM     75  C   UNL A   1      42.224  23.493  27.564  1.00  0.00    -0.014 A 
ATOM     76  C   UNL A   1      41.720  22.419  28.313  1.00  0.00     0.009 A 
ATOM     77  C   UNL A   1      42.550  23.286  26.214  1.00  0.00     0.009 A 
ATOM     78  C   UNL A   1      41.571  21.158  27.732  1.00  0.00     0.001 A 
ATOM     79  C   UNL A   1      42.376  22.029  25.630  1.00  0.00     0.001 A 
ATOM     80  C   UNL A   1      41.896  20.965  26.391  1.00  0.00     0.000 A 
ENDBRANCH  56  75
BRANCH  68  81
ATOM     81  C   UNL A   1      47.621  26.492  30.766  1.00  0.00    -0.014 A 
ATOM     82  C   UNL A   1      48.695  26.704  29.888  1.00  0.00     0.009 A 
ATOM     83  C   UNL A   1      47.857  25.847  31.991  1.00  0.00     0.009 A 
ATOM     84  C   UNL A   1      49.974  26.252  30.219  1.00  0.00     0.001 A 
ATOM     85  C   UNL A   1      49.141  25.420  32.329  1.00  0.00     0.001 A 
ATOM     86  C   UNL A   1      50.196  25.615  31.439  1.00  0.00     0.000 A 
ENDBRANCH  68  81
ENDBRANCH  42  43
ENDBRANCH  34  37
ENDBRANCH  32  33
ENDBRANCH  31  32
ENDBRANCH   1  31
TORSDOF 14
ENDMDL
