MODEL 1
REMARK VINA RESULT:     -11.5      0.000      0.000
REMARK SMILES C[C@@H](C(=O)NCCCCNC(=O)c1ccc(-c2c3nc(c(-c4ccccc4)c4ccc([nH]4)c(-c4ccccc4)c4nc(c(-c5ccccc5)c5ccc2[nH]5)C=C4)C=C3)cc1)c1cccc(C(=O)c2ccccc2)c1
REMARK SMILES IDX 7 1 6 2 5 3 3 4 4 5 2 7 1 8 61 9 62 10 74 11 63 12 65 13
REMARK SMILES IDX 64 14 66 15 67 16 68 17 69 18 73 19 70 20 72 21 71 22 8 23
REMARK SMILES IDX 9 24 10 25 11 26 12 28 13 29 14 30 60 31 15 32 59 33 16 34
REMARK SMILES IDX 17 35 18 36 53 37 19 38 58 39 52 40 54 41 20 42 57 43 51 44
REMARK SMILES IDX 50 45 21 47 43 48 28 49 42 50 29 51 32 52 41 53 55 54 30 55
REMARK SMILES IDX 31 56 40 58 56 59 33 60 22 61 23 62 27 63 24 64 26 65 25 66
REMARK SMILES IDX 44 67 45 68 49 69 46 70 48 71 47 72 34 73 35 74 39 75 36 76
REMARK SMILES IDX 38 77 37 78
REMARK H PARENT 5 6 10 27 54 46 32 57
REMARK Flexibility Score: inf
ROOT
ATOM      1  C   UNL A   1      36.716  21.058  24.627  1.00  0.00     0.023 C 
ENDROOT
BRANCH   1   2
ATOM      2  C   UNL A   1      36.586  21.982  25.840  1.00  0.00     0.116 C 
BRANCH   2   3
ATOM      3  N   UNL A   1      35.563  21.520  26.750  1.00  0.00    -0.356 N 
ATOM      4  C   UNL A   1      34.227  21.772  26.814  1.00  0.00     0.227 C 
ATOM      5  O   UNL A   1      33.641  21.147  27.700  1.00  0.00    -0.274 OA
ATOM      6  H   UNL A   1      35.892  20.911  27.451  1.00  0.00     0.163 HD
BRANCH   4   7
ATOM      7  C   UNL A   1      33.536  22.718  25.802  1.00  0.00     0.105 C 
ATOM      8  C   UNL A   1      32.312  23.425  26.396  1.00  0.00     0.023 C 
BRANCH   7   9
ATOM      9  C   UNL A   1      33.062  22.089  24.481  1.00  0.00    -0.035 A 
ATOM     10  C   UNL A   1      32.452  22.903  23.511  1.00  0.00     0.004 A 
ATOM     11  C   UNL A   1      33.075  20.706  24.250  1.00  0.00     0.016 A 
ATOM     12  C   UNL A   1      31.863  22.347  22.372  1.00  0.00     0.001 A 
ATOM     13  C   UNL A   1      32.490  20.132  23.112  1.00  0.00     0.023 A 
ATOM     14  C   UNL A   1      31.880  20.966  22.173  1.00  0.00     0.012 A 
BRANCH  13  15
ATOM     15  C   UNL A   1      32.527  18.657  22.868  1.00  0.00     0.193 C 
ATOM     16  O   UNL A   1      32.163  18.196  21.790  1.00  0.00    -0.289 OA
BRANCH  15  17
ATOM     17  C   UNL A   1      33.060  17.725  23.892  1.00  0.00     0.022 A 
ATOM     18  C   UNL A   1      32.178  17.209  24.846  1.00  0.00     0.012 A 
ATOM     19  C   UNL A   1      34.403  17.329  23.886  1.00  0.00     0.012 A 
ATOM     20  C   UNL A   1      32.627  16.250  25.755  1.00  0.00     0.001 A 
ATOM     21  C   UNL A   1      34.843  16.359  24.789  1.00  0.00     0.001 A 
ATOM     22  C   UNL A   1      33.953  15.816  25.717  1.00  0.00     0.000 A 
ENDBRANCH  15  17
ENDBRANCH  13  15
ENDBRANCH   7   9
ENDBRANCH   4   7
ENDBRANCH   2   3
ENDBRANCH   1   2
BRANCH   1  23
ATOM     23  C   UNL A   1      37.792  19.975  24.745  1.00  0.00     0.023 C 
BRANCH  23  24
ATOM     24  C   UNL A   1      38.955  20.308  25.669  1.00  0.00     0.116 C 
BRANCH  24  25
ATOM     25  N   UNL A   1      39.891  19.204  25.814  1.00  0.00    -0.352 N 
ATOM     26  C   UNL A   1      41.235  19.235  26.089  1.00  0.00     0.251 C 
ATOM     27  H   UNL A   1      39.503  18.306  25.699  1.00  0.00     0.163 HD
ATOM     28  O   UNL A   1      41.898  18.203  26.033  1.00  0.00    -0.269 OA
BRANCH  26  29
ATOM     29  C   UNL A   1      41.888  20.519  26.418  1.00  0.00     0.039 A 
ATOM     30  C   UNL A   1      42.238  21.379  25.375  1.00  0.00     0.014 A 
ATOM     31  C   UNL A   1      42.142  20.880  27.744  1.00  0.00     0.014 A 
ATOM     32  C   UNL A   1      42.780  22.632  25.665  1.00  0.00     0.010 A 
ATOM     33  C   UNL A   1      42.611  22.157  28.034  1.00  0.00     0.010 A 
ATOM     34  C   UNL A   1      42.933  23.048  26.999  1.00  0.00    -0.014 A 
BRANCH  34  35
ATOM     35  C   UNL A   1      43.408  24.416  27.325  1.00  0.00     0.031 A 
ATOM     36  C   UNL A   1      42.434  25.473  27.771  1.00  0.00     0.074 A 
ATOM     37  C   UNL A   1      44.709  24.724  27.163  1.00  0.00     0.049 A 
ATOM     38  N   UNL A   1      42.657  26.733  28.051  1.00  0.00    -0.248 NA
ATOM     39  C   UNL A   1      41.024  25.071  27.896  1.00  0.00     0.031 C 
ATOM     40  C   UNL A   1      45.748  23.800  26.700  1.00  0.00     0.029 A 
ATOM     41  N   UNL A   1      45.382  25.903  27.364  1.00  0.00    -0.354 N 
ATOM     42  C   UNL A   1      41.418  27.273  28.373  1.00  0.00     0.074 A 
ATOM     43  C   UNL A   1      40.441  26.220  28.205  1.00  0.00     0.031 C 
ATOM     44  C   UNL A   1      46.929  24.439  26.681  1.00  0.00     0.029 A 
ATOM     45  C   UNL A   1      46.725  25.826  27.084  1.00  0.00     0.049 A 
ATOM     46  H   UNL A   1      44.944  26.726  27.679  1.00  0.00     0.167 HD
ATOM     47  C   UNL A   1      41.123  28.528  28.789  1.00  0.00     0.031 A 
ATOM     48  C   UNL A   1      47.686  26.769  27.137  1.00  0.00     0.031 A 
ATOM     49  C   UNL A   1      42.095  29.573  28.961  1.00  0.00     0.049 A 
ATOM     50  C   UNL A   1      47.324  28.161  27.575  1.00  0.00     0.074 A 
ATOM     51  C   UNL A   1      41.900  30.862  29.429  1.00  0.00     0.029 A 
ATOM     52  N   UNL A   1      43.445  29.455  28.667  1.00  0.00    -0.354 N 
ATOM     53  N   UNL A   1      46.159  28.634  27.947  1.00  0.00    -0.248 NA
ATOM     54  C   UNL A   1      48.414  29.146  27.612  1.00  0.00     0.031 C 
ATOM     55  C   UNL A   1      43.121  31.540  29.362  1.00  0.00     0.029 A 
ATOM     56  C   UNL A   1      44.088  30.655  28.916  1.00  0.00     0.049 A 
ATOM     57  H   UNL A   1      43.880  28.639  28.330  1.00  0.00     0.167 HD
ATOM     58  C   UNL A   1      46.383  29.961  28.292  1.00  0.00     0.074 A 
ATOM     59  C   UNL A   1      47.797  30.211  28.104  1.00  0.00     0.031 C 
ATOM     60  C   UNL A   1      45.496  30.889  28.727  1.00  0.00     0.031 A 
BRANCH  47  61
ATOM     61  C   UNL A   1      39.682  28.844  29.080  1.00  0.00    -0.014 A 
ATOM     62  C   UNL A   1      38.832  29.351  28.083  1.00  0.00     0.009 A 
ATOM     63  C   UNL A   1      39.152  28.580  30.353  1.00  0.00     0.009 A 
ATOM     64  C   UNL A   1      37.490  29.615  28.365  1.00  0.00     0.001 A 
ATOM     65  C   UNL A   1      37.803  28.817  30.623  1.00  0.00     0.001 A 
ATOM     66  C   UNL A   1      36.975  29.342  29.632  1.00  0.00     0.000 A 
ENDBRANCH  47  61
BRANCH  48  67
ATOM     67  C   UNL A   1      49.087  26.434  26.766  1.00  0.00    -0.014 A 
ATOM     68  C   UNL A   1      49.968  25.897  27.717  1.00  0.00     0.009 A 
ATOM     69  C   UNL A   1      49.558  26.671  25.466  1.00  0.00     0.009 A 
ATOM     70  C   UNL A   1      51.301  25.641  27.384  1.00  0.00     0.001 A 
ATOM     71  C   UNL A   1      50.881  26.382  25.125  1.00  0.00     0.001 A 
ATOM     72  C   UNL A   1      51.755  25.879  26.088  1.00  0.00     0.000 A 
ENDBRANCH  48  67
BRANCH  60  73
ATOM     73  C   UNL A   1      46.036  32.250  29.070  1.00  0.00    -0.014 A 
ATOM     74  C   UNL A   1      46.522  32.544  30.353  1.00  0.00     0.009 A 
ATOM     75  C   UNL A   1      46.094  33.242  28.077  1.00  0.00     0.009 A 
ATOM     76  C   UNL A   1      47.021  33.815  30.645  1.00  0.00     0.001 A 
ATOM     77  C   UNL A   1      46.625  34.500  28.363  1.00  0.00     0.001 A 
ATOM     78  C   UNL A   1      47.078  34.790  29.649  1.00  0.00     0.000 A 
ENDBRANCH  60  73
ENDBRANCH  34  35
ENDBRANCH  26  29
ENDBRANCH  24  25
ENDBRANCH  23  24
ENDBRANCH   1  23
TORSDOF 14
ENDMDL
MODEL 2
REMARK VINA RESULT:     -11.5      6.115     10.379
REMARK SMILES C[C@@H](C(=O)NCCCCNC(=O)c1ccc(-c2c3nc(c(-c4ccccc4)c4ccc([nH]4)c(-c4ccccc4)c4nc(c(-c5ccccc5)c5ccc2[nH]5)C=C4)C=C3)cc1)c1cccc(C(=O)c2ccccc2)c1
REMARK SMILES IDX 7 1 6 2 5 3 3 4 4 5 2 7 1 8 61 9 62 10 74 11 63 12 65 13
REMARK SMILES IDX 64 14 66 15 67 16 68 17 69 18 73 19 70 20 72 21 71 22 8 23
REMARK SMILES IDX 9 24 10 25 11 26 12 28 13 29 14 30 60 31 15 32 59 33 16 34
REMARK SMILES IDX 17 35 18 36 53 37 19 38 58 39 52 40 54 41 20 42 57 43 51 44
REMARK SMILES IDX 50 45 21 47 43 48 28 49 42 50 29 51 32 52 41 53 55 54 30 55
REMARK SMILES IDX 31 56 40 58 56 59 33 60 22 61 23 62 27 63 24 64 26 65 25 66
REMARK SMILES IDX 44 67 45 68 49 69 46 70 48 71 47 72 34 73 35 74 39 75 36 76
REMARK SMILES IDX 38 77 37 78
REMARK H PARENT 5 6 10 27 54 46 32 57
REMARK Flexibility Score: inf
ROOT
ATOM      1  C   UNL A   1      31.432  30.533  25.771  1.00  0.00     0.023 C 
ENDROOT
BRANCH   1   2
ATOM      2  C   UNL A   1      32.700  29.724  25.491  1.00  0.00     0.116 C 
BRANCH   2   3
ATOM      3  N   UNL A   1      33.065  29.779  24.094  1.00  0.00    -0.356 N 
ATOM      4  C   UNL A   1      33.059  28.829  23.118  1.00  0.00     0.227 C 
ATOM      5  O   UNL A   1      33.380  29.252  22.006  1.00  0.00    -0.274 OA
ATOM      6  H   UNL A   1      33.375  30.663  23.793  1.00  0.00     0.163 HD
BRANCH   4   7
ATOM      7  C   UNL A   1      32.616  27.376  23.412  1.00  0.00     0.105 C 
ATOM      8  C   UNL A   1      32.990  26.406  22.284  1.00  0.00     0.023 C 
BRANCH   7   9
ATOM      9  C   UNL A   1      31.120  27.150  23.684  1.00  0.00    -0.035 A 
ATOM     10  C   UNL A   1      30.687  25.903  24.166  1.00  0.00     0.004 A 
ATOM     11  C   UNL A   1      30.134  28.087  23.337  1.00  0.00     0.016 A 
ATOM     12  C   UNL A   1      29.326  25.604  24.272  1.00  0.00     0.001 A 
ATOM     13  C   UNL A   1      28.765  27.804  23.438  1.00  0.00     0.023 A 
ATOM     14  C   UNL A   1      28.367  26.550  23.908  1.00  0.00     0.012 A 
BRANCH  13  15
ATOM     15  C   UNL A   1      27.724  28.817  23.082  1.00  0.00     0.193 C 
ATOM     16  O   UNL A   1      26.531  28.536  23.155  1.00  0.00    -0.289 OA
BRANCH  15  17
ATOM     17  C   UNL A   1      28.102  30.198  22.695  1.00  0.00     0.022 A 
ATOM     18  C   UNL A   1      28.080  30.538  21.339  1.00  0.00     0.012 A 
ATOM     19  C   UNL A   1      28.431  31.160  23.658  1.00  0.00     0.012 A 
ATOM     20  C   UNL A   1      28.328  31.856  20.953  1.00  0.00     0.001 A 
ATOM     21  C   UNL A   1      28.664  32.480  23.267  1.00  0.00     0.001 A 
ATOM     22  C   UNL A   1      28.604  32.828  21.917  1.00  0.00     0.000 A 
ENDBRANCH  15  17
ENDBRANCH  13  15
ENDBRANCH   7   9
ENDBRANCH   4   7
ENDBRANCH   2   3
ENDBRANCH   1   2
BRANCH   1  23
ATOM     23  C   UNL A   1      31.522  31.494  26.961  1.00  0.00     0.023 C 
BRANCH  23  24
ATOM     24  C   UNL A   1      32.742  32.405  26.973  1.00  0.00     0.116 C 
BRANCH  24  25
ATOM     25  N   UNL A   1      32.442  33.736  27.477  1.00  0.00    -0.352 N 
ATOM     26  C   UNL A   1      33.082  34.460  28.451  1.00  0.00     0.251 C 
ATOM     27  H   UNL A   1      31.671  34.181  27.057  1.00  0.00     0.163 HD
ATOM     28  O   UNL A   1      32.600  35.518  28.848  1.00  0.00    -0.269 OA
BRANCH  26  29
ATOM     29  C   UNL A   1      34.333  33.947  29.046  1.00  0.00     0.039 A 
ATOM     30  C   UNL A   1      34.251  33.133  30.179  1.00  0.00     0.014 A 
ATOM     31  C   UNL A   1      35.576  34.252  28.486  1.00  0.00     0.014 A 
ATOM     32  C   UNL A   1      35.413  32.569  30.709  1.00  0.00     0.010 A 
ATOM     33  C   UNL A   1      36.723  33.629  28.969  1.00  0.00     0.010 A 
ATOM     34  C   UNL A   1      36.653  32.779  30.084  1.00  0.00    -0.014 A 
BRANCH  34  35
ATOM     35  C   UNL A   1      37.882  32.102  30.571  1.00  0.00     0.031 A 
ATOM     36  C   UNL A   1      38.688  32.701  31.690  1.00  0.00     0.074 A 
ATOM     37  C   UNL A   1      38.303  30.975  29.965  1.00  0.00     0.049 A 
ATOM     38  N   UNL A   1      39.811  32.279  32.215  1.00  0.00    -0.248 NA
ATOM     39  C   UNL A   1      38.181  33.950  32.284  1.00  0.00     0.031 C 
ATOM     40  C   UNL A   1      37.632  30.313  28.843  1.00  0.00     0.029 A 
ATOM     41  N   UNL A   1      39.402  30.188  30.203  1.00  0.00    -0.354 N 
ATOM     42  C   UNL A   1      40.149  33.213  33.187  1.00  0.00     0.074 A 
ATOM     43  C   UNL A   1      39.141  34.250  33.146  1.00  0.00     0.031 C 
ATOM     44  C   UNL A   1      38.317  29.207  28.511  1.00  0.00     0.029 A 
ATOM     45  C   UNL A   1      39.498  29.105  29.362  1.00  0.00     0.049 A 
ATOM     46  H   UNL A   1      40.060  30.381  30.909  1.00  0.00     0.167 HD
ATOM     47  C   UNL A   1      41.194  33.199  34.047  1.00  0.00     0.031 A 
ATOM     48  C   UNL A   1      40.436  28.142  29.278  1.00  0.00     0.031 A 
ATOM     49  C   UNL A   1      42.194  32.166  34.092  1.00  0.00     0.049 A 
ATOM     50  C   UNL A   1      41.600  28.168  30.230  1.00  0.00     0.074 A 
ATOM     51  C   UNL A   1      43.261  32.037  34.964  1.00  0.00     0.029 A 
ATOM     52  N   UNL A   1      42.254  31.087  33.223  1.00  0.00    -0.354 N 
ATOM     53  N   UNL A   1      41.864  29.018  31.191  1.00  0.00    -0.248 NA
ATOM     54  C   UNL A   1      42.591  27.091  30.090  1.00  0.00     0.031 C 
ATOM     55  C   UNL A   1      44.000  30.913  34.587  1.00  0.00     0.029 A 
ATOM     56  C   UNL A   1      43.357  30.304  33.522  1.00  0.00     0.049 A 
ATOM     57  H   UNL A   1      41.610  30.905  32.502  1.00  0.00     0.167 HD
ATOM     58  C   UNL A   1      43.031  28.562  31.790  1.00  0.00     0.074 A 
ATOM     59  C   UNL A   1      43.413  27.351  31.096  1.00  0.00     0.031 C 
ATOM     60  C   UNL A   1      43.724  29.100  32.824  1.00  0.00     0.031 A 
BRANCH  47  61
ATOM     61  C   UNL A   1      41.317  34.346  35.013  1.00  0.00    -0.014 A 
ATOM     62  C   UNL A   1      42.044  35.502  34.683  1.00  0.00     0.009 A 
ATOM     63  C   UNL A   1      40.649  34.294  36.247  1.00  0.00     0.009 A 
ATOM     64  C   UNL A   1      42.126  36.567  35.582  1.00  0.00     0.001 A 
ATOM     65  C   UNL A   1      40.708  35.373  37.131  1.00  0.00     0.001 A 
ATOM     66  C   UNL A   1      41.453  36.505  36.802  1.00  0.00     0.000 A 
ENDBRANCH  47  61
BRANCH  48  67
ATOM     67  C   UNL A   1      40.318  27.067  28.257  1.00  0.00    -0.014 A 
ATOM     68  C   UNL A   1      39.640  25.874  28.552  1.00  0.00     0.009 A 
ATOM     69  C   UNL A   1      40.903  27.217  26.991  1.00  0.00     0.009 A 
ATOM     70  C   UNL A   1      39.583  24.841  27.613  1.00  0.00     0.001 A 
ATOM     71  C   UNL A   1      40.816  26.197  26.042  1.00  0.00     0.001 A 
ATOM     72  C   UNL A   1      40.167  25.004  26.358  1.00  0.00     0.000 A 
ENDBRANCH  48  67
BRANCH  60  73
ATOM     73  C   UNL A   1      44.944  28.356  33.295  1.00  0.00    -0.014 A 
ATOM     74  C   UNL A   1      44.857  27.347  34.266  1.00  0.00     0.009 A 
ATOM     75  C   UNL A   1      46.194  28.648  32.727  1.00  0.00     0.009 A 
ATOM     76  C   UNL A   1      46.005  26.671  34.684  1.00  0.00     0.001 A 
ATOM     77  C   UNL A   1      47.334  27.947  33.122  1.00  0.00     0.001 A 
ATOM     78  C   UNL A   1      47.241  26.966  34.108  1.00  0.00     0.000 A 
ENDBRANCH  60  73
ENDBRANCH  34  35
ENDBRANCH  26  29
ENDBRANCH  24  25
ENDBRANCH  23  24
ENDBRANCH   1  23
TORSDOF 14
ENDMDL
MODEL 3
REMARK VINA RESULT:     -11.4      3.388      7.606
REMARK SMILES C[C@@H](C(=O)NCCCCNC(=O)c1ccc(-c2c3nc(c(-c4ccccc4)c4ccc([nH]4)c(-c4ccccc4)c4nc(c(-c5ccccc5)c5ccc2[nH]5)C=C4)C=C3)cc1)c1cccc(C(=O)c2ccccc2)c1
REMARK SMILES IDX 7 1 6 2 5 3 3 4 4 5 2 7 1 8 61 9 62 10 74 11 63 12 65 13
REMARK SMILES IDX 64 14 66 15 67 16 68 17 69 18 73 19 70 20 72 21 71 22 8 23
REMARK SMILES IDX 9 24 10 25 11 26 12 28 13 29 14 30 60 31 15 32 59 33 16 34
REMARK SMILES IDX 17 35 18 36 53 37 19 38 58 39 52 40 54 41 20 42 57 43 51 44
REMARK SMILES IDX 50 45 21 47 43 48 28 49 42 50 29 51 32 52 41 53 55 54 30 55
REMARK SMILES IDX 31 56 40 58 56 59 33 60 22 61 23 62 27 63 24 64 26 65 25 66
REMARK SMILES IDX 44 67 45 68 49 69 46 70 48 71 47 72 34 73 35 74 39 75 36 76
REMARK SMILES IDX 38 77 37 78
REMARK H PARENT 5 6 10 27 54 46 32 57
REMARK Flexibility Score: inf
ROOT
ATOM      1  C   UNL A   1      33.270  29.316  24.752  1.00  0.00     0.023 C 
ENDROOT
BRANCH   1   2
ATOM      2  C   UNL A   1      33.314  28.677  23.362  1.00  0.00     0.116 C 
BRANCH   2   3
ATOM      3  N   UNL A   1      32.093  28.920  22.629  1.00  0.00    -0.356 N 
ATOM      4  C   UNL A   1      30.932  28.213  22.543  1.00  0.00     0.227 C 
ATOM      5  O   UNL A   1      30.063  28.759  21.861  1.00  0.00    -0.274 OA
ATOM      6  H   UNL A   1      32.101  29.746  22.095  1.00  0.00     0.163 HD
BRANCH   4   7
ATOM      7  C   UNL A   1      30.743  26.879  23.305  1.00  0.00     0.105 C 
ATOM      8  C   UNL A   1      30.575  27.083  24.816  1.00  0.00     0.023 C 
BRANCH   7   9
ATOM      9  C   UNL A   1      31.850  25.825  23.141  1.00  0.00    -0.035 A 
ATOM     10  C   UNL A   1      32.251  25.443  21.849  1.00  0.00     0.004 A 
ATOM     11  C   UNL A   1      32.387  25.111  24.222  1.00  0.00     0.016 A 
ATOM     12  C   UNL A   1      33.134  24.377  21.655  1.00  0.00     0.001 A 
ATOM     13  C   UNL A   1      33.274  24.040  24.046  1.00  0.00     0.023 A 
ATOM     14  C   UNL A   1      33.643  23.676  22.749  1.00  0.00     0.012 A 
BRANCH  13  15
ATOM     15  C   UNL A   1      33.853  23.299  25.208  1.00  0.00     0.193 C 
ATOM     16  O   UNL A   1      33.134  22.938  26.136  1.00  0.00    -0.289 OA
BRANCH  15  17
ATOM     17  C   UNL A   1      35.289  22.928  25.241  1.00  0.00     0.022 A 
ATOM     18  C   UNL A   1      36.224  23.916  25.563  1.00  0.00     0.012 A 
ATOM     19  C   UNL A   1      35.706  21.613  25.002  1.00  0.00     0.012 A 
ATOM     20  C   UNL A   1      37.570  23.574  25.705  1.00  0.00     0.001 A 
ATOM     21  C   UNL A   1      37.051  21.274  25.160  1.00  0.00     0.001 A 
ATOM     22  C   UNL A   1      37.980  22.253  25.518  1.00  0.00     0.000 A 
ENDBRANCH  15  17
ENDBRANCH  13  15
ENDBRANCH   7   9
ENDBRANCH   4   7
ENDBRANCH   2   3
ENDBRANCH   1   2
BRANCH   1  23
ATOM     23  C   UNL A   1      33.969  28.518  25.858  1.00  0.00     0.023 C 
BRANCH  23  24
ATOM     24  C   UNL A   1      33.449  28.764  27.268  1.00  0.00     0.116 C 
BRANCH  24  25
ATOM     25  N   UNL A   1      33.495  30.169  27.645  1.00  0.00    -0.352 N 
ATOM     26  C   UNL A   1      34.516  30.878  28.228  1.00  0.00     0.251 C 
ATOM     27  H   UNL A   1      32.678  30.683  27.454  1.00  0.00     0.163 HD
ATOM     28  O   UNL A   1      34.325  32.029  28.608  1.00  0.00    -0.269 OA
BRANCH  26  29
ATOM     29  C   UNL A   1      35.834  30.240  28.427  1.00  0.00     0.039 A 
ATOM     30  C   UNL A   1      36.750  30.251  27.372  1.00  0.00     0.014 A 
ATOM     31  C   UNL A   1      36.171  29.649  29.647  1.00  0.00     0.014 A 
ATOM     32  C   UNL A   1      38.030  29.729  27.564  1.00  0.00     0.010 A 
ATOM     33  C   UNL A   1      37.470  29.198  29.861  1.00  0.00     0.010 A 
ATOM     34  C   UNL A   1      38.414  29.236  28.823  1.00  0.00    -0.014 A 
BRANCH  34  35
ATOM     35  C   UNL A   1      39.804  28.775  29.073  1.00  0.00     0.031 A 
ATOM     36  C   UNL A   1      40.814  29.705  29.687  1.00  0.00     0.074 A 
ATOM     37  C   UNL A   1      40.171  27.536  28.692  1.00  0.00     0.049 A 
ATOM     38  N   UNL A   1      42.083  29.495  29.935  1.00  0.00    -0.248 NA
ATOM     39  C   UNL A   1      40.346  31.053  30.050  1.00  0.00     0.031 C 
ATOM     40  C   UNL A   1      39.296  26.552  28.051  1.00  0.00     0.029 A 
ATOM     41  N   UNL A   1      41.380  26.894  28.784  1.00  0.00    -0.354 N 
ATOM     42  C   UNL A   1      42.564  30.684  30.469  1.00  0.00     0.074 A 
ATOM     43  C   UNL A   1      41.467  31.627  30.463  1.00  0.00     0.031 C 
ATOM     44  C   UNL A   1      39.990  25.422  27.834  1.00  0.00     0.029 A 
ATOM     45  C   UNL A   1      41.366  25.617  28.277  1.00  0.00     0.049 A 
ATOM     46  H   UNL A   1      42.183  27.309  29.176  1.00  0.00     0.167 HD
ATOM     47  C   UNL A   1      43.804  30.961  30.939  1.00  0.00     0.031 A 
ATOM     48  C   UNL A   1      42.353  24.706  28.171  1.00  0.00     0.031 A 
ATOM     49  C   UNL A   1      44.894  30.022  30.950  1.00  0.00     0.049 A 
ATOM     50  C   UNL A   1      43.726  25.051  28.677  1.00  0.00     0.074 A 
ATOM     51  C   UNL A   1      46.172  30.193  31.454  1.00  0.00     0.029 A 
ATOM     52  N   UNL A   1      44.838  28.740  30.428  1.00  0.00    -0.354 N 
ATOM     53  N   UNL A   1      44.145  26.154  29.246  1.00  0.00    -0.248 NA
ATOM     54  C   UNL A   1      44.762  24.017  28.533  1.00  0.00     0.031 C 
ATOM     55  C   UNL A   1      46.906  29.035  31.185  1.00  0.00     0.029 A 
ATOM     56  C   UNL A   1      46.067  28.119  30.572  1.00  0.00     0.049 A 
ATOM     57  H   UNL A   1      44.043  28.332  30.015  1.00  0.00     0.167 HD
ATOM     58  C   UNL A   1      45.481  25.936  29.558  1.00  0.00     0.074 A 
ATOM     59  C   UNL A   1      45.797  24.589  29.131  1.00  0.00     0.031 C 
ATOM     60  C   UNL A   1      46.367  26.777  30.146  1.00  0.00     0.031 A 
BRANCH  47  61
ATOM     61  C   UNL A   1      44.053  32.344  31.475  1.00  0.00    -0.014 A 
ATOM     62  C   UNL A   1      43.912  32.631  32.843  1.00  0.00     0.009 A 
ATOM     63  C   UNL A   1      44.488  33.361  30.610  1.00  0.00     0.009 A 
ATOM     64  C   UNL A   1      44.172  33.915  33.327  1.00  0.00     0.001 A 
ATOM     65  C   UNL A   1      44.776  34.635  31.102  1.00  0.00     0.001 A 
ATOM     66  C   UNL A   1      44.610  34.914  32.458  1.00  0.00     0.000 A 
ENDBRANCH  47  61
BRANCH  48  67
ATOM     67  C   UNL A   1      42.083  23.375  27.563  1.00  0.00    -0.014 A 
ATOM     68  C   UNL A   1      41.519  22.342  28.327  1.00  0.00     0.009 A 
ATOM     69  C   UNL A   1      42.412  23.123  26.222  1.00  0.00     0.009 A 
ATOM     70  C   UNL A   1      41.323  21.075  27.772  1.00  0.00     0.001 A 
ATOM     71  C   UNL A   1      42.184  21.866  25.659  1.00  0.00     0.001 A 
ATOM     72  C   UNL A   1      41.652  20.839  26.438  1.00  0.00     0.000 A 
ENDBRANCH  48  67
BRANCH  60  73
ATOM     73  C   UNL A   1      47.752  26.249  30.401  1.00  0.00    -0.014 A 
ATOM     74  C   UNL A   1      48.117  25.724  31.650  1.00  0.00     0.009 A 
ATOM     75  C   UNL A   1      48.693  26.243  29.360  1.00  0.00     0.009 A 
ATOM     76  C   UNL A   1      49.409  25.238  31.861  1.00  0.00     0.001 A 
ATOM     77  C   UNL A   1      49.973  25.725  29.563  1.00  0.00     0.001 A 
ATOM     78  C   UNL A   1      50.333  25.233  30.816  1.00  0.00     0.000 A 
ENDBRANCH  60  73
ENDBRANCH  34  35
ENDBRANCH  26  29
ENDBRANCH  24  25
ENDBRANCH  23  24
ENDBRANCH   1  23
TORSDOF 14
ENDMDL
