MODEL 1
REMARK VINA RESULT:     -13.5      0.000      0.000
REMARK SMILES O=C(NCCCCNC(=O)c1cc([C@@H]2C=NN=C2c2ccc(F)cc2)c2c(ccc3ccccc32)n1)c1ccc(-c2c3nc(c(-c4ccccc4)c4ccc([nH]4)c(-c4ccccc4)c4nc(c(-c5ccccc5)c5ccc2[nH]5)C=C4)C=C3)cc1
REMARK SMILES IDX 5 1 4 2 3 3 1 4 2 5 37 7 38 8 84 9 39 10 83 11 40 12 41 13
REMARK SMILES IDX 42 14 77 15 43 16 82 17 76 18 78 19 44 20 81 21 75 22 74 23
REMARK SMILES IDX 45 25 67 26 52 27 66 28 53 29 56 30 65 31 79 32 54 33 55 34
REMARK SMILES IDX 64 36 80 37 57 38 46 39 47 40 51 41 48 42 50 43 49 44 68 45
REMARK SMILES IDX 69 46 73 47 70 48 72 49 71 50 58 51 59 52 63 53 60 54 62 55
REMARK SMILES IDX 61 56 6 57 7 58 8 59 9 60 10 62 11 63 12 64 36 65 13 66
REMARK SMILES IDX 27 67 26 68 28 69 35 70 29 71 30 72 34 73 31 74 33 75 32 76
REMARK SMILES IDX 14 77 15 78 18 79 16 80 17 81 19 82 20 83 25 84 21 85 24 86
REMARK SMILES IDX 22 87 23 88
REMARK H PARENT 3 6 78 24 56 35 8 61
REMARK Flexibility Score: inf
ROOT
ATOM      1  C   UNL A   1      41.906  22.432  28.587  1.00  0.00     0.023 C 
ENDROOT
BRANCH   1   2
ATOM      2  C   UNL A   1      43.325  22.495  29.155  1.00  0.00     0.116 C 
BRANCH   2   3
ATOM      3  N   UNL A   1      44.304  23.137  28.301  1.00  0.00    -0.352 N 
ATOM      4  O   UNL A   1      45.584  24.634  27.290  1.00  0.00    -0.269 OA
ATOM      5  C   UNL A   1      44.572  24.438  27.969  1.00  0.00     0.251 C 
ATOM      6  H   UNL A   1      44.908  22.497  27.862  1.00  0.00     0.163 HD
BRANCH   5   7
ATOM      7  C   UNL A   1      43.703  25.597  28.308  1.00  0.00     0.039 A 
ATOM      8  C   UNL A   1      42.760  26.178  27.458  1.00  0.00     0.014 A 
ATOM      9  C   UNL A   1      43.878  26.150  29.588  1.00  0.00     0.014 A 
ATOM     10  C   UNL A   1      42.110  27.356  27.812  1.00  0.00     0.010 A 
ATOM     11  C   UNL A   1      43.194  27.299  29.970  1.00  0.00     0.010 A 
ATOM     12  C   UNL A   1      42.350  27.934  29.056  1.00  0.00    -0.014 A 
BRANCH  12  13
ATOM     13  C   UNL A   1      41.649  29.176  29.389  1.00  0.00     0.031 A 
ATOM     14  C   UNL A   1      42.414  30.455  29.261  1.00  0.00     0.074 A 
ATOM     15  C   UNL A   1      40.320  29.201  29.609  1.00  0.00     0.049 A 
ATOM     16  N   UNL A   1      42.450  31.468  30.072  1.00  0.00    -0.248 NA
ATOM     17  C   UNL A   1      43.251  30.621  28.061  1.00  0.00     0.031 C 
ATOM     18  C   UNL A   1      39.376  28.089  29.456  1.00  0.00     0.029 A 
ATOM     19  N   UNL A   1      39.509  30.271  29.861  1.00  0.00    -0.354 N 
ATOM     20  C   UNL A   1      43.193  32.456  29.423  1.00  0.00     0.074 A 
ATOM     21  C   UNL A   1      43.719  31.857  28.223  1.00  0.00     0.031 C 
ATOM     22  C   UNL A   1      38.126  28.587  29.357  1.00  0.00     0.029 A 
ATOM     23  C   UNL A   1      38.178  30.024  29.564  1.00  0.00     0.049 A 
ATOM     24  H   UNL A   1      39.837  31.129  30.217  1.00  0.00     0.167 HD
ATOM     25  C   UNL A   1      43.212  33.760  29.812  1.00  0.00     0.031 A 
ATOM     26  C   UNL A   1      37.196  30.939  29.393  1.00  0.00     0.031 A 
ATOM     27  C   UNL A   1      42.804  33.955  31.171  1.00  0.00     0.049 A 
ATOM     28  C   UNL A   1      37.629  32.218  29.991  1.00  0.00     0.074 A 
ATOM     29  C   UNL A   1      43.272  33.554  32.406  1.00  0.00     0.029 A 
ATOM     30  N   UNL A   1      41.562  34.489  31.403  1.00  0.00    -0.354 N 
ATOM     31  N   UNL A   1      37.771  32.416  31.268  1.00  0.00    -0.248 NA
ATOM     32  C   UNL A   1      38.240  33.221  29.133  1.00  0.00     0.031 C 
ATOM     33  C   UNL A   1      42.112  33.437  33.226  1.00  0.00     0.029 A 
ATOM     34  C   UNL A   1      41.013  33.769  32.432  1.00  0.00     0.049 A 
ATOM     35  H   UNL A   1      41.146  35.243  30.924  1.00  0.00     0.167 HD
ATOM     36  C   UNL A   1      38.813  33.324  31.374  1.00  0.00     0.074 A 
ATOM     37  C   UNL A   1      38.963  33.884  30.037  1.00  0.00     0.031 C 
ATOM     38  C   UNL A   1      39.638  33.325  32.463  1.00  0.00     0.031 A 
BRANCH  25  39
ATOM     39  C   UNL A   1      43.318  34.909  28.840  1.00  0.00    -0.014 A 
ATOM     40  C   UNL A   1      42.150  35.439  28.263  1.00  0.00     0.009 A 
ATOM     41  C   UNL A   1      44.544  35.302  28.270  1.00  0.00     0.009 A 
ATOM     42  C   UNL A   1      42.209  36.288  27.150  1.00  0.00     0.001 A 
ATOM     43  C   UNL A   1      44.607  36.183  27.186  1.00  0.00     0.001 A 
ATOM     44  C   UNL A   1      43.437  36.658  26.612  1.00  0.00     0.000 A 
ENDBRANCH  25  39
BRANCH  26  45
ATOM     45  C   UNL A   1      36.024  30.828  28.501  1.00  0.00    -0.014 A 
ATOM     46  C   UNL A   1      35.800  29.675  27.738  1.00  0.00     0.009 A 
ATOM     47  C   UNL A   1      34.993  31.786  28.566  1.00  0.00     0.009 A 
ATOM     48  C   UNL A   1      34.583  29.487  27.068  1.00  0.00     0.001 A 
ATOM     49  C   UNL A   1      33.785  31.604  27.891  1.00  0.00     0.001 A 
ATOM     50  C   UNL A   1      33.575  30.448  27.149  1.00  0.00     0.000 A 
ENDBRANCH  26  45
BRANCH  38  51
ATOM     51  C   UNL A   1      39.232  32.495  33.654  1.00  0.00    -0.014 A 
ATOM     52  C   UNL A   1      38.387  32.999  34.659  1.00  0.00     0.009 A 
ATOM     53  C   UNL A   1      39.566  31.133  33.686  1.00  0.00     0.009 A 
ATOM     54  C   UNL A   1      37.919  32.174  35.684  1.00  0.00     0.001 A 
ATOM     55  C   UNL A   1      39.081  30.303  34.701  1.00  0.00     0.001 A 
ATOM     56  C   UNL A   1      38.262  30.825  35.701  1.00  0.00     0.000 A 
ENDBRANCH  38  51
ENDBRANCH  12  13
ENDBRANCH   5   7
ENDBRANCH   2   3
ENDBRANCH   1   2
BRANCH   1  57
ATOM     57  C   UNL A   1      41.748  21.640  27.289  1.00  0.00     0.023 C 
BRANCH  57  58
ATOM     58  C   UNL A   1      40.947  22.326  26.193  1.00  0.00     0.116 C 
BRANCH  58  59
ATOM     59  N   UNL A   1      40.525  23.674  26.539  1.00  0.00    -0.351 N 
ATOM     60  C   UNL A   1      39.256  24.220  26.503  1.00  0.00     0.269 C 
ATOM     61  H   UNL A   1      41.240  24.280  26.842  1.00  0.00     0.163 HD
ATOM     62  O   UNL A   1      39.093  25.394  26.805  1.00  0.00    -0.268 OA
BRANCH  60  63
ATOM     63  C   UNL A   1      38.104  23.361  26.102  1.00  0.00     0.129 A 
ATOM     64  C   UNL A   1      36.813  23.804  26.271  1.00  0.00     0.039 A 
ATOM     65  N   UNL A   1      38.392  22.124  25.685  1.00  0.00    -0.243 NA
ATOM     66  C   UNL A   1      35.732  22.907  26.104  1.00  0.00    -0.021 A 
ATOM     67  C   UNL A   1      37.386  21.290  25.418  1.00  0.00     0.072 A 
ATOM     68  C   UNL A   1      35.993  21.580  25.572  1.00  0.00     0.012 A 
ATOM     69  C   UNL A   1      37.821  20.057  24.989  1.00  0.00     0.029 A 
ATOM     70  C   UNL A   1      35.064  20.502  25.181  1.00  0.00    -0.009 A 
ATOM     71  C   UNL A   1      36.941  19.033  24.680  1.00  0.00     0.011 A 
ATOM     72  C   UNL A   1      35.575  19.239  24.765  1.00  0.00    -0.018 A 
ATOM     73  C   UNL A   1      33.654  20.591  25.129  1.00  0.00     0.009 A 
ATOM     74  C   UNL A   1      34.733  18.171  24.409  1.00  0.00     0.009 A 
ATOM     75  C   UNL A   1      32.813  19.528  24.777  1.00  0.00     0.001 A 
ATOM     76  C   UNL A   1      33.353  18.308  24.425  1.00  0.00     0.001 A 
BRANCH  66  77
ATOM     77  C   UNL A   1      34.446  23.477  26.667  1.00  0.00     0.115 C 
ATOM     78  C   UNL A   1      33.806  22.703  27.764  1.00  0.00     0.123 C 
ATOM     79  C   UNL A   1      33.224  23.744  25.851  1.00  0.00     0.083 C 
ATOM     80  N   UNL A   1      32.516  22.681  27.675  1.00  0.00    -0.162 NA
ATOM     81  N   UNL A   1      32.142  23.355  26.468  1.00  0.00    -0.154 NA
BRANCH  79  82
ATOM     82  C   UNL A   1      33.194  24.490  24.576  1.00  0.00    -0.001 A 
ATOM     83  C   UNL A   1      32.809  23.790  23.422  1.00  0.00     0.013 A 
ATOM     84  C   UNL A   1      33.554  25.838  24.478  1.00  0.00     0.013 A 
ATOM     85  C   UNL A   1      32.765  24.438  22.187  1.00  0.00     0.040 A 
ATOM     86  C   UNL A   1      33.511  26.482  23.238  1.00  0.00     0.040 A 
ATOM     87  C   UNL A   1      33.114  25.780  22.107  1.00  0.00     0.123 A 
ATOM     88  F   UNL A   1      33.077  26.403  20.922  1.00  0.00    -0.207 F 
ENDBRANCH  79  82
ENDBRANCH  66  77
ENDBRANCH  60  63
ENDBRANCH  58  59
ENDBRANCH  57  58
ENDBRANCH   1  57
TORSDOF 13
ENDMDL
MODEL 2
REMARK VINA RESULT:     -13.5      3.328      9.350
REMARK SMILES O=C(NCCCCNC(=O)c1cc([C@@H]2C=NN=C2c2ccc(F)cc2)c2c(ccc3ccccc32)n1)c1ccc(-c2c3nc(c(-c4ccccc4)c4ccc([nH]4)c(-c4ccccc4)c4nc(c(-c5ccccc5)c5ccc2[nH]5)C=C4)C=C3)cc1
REMARK SMILES IDX 5 1 4 2 3 3 1 4 2 5 37 7 38 8 84 9 39 10 83 11 40 12 41 13
REMARK SMILES IDX 42 14 77 15 43 16 82 17 76 18 78 19 44 20 81 21 75 22 74 23
REMARK SMILES IDX 45 25 67 26 52 27 66 28 53 29 56 30 65 31 79 32 54 33 55 34
REMARK SMILES IDX 64 36 80 37 57 38 46 39 47 40 51 41 48 42 50 43 49 44 68 45
REMARK SMILES IDX 69 46 73 47 70 48 72 49 71 50 58 51 59 52 63 53 60 54 62 55
REMARK SMILES IDX 61 56 6 57 7 58 8 59 9 60 10 62 11 63 12 64 36 65 13 66
REMARK SMILES IDX 27 67 26 68 28 69 35 70 29 71 30 72 34 73 31 74 33 75 32 76
REMARK SMILES IDX 14 77 15 78 18 79 16 80 17 81 19 82 20 83 25 84 21 85 24 86
REMARK SMILES IDX 22 87 23 88
REMARK H PARENT 3 6 78 24 56 35 8 61
REMARK Flexibility Score: inf
ROOT
ATOM      1  C   UNL A   1      36.849  33.383  28.424  1.00  0.00     0.023 C 
ENDROOT
BRANCH   1   2
ATOM      2  C   UNL A   1      37.892  34.091  29.291  1.00  0.00     0.116 C 
BRANCH   2   3
ATOM      3  N   UNL A   1      37.678  33.989  30.720  1.00  0.00    -0.352 N 
ATOM      4  O   UNL A   1      37.874  33.483  32.866  1.00  0.00    -0.269 OA
ATOM      5  C   UNL A   1      38.211  33.210  31.712  1.00  0.00     0.251 C 
ATOM      6  H   UNL A   1      36.998  34.619  31.052  1.00  0.00     0.163 HD
BRANCH   5   7
ATOM      7  C   UNL A   1      39.097  32.037  31.484  1.00  0.00     0.039 A 
ATOM      8  C   UNL A   1      40.459  32.098  31.184  1.00  0.00     0.014 A 
ATOM      9  C   UNL A   1      38.486  30.774  31.561  1.00  0.00     0.014 A 
ATOM     10  C   UNL A   1      41.165  30.950  30.833  1.00  0.00     0.010 A 
ATOM     11  C   UNL A   1      39.198  29.617  31.261  1.00  0.00     0.010 A 
ATOM     12  C   UNL A   1      40.526  29.713  30.842  1.00  0.00    -0.014 A 
BRANCH  12  13
ATOM     13  C   UNL A   1      41.302  28.531  30.462  1.00  0.00     0.031 A 
ATOM     14  C   UNL A   1      42.213  27.943  31.493  1.00  0.00     0.074 A 
ATOM     15  C   UNL A   1      41.069  27.872  29.310  1.00  0.00     0.049 A 
ATOM     16  N   UNL A   1      43.431  27.516  31.355  1.00  0.00    -0.248 NA
ATOM     17  C   UNL A   1      41.687  27.818  32.862  1.00  0.00     0.031 C 
ATOM     18  C   UNL A   1      39.995  28.130  28.344  1.00  0.00     0.029 A 
ATOM     19  N   UNL A   1      41.647  26.727  28.840  1.00  0.00    -0.354 N 
ATOM     20  C   UNL A   1      43.777  26.935  32.577  1.00  0.00     0.074 A 
ATOM     21  C   UNL A   1      42.694  27.211  33.487  1.00  0.00     0.031 C 
ATOM     22  C   UNL A   1      39.835  27.040  27.567  1.00  0.00     0.029 A 
ATOM     23  C   UNL A   1      40.868  26.073  27.899  1.00  0.00     0.049 A 
ATOM     24  H   UNL A   1      42.526  26.400  29.141  1.00  0.00     0.167 HD
ATOM     25  C   UNL A   1      44.854  26.120  32.744  1.00  0.00     0.031 A 
ATOM     26  C   UNL A   1      40.989  24.790  27.488  1.00  0.00     0.031 A 
ATOM     27  C   UNL A   1      45.846  26.270  31.722  1.00  0.00     0.049 A 
ATOM     28  C   UNL A   1      42.333  24.298  27.854  1.00  0.00     0.074 A 
ATOM     29  C   UNL A   1      46.659  27.295  31.284  1.00  0.00     0.029 A 
ATOM     30  N   UNL A   1      45.954  25.283  30.776  1.00  0.00    -0.354 N 
ATOM     31  N   UNL A   1      43.437  24.714  27.308  1.00  0.00    -0.248 NA
ATOM     32  C   UNL A   1      42.492  23.555  29.094  1.00  0.00     0.031 C 
ATOM     33  C   UNL A   1      46.835  27.063  29.888  1.00  0.00     0.029 A 
ATOM     34  C   UNL A   1      46.109  25.914  29.569  1.00  0.00     0.049 A 
ATOM     35  H   UNL A   1      45.926  24.311  30.933  1.00  0.00     0.167 HD
ATOM     36  C   UNL A   1      44.383  24.645  28.318  1.00  0.00     0.074 A 
ATOM     37  C   UNL A   1      43.781  23.798  29.341  1.00  0.00     0.031 C 
ATOM     38  C   UNL A   1      45.441  25.509  28.354  1.00  0.00     0.031 A 
BRANCH  25  39
ATOM     39  C   UNL A   1      44.861  24.949  33.695  1.00  0.00    -0.014 A 
ATOM     40  C   UNL A   1      46.027  24.656  34.426  1.00  0.00     0.009 A 
ATOM     41  C   UNL A   1      43.851  23.968  33.690  1.00  0.00     0.009 A 
ATOM     42  C   UNL A   1      46.185  23.429  35.084  1.00  0.00     0.001 A 
ATOM     43  C   UNL A   1      43.989  22.761  34.381  1.00  0.00     0.001 A 
ATOM     44  C   UNL A   1      45.166  22.482  35.060  1.00  0.00     0.000 A 
ENDBRANCH  25  39
BRANCH  26  45
ATOM     45  C   UNL A   1      39.903  23.894  27.040  1.00  0.00    -0.014 A 
ATOM     46  C   UNL A   1      38.640  24.397  26.704  1.00  0.00     0.009 A 
ATOM     47  C   UNL A   1      40.179  22.548  26.733  1.00  0.00     0.009 A 
ATOM     48  C   UNL A   1      37.690  23.581  26.076  1.00  0.00     0.001 A 
ATOM     49  C   UNL A   1      39.229  21.731  26.117  1.00  0.00     0.001 A 
ATOM     50  C   UNL A   1      37.986  22.251  25.779  1.00  0.00     0.000 A 
ENDBRANCH  26  45
BRANCH  38  51
ATOM     51  C   UNL A   1      45.693  26.361  27.137  1.00  0.00    -0.014 A 
ATOM     52  C   UNL A   1      45.131  27.642  26.996  1.00  0.00     0.009 A 
ATOM     53  C   UNL A   1      46.642  25.943  26.192  1.00  0.00     0.009 A 
ATOM     54  C   UNL A   1      45.481  28.467  25.924  1.00  0.00     0.001 A 
ATOM     55  C   UNL A   1      47.007  26.776  25.130  1.00  0.00     0.001 A 
ATOM     56  C   UNL A   1      46.422  28.034  24.995  1.00  0.00     0.000 A 
ENDBRANCH  38  51
ENDBRANCH  12  13
ENDBRANCH   5   7
ENDBRANCH   2   3
ENDBRANCH   1   2
BRANCH   1  57
ATOM     57  C   UNL A   1      35.418  33.404  28.961  1.00  0.00     0.023 C 
BRANCH  57  58
ATOM     58  C   UNL A   1      34.770  32.042  29.160  1.00  0.00     0.116 C 
BRANCH  58  59
ATOM     59  N   UNL A   1      35.713  30.937  29.107  1.00  0.00    -0.351 N 
ATOM     60  C   UNL A   1      35.667  29.796  28.329  1.00  0.00     0.269 C 
ATOM     61  H   UNL A   1      36.490  31.011  29.707  1.00  0.00     0.163 HD
ATOM     62  O   UNL A   1      36.543  28.950  28.441  1.00  0.00    -0.268 OA
BRANCH  60  63
ATOM     63  C   UNL A   1      34.548  29.622  27.356  1.00  0.00     0.129 A 
ATOM     64  C   UNL A   1      34.585  28.609  26.427  1.00  0.00     0.039 A 
ATOM     65  N   UNL A   1      33.589  30.553  27.369  1.00  0.00    -0.243 NA
ATOM     66  C   UNL A   1      33.643  28.586  25.372  1.00  0.00    -0.021 A 
ATOM     67  C   UNL A   1      32.628  30.492  26.446  1.00  0.00     0.072 A 
ATOM     68  C   UNL A   1      32.537  29.527  25.393  1.00  0.00     0.012 A 
ATOM     69  C   UNL A   1      31.702  31.500  26.580  1.00  0.00     0.029 A 
ATOM     70  C   UNL A   1      31.360  29.646  24.511  1.00  0.00    -0.009 A 
ATOM     71  C   UNL A   1      30.633  31.638  25.710  1.00  0.00     0.011 A 
ATOM     72  C   UNL A   1      30.447  30.726  24.685  1.00  0.00    -0.018 A 
ATOM     73  C   UNL A   1      30.989  28.747  23.485  1.00  0.00     0.009 A 
ATOM     74  C   UNL A   1      29.326  30.901  23.855  1.00  0.00     0.009 A 
ATOM     75  C   UNL A   1      29.875  28.921  22.654  1.00  0.00     0.001 A 
ATOM     76  C   UNL A   1      29.043  30.007  22.833  1.00  0.00     0.001 A 
BRANCH  66  77
ATOM     77  C   UNL A   1      34.058  27.620  24.280  1.00  0.00     0.115 C 
ATOM     78  C   UNL A   1      34.069  28.158  22.893  1.00  0.00     0.123 C 
ATOM     79  C   UNL A   1      33.365  26.326  24.003  1.00  0.00     0.083 C 
ATOM     80  N   UNL A   1      33.639  27.305  22.022  1.00  0.00    -0.162 NA
ATOM     81  N   UNL A   1      33.204  26.133  22.723  1.00  0.00    -0.154 NA
BRANCH  79  82
ATOM     82  C   UNL A   1      33.031  25.302  25.014  1.00  0.00    -0.001 A 
ATOM     83  C   UNL A   1      34.088  24.551  25.552  1.00  0.00     0.013 A 
ATOM     84  C   UNL A   1      31.719  25.042  25.426  1.00  0.00     0.013 A 
ATOM     85  C   UNL A   1      33.836  23.565  26.508  1.00  0.00     0.040 A 
ATOM     86  C   UNL A   1      31.472  24.052  26.381  1.00  0.00     0.040 A 
ATOM     87  C   UNL A   1      32.531  23.327  26.916  1.00  0.00     0.123 A 
ATOM     88  F   UNL A   1      32.286  22.378  27.829  1.00  0.00    -0.207 F 
ENDBRANCH  79  82
ENDBRANCH  66  77
ENDBRANCH  60  63
ENDBRANCH  58  59
ENDBRANCH  57  58
ENDBRANCH   1  57
TORSDOF 13
ENDMDL
MODEL 3
REMARK VINA RESULT:     -13.2      4.430      6.951
REMARK SMILES O=C(NCCCCNC(=O)c1cc([C@@H]2C=NN=C2c2ccc(F)cc2)c2c(ccc3ccccc32)n1)c1ccc(-c2c3nc(c(-c4ccccc4)c4ccc([nH]4)c(-c4ccccc4)c4nc(c(-c5ccccc5)c5ccc2[nH]5)C=C4)C=C3)cc1
REMARK SMILES IDX 5 1 4 2 3 3 1 4 2 5 37 7 38 8 84 9 39 10 83 11 40 12 41 13
REMARK SMILES IDX 42 14 77 15 43 16 82 17 76 18 78 19 44 20 81 21 75 22 74 23
REMARK SMILES IDX 45 25 67 26 52 27 66 28 53 29 56 30 65 31 79 32 54 33 55 34
REMARK SMILES IDX 64 36 80 37 57 38 46 39 47 40 51 41 48 42 50 43 49 44 68 45
REMARK SMILES IDX 69 46 73 47 70 48 72 49 71 50 58 51 59 52 63 53 60 54 62 55
REMARK SMILES IDX 61 56 6 57 7 58 8 59 9 60 10 62 11 63 12 64 36 65 13 66
REMARK SMILES IDX 27 67 26 68 28 69 35 70 29 71 30 72 34 73 31 74 33 75 32 76
REMARK SMILES IDX 14 77 15 78 18 79 16 80 17 81 19 82 20 83 25 84 21 85 24 86
REMARK SMILES IDX 22 87 23 88
REMARK H PARENT 3 6 78 24 56 35 8 61
REMARK Flexibility Score: inf
ROOT
ATOM      1  C   UNL A   1      47.849  25.098  27.991  1.00  0.00     0.023 C 
ENDROOT
BRANCH   1   2
ATOM      2  C   UNL A   1      46.475  25.531  28.505  1.00  0.00     0.116 C 
BRANCH   2   3
ATOM      3  N   UNL A   1      45.582  24.450  28.868  1.00  0.00    -0.352 N 
ATOM      4  O   UNL A   1      43.784  23.246  29.334  1.00  0.00    -0.269 OA
ATOM      5  C   UNL A   1      44.255  24.378  29.195  1.00  0.00     0.251 C 
ATOM      6  H   UNL A   1      46.029  23.573  28.885  1.00  0.00     0.163 HD
BRANCH   5   7
ATOM      7  C   UNL A   1      43.381  25.552  29.456  1.00  0.00     0.039 A 
ATOM      8  C   UNL A   1      42.324  25.971  28.646  1.00  0.00     0.014 A 
ATOM      9  C   UNL A   1      43.676  26.302  30.608  1.00  0.00     0.014 A 
ATOM     10  C   UNL A   1      41.667  27.173  28.893  1.00  0.00     0.010 A 
ATOM     11  C   UNL A   1      42.990  27.478  30.890  1.00  0.00     0.010 A 
ATOM     12  C   UNL A   1      42.021  27.943  29.998  1.00  0.00    -0.014 A 
BRANCH  12  13
ATOM     13  C   UNL A   1      41.310  29.203  30.220  1.00  0.00     0.031 A 
ATOM     14  C   UNL A   1      42.077  30.472  30.022  1.00  0.00     0.074 A 
ATOM     15  C   UNL A   1      39.975  29.240  30.400  1.00  0.00     0.049 A 
ATOM     16  N   UNL A   1      42.089  31.541  30.759  1.00  0.00    -0.248 NA
ATOM     17  C   UNL A   1      42.948  30.554  28.838  1.00  0.00     0.031 C 
ATOM     18  C   UNL A   1      39.037  28.117  30.300  1.00  0.00     0.029 A 
ATOM     19  N   UNL A   1      39.156  30.323  30.551  1.00  0.00    -0.354 N 
ATOM     20  C   UNL A   1      42.849  32.482  30.062  1.00  0.00     0.074 A 
ATOM     21  C   UNL A   1      43.410  31.799  28.923  1.00  0.00     0.031 C 
ATOM     22  C   UNL A   1      37.790  28.602  30.130  1.00  0.00     0.029 A 
ATOM     23  C   UNL A   1      37.835  30.051  30.234  1.00  0.00     0.049 A 
ATOM     24  H   UNL A   1      39.473  31.205  30.853  1.00  0.00     0.167 HD
ATOM     25  C   UNL A   1      42.856  33.811  30.357  1.00  0.00     0.031 A 
ATOM     26  C   UNL A   1      36.857  30.948  29.969  1.00  0.00     0.031 A 
ATOM     27  C   UNL A   1      42.409  34.101  31.685  1.00  0.00     0.049 A 
ATOM     28  C   UNL A   1      37.271  32.269  30.486  1.00  0.00     0.074 A 
ATOM     29  C   UNL A   1      42.841  33.793  32.959  1.00  0.00     0.029 A 
ATOM     30  N   UNL A   1      41.160  34.647  31.842  1.00  0.00    -0.354 N 
ATOM     31  N   UNL A   1      37.376  32.559  31.749  1.00  0.00    -0.248 NA
ATOM     32  C   UNL A   1      37.906  33.208  29.576  1.00  0.00     0.031 C 
ATOM     33  C   UNL A   1      41.658  33.731  33.752  1.00  0.00     0.029 A 
ATOM     34  C   UNL A   1      40.582  34.002  32.904  1.00  0.00     0.049 A 
ATOM     35  H   UNL A   1      40.757  35.363  31.299  1.00  0.00     0.167 HD
ATOM     36  C   UNL A   1      38.414  33.474  31.819  1.00  0.00     0.074 A 
ATOM     37  C   UNL A   1      38.602  33.938  30.450  1.00  0.00     0.031 C 
ATOM     38  C   UNL A   1      39.207  33.556  32.928  1.00  0.00     0.031 A 
BRANCH  25  39
ATOM     39  C   UNL A   1      42.989  34.887  29.308  1.00  0.00    -0.014 A 
ATOM     40  C   UNL A   1      41.855  35.285  28.575  1.00  0.00     0.009 A 
ATOM     41  C   UNL A   1      44.239  35.324  28.831  1.00  0.00     0.009 A 
ATOM     42  C   UNL A   1      41.975  36.049  27.406  1.00  0.00     0.001 A 
ATOM     43  C   UNL A   1      44.358  36.122  27.689  1.00  0.00     0.001 A 
ATOM     44  C   UNL A   1      43.226  36.465  26.964  1.00  0.00     0.000 A 
ENDBRANCH  25  39
BRANCH  26  45
ATOM     45  C   UNL A   1      35.711  30.769  29.055  1.00  0.00    -0.014 A 
ATOM     46  C   UNL A   1      34.770  31.789  28.863  1.00  0.00     0.009 A 
ATOM     47  C   UNL A   1      35.661  29.657  28.193  1.00  0.00     0.009 A 
ATOM     48  C   UNL A   1      33.817  31.699  27.840  1.00  0.00     0.001 A 
ATOM     49  C   UNL A   1      34.706  29.561  27.180  1.00  0.00     0.001 A 
ATOM     50  C   UNL A   1      33.788  30.589  26.996  1.00  0.00     0.000 A 
ENDBRANCH  26  45
BRANCH  38  51
ATOM     51  C   UNL A   1      38.768  32.813  34.164  1.00  0.00    -0.014 A 
ATOM     52  C   UNL A   1      39.053  31.449  34.353  1.00  0.00     0.009 A 
ATOM     53  C   UNL A   1      38.204  33.529  35.230  1.00  0.00     0.009 A 
ATOM     54  C   UNL A   1      38.751  30.812  35.559  1.00  0.00     0.001 A 
ATOM     55  C   UNL A   1      37.921  32.896  36.444  1.00  0.00     0.001 A 
ATOM     56  C   UNL A   1      38.190  31.538  36.605  1.00  0.00     0.000 A 
ENDBRANCH  38  51
ENDBRANCH  12  13
ENDBRANCH   5   7
ENDBRANCH   2   3
ENDBRANCH   1   2
BRANCH   1  57
ATOM     57  C   UNL A   1      48.665  26.183  27.289  1.00  0.00     0.023 C 
BRANCH  57  58
ATOM     58  C   UNL A   1      49.603  25.697  26.194  1.00  0.00     0.116 C 
BRANCH  58  59
ATOM     59  N   UNL A   1      49.504  26.463  24.962  1.00  0.00    -0.351 N 
ATOM     60  C   UNL A   1      48.440  26.561  24.087  1.00  0.00     0.269 C 
ATOM     61  H   UNL A   1      50.304  26.983  24.719  1.00  0.00     0.163 HD
ATOM     62  O   UNL A   1      48.549  27.237  23.073  1.00  0.00    -0.268 OA
BRANCH  60  63
ATOM     63  C   UNL A   1      47.170  25.842  24.400  1.00  0.00     0.129 A 
ATOM     64  C   UNL A   1      46.032  26.545  24.717  1.00  0.00     0.039 A 
ATOM     65  N   UNL A   1      47.233  24.509  24.462  1.00  0.00    -0.243 NA
ATOM     66  C   UNL A   1      44.902  25.866  25.231  1.00  0.00    -0.021 A 
ATOM     67  C   UNL A   1      46.146  23.836  24.843  1.00  0.00     0.072 A 
ATOM     68  C   UNL A   1      44.897  24.413  25.237  1.00  0.00     0.012 A 
ATOM     69  C   UNL A   1      46.343  22.474  24.854  1.00  0.00     0.029 A 
ATOM     70  C   UNL A   1      43.828  23.458  25.588  1.00  0.00    -0.009 A 
ATOM     71  C   UNL A   1      45.351  21.589  25.241  1.00  0.00     0.011 A 
ATOM     72  C   UNL A   1      44.100  22.060  25.602  1.00  0.00    -0.018 A 
ATOM     73  C   UNL A   1      42.484  23.780  25.890  1.00  0.00     0.009 A 
ATOM     74  C   UNL A   1      43.125  21.111  25.956  1.00  0.00     0.009 A 
ATOM     75  C   UNL A   1      41.512  22.836  26.245  1.00  0.00     0.001 A 
ATOM     76  C   UNL A   1      41.835  21.495  26.288  1.00  0.00     0.001 A 
BRANCH  66  77
ATOM     77  C   UNL A   1      43.903  26.830  25.838  1.00  0.00     0.115 C 
ATOM     78  C   UNL A   1      42.641  27.037  25.078  1.00  0.00     0.123 C 
ATOM     79  C   UNL A   1      44.205  28.260  26.146  1.00  0.00     0.083 C 
ATOM     80  N   UNL A   1      42.240  28.266  25.096  1.00  0.00    -0.162 NA
ATOM     81  N   UNL A   1      43.225  29.044  25.788  1.00  0.00    -0.154 NA
BRANCH  79  82
ATOM     82  C   UNL A   1      45.381  28.743  26.898  1.00  0.00    -0.001 A 
ATOM     83  C   UNL A   1      45.366  28.593  28.294  1.00  0.00     0.013 A 
ATOM     84  C   UNL A   1      46.476  29.357  26.282  1.00  0.00     0.013 A 
ATOM     85  C   UNL A   1      46.445  29.033  29.061  1.00  0.00     0.040 A 
ATOM     86  C   UNL A   1      47.554  29.799  27.055  1.00  0.00     0.040 A 
ATOM     87  C   UNL A   1      47.531  29.629  28.434  1.00  0.00     0.123 A 
ATOM     88  F   UNL A   1      48.566  30.057  29.169  1.00  0.00    -0.207 F 
ENDBRANCH  79  82
ENDBRANCH  66  77
ENDBRANCH  60  63
ENDBRANCH  58  59
ENDBRANCH  57  58
ENDBRANCH   1  57
TORSDOF 13
ENDMDL
