MODEL 1
REMARK VINA RESULT:     -11.4      0.000      0.000
REMARK SMILES O=C(C[C@H]1S/C(=[NH+]\N=C\c2cc(Br)ccc2OCc2ccccc2)NC1=O)NCCCCNC(=O)c1ccc(-c2c3nc(c(-c4ccccc4)c4ccc([nH]4)c(-c4ccccc4)c4nc(c(-c5ccccc5)c5ccc2[nH]5)C=C4)C=C3)cc1
REMARK SMILES IDX 1 1 2 2 28 3 3 5 4 6 5 7 26 8 6 9 25 10 27 11 7 12 8 15 9 16
REMARK SMILES IDX 10 17 11 18 16 19 12 20 15 21 13 22 14 23 17 24 18 25 19 26
REMARK SMILES IDX 20 27 24 28 21 29 23 30 22 31 29 32 30 33 31 34 32 35 33 36
REMARK SMILES IDX 34 37 35 39 36 40 37 41 83 42 38 43 82 44 39 45 40 46 41 47
REMARK SMILES IDX 76 48 42 49 81 50 75 51 77 52 43 53 80 54 74 55 73 56 44 58
REMARK SMILES IDX 66 59 51 60 65 61 52 62 55 63 64 64 78 65 53 66 54 67 63 69
REMARK SMILES IDX 79 70 56 71 45 72 46 73 50 74 47 75 49 76 48 77 67 78 68 79
REMARK SMILES IDX 72 80 69 81 71 82 70 83 57 84 58 85 62 86 59 87 61 88 60 89
REMARK H PARENT 28 4 25 13 7 14 33 38 77 57 55 68
REMARK Flexibility Score: inf
ROOT
ATOM      1  O   UNL A   1      39.651  30.300  29.267  1.00  0.00    -0.275 OA
ATOM      2  C   UNL A   1      38.544  29.856  29.541  1.00  0.00     0.221 C 
ATOM      3  N   UNL A   1      38.276  28.519  29.722  1.00  0.00    -0.356 N 
ATOM      4  H   UNL A   1      37.352  28.253  29.935  1.00  0.00     0.163 HD
ENDROOT
BRANCH   2   5
ATOM      5  C   UNL A   1      37.328  30.754  29.698  1.00  0.00     0.127 C 
BRANCH   5   6
ATOM      6  C   UNL A   1      36.580  31.066  28.404  1.00  0.00     0.183 C 
ATOM      7  S   UNL A   1      35.616  29.650  27.761  1.00  0.00    -0.020 SA
ATOM      8  C   UNL A   1      35.573  32.191  28.537  1.00  0.00     0.322 C 
ATOM      9  C   UNL A   1      34.127  30.538  27.763  1.00  0.00     0.337 C 
ATOM     10  N   UNL A   1      34.305  31.779  28.273  1.00  0.00    -0.202 N 
ATOM     11  O   UNL A   1      35.870  33.345  28.831  1.00  0.00    -0.246 OA
ATOM     12  N   UNL A   1      32.957  30.192  27.346  1.00  0.00    -0.142 N 
ATOM     13  H   UNL A   1      33.535  32.369  28.448  1.00  0.00     0.316 HD
ATOM     14  H   UNL A   1      32.159  30.741  27.519  1.00  0.00     0.343 HD
BRANCH  12  15
ATOM     15  N   UNL A   1      32.889  28.993  26.635  1.00  0.00    -0.093 NA
ATOM     16  C   UNL A   1      31.692  28.504  26.682  1.00  0.00     0.170 C 
BRANCH  16  17
ATOM     17  C   UNL A   1      31.285  27.374  25.846  1.00  0.00     0.040 A 
ATOM     18  C   UNL A   1      31.393  26.118  26.463  1.00  0.00     0.029 A 
ATOM     19  C   UNL A   1      30.755  27.497  24.552  1.00  0.00     0.128 A 
ATOM     20  C   UNL A   1      30.982  24.975  25.783  1.00  0.00     0.018 A 
ATOM     21  C   UNL A   1      30.381  26.321  23.881  1.00  0.00     0.048 A 
ATOM     22  Br  UNL A   1      31.079  23.289  26.630  1.00  0.00    -0.051 Br
ATOM     23  C   UNL A   1      30.484  25.068  24.488  1.00  0.00     0.019 A 
BRANCH  19  24
ATOM     24  O   UNL A   1      30.483  28.601  23.795  1.00  0.00    -0.488 OA
BRANCH  24  25
ATOM     25  C   UNL A   1      29.395  28.664  22.871  1.00  0.00     0.265 C 
BRANCH  25  26
ATOM     26  C   UNL A   1      28.877  30.060  22.587  1.00  0.00    -0.011 A 
ATOM     27  C   UNL A   1      28.354  30.346  21.316  1.00  0.00     0.007 A 
ATOM     28  C   UNL A   1      28.979  31.096  23.526  1.00  0.00     0.007 A 
ATOM     29  C   UNL A   1      28.049  31.660  20.957  1.00  0.00     0.000 A 
ATOM     30  C   UNL A   1      28.679  32.409  23.163  1.00  0.00     0.000 A 
ATOM     31  C   UNL A   1      28.234  32.693  21.873  1.00  0.00     0.000 A 
ENDBRANCH  25  26
ENDBRANCH  24  25
ENDBRANCH  19  24
ENDBRANCH  16  17
ENDBRANCH  12  15
ENDBRANCH   5   6
ENDBRANCH   2   5
BRANCH   3  32
ATOM     32  C   UNL A   1      39.281  27.480  29.618  1.00  0.00     0.116 C 
BRANCH  32  33
ATOM     33  C   UNL A   1      39.443  26.987  28.180  1.00  0.00     0.023 C 
BRANCH  33  34
ATOM     34  C   UNL A   1      39.495  25.464  28.004  1.00  0.00     0.023 C 
BRANCH  34  35
ATOM     35  C   UNL A   1      39.679  24.973  26.571  1.00  0.00     0.116 C 
BRANCH  35  36
ATOM     36  N   UNL A   1      40.444  23.738  26.499  1.00  0.00    -0.352 N 
ATOM     37  C   UNL A   1      41.796  23.543  26.336  1.00  0.00     0.251 C 
ATOM     38  H   UNL A   1      39.912  22.913  26.578  1.00  0.00     0.163 HD
ATOM     39  O   UNL A   1      42.227  22.411  26.138  1.00  0.00    -0.269 OA
BRANCH  37  40
ATOM     40  C   UNL A   1      42.737  24.686  26.369  1.00  0.00     0.039 A 
ATOM     41  C   UNL A   1      43.260  25.091  27.601  1.00  0.00     0.014 A 
ATOM     42  C   UNL A   1      43.088  25.378  25.206  1.00  0.00     0.014 A 
ATOM     43  C   UNL A   1      44.186  26.138  27.658  1.00  0.00     0.010 A 
ATOM     44  C   UNL A   1      44.063  26.373  25.254  1.00  0.00     0.010 A 
ATOM     45  C   UNL A   1      44.626  26.763  26.480  1.00  0.00    -0.014 A 
BRANCH  45  46
ATOM     46  C   UNL A   1      45.681  27.809  26.511  1.00  0.00     0.031 A 
ATOM     47  C   UNL A   1      45.317  29.261  26.667  1.00  0.00     0.074 A 
ATOM     48  C   UNL A   1      46.972  27.460  26.331  1.00  0.00     0.049 A 
ATOM     49  N   UNL A   1      46.096  30.314  26.657  1.00  0.00    -0.248 NA
ATOM     50  C   UNL A   1      43.889  29.573  26.837  1.00  0.00     0.031 C 
ATOM     51  C   UNL A   1      47.462  26.094  26.135  1.00  0.00     0.029 A 
ATOM     52  N   UNL A   1      48.107  28.230  26.278  1.00  0.00    -0.354 N 
ATOM     53  C   UNL A   1      45.253  31.410  26.800  1.00  0.00     0.074 A 
ATOM     54  C   UNL A   1      43.901  30.897  26.849  1.00  0.00     0.031 C 
ATOM     55  C   UNL A   1      48.799  26.120  26.013  1.00  0.00     0.029 A 
ATOM     56  C   UNL A   1      49.257  27.504  26.075  1.00  0.00     0.049 A 
ATOM     57  H   UNL A   1      48.100  29.210  26.377  1.00  0.00     0.167 HD
ATOM     58  C   UNL A   1      45.574  32.723  26.896  1.00  0.00     0.031 A 
ATOM     59  C   UNL A   1      50.535  27.905  25.942  1.00  0.00     0.031 A 
ATOM     60  C   UNL A   1      46.918  33.235  26.855  1.00  0.00     0.049 A 
ATOM     61  C   UNL A   1      50.861  29.371  26.025  1.00  0.00     0.074 A 
ATOM     62  C   UNL A   1      47.347  34.544  27.005  1.00  0.00     0.029 A 
ATOM     63  N   UNL A   1      48.052  32.466  26.643  1.00  0.00    -0.354 N 
ATOM     64  N   UNL A   1      50.059  30.386  26.231  1.00  0.00    -0.248 NA
ATOM     65  C   UNL A   1      52.275  29.742  25.867  1.00  0.00     0.031 C 
ATOM     66  C   UNL A   1      48.733  34.574  26.824  1.00  0.00     0.029 A 
ATOM     67  C   UNL A   1      49.176  33.277  26.626  1.00  0.00     0.049 A 
ATOM     68  H   UNL A   1      48.058  31.489  26.522  1.00  0.00     0.167 HD
ATOM     69  C   UNL A   1      50.873  31.512  26.258  1.00  0.00     0.074 A 
ATOM     70  C   UNL A   1      52.232  31.052  26.065  1.00  0.00     0.031 C 
ATOM     71  C   UNL A   1      50.524  32.810  26.432  1.00  0.00     0.031 A 
BRANCH  58  72
ATOM     72  C   UNL A   1      44.445  33.705  27.045  1.00  0.00    -0.014 A 
ATOM     73  C   UNL A   1      43.949  34.063  28.309  1.00  0.00     0.009 A 
ATOM     74  C   UNL A   1      43.898  34.316  25.906  1.00  0.00     0.009 A 
ATOM     75  C   UNL A   1      42.904  34.982  28.426  1.00  0.00     0.001 A 
ATOM     76  C   UNL A   1      42.874  35.257  26.027  1.00  0.00     0.001 A 
ATOM     77  C   UNL A   1      42.371  35.582  27.286  1.00  0.00     0.000 A 
ENDBRANCH  58  72
BRANCH  59  78
ATOM     78  C   UNL A   1      51.613  26.904  25.727  1.00  0.00    -0.014 A 
ATOM     79  C   UNL A   1      52.046  26.591  24.428  1.00  0.00     0.009 A 
ATOM     80  C   UNL A   1      52.205  26.243  26.816  1.00  0.00     0.009 A 
ATOM     81  C   UNL A   1      53.026  25.618  24.222  1.00  0.00     0.001 A 
ATOM     82  C   UNL A   1      53.207  25.292  26.608  1.00  0.00     0.001 A 
ATOM     83  C   UNL A   1      53.609  24.973  25.312  1.00  0.00     0.000 A 
ENDBRANCH  59  78
BRANCH  71  84
ATOM     84  C   UNL A   1      51.633  33.825  26.462  1.00  0.00    -0.014 A 
ATOM     85  C   UNL A   1      52.290  34.155  27.657  1.00  0.00     0.009 A 
ATOM     86  C   UNL A   1      52.050  34.431  25.267  1.00  0.00     0.009 A 
ATOM     87  C   UNL A   1      53.321  35.099  27.658  1.00  0.00     0.001 A 
ATOM     88  C   UNL A   1      53.100  35.350  25.266  1.00  0.00     0.001 A 
ATOM     89  C   UNL A   1      53.727  35.691  26.462  1.00  0.00     0.000 A 
ENDBRANCH  71  84
ENDBRANCH  45  46
ENDBRANCH  37  40
ENDBRANCH  35  36
ENDBRANCH  34  35
ENDBRANCH  33  34
ENDBRANCH  32  33
ENDBRANCH   3  32
TORSDOF 17
ENDMDL
MODEL 2
REMARK VINA RESULT:     -11.3      7.335     11.650
REMARK SMILES O=C(C[C@H]1S/C(=[NH+]\N=C\c2cc(Br)ccc2OCc2ccccc2)NC1=O)NCCCCNC(=O)c1ccc(-c2c3nc(c(-c4ccccc4)c4ccc([nH]4)c(-c4ccccc4)c4nc(c(-c5ccccc5)c5ccc2[nH]5)C=C4)C=C3)cc1
REMARK SMILES IDX 1 1 2 2 28 3 3 5 4 6 5 7 26 8 6 9 25 10 27 11 7 12 8 15 9 16
REMARK SMILES IDX 10 17 11 18 16 19 12 20 15 21 13 22 14 23 17 24 18 25 19 26
REMARK SMILES IDX 20 27 24 28 21 29 23 30 22 31 29 32 30 33 31 34 32 35 33 36
REMARK SMILES IDX 34 37 35 39 36 40 37 41 83 42 38 43 82 44 39 45 40 46 41 47
REMARK SMILES IDX 76 48 42 49 81 50 75 51 77 52 43 53 80 54 74 55 73 56 44 58
REMARK SMILES IDX 66 59 51 60 65 61 52 62 55 63 64 64 78 65 53 66 54 67 63 69
REMARK SMILES IDX 79 70 56 71 45 72 46 73 50 74 47 75 49 76 48 77 67 78 68 79
REMARK SMILES IDX 72 80 69 81 71 82 70 83 57 84 58 85 62 86 59 87 61 88 60 89
REMARK H PARENT 28 4 25 13 7 14 33 38 77 57 55 68
REMARK Flexibility Score: inf
ROOT
ATOM      1  O   UNL A   1      32.434  31.857  26.505  1.00  0.00    -0.275 OA
ATOM      2  C   UNL A   1      32.919  30.980  27.208  1.00  0.00     0.221 C 
ATOM      3  N   UNL A   1      34.023  31.160  28.010  1.00  0.00    -0.356 N 
ATOM      4  H   UNL A   1      34.346  30.394  28.537  1.00  0.00     0.163 HD
ENDROOT
BRANCH   2   5
ATOM      5  C   UNL A   1      32.346  29.573  27.258  1.00  0.00     0.127 C 
BRANCH   5   6
ATOM      6  C   UNL A   1      32.603  28.724  26.015  1.00  0.00     0.183 C 
ATOM      7  S   UNL A   1      32.988  26.977  26.393  1.00  0.00    -0.020 SA
ATOM      8  C   UNL A   1      31.424  28.663  25.063  1.00  0.00     0.322 C 
ATOM      9  C   UNL A   1      31.686  26.377  25.417  1.00  0.00     0.337 C 
ATOM     10  N   UNL A   1      30.963  27.396  24.898  1.00  0.00    -0.202 N 
ATOM     11  O   UNL A   1      30.954  29.643  24.493  1.00  0.00    -0.246 OA
ATOM     12  N   UNL A   1      31.362  25.164  25.126  1.00  0.00    -0.142 N 
ATOM     13  H   UNL A   1      30.122  27.224  24.413  1.00  0.00     0.316 HD
ATOM     14  H   UNL A   1      30.521  24.947  24.663  1.00  0.00     0.343 HD
BRANCH  12  15
ATOM     15  N   UNL A   1      32.271  24.177  25.507  1.00  0.00    -0.093 NA
ATOM     16  C   UNL A   1      33.121  23.950  24.558  1.00  0.00     0.170 C 
BRANCH  16  17
ATOM     17  C   UNL A   1      34.311  23.124  24.767  1.00  0.00     0.040 A 
ATOM     18  C   UNL A   1      35.419  23.811  25.287  1.00  0.00     0.029 A 
ATOM     19  C   UNL A   1      34.360  21.739  24.548  1.00  0.00     0.128 A 
ATOM     20  C   UNL A   1      36.589  23.116  25.579  1.00  0.00     0.018 A 
ATOM     21  C   UNL A   1      35.567  21.074  24.821  1.00  0.00     0.048 A 
ATOM     22  Br  UNL A   1      38.065  24.029  26.326  1.00  0.00    -0.051 Br
ATOM     23  C   UNL A   1      36.673  21.749  25.339  1.00  0.00     0.019 A 
BRANCH  19  24
ATOM     24  O   UNL A   1      33.399  20.860  24.134  1.00  0.00    -0.488 OA
BRANCH  24  25
ATOM     25  C   UNL A   1      32.706  19.985  25.025  1.00  0.00     0.265 C 
BRANCH  25  26
ATOM     26  C   UNL A   1      32.945  18.509  24.786  1.00  0.00    -0.011 A 
ATOM     27  C   UNL A   1      32.528  17.586  25.759  1.00  0.00     0.007 A 
ATOM     28  C   UNL A   1      33.642  18.039  23.664  1.00  0.00     0.007 A 
ATOM     29  C   UNL A   1      32.902  16.244  25.667  1.00  0.00     0.000 A 
ATOM     30  C   UNL A   1      34.019  16.699  23.577  1.00  0.00     0.000 A 
ATOM     31  C   UNL A   1      33.667  15.807  24.588  1.00  0.00     0.000 A 
ENDBRANCH  25  26
ENDBRANCH  24  25
ENDBRANCH  19  24
ENDBRANCH  16  17
ENDBRANCH  12  15
ENDBRANCH   5   6
ENDBRANCH   2   5
BRANCH   3  32
ATOM     32  C   UNL A   1      34.735  32.417  28.120  1.00  0.00     0.116 C 
BRANCH  32  33
ATOM     33  C   UNL A   1      33.785  33.615  28.091  1.00  0.00     0.023 C 
BRANCH  33  34
ATOM     34  C   UNL A   1      33.396  34.184  29.460  1.00  0.00     0.023 C 
BRANCH  34  35
ATOM     35  C   UNL A   1      33.212  35.698  29.516  1.00  0.00     0.116 C 
BRANCH  35  36
ATOM     36  N   UNL A   1      32.462  36.126  30.686  1.00  0.00    -0.352 N 
ATOM     37  C   UNL A   1      32.661  35.844  32.017  1.00  0.00     0.251 C 
ATOM     38  H   UNL A   1      31.690  36.707  30.496  1.00  0.00     0.163 HD
ATOM     39  O   UNL A   1      31.815  36.175  32.842  1.00  0.00    -0.269 OA
BRANCH  37  40
ATOM     40  C   UNL A   1      33.874  35.121  32.466  1.00  0.00     0.039 A 
ATOM     41  C   UNL A   1      33.735  33.822  32.965  1.00  0.00     0.014 A 
ATOM     42  C   UNL A   1      35.137  35.718  32.427  1.00  0.00     0.014 A 
ATOM     43  C   UNL A   1      34.867  33.098  33.354  1.00  0.00     0.010 A 
ATOM     44  C   UNL A   1      36.270  34.972  32.748  1.00  0.00     0.010 A 
ATOM     45  C   UNL A   1      36.149  33.652  33.212  1.00  0.00    -0.014 A 
BRANCH  45  46
ATOM     46  C   UNL A   1      37.369  32.863  33.528  1.00  0.00     0.031 A 
ATOM     47  C   UNL A   1      38.139  33.117  34.796  1.00  0.00     0.074 A 
ATOM     48  C   UNL A   1      37.826  31.958  32.639  1.00  0.00     0.049 A 
ATOM     49  N   UNL A   1      39.255  32.569  35.209  1.00  0.00    -0.248 NA
ATOM     50  C   UNL A   1      37.596  34.134  35.711  1.00  0.00     0.031 C 
ATOM     51  C   UNL A   1      37.196  31.636  31.356  1.00  0.00     0.029 A 
ATOM     52  N   UNL A   1      38.933  31.146  32.678  1.00  0.00    -0.354 N 
ATOM     53  C   UNL A   1      39.555  33.186  36.417  1.00  0.00     0.074 A 
ATOM     54  C   UNL A   1      38.530  34.180  36.649  1.00  0.00     0.031 C 
ATOM     55  C   UNL A   1      37.910  30.676  30.745  1.00  0.00     0.029 A 
ATOM     56  C   UNL A   1      39.070  30.347  31.567  1.00  0.00     0.049 A 
ATOM     57  H   UNL A   1      39.569  31.137  33.430  1.00  0.00     0.167 HD
ATOM     58  C   UNL A   1      40.582  32.938  37.265  1.00  0.00     0.031 A 
ATOM     59  C   UNL A   1      40.025  29.457  31.240  1.00  0.00     0.031 A 
ATOM     60  C   UNL A   1      41.600  31.945  37.042  1.00  0.00     0.049 A 
ATOM     61  C   UNL A   1      41.170  29.222  32.187  1.00  0.00     0.074 A 
ATOM     62  C   UNL A   1      42.646  31.580  37.873  1.00  0.00     0.029 A 
ATOM     63  N   UNL A   1      41.703  31.161  35.903  1.00  0.00    -0.354 N 
ATOM     64  N   UNL A   1      41.400  29.763  33.358  1.00  0.00    -0.248 NA
ATOM     65  C   UNL A   1      42.182  28.241  31.768  1.00  0.00     0.031 C 
ATOM     66  C   UNL A   1      43.416  30.619  37.212  1.00  0.00     0.029 A 
ATOM     67  C   UNL A   1      42.814  30.338  35.997  1.00  0.00     0.049 A 
ATOM     68  H   UNL A   1      41.081  31.186  35.141  1.00  0.00     0.167 HD
ATOM     69  C   UNL A   1      42.563  29.167  33.828  1.00  0.00     0.074 A 
ATOM     70  C   UNL A   1      42.982  28.212  32.825  1.00  0.00     0.031 C 
ATOM     71  C   UNL A   1      43.223  29.391  34.991  1.00  0.00     0.031 A 
BRANCH  58  72
ATOM     72  C   UNL A   1      40.665  33.768  38.517  1.00  0.00    -0.014 A 
ATOM     73  C   UNL A   1      40.032  33.365  39.704  1.00  0.00     0.009 A 
ATOM     74  C   UNL A   1      41.423  34.949  38.522  1.00  0.00     0.009 A 
ATOM     75  C   UNL A   1      40.126  34.147  40.858  1.00  0.00     0.001 A 
ATOM     76  C   UNL A   1      41.541  35.712  39.685  1.00  0.00     0.001 A 
ATOM     77  C   UNL A   1      40.884  35.316  40.849  1.00  0.00     0.000 A 
ENDBRANCH  58  72
BRANCH  59  78
ATOM     78  C   UNL A   1      39.941  28.708  29.959  1.00  0.00    -0.014 A 
ATOM     79  C   UNL A   1      40.419  29.277  28.768  1.00  0.00     0.009 A 
ATOM     80  C   UNL A   1      39.367  27.426  29.914  1.00  0.00     0.009 A 
ATOM     81  C   UNL A   1      40.298  28.594  27.556  1.00  0.00     0.001 A 
ATOM     82  C   UNL A   1      39.277  26.733  28.705  1.00  0.00     0.001 A 
ATOM     83  C   UNL A   1      39.732  27.321  27.527  1.00  0.00     0.000 A 
ENDBRANCH  59  78
BRANCH  71  84
ATOM     84  C   UNL A   1      44.446  28.560  35.261  1.00  0.00    -0.014 A 
ATOM     85  C   UNL A   1      45.727  29.003  34.898  1.00  0.00     0.009 A 
ATOM     86  C   UNL A   1      44.315  27.330  35.924  1.00  0.00     0.009 A 
ATOM     87  C   UNL A   1      46.849  28.214  35.163  1.00  0.00     0.001 A 
ATOM     88  C   UNL A   1      45.441  26.557  36.216  1.00  0.00     0.001 A 
ATOM     89  C   UNL A   1      46.705  26.995  35.826  1.00  0.00     0.000 A 
ENDBRANCH  71  84
ENDBRANCH  45  46
ENDBRANCH  37  40
ENDBRANCH  35  36
ENDBRANCH  34  35
ENDBRANCH  33  34
ENDBRANCH  32  33
ENDBRANCH   3  32
TORSDOF 17
ENDMDL
MODEL 3
REMARK VINA RESULT:     -11.2      5.702     10.663
REMARK SMILES O=C(C[C@H]1S/C(=[NH+]\N=C\c2cc(Br)ccc2OCc2ccccc2)NC1=O)NCCCCNC(=O)c1ccc(-c2c3nc(c(-c4ccccc4)c4ccc([nH]4)c(-c4ccccc4)c4nc(c(-c5ccccc5)c5ccc2[nH]5)C=C4)C=C3)cc1
REMARK SMILES IDX 1 1 2 2 28 3 3 5 4 6 5 7 26 8 6 9 25 10 27 11 7 12 8 15 9 16
REMARK SMILES IDX 10 17 11 18 16 19 12 20 15 21 13 22 14 23 17 24 18 25 19 26
REMARK SMILES IDX 20 27 24 28 21 29 23 30 22 31 29 32 30 33 31 34 32 35 33 36
REMARK SMILES IDX 34 37 35 39 36 40 37 41 83 42 38 43 82 44 39 45 40 46 41 47
REMARK SMILES IDX 76 48 42 49 81 50 75 51 77 52 43 53 80 54 74 55 73 56 44 58
REMARK SMILES IDX 66 59 51 60 65 61 52 62 55 63 64 64 78 65 53 66 54 67 63 69
REMARK SMILES IDX 79 70 56 71 45 72 46 73 50 74 47 75 49 76 48 77 67 78 68 79
REMARK SMILES IDX 72 80 69 81 71 82 70 83 57 84 58 85 62 86 59 87 61 88 60 89
REMARK H PARENT 28 4 25 13 7 14 33 38 77 57 55 68
REMARK Flexibility Score: inf
ROOT
ATOM      1  O   UNL A   1      46.856  23.257  26.185  1.00  0.00    -0.275 OA
ATOM      2  C   UNL A   1      46.066  23.394  25.260  1.00  0.00     0.221 C 
ATOM      3  N   UNL A   1      45.479  22.346  24.589  1.00  0.00    -0.356 N 
ATOM      4  H   UNL A   1      44.859  22.552  23.852  1.00  0.00     0.163 HD
ENDROOT
BRANCH   2   5
ATOM      5  C   UNL A   1      45.656  24.763  24.742  1.00  0.00     0.127 C 
BRANCH   5   6
ATOM      6  C   UNL A   1      44.908  25.639  25.744  1.00  0.00     0.183 C 
ATOM      7  S   UNL A   1      45.936  26.975  26.453  1.00  0.00    -0.020 SA
ATOM      8  C   UNL A   1      43.704  26.347  25.156  1.00  0.00     0.322 C 
ATOM      9  C   UNL A   1      44.845  28.220  25.936  1.00  0.00     0.337 C 
ATOM     10  N   UNL A   1      43.821  27.699  25.222  1.00  0.00    -0.202 N 
ATOM     11  O   UNL A   1      42.727  25.766  24.692  1.00  0.00    -0.246 OA
ATOM     12  N   UNL A   1      44.877  29.490  26.155  1.00  0.00    -0.142 N 
ATOM     13  H   UNL A   1      43.176  28.285  24.761  1.00  0.00     0.316 HD
ATOM     14  H   UNL A   1      44.266  30.112  25.698  1.00  0.00     0.343 HD
BRANCH  12  15
ATOM     15  N   UNL A   1      45.828  29.931  27.075  1.00  0.00    -0.093 NA
ATOM     16  C   UNL A   1      46.339  31.058  26.697  1.00  0.00     0.170 C 
BRANCH  16  17
ATOM     17  C   UNL A   1      47.198  31.852  27.577  1.00  0.00     0.040 A 
ATOM     18  C   UNL A   1      48.099  31.104  28.350  1.00  0.00     0.029 A 
ATOM     19  C   UNL A   1      47.203  33.255  27.621  1.00  0.00     0.128 A 
ATOM     20  C   UNL A   1      49.003  31.755  29.183  1.00  0.00     0.018 A 
ATOM     21  C   UNL A   1      48.106  33.880  28.498  1.00  0.00     0.048 A 
ATOM     22  Br  UNL A   1      50.251  30.752  30.187  1.00  0.00    -0.051 Br
ATOM     23  C   UNL A   1      49.006  33.143  29.269  1.00  0.00     0.019 A 
BRANCH  19  24
ATOM     24  O   UNL A   1      46.489  34.179  26.912  1.00  0.00    -0.488 OA
BRANCH  24  25
ATOM     25  C   UNL A   1      46.176  35.478  27.417  1.00  0.00     0.265 C 
BRANCH  25  26
ATOM     26  C   UNL A   1      44.713  35.704  27.737  1.00  0.00    -0.011 A 
ATOM     27  C   UNL A   1      44.238  37.020  27.854  1.00  0.00     0.007 A 
ATOM     28  C   UNL A   1      43.836  34.643  27.999  1.00  0.00     0.007 A 
ATOM     29  C   UNL A   1      42.951  37.267  28.335  1.00  0.00     0.000 A 
ATOM     30  C   UNL A   1      42.552  34.891  28.484  1.00  0.00     0.000 A 
ATOM     31  C   UNL A   1      42.118  36.202  28.671  1.00  0.00     0.000 A 
ENDBRANCH  25  26
ENDBRANCH  24  25
ENDBRANCH  19  24
ENDBRANCH  16  17
ENDBRANCH  12  15
ENDBRANCH   5   6
ENDBRANCH   2   5
BRANCH   3  32
ATOM     32  C   UNL A   1      45.724  20.954  24.908  1.00  0.00     0.116 C 
BRANCH  32  33
ATOM     33  C   UNL A   1      44.544  20.064  24.518  1.00  0.00     0.023 C 
BRANCH  33  34
ATOM     34  C   UNL A   1      44.465  18.713  25.240  1.00  0.00     0.023 C 
BRANCH  34  35
ATOM     35  C   UNL A   1      43.464  18.638  26.388  1.00  0.00     0.116 C 
BRANCH  35  36
ATOM     36  N   UNL A   1      42.087  18.585  25.925  1.00  0.00    -0.352 N 
ATOM     37  C   UNL A   1      41.068  19.497  26.070  1.00  0.00     0.251 C 
ATOM     38  H   UNL A   1      41.845  17.768  25.431  1.00  0.00     0.163 HD
ATOM     39  O   UNL A   1      39.925  19.190  25.742  1.00  0.00    -0.269 OA
BRANCH  37  40
ATOM     40  C   UNL A   1      41.326  20.838  26.643  1.00  0.00     0.039 A 
ATOM     41  C   UNL A   1      41.087  21.043  28.005  1.00  0.00     0.014 A 
ATOM     42  C   UNL A   1      41.774  21.898  25.850  1.00  0.00     0.014 A 
ATOM     43  C   UNL A   1      41.364  22.286  28.585  1.00  0.00     0.010 A 
ATOM     44  C   UNL A   1      42.117  23.113  26.441  1.00  0.00     0.010 A 
ATOM     45  C   UNL A   1      41.919  23.321  27.815  1.00  0.00    -0.014 A 
BRANCH  45  46
ATOM     46  C   UNL A   1      42.312  24.615  28.433  1.00  0.00     0.031 A 
ATOM     47  C   UNL A   1      41.319  25.741  28.551  1.00  0.00     0.074 A 
ATOM     48  C   UNL A   1      43.586  24.804  28.831  1.00  0.00     0.049 A 
ATOM     49  N   UNL A   1      41.499  26.956  29.007  1.00  0.00    -0.248 NA
ATOM     50  C   UNL A   1      39.952  25.473  28.077  1.00  0.00     0.031 C 
ATOM     51  C   UNL A   1      44.658  23.810  28.745  1.00  0.00     0.029 A 
ATOM     52  N   UNL A   1      44.197  25.903  29.384  1.00  0.00    -0.354 N 
ATOM     53  C   UNL A   1      40.276  27.600  28.856  1.00  0.00     0.074 A 
ATOM     54  C   UNL A   1      39.378  26.657  28.228  1.00  0.00     0.031 C 
ATOM     55  C   UNL A   1      45.786  24.334  29.253  1.00  0.00     0.029 A 
ATOM     56  C   UNL A   1      45.531  25.712  29.658  1.00  0.00     0.049 A 
ATOM     57  H   UNL A   1      43.725  26.747  29.567  1.00  0.00     0.167 HD
ATOM     58  C   UNL A   1      39.928  28.857  29.222  1.00  0.00     0.031 A 
ATOM     59  C   UNL A   1      46.449  26.553  30.169  1.00  0.00     0.031 A 
ATOM     60  C   UNL A   1      40.818  29.795  29.855  1.00  0.00     0.049 A 
ATOM     61  C   UNL A   1      46.043  27.953  30.540  1.00  0.00     0.074 A 
ATOM     62  C   UNL A   1      40.539  31.071  30.316  1.00  0.00     0.029 A 
ATOM     63  N   UNL A   1      42.161  29.563  30.110  1.00  0.00    -0.354 N 
ATOM     64  N   UNL A   1      44.866  28.522  30.457  1.00  0.00    -0.248 NA
ATOM     65  C   UNL A   1      47.095  28.822  31.088  1.00  0.00     0.031 C 
ATOM     66  C   UNL A   1      41.726  31.633  30.796  1.00  0.00     0.029 A 
ATOM     67  C   UNL A   1      42.730  30.685  30.693  1.00  0.00     0.049 A 
ATOM     68  H   UNL A   1      42.638  28.727  29.907  1.00  0.00     0.167 HD
ATOM     69  C   UNL A   1      45.028  29.804  30.969  1.00  0.00     0.074 A 
ATOM     70  C   UNL A   1      46.412  29.922  31.375  1.00  0.00     0.031 C 
ATOM     71  C   UNL A   1      44.109  30.792  31.093  1.00  0.00     0.031 A 
BRANCH  58  72
ATOM     72  C   UNL A   1      38.520  29.299  28.934  1.00  0.00    -0.014 A 
ATOM     73  C   UNL A   1      38.141  29.751  27.660  1.00  0.00     0.009 A 
ATOM     74  C   UNL A   1      37.545  29.221  29.941  1.00  0.00     0.009 A 
ATOM     75  C   UNL A   1      36.827  30.151  27.411  1.00  0.00     0.001 A 
ATOM     76  C   UNL A   1      36.225  29.593  29.681  1.00  0.00     0.001 A 
ATOM     77  C   UNL A   1      35.868  30.067  28.419  1.00  0.00     0.000 A 
ENDBRANCH  58  72
BRANCH  59  78
ATOM     78  C   UNL A   1      47.850  26.096  30.372  1.00  0.00    -0.014 A 
ATOM     79  C   UNL A   1      48.272  25.632  31.628  1.00  0.00     0.009 A 
ATOM     80  C   UNL A   1      48.777  26.136  29.319  1.00  0.00     0.009 A 
ATOM     81  C   UNL A   1      49.598  25.246  31.833  1.00  0.00     0.001 A 
ATOM     82  C   UNL A   1      50.095  25.720  29.518  1.00  0.00     0.001 A 
ATOM     83  C   UNL A   1      50.507  25.285  30.777  1.00  0.00     0.000 A 
ENDBRANCH  59  78
BRANCH  71  84
ATOM     84  C   UNL A   1      44.560  32.077  31.732  1.00  0.00    -0.014 A 
ATOM     85  C   UNL A   1      45.108  33.120  30.969  1.00  0.00     0.009 A 
ATOM     86  C   UNL A   1      44.399  32.257  33.114  1.00  0.00     0.009 A 
ATOM     87  C   UNL A   1      45.516  34.306  31.585  1.00  0.00     0.001 A 
ATOM     88  C   UNL A   1      44.779  33.455  33.722  1.00  0.00     0.001 A 
ATOM     89  C   UNL A   1      45.346  34.473  32.959  1.00  0.00     0.000 A 
ENDBRANCH  71  84
ENDBRANCH  45  46
ENDBRANCH  37  40
ENDBRANCH  35  36
ENDBRANCH  34  35
ENDBRANCH  33  34
ENDBRANCH  32  33
ENDBRANCH   3  32
TORSDOF 17
ENDMDL
