MODEL 1
REMARK VINA RESULT:      -9.6      0.000      0.000
REMARK SMILES O=C(Cc1c(F)cc(Cl)cc1F)NCCCCNC(=O)c1ccc(-c2c3nc(c(-c4ccccc4)c4ccc([nH]4)c(-c4ccccc4)c4nc(c(-c5ccccc5)c5ccc2[nH]5)C=C4)C=C3)cc1
REMARK SMILES IDX 16 1 15 2 14 3 13 4 1 5 2 6 3 8 4 9 5 10 11 11 6 12 7 13
REMARK SMILES IDX 10 14 12 15 8 16 9 17 17 18 18 19 19 20 20 22 21 23 22 24
REMARK SMILES IDX 68 25 23 26 67 27 24 28 25 29 26 30 61 31 27 32 66 33 60 34
REMARK SMILES IDX 62 35 28 36 65 37 59 38 58 39 29 41 51 42 36 43 50 44 37 45
REMARK SMILES IDX 40 46 49 47 63 48 38 49 39 50 48 52 64 53 41 54 30 55 31 56
REMARK SMILES IDX 35 57 32 58 34 59 33 60 52 61 53 62 57 63 54 64 56 65 55 66
REMARK SMILES IDX 42 67 43 68 47 69 44 70 46 71 45 72
REMARK H PARENT 13 7 18 21 62 40 40 51
REMARK Flexibility Score: inf
ROOT
ATOM      1  C   UNL A   1      44.108  19.264  25.286  1.00  0.00     0.023 C 
ENDROOT
BRANCH   1   2
ATOM      2  C   UNL A   1      44.335  20.773  25.404  1.00  0.00     0.023 C 
BRANCH   2   3
ATOM      3  C   UNL A   1      45.745  21.244  25.060  1.00  0.00     0.116 C 
BRANCH   3   4
ATOM      4  N   UNL A   1      46.050  22.547  25.618  1.00  0.00    -0.356 N 
ATOM      5  O   UNL A   1      46.706  23.499  23.631  1.00  0.00    -0.275 OA
ATOM      6  C   UNL A   1      46.442  23.607  24.826  1.00  0.00     0.224 C 
ATOM      7  H   UNL A   1      45.973  22.680  26.590  1.00  0.00     0.163 HD
BRANCH   6   8
ATOM      8  C   UNL A   1      46.582  24.928  25.559  1.00  0.00     0.141 C 
BRANCH   8   9
ATOM      9  C   UNL A   1      45.360  25.815  25.595  1.00  0.00     0.033 A 
ATOM     10  C   UNL A   1      44.117  25.462  25.062  1.00  0.00     0.131 A 
ATOM     11  C   UNL A   1      45.482  27.100  26.133  1.00  0.00     0.131 A 
ATOM     12  F   UNL A   1      43.933  24.264  24.495  1.00  0.00    -0.207 F 
ATOM     13  C   UNL A   1      43.028  26.330  25.107  1.00  0.00     0.060 A 
ATOM     14  C   UNL A   1      44.411  27.989  26.178  1.00  0.00     0.060 A 
ATOM     15  F   UNL A   1      46.664  27.500  26.627  1.00  0.00    -0.207 F 
ATOM     16  C   UNL A   1      43.181  27.593  25.668  1.00  0.00     0.046 A 
ATOM     17  Cl  UNL A   1      41.841  28.669  25.729  1.00  0.00    -0.084 Cl
ENDBRANCH   8   9
ENDBRANCH   6   8
ENDBRANCH   3   4
ENDBRANCH   2   3
ENDBRANCH   1   2
BRANCH   1  18
ATOM     18  C   UNL A   1      43.186  18.656  26.340  1.00  0.00     0.116 C 
BRANCH  18  19
ATOM     19  N   UNL A   1      41.799  18.589  25.909  1.00  0.00    -0.352 N 
ATOM     20  C   UNL A   1      40.789  19.508  26.063  1.00  0.00     0.251 C 
ATOM     21  H   UNL A   1      41.546  17.764  25.436  1.00  0.00     0.163 HD
ATOM     22  O   UNL A   1      39.636  19.213  25.760  1.00  0.00    -0.269 OA
BRANCH  20  23
ATOM     23  C   UNL A   1      41.077  20.845  26.625  1.00  0.00     0.039 A 
ATOM     24  C   UNL A   1      41.226  20.976  28.009  1.00  0.00     0.014 A 
ATOM     25  C   UNL A   1      41.196  21.966  25.799  1.00  0.00     0.014 A 
ATOM     26  C   UNL A   1      41.564  22.217  28.555  1.00  0.00     0.010 A 
ATOM     27  C   UNL A   1      41.604  23.184  26.337  1.00  0.00     0.010 A 
ATOM     28  C   UNL A   1      41.793  23.322  27.721  1.00  0.00    -0.014 A 
BRANCH  28  29
ATOM     29  C   UNL A   1      42.222  24.630  28.279  1.00  0.00     0.031 A 
ATOM     30  C   UNL A   1      41.235  25.755  28.422  1.00  0.00     0.074 A 
ATOM     31  C   UNL A   1      43.511  24.819  28.624  1.00  0.00     0.049 A 
ATOM     32  N   UNL A   1      41.431  26.973  28.860  1.00  0.00    -0.248 NA
ATOM     33  C   UNL A   1      39.852  25.482  28.002  1.00  0.00     0.031 C 
ATOM     34  C   UNL A   1      44.572  23.817  28.517  1.00  0.00     0.029 A 
ATOM     35  N   UNL A   1      44.146  25.922  29.139  1.00  0.00    -0.354 N 
ATOM     36  C   UNL A   1      40.201  27.609  28.766  1.00  0.00     0.074 A 
ATOM     37  C   UNL A   1      39.279  26.665  28.175  1.00  0.00     0.031 C 
ATOM     38  C   UNL A   1      45.715  24.337  28.991  1.00  0.00     0.029 A 
ATOM     39  C   UNL A   1      45.481  25.719  29.394  1.00  0.00     0.049 A 
ATOM     40  H   UNL A   1      43.689  26.776  29.311  1.00  0.00     0.167 HD
ATOM     41  C   UNL A   1      39.859  28.859  29.160  1.00  0.00     0.031 A 
ATOM     42  C   UNL A   1      46.413  26.552  29.899  1.00  0.00     0.031 A 
ATOM     43  C   UNL A   1      40.773  29.801  29.750  1.00  0.00     0.049 A 
ATOM     44  C   UNL A   1      46.022  27.952  30.281  1.00  0.00     0.074 A 
ATOM     45  C   UNL A   1      40.511  31.079  30.212  1.00  0.00     0.029 A 
ATOM     46  N   UNL A   1      42.124  29.567  29.957  1.00  0.00    -0.354 N 
ATOM     47  N   UNL A   1      44.844  28.523  30.227  1.00  0.00    -0.248 NA
ATOM     48  C   UNL A   1      47.090  28.820  30.799  1.00  0.00     0.031 C 
ATOM     49  C   UNL A   1      41.715  31.639  30.648  1.00  0.00     0.029 A 
ATOM     50  C   UNL A   1      42.715  30.688  30.514  1.00  0.00     0.049 A 
ATOM     51  H   UNL A   1      42.592  28.729  29.740  1.00  0.00     0.167 HD
ATOM     52  C   UNL A   1      45.022  29.808  30.723  1.00  0.00     0.074 A 
ATOM     53  C   UNL A   1      46.419  29.928  31.087  1.00  0.00     0.031 C 
ATOM     54  C   UNL A   1      44.108  30.799  30.864  1.00  0.00     0.031 A 
BRANCH  41  55
ATOM     55  C   UNL A   1      38.428  29.279  28.969  1.00  0.00    -0.014 A 
ATOM     56  C   UNL A   1      37.513  29.234  30.033  1.00  0.00     0.009 A 
ATOM     57  C   UNL A   1      38.000  29.767  27.725  1.00  0.00     0.009 A 
ATOM     58  C   UNL A   1      36.190  29.639  29.845  1.00  0.00     0.001 A 
ATOM     59  C   UNL A   1      36.684  30.200  27.549  1.00  0.00     0.001 A 
ATOM     60  C   UNL A   1      35.779  30.127  28.605  1.00  0.00     0.000 A 
ENDBRANCH  41  55
BRANCH  42  61
ATOM     61  C   UNL A   1      47.803  26.065  30.100  1.00  0.00    -0.014 A 
ATOM     62  C   UNL A   1      48.689  25.989  29.016  1.00  0.00     0.009 A 
ATOM     63  C   UNL A   1      48.260  25.703  31.378  1.00  0.00     0.009 A 
ATOM     64  C   UNL A   1      50.002  25.548  29.203  1.00  0.00     0.001 A 
ATOM     65  C   UNL A   1      49.581  25.289  31.566  1.00  0.00     0.001 A 
ATOM     66  C   UNL A   1      50.449  25.207  30.479  1.00  0.00     0.000 A 
ENDBRANCH  42  61
BRANCH  54  67
ATOM     67  C   UNL A   1      44.577  32.102  31.448  1.00  0.00    -0.014 A 
ATOM     68  C   UNL A   1      44.565  32.321  32.834  1.00  0.00     0.009 A 
ATOM     69  C   UNL A   1      45.114  33.089  30.607  1.00  0.00     0.009 A 
ATOM     70  C   UNL A   1      45.062  33.513  33.364  1.00  0.00     0.001 A 
ATOM     71  C   UNL A   1      45.636  34.268  31.141  1.00  0.00     0.001 A 
ATOM     72  C   UNL A   1      45.604  34.482  32.519  1.00  0.00     0.000 A 
ENDBRANCH  54  67
ENDBRANCH  28  29
ENDBRANCH  20  23
ENDBRANCH  18  19
ENDBRANCH   1  18
TORSDOF 12
ENDMDL
MODEL 2
REMARK VINA RESULT:      -9.6      0.264      6.228
REMARK SMILES O=C(Cc1c(F)cc(Cl)cc1F)NCCCCNC(=O)c1ccc(-c2c3nc(c(-c4ccccc4)c4ccc([nH]4)c(-c4ccccc4)c4nc(c(-c5ccccc5)c5ccc2[nH]5)C=C4)C=C3)cc1
REMARK SMILES IDX 16 1 15 2 14 3 13 4 1 5 2 6 3 8 4 9 5 10 11 11 6 12 7 13
REMARK SMILES IDX 10 14 12 15 8 16 9 17 17 18 18 19 19 20 20 22 21 23 22 24
REMARK SMILES IDX 68 25 23 26 67 27 24 28 25 29 26 30 61 31 27 32 66 33 60 34
REMARK SMILES IDX 62 35 28 36 65 37 59 38 58 39 29 41 51 42 36 43 50 44 37 45
REMARK SMILES IDX 40 46 49 47 63 48 38 49 39 50 48 52 64 53 41 54 30 55 31 56
REMARK SMILES IDX 35 57 32 58 34 59 33 60 52 61 53 62 57 63 54 64 56 65 55 66
REMARK SMILES IDX 42 67 43 68 47 69 44 70 46 71 45 72
REMARK H PARENT 13 7 18 21 62 40 40 51
REMARK Flexibility Score: inf
ROOT
ATOM      1  C   UNL A   1      44.299  19.449  24.894  1.00  0.00     0.023 C 
ENDROOT
BRANCH   1   2
ATOM      2  C   UNL A   1      44.576  20.950  25.001  1.00  0.00     0.023 C 
BRANCH   2   3
ATOM      3  C   UNL A   1      46.052  21.337  25.014  1.00  0.00     0.116 C 
BRANCH   3   4
ATOM      4  N   UNL A   1      46.281  22.643  25.602  1.00  0.00    -0.356 N 
ATOM      5  O   UNL A   1      46.804  23.694  23.625  1.00  0.00    -0.275 OA
ATOM      6  C   UNL A   1      46.572  23.749  24.829  1.00  0.00     0.224 C 
ATOM      7  H   UNL A   1      46.227  22.743  26.579  1.00  0.00     0.163 HD
BRANCH   6   8
ATOM      8  C   UNL A   1      46.641  25.057  25.596  1.00  0.00     0.141 C 
BRANCH   8   9
ATOM      9  C   UNL A   1      45.386  25.896  25.618  1.00  0.00     0.033 A 
ATOM     10  C   UNL A   1      44.166  25.500  25.064  1.00  0.00     0.131 A 
ATOM     11  C   UNL A   1      45.450  27.182  26.166  1.00  0.00     0.131 A 
ATOM     12  F   UNL A   1      44.036  24.299  24.486  1.00  0.00    -0.207 F 
ATOM     13  C   UNL A   1      43.044  26.325  25.096  1.00  0.00     0.060 A 
ATOM     14  C   UNL A   1      44.345  28.029  26.199  1.00  0.00     0.060 A 
ATOM     15  F   UNL A   1      46.607  27.623  26.681  1.00  0.00    -0.207 F 
ATOM     16  C   UNL A   1      43.139  27.589  25.667  1.00  0.00     0.046 A 
ATOM     17  Cl  UNL A   1      41.759  28.613  25.713  1.00  0.00    -0.084 Cl
ENDBRANCH   8   9
ENDBRANCH   6   8
ENDBRANCH   3   4
ENDBRANCH   2   3
ENDBRANCH   1   2
BRANCH   1  18
ATOM     18  C   UNL A   1      43.542  18.837  26.069  1.00  0.00     0.116 C 
BRANCH  18  19
ATOM     19  N   UNL A   1      42.130  18.632  25.789  1.00  0.00    -0.352 N 
ATOM     20  C   UNL A   1      41.056  19.444  26.064  1.00  0.00     0.251 C 
ATOM     21  H   UNL A   1      41.910  17.787  25.336  1.00  0.00     0.163 HD
ATOM     22  O   UNL A   1      39.912  19.036  25.882  1.00  0.00    -0.269 OA
BRANCH  20  23
ATOM     23  C   UNL A   1      41.270  20.802  26.609  1.00  0.00     0.039 A 
ATOM     24  C   UNL A   1      41.382  20.962  27.994  1.00  0.00     0.014 A 
ATOM     25  C   UNL A   1      41.353  21.915  25.767  1.00  0.00     0.014 A 
ATOM     26  C   UNL A   1      41.650  22.225  28.526  1.00  0.00     0.010 A 
ATOM     27  C   UNL A   1      41.692  23.159  26.293  1.00  0.00     0.010 A 
ATOM     28  C   UNL A   1      41.844  23.328  27.678  1.00  0.00    -0.014 A 
BRANCH  28  29
ATOM     29  C   UNL A   1      42.199  24.663  28.223  1.00  0.00     0.031 A 
ATOM     30  C   UNL A   1      43.610  24.955  28.653  1.00  0.00     0.074 A 
ATOM     31  C   UNL A   1      41.244  25.602  28.367  1.00  0.00     0.049 A 
ATOM     32  N   UNL A   1      44.101  26.050  29.178  1.00  0.00    -0.248 NA
ATOM     33  C   UNL A   1      44.593  23.873  28.489  1.00  0.00     0.031 C 
ATOM     34  C   UNL A   1      39.835  25.439  28.008  1.00  0.00     0.029 A 
ATOM     35  N   UNL A   1      41.317  26.885  28.852  1.00  0.00    -0.354 N 
ATOM     36  C   UNL A   1      45.445  25.787  29.407  1.00  0.00     0.074 A 
ATOM     37  C   UNL A   1      45.679  24.413  29.022  1.00  0.00     0.031 C 
ATOM     38  C   UNL A   1      39.186  26.590  28.244  1.00  0.00     0.029 A 
ATOM     39  C   UNL A   1      40.119  27.557  28.812  1.00  0.00     0.049 A 
ATOM     40  H   UNL A   1      42.148  27.285  29.194  1.00  0.00     0.167 HD
ATOM     41  C   UNL A   1      46.406  26.620  29.872  1.00  0.00     0.031 A 
ATOM     42  C   UNL A   1      39.806  28.813  29.189  1.00  0.00     0.031 A 
ATOM     43  C   UNL A   1      46.176  27.988  30.255  1.00  0.00     0.049 A 
ATOM     44  C   UNL A   1      40.879  29.703  29.752  1.00  0.00     0.074 A 
ATOM     45  C   UNL A   1      47.094  28.920  30.707  1.00  0.00     0.029 A 
ATOM     46  N   UNL A   1      44.941  28.617  30.234  1.00  0.00    -0.354 N 
ATOM     47  N   UNL A   1      42.154  29.453  29.920  1.00  0.00    -0.248 NA
ATOM     48  C   UNL A   1      40.469  31.051  30.171  1.00  0.00     0.031 C 
ATOM     49  C   UNL A   1      46.405  30.097  31.011  1.00  0.00     0.029 A 
ATOM     50  C   UNL A   1      45.068  29.918  30.692  1.00  0.00     0.049 A 
ATOM     51  H   UNL A   1      44.099  28.201  29.938  1.00  0.00     0.167 HD
ATOM     52  C   UNL A   1      42.703  30.616  30.443  1.00  0.00     0.074 A 
ATOM     53  C   UNL A   1      41.625  31.578  30.550  1.00  0.00     0.031 C 
ATOM     54  C   UNL A   1      43.987  30.863  30.802  1.00  0.00     0.031 A 
BRANCH  41  55
ATOM     55  C   UNL A   1      47.801  26.072  29.988  1.00  0.00    -0.014 A 
ATOM     56  C   UNL A   1      48.636  25.976  28.863  1.00  0.00     0.009 A 
ATOM     57  C   UNL A   1      48.304  25.692  31.242  1.00  0.00     0.009 A 
ATOM     58  C   UNL A   1      49.934  25.477  28.987  1.00  0.00     0.001 A 
ATOM     59  C   UNL A   1      49.613  25.222  31.366  1.00  0.00     0.001 A 
ATOM     60  C   UNL A   1      50.423  25.107  30.238  1.00  0.00     0.000 A 
ENDBRANCH  41  55
BRANCH  42  61
ATOM     61  C   UNL A   1      38.417  29.309  29.014  1.00  0.00    -0.014 A 
ATOM     62  C   UNL A   1      37.981  29.765  27.761  1.00  0.00     0.009 A 
ATOM     63  C   UNL A   1      37.510  29.303  30.087  1.00  0.00     0.009 A 
ATOM     64  C   UNL A   1      36.670  30.217  27.588  1.00  0.00     0.001 A 
ATOM     65  C   UNL A   1      36.192  29.729  29.904  1.00  0.00     0.001 A 
ATOM     66  C   UNL A   1      35.775  30.191  28.656  1.00  0.00     0.000 A 
ENDBRANCH  42  61
BRANCH  54  67
ATOM     67  C   UNL A   1      44.310  32.231  31.334  1.00  0.00    -0.014 A 
ATOM     68  C   UNL A   1      44.651  33.283  30.469  1.00  0.00     0.009 A 
ATOM     69  C   UNL A   1      44.194  32.490  32.708  1.00  0.00     0.009 A 
ATOM     70  C   UNL A   1      44.888  34.563  30.975  1.00  0.00     0.001 A 
ATOM     71  C   UNL A   1      44.404  33.777  33.208  1.00  0.00     0.001 A 
ATOM     72  C   UNL A   1      44.756  34.811  32.341  1.00  0.00     0.000 A 
ENDBRANCH  54  67
ENDBRANCH  28  29
ENDBRANCH  20  23
ENDBRANCH  18  19
ENDBRANCH   1  18
TORSDOF 12
ENDMDL
MODEL 3
REMARK VINA RESULT:      -8.6      4.008      9.410
REMARK SMILES O=C(Cc1c(F)cc(Cl)cc1F)NCCCCNC(=O)c1ccc(-c2c3nc(c(-c4ccccc4)c4ccc([nH]4)c(-c4ccccc4)c4nc(c(-c5ccccc5)c5ccc2[nH]5)C=C4)C=C3)cc1
REMARK SMILES IDX 16 1 15 2 14 3 13 4 1 5 2 6 3 8 4 9 5 10 11 11 6 12 7 13
REMARK SMILES IDX 10 14 12 15 8 16 9 17 17 18 18 19 19 20 20 22 21 23 22 24
REMARK SMILES IDX 68 25 23 26 67 27 24 28 25 29 26 30 61 31 27 32 66 33 60 34
REMARK SMILES IDX 62 35 28 36 65 37 59 38 58 39 29 41 51 42 36 43 50 44 37 45
REMARK SMILES IDX 40 46 49 47 63 48 38 49 39 50 48 52 64 53 41 54 30 55 31 56
REMARK SMILES IDX 35 57 32 58 34 59 33 60 52 61 53 62 57 63 54 64 56 65 55 66
REMARK SMILES IDX 42 67 43 68 47 69 44 70 46 71 45 72
REMARK H PARENT 13 7 18 21 62 40 40 51
REMARK Flexibility Score: inf
ROOT
ATOM      1  C   UNL A   1      35.996  33.574  28.805  1.00  0.00     0.023 C 
ENDROOT
BRANCH   1   2
ATOM      2  C   UNL A   1      37.464  33.305  29.141  1.00  0.00     0.023 C 
BRANCH   2   3
ATOM      3  C   UNL A   1      38.113  34.326  30.072  1.00  0.00     0.116 C 
BRANCH   3   4
ATOM      4  N   UNL A   1      38.338  33.801  31.405  1.00  0.00    -0.356 N 
ATOM      5  O   UNL A   1      36.508  34.812  32.361  1.00  0.00    -0.275 OA
ATOM      6  C   UNL A   1      37.455  34.035  32.440  1.00  0.00     0.224 C 
ATOM      7  H   UNL A   1      39.143  33.261  31.576  1.00  0.00     0.163 HD
BRANCH   6   8
ATOM      8  C   UNL A   1      37.775  33.294  33.725  1.00  0.00     0.141 C 
BRANCH   8   9
ATOM      9  C   UNL A   1      38.478  31.965  33.583  1.00  0.00     0.033 A 
ATOM     10  C   UNL A   1      37.848  30.780  33.192  1.00  0.00     0.131 A 
ATOM     11  C   UNL A   1      39.833  31.885  33.924  1.00  0.00     0.131 A 
ATOM     12  F   UNL A   1      36.545  30.769  32.887  1.00  0.00    -0.207 F 
ATOM     13  C   UNL A   1      38.545  29.577  33.097  1.00  0.00     0.060 A 
ATOM     14  C   UNL A   1      40.546  30.691  33.848  1.00  0.00     0.060 A 
ATOM     15  F   UNL A   1      40.475  32.987  34.338  1.00  0.00    -0.207 F 
ATOM     16  C   UNL A   1      39.895  29.539  33.425  1.00  0.00     0.046 A 
ATOM     17  Cl  UNL A   1      40.762  28.059  33.308  1.00  0.00    -0.084 Cl
ENDBRANCH   8   9
ENDBRANCH   6   8
ENDBRANCH   3   4
ENDBRANCH   2   3
ENDBRANCH   1   2
BRANCH   1  18
ATOM     18  C   UNL A   1      34.981  32.778  29.620  1.00  0.00     0.116 C 
BRANCH  18  19
ATOM     19  N   UNL A   1      34.184  31.875  28.806  1.00  0.00    -0.352 N 
ATOM     20  C   UNL A   1      34.553  30.715  28.167  1.00  0.00     0.251 C 
ATOM     21  H   UNL A   1      33.240  32.132  28.695  1.00  0.00     0.163 HD
ATOM     22  O   UNL A   1      33.772  30.159  27.400  1.00  0.00    -0.269 OA
BRANCH  20  23
ATOM     23  C   UNL A   1      35.902  30.147  28.376  1.00  0.00     0.039 A 
ATOM     24  C   UNL A   1      36.832  30.220  27.335  1.00  0.00     0.014 A 
ATOM     25  C   UNL A   1      36.252  29.539  29.585  1.00  0.00     0.014 A 
ATOM     26  C   UNL A   1      38.132  29.749  27.532  1.00  0.00     0.010 A 
ATOM     27  C   UNL A   1      37.567  29.138  29.805  1.00  0.00     0.010 A 
ATOM     28  C   UNL A   1      38.521  29.238  28.781  1.00  0.00    -0.014 A 
BRANCH  28  29
ATOM     29  C   UNL A   1      39.918  28.799  29.030  1.00  0.00     0.031 A 
ATOM     30  C   UNL A   1      40.894  29.722  29.704  1.00  0.00     0.074 A 
ATOM     31  C   UNL A   1      40.321  27.582  28.615  1.00  0.00     0.049 A 
ATOM     32  N   UNL A   1      42.159  29.525  29.979  1.00  0.00    -0.248 NA
ATOM     33  C   UNL A   1      40.390  31.043  30.108  1.00  0.00     0.031 C 
ATOM     34  C   UNL A   1      39.479  26.600  27.930  1.00  0.00     0.029 A 
ATOM     35  N   UNL A   1      41.542  26.963  28.712  1.00  0.00    -0.354 N 
ATOM     36  C   UNL A   1      42.599  30.695  30.583  1.00  0.00     0.074 A 
ATOM     37  C   UNL A   1      41.486  31.618  30.582  1.00  0.00     0.031 C 
ATOM     38  C   UNL A   1      40.197  25.487  27.707  1.00  0.00     0.029 A 
ATOM     39  C   UNL A   1      41.558  25.691  28.191  1.00  0.00     0.049 A 
ATOM     40  H   UNL A   1      42.332  27.389  29.117  1.00  0.00     0.167 HD
ATOM     41  C   UNL A   1      43.813  30.971  31.117  1.00  0.00     0.031 A 
ATOM     42  C   UNL A   1      42.556  24.788  28.113  1.00  0.00     0.031 A 
ATOM     43  C   UNL A   1      44.923  30.055  31.121  1.00  0.00     0.049 A 
ATOM     44  C   UNL A   1      43.910  25.136  28.665  1.00  0.00     0.074 A 
ATOM     45  C   UNL A   1      46.182  30.233  31.667  1.00  0.00     0.029 A 
ATOM     46  N   UNL A   1      44.906  28.791  30.551  1.00  0.00    -0.354 N 
ATOM     47  N   UNL A   1      44.296  26.231  29.273  1.00  0.00    -0.248 NA
ATOM     48  C   UNL A   1      44.963  24.120  28.524  1.00  0.00     0.031 C 
ATOM     49  C   UNL A   1      46.945  29.098  31.380  1.00  0.00     0.029 A 
ATOM     50  C   UNL A   1      46.143  28.189  30.707  1.00  0.00     0.049 A 
ATOM     51  H   UNL A   1      44.131  28.384  30.102  1.00  0.00     0.167 HD
ATOM     52  C   UNL A   1      45.629  26.028  29.607  1.00  0.00     0.074 A 
ATOM     53  C   UNL A   1      45.981  24.700  29.147  1.00  0.00     0.031 C 
ATOM     54  C   UNL A   1      46.484  26.870  30.238  1.00  0.00     0.031 A 
BRANCH  41  55
ATOM     55  C   UNL A   1      44.003  32.323  31.746  1.00  0.00    -0.014 A 
ATOM     56  C   UNL A   1      44.448  33.418  30.988  1.00  0.00     0.009 A 
ATOM     57  C   UNL A   1      43.689  32.517  33.100  1.00  0.00     0.009 A 
ATOM     58  C   UNL A   1      44.607  34.671  31.582  1.00  0.00     0.001 A 
ATOM     59  C   UNL A   1      43.821  33.779  33.683  1.00  0.00     0.001 A 
ATOM     60  C   UNL A   1      44.288  34.852  32.927  1.00  0.00     0.000 A 
ENDBRANCH  41  55
BRANCH  42  61
ATOM     61  C   UNL A   1      42.295  23.454  27.514  1.00  0.00    -0.014 A 
ATOM     62  C   UNL A   1      42.624  23.205  26.173  1.00  0.00     0.009 A 
ATOM     63  C   UNL A   1      41.745  22.415  28.282  1.00  0.00     0.009 A 
ATOM     64  C   UNL A   1      42.397  21.946  25.609  1.00  0.00     0.001 A 
ATOM     65  C   UNL A   1      41.545  21.150  27.724  1.00  0.00     0.001 A 
ATOM     66  C   UNL A   1      41.865  20.918  26.387  1.00  0.00     0.000 A 
ENDBRANCH  42  61
BRANCH  54  67
ATOM     67  C   UNL A   1      47.884  26.384  30.486  1.00  0.00    -0.014 A 
ATOM     68  C   UNL A   1      48.251  25.830  31.723  1.00  0.00     0.009 A 
ATOM     69  C   UNL A   1      48.824  26.405  29.445  1.00  0.00     0.009 A 
ATOM     70  C   UNL A   1      49.538  25.327  31.917  1.00  0.00     0.001 A 
ATOM     71  C   UNL A   1      50.102  25.875  29.632  1.00  0.00     0.001 A 
ATOM     72  C   UNL A   1      50.460  25.342  30.869  1.00  0.00     0.000 A 
ENDBRANCH  54  67
ENDBRANCH  28  29
ENDBRANCH  20  23
ENDBRANCH  18  19
ENDBRANCH   1  18
TORSDOF 12
ENDMDL
