MODEL 1
REMARK VINA RESULT:     -12.6      0.000      0.000
REMARK SMILES Nc1ccc(-c2cc(Cl)cc3c2O[C@H](C(F)(F)F)C(C(=O)NCCCCNC(=O)c2ccc(-c4c5nc(c(-c6ccccc6)c6ccc([nH]6)c(-c6ccccc6)c6nc(c(-c7ccccc7)c7ccc4[nH]7)C=C6)C=C5)cc2)=C3)cc1
REMARK SMILES IDX 24 1 23 2 22 3 20 4 21 5 19 7 6 8 7 9 12 10 8 11 11 12 13 13
REMARK SMILES IDX 9 14 10 15 78 16 14 17 5 18 2 19 3 20 80 21 4 22 79 23 1 24
REMARK SMILES IDX 15 27 16 28 17 29 18 30 25 31 26 32 27 33 28 34 29 36 30 37
REMARK SMILES IDX 31 38 77 39 32 40 76 41 33 42 34 43 35 44 70 45 36 46 75 47
REMARK SMILES IDX 69 48 71 49 37 50 74 51 68 52 67 53 38 55 60 56 45 57 59 58
REMARK SMILES IDX 46 59 49 60 58 61 72 62 47 63 48 64 57 66 73 67 50 68 39 69
REMARK SMILES IDX 40 70 44 71 41 72 43 73 42 74 61 75 62 76 66 77 63 78 65 79
REMARK SMILES IDX 64 80 51 81 52 82 56 83 53 84 55 85 54 86
REMARK H PARENT 22 6 1 25 1 26 27 35 71 54 49 65
REMARK Flexibility Score: inf
ROOT
ATOM      1  C   UNL A   1      33.574  28.272  24.814  1.00  0.00     0.023 C 
ENDROOT
BRANCH   1   2
ATOM      2  C   UNL A   1      32.501  27.420  24.140  1.00  0.00     0.116 C 
BRANCH   2   3
ATOM      3  N   UNL A   1      31.571  26.848  25.099  1.00  0.00    -0.352 N 
ATOM      4  C   UNL A   1      31.411  25.661  25.734  1.00  0.00     0.251 C 
ATOM      5  O   UNL A   1      30.445  25.601  26.501  1.00  0.00    -0.270 OA
ATOM      6  H   UNL A   1      30.872  27.493  25.355  1.00  0.00     0.163 HD
BRANCH   4   7
ATOM      7  C   UNL A   1      32.295  24.471  25.568  1.00  0.00     0.067 C 
ATOM      8  C   UNL A   1      34.836  21.117  25.332  1.00  0.00     0.026 A 
ATOM      9  C   UNL A   1      36.218  21.306  25.466  1.00  0.00     0.033 A 
ATOM     10  C   UNL A   1      33.996  22.238  25.488  1.00  0.00     0.135 A 
ATOM     11  C   UNL A   1      36.733  22.575  25.742  1.00  0.00     0.042 A 
ATOM     12  C   UNL A   1      34.510  23.512  25.757  1.00  0.00     0.019 A 
ATOM     13  O   UNL A   1      32.642  22.025  25.431  1.00  0.00    -0.475 OA
ATOM     14  Cl  UNL A   1      38.434  22.783  25.907  1.00  0.00    -0.084 Cl
ATOM     15  C   UNL A   1      35.889  23.677  25.887  1.00  0.00     0.032 A 
ATOM     16  C   UNL A   1      33.585  24.632  25.923  1.00  0.00     0.025 C 
ATOM     17  C   UNL A   1      31.838  23.153  25.013  1.00  0.00     0.314 C 
BRANCH   8  18
ATOM     18  C   UNL A   1      34.277  19.791  25.024  1.00  0.00    -0.014 A 
ATOM     19  C   UNL A   1      33.211  17.198  24.613  1.00  0.00     0.031 A 
ATOM     20  C   UNL A   1      32.389  18.247  25.023  1.00  0.00     0.026 A 
ATOM     21  C   UNL A   1      34.570  17.451  24.422  1.00  0.00     0.026 A 
ATOM     22  C   UNL A   1      32.910  19.530  25.211  1.00  0.00     0.011 A 
ATOM     23  C   UNL A   1      35.098  18.734  24.613  1.00  0.00     0.011 A 
BRANCH  19  24
ATOM     24  N   UNL A   1      32.713  15.909  24.524  1.00  0.00    -0.399 N 
ATOM     25  H   UNL A   1      32.777  15.415  23.675  1.00  0.00     0.156 HD
ATOM     26  H   UNL A   1      32.295  15.488  25.310  1.00  0.00     0.156 HD
ENDBRANCH  19  24
ENDBRANCH   8  18
BRANCH  17  27
ATOM     27  C   UNL A   1      31.712  23.160  23.477  1.00  0.00     0.429 C 
ATOM     28  F   UNL A   1      30.475  23.573  23.103  1.00  0.00    -0.167 F 
ATOM     29  F   UNL A   1      32.591  24.006  22.890  1.00  0.00    -0.167 F 
ATOM     30  F   UNL A   1      31.915  21.942  22.927  1.00  0.00    -0.167 F 
ENDBRANCH  17  27
ENDBRANCH   4   7
ENDBRANCH   2   3
ENDBRANCH   1   2
BRANCH   1  31
ATOM     31  C   UNL A   1      33.031  29.307  25.802  1.00  0.00     0.023 C 
BRANCH  31  32
ATOM     32  C   UNL A   1      33.596  29.222  27.217  1.00  0.00     0.116 C 
BRANCH  32  33
ATOM     33  N   UNL A   1      33.673  30.496  27.917  1.00  0.00    -0.352 N 
ATOM     34  C   UNL A   1      34.748  31.011  28.610  1.00  0.00     0.251 C 
ATOM     35  H   UNL A   1      32.864  31.056  27.891  1.00  0.00     0.163 HD
ATOM     36  O   UNL A   1      34.660  32.070  29.220  1.00  0.00    -0.269 OA
BRANCH  34  37
ATOM     37  C   UNL A   1      35.996  30.221  28.657  1.00  0.00     0.039 A 
ATOM     38  C   UNL A   1      36.351  29.545  29.823  1.00  0.00     0.014 A 
ATOM     39  C   UNL A   1      36.860  30.253  27.559  1.00  0.00     0.014 A 
ATOM     40  C   UNL A   1      37.647  29.063  29.962  1.00  0.00     0.010 A 
ATOM     41  C   UNL A   1      38.136  29.694  27.675  1.00  0.00     0.010 A 
ATOM     42  C   UNL A   1      38.560  29.152  28.898  1.00  0.00    -0.014 A 
BRANCH  42  43
ATOM     43  C   UNL A   1      39.959  28.704  29.109  1.00  0.00     0.031 A 
ATOM     44  C   UNL A   1      40.404  27.334  28.668  1.00  0.00     0.074 A 
ATOM     45  C   UNL A   1      40.854  29.571  29.617  1.00  0.00     0.049 A 
ATOM     46  N   UNL A   1      41.603  26.808  28.707  1.00  0.00    -0.248 NA
ATOM     47  C   UNL A   1      39.377  26.438  28.111  1.00  0.00     0.031 C 
ATOM     48  C   UNL A   1      40.548  30.933  30.057  1.00  0.00     0.029 A 
ATOM     49  N   UNL A   1      42.207  29.454  29.806  1.00  0.00    -0.354 N 
ATOM     50  C   UNL A   1      41.471  25.521  28.200  1.00  0.00     0.074 A 
ATOM     51  C   UNL A   1      40.074  25.334  27.879  1.00  0.00     0.031 C 
ATOM     52  C   UNL A   1      41.690  31.549  30.396  1.00  0.00     0.029 A 
ATOM     53  C   UNL A   1      42.798  30.610  30.256  1.00  0.00     0.049 A 
ATOM     54  H   UNL A   1      42.707  28.623  29.636  1.00  0.00     0.167 HD
ATOM     55  C   UNL A   1      42.430  24.584  28.010  1.00  0.00     0.031 A 
ATOM     56  C   UNL A   1      44.087  30.887  30.525  1.00  0.00     0.031 A 
ATOM     57  C   UNL A   1      43.822  24.773  28.317  1.00  0.00     0.049 A 
ATOM     58  C   UNL A   1      45.126  29.823  30.331  1.00  0.00     0.074 A 
ATOM     59  C   UNL A   1      44.867  23.877  28.160  1.00  0.00     0.029 A 
ATOM     60  N   UNL A   1      44.368  25.937  28.835  1.00  0.00    -0.354 N 
ATOM     61  N   UNL A   1      44.979  28.608  29.865  1.00  0.00    -0.248 NA
ATOM     62  C   UNL A   1      46.506  30.168  30.703  1.00  0.00     0.031 C 
ATOM     63  C   UNL A   1      46.037  24.485  28.622  1.00  0.00     0.029 A 
ATOM     64  C   UNL A   1      45.730  25.778  29.017  1.00  0.00     0.049 A 
ATOM     65  H   UNL A   1      43.862  26.756  29.042  1.00  0.00     0.167 HD
ATOM     66  C   UNL A   1      46.246  28.041  29.884  1.00  0.00     0.074 A 
ATOM     67  C   UNL A   1      47.152  29.054  30.385  1.00  0.00     0.031 C 
ATOM     68  C   UNL A   1      46.619  26.790  29.524  1.00  0.00     0.031 A 
BRANCH  55  69
ATOM     69  C   UNL A   1      42.010  23.253  27.455  1.00  0.00    -0.014 A 
ATOM     70  C   UNL A   1      41.449  22.287  28.308  1.00  0.00     0.009 A 
ATOM     71  C   UNL A   1      42.244  22.920  26.112  1.00  0.00     0.009 A 
ATOM     72  C   UNL A   1      41.136  21.014  27.828  1.00  0.00     0.001 A 
ATOM     73  C   UNL A   1      41.908  21.652  25.630  1.00  0.00     0.001 A 
ATOM     74  C   UNL A   1      41.363  20.699  26.490  1.00  0.00     0.000 A 
ENDBRANCH  55  69
BRANCH  56  75
ATOM     75  C   UNL A   1      44.450  32.247  30.998  1.00  0.00    -0.014 A 
ATOM     76  C   UNL A   1      44.514  32.529  32.372  1.00  0.00     0.009 A 
ATOM     77  C   UNL A   1      44.673  33.284  30.080  1.00  0.00     0.009 A 
ATOM     78  C   UNL A   1      44.767  33.828  32.818  1.00  0.00     0.001 A 
ATOM     79  C   UNL A   1      44.951  34.576  30.530  1.00  0.00     0.001 A 
ATOM     80  C   UNL A   1      44.988  34.849  31.897  1.00  0.00     0.000 A 
ENDBRANCH  56  75
BRANCH  68  81
ATOM     81  C   UNL A   1      48.072  26.434  29.653  1.00  0.00    -0.014 A 
ATOM     82  C   UNL A   1      48.928  26.584  28.550  1.00  0.00     0.009 A 
ATOM     83  C   UNL A   1      48.574  25.873  30.836  1.00  0.00     0.009 A 
ATOM     84  C   UNL A   1      50.258  26.170  28.627  1.00  0.00     0.001 A 
ATOM     85  C   UNL A   1      49.911  25.480  30.917  1.00  0.00     0.001 A 
ATOM     86  C   UNL A   1      50.749  25.622  29.811  1.00  0.00     0.000 A 
ENDBRANCH  68  81
ENDBRANCH  42  43
ENDBRANCH  34  37
ENDBRANCH  32  33
ENDBRANCH  31  32
ENDBRANCH   1  31
TORSDOF 14
ENDMDL
MODEL 2
REMARK VINA RESULT:     -12.3      0.296      5.782
REMARK SMILES Nc1ccc(-c2cc(Cl)cc3c2O[C@H](C(F)(F)F)C(C(=O)NCCCCNC(=O)c2ccc(-c4c5nc(c(-c6ccccc6)c6ccc([nH]6)c(-c6ccccc6)c6nc(c(-c7ccccc7)c7ccc4[nH]7)C=C6)C=C5)cc2)=C3)cc1
REMARK SMILES IDX 24 1 23 2 22 3 20 4 21 5 19 7 6 8 7 9 12 10 8 11 11 12 13 13
REMARK SMILES IDX 9 14 10 15 78 16 14 17 5 18 2 19 3 20 80 21 4 22 79 23 1 24
REMARK SMILES IDX 15 27 16 28 17 29 18 30 25 31 26 32 27 33 28 34 29 36 30 37
REMARK SMILES IDX 31 38 77 39 32 40 76 41 33 42 34 43 35 44 70 45 36 46 75 47
REMARK SMILES IDX 69 48 71 49 37 50 74 51 68 52 67 53 38 55 60 56 45 57 59 58
REMARK SMILES IDX 46 59 49 60 58 61 72 62 47 63 48 64 57 66 73 67 50 68 39 69
REMARK SMILES IDX 40 70 44 71 41 72 43 73 42 74 61 75 62 76 66 77 63 78 65 79
REMARK SMILES IDX 64 80 51 81 52 82 56 83 53 84 55 85 54 86
REMARK H PARENT 22 6 1 25 1 26 27 35 71 54 49 65
REMARK Flexibility Score: inf
ROOT
ATOM      1  C   UNL A   1      33.575  28.463  24.757  1.00  0.00     0.023 C 
ENDROOT
BRANCH   1   2
ATOM      2  C   UNL A   1      32.620  27.453  24.124  1.00  0.00     0.116 C 
BRANCH   2   3
ATOM      3  N   UNL A   1      31.685  26.900  25.089  1.00  0.00    -0.352 N 
ATOM      4  C   UNL A   1      31.510  25.718  25.729  1.00  0.00     0.251 C 
ATOM      5  O   UNL A   1      30.547  25.677  26.502  1.00  0.00    -0.270 OA
ATOM      6  H   UNL A   1      30.998  27.557  25.346  1.00  0.00     0.163 HD
BRANCH   4   7
ATOM      7  C   UNL A   1      32.373  24.513  25.563  1.00  0.00     0.067 C 
ATOM      8  C   UNL A   1      34.861  21.119  25.324  1.00  0.00     0.026 A 
ATOM      9  C   UNL A   1      36.247  21.291  25.429  1.00  0.00     0.033 A 
ATOM     10  C   UNL A   1      34.040  22.255  25.481  1.00  0.00     0.135 A 
ATOM     11  C   UNL A   1      36.786  22.555  25.677  1.00  0.00     0.042 A 
ATOM     12  C   UNL A   1      34.577  23.525  25.722  1.00  0.00     0.019 A 
ATOM     13  O   UNL A   1      32.683  22.061  25.453  1.00  0.00    -0.475 OA
ATOM     14  Cl  UNL A   1      38.493  22.740  25.806  1.00  0.00    -0.084 Cl
ATOM     15  C   UNL A   1      35.960  23.672  25.823  1.00  0.00     0.032 A 
ATOM     16  C   UNL A   1      33.672  24.660  25.891  1.00  0.00     0.025 C 
ATOM     17  C   UNL A   1      31.887  23.195  25.035  1.00  0.00     0.314 C 
BRANCH   8  18
ATOM     18  C   UNL A   1      34.277  19.797  25.046  1.00  0.00    -0.014 A 
ATOM     19  C   UNL A   1      33.175  17.212  24.691  1.00  0.00     0.031 A 
ATOM     20  C   UNL A   1      32.386  18.261  25.161  1.00  0.00     0.026 A 
ATOM     21  C   UNL A   1      34.519  17.461  24.411  1.00  0.00     0.026 A 
ATOM     22  C   UNL A   1      32.924  19.541  25.322  1.00  0.00     0.011 A 
ATOM     23  C   UNL A   1      35.064  18.740  24.574  1.00  0.00     0.011 A 
BRANCH  19  24
ATOM     24  N   UNL A   1      32.667  15.925  24.626  1.00  0.00    -0.399 N 
ATOM     25  H   UNL A   1      33.245  15.157  24.835  1.00  0.00     0.156 HD
ATOM     26  H   UNL A   1      31.727  15.780  24.372  1.00  0.00     0.156 HD
ENDBRANCH  19  24
ENDBRANCH   8  18
BRANCH  17  27
ATOM     27  C   UNL A   1      31.730  23.182  23.502  1.00  0.00     0.429 C 
ATOM     28  F   UNL A   1      32.716  23.908  22.917  1.00  0.00    -0.167 F 
ATOM     29  F   UNL A   1      31.816  21.934  22.984  1.00  0.00    -0.167 F 
ATOM     30  F   UNL A   1      30.550  23.697  23.089  1.00  0.00    -0.167 F 
ENDBRANCH  17  27
ENDBRANCH   4   7
ENDBRANCH   2   3
ENDBRANCH   1   2
BRANCH   1  31
ATOM     31  C   UNL A   1      32.956  29.300  25.878  1.00  0.00     0.023 C 
BRANCH  31  32
ATOM     32  C   UNL A   1      33.632  29.173  27.241  1.00  0.00     0.116 C 
BRANCH  32  33
ATOM     33  N   UNL A   1      33.703  30.412  28.001  1.00  0.00    -0.352 N 
ATOM     34  C   UNL A   1      34.792  30.925  28.675  1.00  0.00     0.251 C 
ATOM     35  H   UNL A   1      32.877  30.948  28.037  1.00  0.00     0.163 HD
ATOM     36  O   UNL A   1      34.699  31.948  29.341  1.00  0.00    -0.269 OA
BRANCH  34  37
ATOM     37  C   UNL A   1      36.062  30.172  28.630  1.00  0.00     0.039 A 
ATOM     38  C   UNL A   1      36.511  29.492  29.761  1.00  0.00     0.014 A 
ATOM     39  C   UNL A   1      36.852  30.243  27.480  1.00  0.00     0.014 A 
ATOM     40  C   UNL A   1      37.827  29.047  29.809  1.00  0.00     0.010 A 
ATOM     41  C   UNL A   1      38.148  29.721  27.505  1.00  0.00     0.010 A 
ATOM     42  C   UNL A   1      38.666  29.177  28.690  1.00  0.00    -0.014 A 
BRANCH  42  43
ATOM     43  C   UNL A   1      40.088  28.768  28.804  1.00  0.00     0.031 A 
ATOM     44  C   UNL A   1      41.103  29.678  29.443  1.00  0.00     0.074 A 
ATOM     45  C   UNL A   1      40.446  27.530  28.413  1.00  0.00     0.049 A 
ATOM     46  N   UNL A   1      42.369  29.450  29.693  1.00  0.00    -0.248 NA
ATOM     47  C   UNL A   1      40.644  31.014  29.860  1.00  0.00     0.031 C 
ATOM     48  C   UNL A   1      39.547  26.549  27.803  1.00  0.00     0.029 A 
ATOM     49  N   UNL A   1      41.645  26.872  28.511  1.00  0.00    -0.354 N 
ATOM     50  C   UNL A   1      42.858  30.614  30.274  1.00  0.00     0.074 A 
ATOM     51  C   UNL A   1      41.763  31.556  30.322  1.00  0.00     0.031 C 
ATOM     52  C   UNL A   1      40.205  25.392  27.648  1.00  0.00     0.029 A 
ATOM     53  C   UNL A   1      41.585  25.565  28.090  1.00  0.00     0.049 A 
ATOM     54  H   UNL A   1      42.467  27.293  28.849  1.00  0.00     0.167 HD
ATOM     55  C   UNL A   1      44.106  30.870  30.733  1.00  0.00     0.031 A 
ATOM     56  C   UNL A   1      42.532  24.610  28.061  1.00  0.00     0.031 A 
ATOM     57  C   UNL A   1      45.194  29.930  30.697  1.00  0.00     0.049 A 
ATOM     58  C   UNL A   1      43.913  24.928  28.553  1.00  0.00     0.074 A 
ATOM     59  C   UNL A   1      46.495  30.103  31.139  1.00  0.00     0.029 A 
ATOM     60  N   UNL A   1      45.108  28.639  30.200  1.00  0.00    -0.354 N 
ATOM     61  N   UNL A   1      44.360  26.038  29.084  1.00  0.00    -0.248 NA
ATOM     62  C   UNL A   1      44.920  23.863  28.437  1.00  0.00     0.031 C 
ATOM     63  C   UNL A   1      47.207  28.931  30.871  1.00  0.00     0.029 A 
ATOM     64  C   UNL A   1      46.336  28.010  30.310  1.00  0.00     0.049 A 
ATOM     65  H   UNL A   1      44.295  28.230  29.825  1.00  0.00     0.167 HD
ATOM     66  C   UNL A   1      45.699  25.808  29.370  1.00  0.00     0.074 A 
ATOM     67  C   UNL A   1      45.985  24.444  28.975  1.00  0.00     0.031 C 
ATOM     68  C   UNL A   1      46.609  26.656  29.906  1.00  0.00     0.031 A 
BRANCH  55  69
ATOM     69  C   UNL A   1      44.377  32.232  31.307  1.00  0.00    -0.014 A 
ATOM     70  C   UNL A   1      44.856  33.256  30.474  1.00  0.00     0.009 A 
ATOM     71  C   UNL A   1      44.239  32.481  32.681  1.00  0.00     0.009 A 
ATOM     72  C   UNL A   1      45.198  34.501  31.007  1.00  0.00     0.001 A 
ATOM     73  C   UNL A   1      44.560  33.735  33.207  1.00  0.00     0.001 A 
ATOM     74  C   UNL A   1      45.047  34.740  32.371  1.00  0.00     0.000 A 
ENDBRANCH  55  69
BRANCH  56  75
ATOM     75  C   UNL A   1      42.183  23.259  27.554  1.00  0.00    -0.014 A 
ATOM     76  C   UNL A   1      42.459  22.905  26.224  1.00  0.00     0.009 A 
ATOM     77  C   UNL A   1      41.516  22.341  28.378  1.00  0.00     0.009 A 
ATOM     78  C   UNL A   1      42.051  21.669  25.720  1.00  0.00     0.001 A 
ATOM     79  C   UNL A   1      41.132  21.095  27.878  1.00  0.00     0.001 A 
ATOM     80  C   UNL A   1      41.390  20.764  26.548  1.00  0.00     0.000 A 
ENDBRANCH  56  75
BRANCH  68  81
ATOM     81  C   UNL A   1      48.006  26.143  30.103  1.00  0.00    -0.014 A 
ATOM     82  C   UNL A   1      48.398  25.652  31.359  1.00  0.00     0.009 A 
ATOM     83  C   UNL A   1      48.955  26.223  29.074  1.00  0.00     0.009 A 
ATOM     84  C   UNL A   1      49.718  25.259  31.582  1.00  0.00     0.001 A 
ATOM     85  C   UNL A   1      50.269  25.809  29.295  1.00  0.00     0.001 A 
ATOM     86  C   UNL A   1      50.651  25.334  30.549  1.00  0.00     0.000 A 
ENDBRANCH  68  81
ENDBRANCH  42  43
ENDBRANCH  34  37
ENDBRANCH  32  33
ENDBRANCH  31  32
ENDBRANCH   1  31
TORSDOF 14
ENDMDL
MODEL 3
REMARK VINA RESULT:     -12.1      3.013      8.483
REMARK SMILES Nc1ccc(-c2cc(Cl)cc3c2O[C@H](C(F)(F)F)C(C(=O)NCCCCNC(=O)c2ccc(-c4c5nc(c(-c6ccccc6)c6ccc([nH]6)c(-c6ccccc6)c6nc(c(-c7ccccc7)c7ccc4[nH]7)C=C6)C=C5)cc2)=C3)cc1
REMARK SMILES IDX 24 1 23 2 22 3 20 4 21 5 19 7 6 8 7 9 12 10 8 11 11 12 13 13
REMARK SMILES IDX 9 14 10 15 78 16 14 17 5 18 2 19 3 20 80 21 4 22 79 23 1 24
REMARK SMILES IDX 15 27 16 28 17 29 18 30 25 31 26 32 27 33 28 34 29 36 30 37
REMARK SMILES IDX 31 38 77 39 32 40 76 41 33 42 34 43 35 44 70 45 36 46 75 47
REMARK SMILES IDX 69 48 71 49 37 50 74 51 68 52 67 53 38 55 60 56 45 57 59 58
REMARK SMILES IDX 46 59 49 60 58 61 72 62 47 63 48 64 57 66 73 67 50 68 39 69
REMARK SMILES IDX 40 70 44 71 41 72 43 73 42 74 61 75 62 76 66 77 63 78 65 79
REMARK SMILES IDX 64 80 51 81 52 82 56 83 53 84 55 85 54 86
REMARK H PARENT 22 6 1 25 1 26 27 35 71 54 49 65
REMARK Flexibility Score: inf
ROOT
ATOM      1  C   UNL A   1      34.918  22.444  26.277  1.00  0.00     0.023 C 
ENDROOT
BRANCH   1   2
ATOM      2  C   UNL A   1      33.616  22.501  25.481  1.00  0.00     0.116 C 
BRANCH   2   3
ATOM      3  N   UNL A   1      33.846  22.729  24.065  1.00  0.00    -0.352 N 
ATOM      4  C   UNL A   1      33.690  23.753  23.191  1.00  0.00     0.251 C 
ATOM      5  O   UNL A   1      34.027  23.508  22.028  1.00  0.00    -0.270 OA
ATOM      6  H   UNL A   1      34.211  21.927  23.623  1.00  0.00     0.163 HD
BRANCH   4   7
ATOM      7  C   UNL A   1      33.159  25.104  23.534  1.00  0.00     0.067 C 
ATOM      8  C   UNL A   1      31.860  29.013  24.425  1.00  0.00     0.026 A 
ATOM      9  C   UNL A   1      32.434  29.683  25.514  1.00  0.00     0.033 A 
ATOM     10  C   UNL A   1      32.359  27.736  24.096  1.00  0.00     0.135 A 
ATOM     11  C   UNL A   1      33.466  29.089  26.244  1.00  0.00     0.042 A 
ATOM     12  C   UNL A   1      33.388  27.135  24.831  1.00  0.00     0.019 A 
ATOM     13  O   UNL A   1      31.842  27.125  22.983  1.00  0.00    -0.475 OA
ATOM     14  Cl  UNL A   1      34.159  29.933  27.575  1.00  0.00    -0.084 Cl
ATOM     15  C   UNL A   1      33.945  27.821  25.910  1.00  0.00     0.032 A 
ATOM     16  C   UNL A   1      33.872  25.816  24.430  1.00  0.00     0.025 C 
ATOM     17  C   UNL A   1      31.892  25.678  22.971  1.00  0.00     0.314 C 
BRANCH   8  18
ATOM     18  C   UNL A   1      30.761  29.616  23.655  1.00  0.00    -0.014 A 
ATOM     19  C   UNL A   1      28.766  30.900  22.106  1.00  0.00     0.031 A 
ATOM     20  C   UNL A   1      29.606  29.947  21.532  1.00  0.00     0.026 A 
ATOM     21  C   UNL A   1      28.937  31.216  23.454  1.00  0.00     0.026 A 
ATOM     22  C   UNL A   1      30.580  29.300  22.299  1.00  0.00     0.011 A 
ATOM     23  C   UNL A   1      29.914  30.574  24.226  1.00  0.00     0.011 A 
BRANCH  19  24
ATOM     24  N   UNL A   1      27.870  31.609  21.323  1.00  0.00    -0.399 N 
ATOM     25  H   UNL A   1      27.763  31.382  20.371  1.00  0.00     0.156 HD
ATOM     26  H   UNL A   1      27.342  32.339  21.719  1.00  0.00     0.156 HD
ENDBRANCH  19  24
ENDBRANCH   8  18
BRANCH  17  27
ATOM     27  C   UNL A   1      30.625  25.110  23.640  1.00  0.00     0.429 C 
ATOM     28  F   UNL A   1      30.261  23.941  23.055  1.00  0.00    -0.167 F 
ATOM     29  F   UNL A   1      30.813  24.838  24.954  1.00  0.00    -0.167 F 
ATOM     30  F   UNL A   1      29.567  25.948  23.561  1.00  0.00    -0.167 F 
ENDBRANCH  17  27
ENDBRANCH   4   7
ENDBRANCH   2   3
ENDBRANCH   1   2
BRANCH   1  31
ATOM     31  C   UNL A   1      36.150  22.076  25.446  1.00  0.00     0.023 C 
BRANCH  31  32
ATOM     32  C   UNL A   1      37.347  23.011  25.599  1.00  0.00     0.116 C 
BRANCH  32  33
ATOM     33  N   UNL A   1      38.631  22.337  25.724  1.00  0.00    -0.352 N 
ATOM     34  C   UNL A   1      39.794  22.838  26.270  1.00  0.00     0.251 C 
ATOM     35  H   UNL A   1      38.673  21.415  25.380  1.00  0.00     0.163 HD
ATOM     36  O   UNL A   1      40.833  22.189  26.249  1.00  0.00    -0.269 OA
BRANCH  34  37
ATOM     37  C   UNL A   1      39.776  24.207  26.823  1.00  0.00     0.039 A 
ATOM     38  C   UNL A   1      40.355  25.256  26.111  1.00  0.00     0.014 A 
ATOM     39  C   UNL A   1      39.271  24.412  28.110  1.00  0.00     0.014 A 
ATOM     40  C   UNL A   1      40.602  26.462  26.756  1.00  0.00     0.010 A 
ATOM     41  C   UNL A   1      39.449  25.653  28.727  1.00  0.00     0.010 A 
ATOM     42  C   UNL A   1      40.172  26.665  28.078  1.00  0.00    -0.014 A 
BRANCH  42  43
ATOM     43  C   UNL A   1      40.526  27.933  28.764  1.00  0.00     0.031 A 
ATOM     44  C   UNL A   1      39.513  29.036  28.916  1.00  0.00     0.074 A 
ATOM     45  C   UNL A   1      41.740  28.051  29.333  1.00  0.00     0.049 A 
ATOM     46  N   UNL A   1      39.629  30.177  29.550  1.00  0.00    -0.248 NA
ATOM     47  C   UNL A   1      38.200  28.839  28.278  1.00  0.00     0.031 C 
ATOM     48  C   UNL A   1      42.798  27.041  29.276  1.00  0.00     0.029 A 
ATOM     49  N   UNL A   1      42.272  29.050  30.108  1.00  0.00    -0.354 N 
ATOM     50  C   UNL A   1      38.419  30.836  29.373  1.00  0.00     0.074 A 
ATOM     51  C   UNL A   1      37.587  29.982  28.554  1.00  0.00     0.031 C 
ATOM     52  C   UNL A   1      43.823  27.438  30.044  1.00  0.00     0.029 A 
ATOM     53  C   UNL A   1      43.522  28.754  30.598  1.00  0.00     0.049 A 
ATOM     54  H   UNL A   1      41.806  29.896  30.296  1.00  0.00     0.167 HD
ATOM     55  C   UNL A   1      38.032  32.041  29.856  1.00  0.00     0.031 A 
ATOM     56  C   UNL A   1      44.337  29.459  31.403  1.00  0.00     0.031 A 
ATOM     57  C   UNL A   1      38.854  32.886  30.681  1.00  0.00     0.049 A 
ATOM     58  C   UNL A   1      43.895  30.802  31.905  1.00  0.00     0.074 A 
ATOM     59  C   UNL A   1      38.546  34.126  31.216  1.00  0.00     0.029 A 
ATOM     60  N   UNL A   1      40.139  32.577  31.098  1.00  0.00    -0.354 N 
ATOM     61  N   UNL A   1      42.754  31.415  31.713  1.00  0.00    -0.248 NA
ATOM     62  C   UNL A   1      44.855  31.551  32.728  1.00  0.00     0.031 C 
ATOM     63  C   UNL A   1      39.661  34.586  31.922  1.00  0.00     0.029 A 
ATOM     64  C   UNL A   1      40.643  33.609  31.870  1.00  0.00     0.049 A 
ATOM     65  H   UNL A   1      40.621  31.748  30.877  1.00  0.00     0.167 HD
ATOM     66  C   UNL A   1      42.854  32.620  32.394  1.00  0.00     0.074 A 
ATOM     67  C   UNL A   1      44.159  32.641  33.023  1.00  0.00     0.031 C 
ATOM     68  C   UNL A   1      41.946  33.621  32.482  1.00  0.00     0.031 A 
BRANCH  55  69
ATOM     69  C   UNL A   1      36.660  32.534  29.497  1.00  0.00    -0.014 A 
ATOM     70  C   UNL A   1      36.459  33.215  28.284  1.00  0.00     0.009 A 
ATOM     71  C   UNL A   1      35.585  32.402  30.388  1.00  0.00     0.009 A 
ATOM     72  C   UNL A   1      35.211  33.758  27.975  1.00  0.00     0.001 A 
ATOM     73  C   UNL A   1      34.331  32.927  30.065  1.00  0.00     0.001 A 
ATOM     74  C   UNL A   1      34.148  33.612  28.863  1.00  0.00     0.000 A 
ENDBRANCH  55  69
BRANCH  56  75
ATOM     75  C   UNL A   1      45.650  28.883  31.786  1.00  0.00    -0.014 A 
ATOM     76  C   UNL A   1      46.780  29.088  30.978  1.00  0.00     0.009 A 
ATOM     77  C   UNL A   1      45.768  28.075  32.927  1.00  0.00     0.009 A 
ATOM     78  C   UNL A   1      47.995  28.474  31.288  1.00  0.00     0.001 A 
ATOM     79  C   UNL A   1      46.991  27.483  33.248  1.00  0.00     0.001 A 
ATOM     80  C   UNL A   1      48.100  27.674  32.424  1.00  0.00     0.000 A 
ENDBRANCH  56  75
BRANCH  68  81
ATOM     81  C   UNL A   1      42.321  34.830  33.288  1.00  0.00    -0.014 A 
ATOM     82  C   UNL A   1      41.876  34.951  34.615  1.00  0.00     0.009 A 
ATOM     83  C   UNL A   1      43.040  35.887  32.710  1.00  0.00     0.009 A 
ATOM     84  C   UNL A   1      42.138  36.110  35.345  1.00  0.00     0.001 A 
ATOM     85  C   UNL A   1      43.319  37.037  33.451  1.00  0.00     0.001 A 
ATOM     86  C   UNL A   1      42.862  37.151  34.764  1.00  0.00     0.000 A 
ENDBRANCH  68  81
ENDBRANCH  42  43
ENDBRANCH  34  37
ENDBRANCH  32  33
ENDBRANCH  31  32
ENDBRANCH   1  31
TORSDOF 14
ENDMDL
