MODEL 1
REMARK VINA RESULT:     -12.3      0.000      0.000
REMARK SMILES O=C(COc1ccc(NC(=O)c2ccc(Br)cc2)cc1-c1nc2ccccc2o1)NCCCCNC(=O)c1ccc(-c2c3nc(c(-c4ccccc4)c4ccc([nH]4)c(-c4ccccc4)c4nc(c(-c5ccccc5)c5ccc2[nH]5)C=C4)C=C3)cc1
REMARK SMILES IDX 31 1 30 2 1 3 2 4 3 6 4 7 5 8 6 9 20 10 7 11 19 12 8 13
REMARK SMILES IDX 21 14 22 15 29 16 23 17 28 18 24 19 27 20 25 21 26 22 9 23
REMARK SMILES IDX 10 24 11 26 12 27 13 28 18 29 14 30 17 31 15 32 16 33 32 34
REMARK SMILES IDX 33 35 34 36 35 37 36 38 37 40 38 41 39 42 85 43 40 44 84 45
REMARK SMILES IDX 41 46 42 47 43 48 78 49 44 50 83 51 77 52 79 53 45 54 82 55
REMARK SMILES IDX 76 56 75 57 46 59 68 60 53 61 67 62 54 63 57 64 66 65 80 66
REMARK SMILES IDX 55 67 56 68 65 70 81 71 58 72 47 73 48 74 52 75 49 76 51 77
REMARK SMILES IDX 50 78 69 79 70 80 74 81 71 82 73 83 72 84 59 85 60 86 64 87
REMARK SMILES IDX 61 88 63 89 62 90
REMARK H PARENT 30 5 9 25 35 39 79 58 57 69
REMARK Flexibility Score: inf
ROOT
ATOM      1  C   UNL A   1      38.211  23.573  26.350  1.00  0.00     0.116 C 
ENDROOT
BRANCH   1   2
ATOM      2  N   UNL A   1      37.804  23.415  24.967  1.00  0.00    -0.353 N 
ATOM      3  O   UNL A   1      36.755  21.390  24.635  1.00  0.00    -0.271 OA
ATOM      4  C   UNL A   1      36.694  22.612  24.701  1.00  0.00     0.257 C 
ATOM      5  H   UNL A   1      38.296  23.861  24.239  1.00  0.00     0.163 HD
BRANCH   4   6
ATOM      6  C   UNL A   1      35.408  23.426  24.489  1.00  0.00     0.329 C 
BRANCH   6   7
ATOM      7  O   UNL A   1      34.588  22.564  23.698  1.00  0.00    -0.483 OA
BRANCH   7   8
ATOM      8  C   UNL A   1      33.383  23.019  23.252  1.00  0.00     0.132 A 
ATOM      9  C   UNL A   1      33.416  24.383  22.998  1.00  0.00     0.049 A 
ATOM     10  C   UNL A   1      32.161  22.333  23.444  1.00  0.00     0.081 A 
ATOM     11  C   UNL A   1      32.239  25.107  22.982  1.00  0.00     0.030 A 
ATOM     12  C   UNL A   1      30.972  23.093  23.415  1.00  0.00     0.043 A 
ATOM     13  C   UNL A   1      31.006  24.481  23.167  1.00  0.00     0.042 A 
BRANCH  10  14
ATOM     14  C   UNL A   1      32.161  20.884  23.677  1.00  0.00     0.231 A 
ATOM     15  N   UNL A   1      32.233  19.939  22.759  1.00  0.00    -0.209 NA
ATOM     16  O   UNL A   1      32.276  20.418  24.971  1.00  0.00    -0.436 OA
ATOM     17  C   UNL A   1      32.590  18.818  23.449  1.00  0.00     0.110 A 
ATOM     18  C   UNL A   1      32.584  19.084  24.808  1.00  0.00     0.155 A 
ATOM     19  C   UNL A   1      33.026  17.571  22.983  1.00  0.00     0.032 A 
ATOM     20  C   UNL A   1      32.931  18.146  25.776  1.00  0.00     0.049 A 
ATOM     21  C   UNL A   1      33.445  16.626  23.924  1.00  0.00     0.003 A 
ATOM     22  C   UNL A   1      33.380  16.903  25.295  1.00  0.00     0.004 A 
ENDBRANCH  10  14
BRANCH  13  23
ATOM     23  N   UNL A   1      29.803  25.217  23.184  1.00  0.00    -0.322 N 
ATOM     24  C   UNL A   1      29.399  26.248  24.019  1.00  0.00     0.255 C 
ATOM     25  H   UNL A   1      29.148  24.960  22.495  1.00  0.00     0.170 HD
ATOM     26  O   UNL A   1      28.208  26.523  24.137  1.00  0.00    -0.269 OA
BRANCH  24  27
ATOM     27  C   UNL A   1      30.397  27.084  24.738  1.00  0.00     0.040 A 
ATOM     28  C   UNL A   1      30.823  28.290  24.166  1.00  0.00     0.015 A 
ATOM     29  C   UNL A   1      30.878  26.698  25.998  1.00  0.00     0.015 A 
ATOM     30  C   UNL A   1      31.667  29.142  24.888  1.00  0.00     0.016 A 
ATOM     31  C   UNL A   1      31.711  27.556  26.720  1.00  0.00     0.016 A 
ATOM     32  C   UNL A   1      32.091  28.778  26.166  1.00  0.00     0.018 A 
ATOM     33  Br  UNL A   1      33.176  29.957  27.169  1.00  0.00    -0.051 Br
ENDBRANCH  24  27
ENDBRANCH  13  23
ENDBRANCH   7   8
ENDBRANCH   6   7
ENDBRANCH   4   6
ENDBRANCH   1   2
BRANCH   1  34
ATOM     34  C   UNL A   1      39.584  23.016  26.677  1.00  0.00     0.023 C 
BRANCH  34  35
ATOM     35  C   UNL A   1      39.710  21.526  26.400  1.00  0.00     0.023 C 
BRANCH  35  36
ATOM     36  C   UNL A   1      40.862  20.848  27.123  1.00  0.00     0.116 C 
BRANCH  36  37
ATOM     37  N   UNL A   1      41.769  20.131  26.237  1.00  0.00    -0.352 N 
ATOM     38  C   UNL A   1      42.913  20.634  25.650  1.00  0.00     0.251 C 
ATOM     39  H   UNL A   1      41.543  19.194  26.035  1.00  0.00     0.163 HD
ATOM     40  O   UNL A   1      43.556  20.001  24.830  1.00  0.00    -0.269 OA
BRANCH  38  41
ATOM     41  C   UNL A   1      43.311  22.008  26.027  1.00  0.00     0.039 A 
ATOM     42  C   UNL A   1      43.080  23.054  25.134  1.00  0.00     0.014 A 
ATOM     43  C   UNL A   1      43.744  22.257  27.333  1.00  0.00     0.014 A 
ATOM     44  C   UNL A   1      43.215  24.370  25.578  1.00  0.00     0.010 A 
ATOM     45  C   UNL A   1      43.788  23.565  27.794  1.00  0.00     0.010 A 
ATOM     46  C   UNL A   1      43.528  24.636  26.923  1.00  0.00    -0.014 A 
BRANCH  46  47
ATOM     47  C   UNL A   1      43.606  26.026  27.439  1.00  0.00     0.031 A 
ATOM     48  C   UNL A   1      44.943  26.709  27.536  1.00  0.00     0.074 A 
ATOM     49  C   UNL A   1      42.496  26.648  27.885  1.00  0.00     0.049 A 
ATOM     50  N   UNL A   1      45.234  27.892  28.014  1.00  0.00    -0.248 NA
ATOM     51  C   UNL A   1      46.112  25.946  27.066  1.00  0.00     0.031 C 
ATOM     52  C   UNL A   1      41.146  26.078  27.896  1.00  0.00     0.029 A 
ATOM     53  N   UNL A   1      42.328  27.903  28.415  1.00  0.00    -0.354 N 
ATOM     54  C   UNL A   1      46.616  27.999  27.932  1.00  0.00     0.074 A 
ATOM     55  C   UNL A   1      47.111  26.743  27.413  1.00  0.00     0.031 C 
ATOM     56  C   UNL A   1      40.285  26.996  28.365  1.00  0.00     0.029 A 
ATOM     57  C   UNL A   1      41.023  28.203  28.723  1.00  0.00     0.049 A 
ATOM     58  H   UNL A   1      43.074  28.529  28.561  1.00  0.00     0.167 HD
ATOM     59  C   UNL A   1      47.405  29.055  28.236  1.00  0.00     0.031 A 
ATOM     60  C   UNL A   1      40.481  29.328  29.229  1.00  0.00     0.031 A 
ATOM     61  C   UNL A   1      46.911  30.315  28.715  1.00  0.00     0.049 A 
ATOM     62  C   UNL A   1      41.376  30.496  29.541  1.00  0.00     0.074 A 
ATOM     63  C   UNL A   1      47.620  31.475  28.977  1.00  0.00     0.029 A 
ATOM     64  N   UNL A   1      45.582  30.583  28.998  1.00  0.00    -0.354 N 
ATOM     65  N   UNL A   1      42.674  30.606  29.390  1.00  0.00    -0.248 NA
ATOM     66  C   UNL A   1      40.728  31.699  30.082  1.00  0.00     0.031 C 
ATOM     67  C   UNL A   1      46.723  32.431  29.462  1.00  0.00     0.029 A 
ATOM     68  C   UNL A   1      45.450  31.884  29.451  1.00  0.00     0.049 A 
ATOM     69  H   UNL A   1      44.840  29.943  28.891  1.00  0.00     0.167 HD
ATOM     70  C   UNL A   1      42.993  31.898  29.789  1.00  0.00     0.074 A 
ATOM     71  C   UNL A   1      41.752  32.536  30.176  1.00  0.00     0.031 C 
ATOM     72  C   UNL A   1      44.205  32.502  29.830  1.00  0.00     0.031 A 
BRANCH  59  73
ATOM     73  C   UNL A   1      48.888  28.883  28.057  1.00  0.00    -0.014 A 
ATOM     74  C   UNL A   1      49.703  28.436  29.109  1.00  0.00     0.009 A 
ATOM     75  C   UNL A   1      49.475  29.154  26.811  1.00  0.00     0.009 A 
ATOM     76  C   UNL A   1      51.082  28.305  28.929  1.00  0.00     0.001 A 
ATOM     77  C   UNL A   1      50.848  28.992  26.625  1.00  0.00     0.001 A 
ATOM     78  C   UNL A   1      51.652  28.578  27.687  1.00  0.00     0.000 A 
ENDBRANCH  59  73
BRANCH  60  79
ATOM     79  C   UNL A   1      39.013  29.424  29.436  1.00  0.00    -0.014 A 
ATOM     80  C   UNL A   1      38.178  29.852  28.391  1.00  0.00     0.009 A 
ATOM     81  C   UNL A   1      38.435  29.094  30.672  1.00  0.00     0.009 A 
ATOM     82  C   UNL A   1      36.801  29.971  28.585  1.00  0.00     0.001 A 
ATOM     83  C   UNL A   1      37.053  29.189  30.855  1.00  0.00     0.001 A 
ATOM     84  C   UNL A   1      36.238  29.634  29.816  1.00  0.00     0.000 A 
ENDBRANCH  60  79
BRANCH  72  85
ATOM     85  C   UNL A   1      44.246  33.935  30.276  1.00  0.00    -0.014 A 
ATOM     86  C   UNL A   1      44.030  34.986  29.372  1.00  0.00     0.009 A 
ATOM     87  C   UNL A   1      44.452  34.232  31.633  1.00  0.00     0.009 A 
ATOM     88  C   UNL A   1      44.048  36.310  29.815  1.00  0.00     0.001 A 
ATOM     89  C   UNL A   1      44.441  35.554  32.077  1.00  0.00     0.001 A 
ATOM     90  C   UNL A   1      44.247  36.592  31.167  1.00  0.00     0.000 A 
ENDBRANCH  72  85
ENDBRANCH  46  47
ENDBRANCH  38  41
ENDBRANCH  36  37
ENDBRANCH  35  36
ENDBRANCH  34  35
ENDBRANCH   1  34
TORSDOF 16
ENDMDL
MODEL 2
REMARK VINA RESULT:     -12.0      1.685      2.449
REMARK SMILES O=C(COc1ccc(NC(=O)c2ccc(Br)cc2)cc1-c1nc2ccccc2o1)NCCCCNC(=O)c1ccc(-c2c3nc(c(-c4ccccc4)c4ccc([nH]4)c(-c4ccccc4)c4nc(c(-c5ccccc5)c5ccc2[nH]5)C=C4)C=C3)cc1
REMARK SMILES IDX 31 1 30 2 1 3 2 4 3 6 4 7 5 8 6 9 20 10 7 11 19 12 8 13
REMARK SMILES IDX 21 14 22 15 29 16 23 17 28 18 24 19 27 20 25 21 26 22 9 23
REMARK SMILES IDX 10 24 11 26 12 27 13 28 18 29 14 30 17 31 15 32 16 33 32 34
REMARK SMILES IDX 33 35 34 36 35 37 36 38 37 40 38 41 39 42 85 43 40 44 84 45
REMARK SMILES IDX 41 46 42 47 43 48 78 49 44 50 83 51 77 52 79 53 45 54 82 55
REMARK SMILES IDX 76 56 75 57 46 59 68 60 53 61 67 62 54 63 57 64 66 65 80 66
REMARK SMILES IDX 55 67 56 68 65 70 81 71 58 72 47 73 48 74 52 75 49 76 51 77
REMARK SMILES IDX 50 78 69 79 70 80 74 81 71 82 73 83 72 84 59 85 60 86 64 87
REMARK SMILES IDX 61 88 63 89 62 90
REMARK H PARENT 30 5 9 25 35 39 79 58 57 69
REMARK Flexibility Score: inf
ROOT
ATOM      1  C   UNL A   1      40.070  22.162  26.960  1.00  0.00     0.116 C 
ENDROOT
BRANCH   1   2
ATOM      2  N   UNL A   1      39.373  22.548  25.748  1.00  0.00    -0.353 N 
ATOM      3  O   UNL A   1      37.735  21.018  25.209  1.00  0.00    -0.271 OA
ATOM      4  C   UNL A   1      38.047  22.136  25.599  1.00  0.00     0.257 C 
ATOM      5  H   UNL A   1      39.820  23.084  25.054  1.00  0.00     0.163 HD
BRANCH   4   6
ATOM      6  C   UNL A   1      37.038  23.236  25.965  1.00  0.00     0.329 C 
BRANCH   6   7
ATOM      7  O   UNL A   1      35.785  22.550  25.995  1.00  0.00    -0.483 OA
BRANCH   7   8
ATOM      8  C   UNL A   1      34.805  22.917  25.121  1.00  0.00     0.132 A 
ATOM      9  C   UNL A   1      34.819  24.285  24.886  1.00  0.00     0.049 A 
ATOM     10  C   UNL A   1      33.663  22.132  24.842  1.00  0.00     0.081 A 
ATOM     11  C   UNL A   1      33.681  24.914  24.418  1.00  0.00     0.030 A 
ATOM     12  C   UNL A   1      32.515  22.796  24.357  1.00  0.00     0.043 A 
ATOM     13  C   UNL A   1      32.526  24.187  24.127  1.00  0.00     0.042 A 
BRANCH  10  14
ATOM     14  C   UNL A   1      33.694  20.683  25.072  1.00  0.00     0.231 A 
ATOM     15  N   UNL A   1      32.711  19.941  25.544  1.00  0.00    -0.209 NA
ATOM     16  O   UNL A   1      34.768  19.957  24.602  1.00  0.00    -0.436 OA
ATOM     17  C   UNL A   1      33.057  18.663  25.214  1.00  0.00     0.110 A 
ATOM     18  C   UNL A   1      34.331  18.651  24.671  1.00  0.00     0.155 A 
ATOM     19  C   UNL A   1      32.305  17.483  25.257  1.00  0.00     0.032 A 
ATOM     20  C   UNL A   1      34.959  17.497  24.210  1.00  0.00     0.049 A 
ATOM     21  C   UNL A   1      32.879  16.316  24.742  1.00  0.00     0.003 A 
ATOM     22  C   UNL A   1      34.189  16.321  24.246  1.00  0.00     0.004 A 
ENDBRANCH  10  14
BRANCH  13  23
ATOM     23  N   UNL A   1      31.350  24.824  23.680  1.00  0.00    -0.322 N 
ATOM     24  C   UNL A   1      30.714  25.961  24.157  1.00  0.00     0.255 C 
ATOM     25  H   UNL A   1      30.912  24.397  22.909  1.00  0.00     0.170 HD
ATOM     26  O   UNL A   1      29.531  26.166  23.899  1.00  0.00    -0.269 OA
BRANCH  24  27
ATOM     27  C   UNL A   1      31.461  26.986  24.931  1.00  0.00     0.040 A 
ATOM     28  C   UNL A   1      32.161  27.990  24.248  1.00  0.00     0.015 A 
ATOM     29  C   UNL A   1      31.436  26.982  26.334  1.00  0.00     0.015 A 
ATOM     30  C   UNL A   1      32.765  29.028  24.965  1.00  0.00     0.016 A 
ATOM     31  C   UNL A   1      32.030  28.026  27.046  1.00  0.00     0.016 A 
ATOM     32  C   UNL A   1      32.681  29.049  26.358  1.00  0.00     0.018 A 
ATOM     33  Br  UNL A   1      33.440  30.486  27.325  1.00  0.00    -0.051 Br
ENDBRANCH  24  27
ENDBRANCH  13  23
ENDBRANCH   7   8
ENDBRANCH   6   7
ENDBRANCH   4   6
ENDBRANCH   1   2
BRANCH   1  34
ATOM     34  C   UNL A   1      41.506  21.715  26.753  1.00  0.00     0.023 C 
BRANCH  34  35
ATOM     35  C   UNL A   1      41.621  20.357  26.076  1.00  0.00     0.023 C 
BRANCH  35  36
ATOM     36  C   UNL A   1      42.911  19.613  26.380  1.00  0.00     0.116 C 
BRANCH  36  37
ATOM     37  N   UNL A   1      43.525  19.003  25.209  1.00  0.00    -0.352 N 
ATOM     38  C   UNL A   1      44.382  19.617  24.318  1.00  0.00     0.251 C 
ATOM     39  H   UNL A   1      43.307  18.058  25.035  1.00  0.00     0.163 HD
ATOM     40  O   UNL A   1      44.764  19.067  23.299  1.00  0.00    -0.269 OA
BRANCH  38  41
ATOM     41  C   UNL A   1      44.792  21.004  24.629  1.00  0.00     0.039 A 
ATOM     42  C   UNL A   1      44.315  22.049  23.838  1.00  0.00     0.014 A 
ATOM     43  C   UNL A   1      45.498  21.257  25.808  1.00  0.00     0.014 A 
ATOM     44  C   UNL A   1      44.487  23.364  24.273  1.00  0.00     0.010 A 
ATOM     45  C   UNL A   1      45.586  22.560  26.280  1.00  0.00     0.010 A 
ATOM     46  C   UNL A   1      45.085  23.628  25.517  1.00  0.00    -0.014 A 
BRANCH  46  47
ATOM     47  C   UNL A   1      45.214  25.012  26.037  1.00  0.00     0.031 A 
ATOM     48  C   UNL A   1      46.548  25.705  25.983  1.00  0.00     0.074 A 
ATOM     49  C   UNL A   1      44.160  25.620  26.618  1.00  0.00     0.049 A 
ATOM     50  N   UNL A   1      46.885  26.886  26.436  1.00  0.00    -0.248 NA
ATOM     51  C   UNL A   1      47.658  24.958  25.368  1.00  0.00     0.031 C 
ATOM     52  C   UNL A   1      42.825  25.039  26.783  1.00  0.00     0.029 A 
ATOM     53  N   UNL A   1      44.047  26.868  27.180  1.00  0.00    -0.354 N 
ATOM     54  C   UNL A   1      48.247  27.005  26.191  1.00  0.00     0.074 A 
ATOM     55  C   UNL A   1      48.686  25.759  25.603  1.00  0.00     0.031 C 
ATOM     56  C   UNL A   1      42.019  25.944  27.362  1.00  0.00     0.029 A 
ATOM     57  C   UNL A   1      42.786  27.154  27.644  1.00  0.00     0.049 A 
ATOM     58  H   UNL A   1      44.801  27.498  27.243  1.00  0.00     0.167 HD
ATOM     59  C   UNL A   1      49.059  28.064  26.412  1.00  0.00     0.031 A 
ATOM     60  C   UNL A   1      42.301  28.269  28.224  1.00  0.00     0.031 A 
ATOM     61  C   UNL A   1      48.617  29.315  26.961  1.00  0.00     0.049 A 
ATOM     62  C   UNL A   1      43.218  29.440  28.441  1.00  0.00     0.074 A 
ATOM     63  C   UNL A   1      49.343  30.478  27.150  1.00  0.00     0.029 A 
ATOM     64  N   UNL A   1      47.328  29.569  27.403  1.00  0.00    -0.354 N 
ATOM     65  N   UNL A   1      44.488  29.563  28.138  1.00  0.00    -0.248 NA
ATOM     66  C   UNL A   1      42.630  30.633  29.069  1.00  0.00     0.031 C 
ATOM     67  C   UNL A   1      48.504  31.421  27.750  1.00  0.00     0.029 A 
ATOM     68  C   UNL A   1      47.243  30.864  27.884  1.00  0.00     0.049 A 
ATOM     69  H   UNL A   1      46.584  28.924  27.378  1.00  0.00     0.167 HD
ATOM     70  C   UNL A   1      44.843  30.853  28.511  1.00  0.00     0.074 A 
ATOM     71  C   UNL A   1      43.652  31.477  29.051  1.00  0.00     0.031 C 
ATOM     72  C   UNL A   1      46.047  31.467  28.415  1.00  0.00     0.031 A 
BRANCH  59  73
ATOM     73  C   UNL A   1      50.511  27.907  26.056  1.00  0.00    -0.014 A 
ATOM     74  C   UNL A   1      50.987  28.227  24.774  1.00  0.00     0.009 A 
ATOM     75  C   UNL A   1      51.420  27.451  27.023  1.00  0.00     0.009 A 
ATOM     76  C   UNL A   1      52.336  28.054  24.456  1.00  0.00     0.001 A 
ATOM     77  C   UNL A   1      52.773  27.309  26.711  1.00  0.00     0.001 A 
ATOM     78  C   UNL A   1      53.228  27.599  25.426  1.00  0.00     0.000 A 
ENDBRANCH  59  73
BRANCH  60  79
ATOM     79  C   UNL A   1      40.867  28.350  28.605  1.00  0.00    -0.014 A 
ATOM     80  C   UNL A   1      40.430  27.827  29.832  1.00  0.00     0.009 A 
ATOM     81  C   UNL A   1      39.926  28.947  27.750  1.00  0.00     0.009 A 
ATOM     82  C   UNL A   1      39.079  27.875  30.185  1.00  0.00     0.001 A 
ATOM     83  C   UNL A   1      38.580  29.017  28.118  1.00  0.00     0.001 A 
ATOM     84  C   UNL A   1      38.156  28.475  29.330  1.00  0.00     0.000 A 
ENDBRANCH  60  79
BRANCH  72  85
ATOM     85  C   UNL A   1      46.131  32.895  28.869  1.00  0.00    -0.014 A 
ATOM     86  C   UNL A   1      46.493  33.222  30.185  1.00  0.00     0.009 A 
ATOM     87  C   UNL A   1      45.896  33.930  27.949  1.00  0.00     0.009 A 
ATOM     88  C   UNL A   1      46.588  34.558  30.577  1.00  0.00     0.001 A 
ATOM     89  C   UNL A   1      46.020  35.263  28.337  1.00  0.00     0.001 A 
ATOM     90  C   UNL A   1      46.358  35.577  29.652  1.00  0.00     0.000 A 
ENDBRANCH  72  85
ENDBRANCH  46  47
ENDBRANCH  38  41
ENDBRANCH  36  37
ENDBRANCH  35  36
ENDBRANCH  34  35
ENDBRANCH   1  34
TORSDOF 16
ENDMDL
MODEL 3
REMARK VINA RESULT:     -11.4      2.856      7.075
REMARK SMILES O=C(COc1ccc(NC(=O)c2ccc(Br)cc2)cc1-c1nc2ccccc2o1)NCCCCNC(=O)c1ccc(-c2c3nc(c(-c4ccccc4)c4ccc([nH]4)c(-c4ccccc4)c4nc(c(-c5ccccc5)c5ccc2[nH]5)C=C4)C=C3)cc1
REMARK SMILES IDX 31 1 30 2 1 3 2 4 3 6 4 7 5 8 6 9 20 10 7 11 19 12 8 13
REMARK SMILES IDX 21 14 22 15 29 16 23 17 28 18 24 19 27 20 25 21 26 22 9 23
REMARK SMILES IDX 10 24 11 26 12 27 13 28 18 29 14 30 17 31 15 32 16 33 32 34
REMARK SMILES IDX 33 35 34 36 35 37 36 38 37 40 38 41 39 42 85 43 40 44 84 45
REMARK SMILES IDX 41 46 42 47 43 48 78 49 44 50 83 51 77 52 79 53 45 54 82 55
REMARK SMILES IDX 76 56 75 57 46 59 68 60 53 61 67 62 54 63 57 64 66 65 80 66
REMARK SMILES IDX 55 67 56 68 65 70 81 71 58 72 47 73 48 74 52 75 49 76 51 77
REMARK SMILES IDX 50 78 69 79 70 80 74 81 71 82 73 83 72 84 59 85 60 86 64 87
REMARK SMILES IDX 61 88 63 89 62 90
REMARK H PARENT 30 5 9 25 35 39 79 58 57 69
REMARK Flexibility Score: inf
ROOT
ATOM      1  C   UNL A   1      31.189  25.909  26.282  1.00  0.00     0.116 C 
ENDROOT
BRANCH   1   2
ATOM      2  N   UNL A   1      31.238  24.800  27.215  1.00  0.00    -0.353 N 
ATOM      3  O   UNL A   1      30.850  22.796  26.143  1.00  0.00    -0.271 OA
ATOM      4  C   UNL A   1      31.622  23.551  26.723  1.00  0.00     0.257 C 
ATOM      5  H   UNL A   1      31.009  24.924  28.164  1.00  0.00     0.163 HD
BRANCH   4   6
ATOM      6  C   UNL A   1      33.100  23.231  26.999  1.00  0.00     0.329 C 
BRANCH   6   7
ATOM      7  O   UNL A   1      33.403  22.195  26.062  1.00  0.00    -0.483 OA
BRANCH   7   8
ATOM      8  C   UNL A   1      33.584  22.518  24.750  1.00  0.00     0.132 A 
ATOM      9  C   UNL A   1      33.906  23.860  24.596  1.00  0.00     0.049 A 
ATOM     10  C   UNL A   1      33.085  21.750  23.674  1.00  0.00     0.081 A 
ATOM     11  C   UNL A   1      33.688  24.483  23.382  1.00  0.00     0.030 A 
ATOM     12  C   UNL A   1      32.879  22.407  22.441  1.00  0.00     0.043 A 
ATOM     13  C   UNL A   1      33.196  23.773  22.287  1.00  0.00     0.042 A 
BRANCH  10  14
ATOM     14  C   UNL A   1      32.786  20.325  23.863  1.00  0.00     0.231 A 
ATOM     15  N   UNL A   1      32.953  19.363  22.977  1.00  0.00    -0.209 NA
ATOM     16  O   UNL A   1      32.465  19.875  25.127  1.00  0.00    -0.436 OA
ATOM     17  C   UNL A   1      32.921  18.213  23.711  1.00  0.00     0.110 A 
ATOM     18  C   UNL A   1      32.586  18.506  25.023  1.00  0.00     0.155 A 
ATOM     19  C   UNL A   1      33.260  16.902  23.353  1.00  0.00     0.032 A 
ATOM     20  C   UNL A   1      32.498  17.545  26.026  1.00  0.00     0.049 A 
ATOM     21  C   UNL A   1      33.247  15.922  24.350  1.00  0.00     0.003 A 
ATOM     22  C   UNL A   1      32.854  16.235  25.657  1.00  0.00     0.004 A 
ENDBRANCH  10  14
BRANCH  13  23
ATOM     23  N   UNL A   1      32.942  24.408  21.053  1.00  0.00    -0.322 N 
ATOM     24  C   UNL A   1      32.204  25.548  20.772  1.00  0.00     0.255 C 
ATOM     25  H   UNL A   1      33.351  23.975  20.269  1.00  0.00     0.170 HD
ATOM     26  O   UNL A   1      31.782  25.752  19.637  1.00  0.00    -0.269 OA
BRANCH  24  27
ATOM     27  C   UNL A   1      31.962  26.578  21.816  1.00  0.00     0.040 A 
ATOM     28  C   UNL A   1      32.958  27.525  22.091  1.00  0.00     0.015 A 
ATOM     29  C   UNL A   1      30.735  26.635  22.493  1.00  0.00     0.015 A 
ATOM     30  C   UNL A   1      32.695  28.571  22.984  1.00  0.00     0.016 A 
ATOM     31  C   UNL A   1      30.472  27.687  23.374  1.00  0.00     0.016 A 
ATOM     32  C   UNL A   1      31.449  28.655  23.606  1.00  0.00     0.018 A 
ATOM     33  Br  UNL A   1      31.070  30.104  24.760  1.00  0.00    -0.051 Br
ENDBRANCH  24  27
ENDBRANCH  13  23
ENDBRANCH   7   8
ENDBRANCH   6   7
ENDBRANCH   4   6
ENDBRANCH   1   2
BRANCH   1  34
ATOM     34  C   UNL A   1      32.034  27.108  26.673  1.00  0.00     0.023 C 
BRANCH  34  35
ATOM     35  C   UNL A   1      33.444  27.059  26.106  1.00  0.00     0.023 C 
BRANCH  35  36
ATOM     36  C   UNL A   1      34.400  28.071  26.716  1.00  0.00     0.116 C 
BRANCH  36  37
ATOM     37  N   UNL A   1      33.797  29.374  26.960  1.00  0.00    -0.352 N 
ATOM     38  C   UNL A   1      34.342  30.406  27.699  1.00  0.00     0.251 C 
ATOM     39  H   UNL A   1      32.912  29.535  26.560  1.00  0.00     0.163 HD
ATOM     40  O   UNL A   1      33.722  31.424  27.949  1.00  0.00    -0.269 OA
BRANCH  38  41
ATOM     41  C   UNL A   1      35.712  30.206  28.219  1.00  0.00     0.039 A 
ATOM     42  C   UNL A   1      35.886  29.671  29.495  1.00  0.00     0.014 A 
ATOM     43  C   UNL A   1      36.800  30.390  27.360  1.00  0.00     0.014 A 
ATOM     44  C   UNL A   1      37.156  29.247  29.887  1.00  0.00     0.010 A 
ATOM     45  C   UNL A   1      38.041  29.883  27.720  1.00  0.00     0.010 A 
ATOM     46  C   UNL A   1      38.235  29.310  28.988  1.00  0.00    -0.014 A 
BRANCH  46  47
ATOM     47  C   UNL A   1      39.579  28.798  29.354  1.00  0.00     0.031 A 
ATOM     48  C   UNL A   1      40.491  29.642  30.202  1.00  0.00     0.074 A 
ATOM     49  C   UNL A   1      40.010  27.615  28.872  1.00  0.00     0.049 A 
ATOM     50  N   UNL A   1      41.721  29.407  30.581  1.00  0.00    -0.248 NA
ATOM     51  C   UNL A   1      39.960  30.940  30.655  1.00  0.00     0.031 C 
ATOM     52  C   UNL A   1      39.246  26.722  27.995  1.00  0.00     0.029 A 
ATOM     53  N   UNL A   1      41.201  26.957  29.053  1.00  0.00    -0.354 N 
ATOM     54  C   UNL A   1      42.118  30.537  31.285  1.00  0.00     0.074 A 
ATOM     55  C   UNL A   1      41.022  31.479  31.233  1.00  0.00     0.031 C 
ATOM     56  C   UNL A   1      39.970  25.617  27.754  1.00  0.00     0.029 A 
ATOM     57  C   UNL A   1      41.261  25.736  28.425  1.00  0.00     0.049 A 
ATOM     58  H   UNL A   1      41.943  27.326  29.585  1.00  0.00     0.167 HD
ATOM     59  C   UNL A   1      43.281  30.763  31.939  1.00  0.00     0.031 A 
ATOM     60  C   UNL A   1      42.242  24.814  28.399  1.00  0.00     0.031 A 
ATOM     61  C   UNL A   1      44.354  29.813  32.023  1.00  0.00     0.049 A 
ATOM     62  C   UNL A   1      43.518  25.081  29.150  1.00  0.00     0.074 A 
ATOM     63  C   UNL A   1      45.541  29.914  32.728  1.00  0.00     0.029 A 
ATOM     64  N   UNL A   1      44.368  28.583  31.386  1.00  0.00    -0.354 N 
ATOM     65  N   UNL A   1      43.850  26.125  29.870  1.00  0.00    -0.248 NA
ATOM     66  C   UNL A   1      44.549  24.035  29.093  1.00  0.00     0.031 C 
ATOM     67  C   UNL A   1      46.293  28.762  32.479  1.00  0.00     0.029 A 
ATOM     68  C   UNL A   1      45.552  27.922  31.664  1.00  0.00     0.049 A 
ATOM     69  H   UNL A   1      43.642  28.231  30.820  1.00  0.00     0.167 HD
ATOM     70  C   UNL A   1      45.114  25.849  30.376  1.00  0.00     0.074 A 
ATOM     71  C   UNL A   1      45.483  24.535  29.890  1.00  0.00     0.031 C 
ATOM     72  C   UNL A   1      45.899  26.614  31.172  1.00  0.00     0.031 A 
BRANCH  59  73
ATOM     73  C   UNL A   1      43.444  32.096  32.614  1.00  0.00    -0.014 A 
ATOM     74  C   UNL A   1      44.007  33.192  31.939  1.00  0.00     0.009 A 
ATOM     75  C   UNL A   1      43.012  32.265  33.938  1.00  0.00     0.009 A 
ATOM     76  C   UNL A   1      44.171  34.416  32.590  1.00  0.00     0.001 A 
ATOM     77  C   UNL A   1      43.148  33.498  34.576  1.00  0.00     0.001 A 
ATOM     78  C   UNL A   1      43.737  34.570  33.906  1.00  0.00     0.000 A 
ENDBRANCH  59  73
BRANCH  60  79
ATOM     79  C   UNL A   1      42.047  23.534  27.670  1.00  0.00    -0.014 A 
ATOM     80  C   UNL A   1      41.442  22.441  28.312  1.00  0.00     0.009 A 
ATOM     81  C   UNL A   1      42.461  23.391  26.337  1.00  0.00     0.009 A 
ATOM     82  C   UNL A   1      41.280  21.226  27.644  1.00  0.00     0.001 A 
ATOM     83  C   UNL A   1      42.273  22.182  25.663  1.00  0.00     0.001 A 
ATOM     84  C   UNL A   1      41.690  21.098  26.317  1.00  0.00     0.000 A 
ENDBRANCH  60  79
BRANCH  72  85
ATOM     85  C   UNL A   1      47.219  26.038  31.597  1.00  0.00    -0.014 A 
ATOM     86  C   UNL A   1      48.345  26.101  30.763  1.00  0.00     0.009 A 
ATOM     87  C   UNL A   1      47.348  25.473  32.876  1.00  0.00     0.009 A 
ATOM     88  C   UNL A   1      49.568  25.580  31.190  1.00  0.00     0.001 A 
ATOM     89  C   UNL A   1      48.578  24.980  33.311  1.00  0.00     0.001 A 
ATOM     90  C   UNL A   1      49.684  25.027  32.465  1.00  0.00     0.000 A 
ENDBRANCH  72  85
ENDBRANCH  46  47
ENDBRANCH  38  41
ENDBRANCH  36  37
ENDBRANCH  35  36
ENDBRANCH  34  35
ENDBRANCH   1  34
TORSDOF 16
ENDMDL
