MODEL 1
REMARK VINA RESULT:     -11.6      0.000      0.000
REMARK SMILES O=C(NCCCCNC(=O)[C@H]1CCCN(C(=O)c2cc(Br)ccc2Cl)C1)c1ccc(-c2c3nc(c(-c4ccccc4)c4ccc([nH]4)c(-c4ccccc4)c4nc(c(-c5ccccc5)c5ccc2[nH]5)C=C4)C=C3)cc1
REMARK SMILES IDX 5 1 4 2 3 3 1 4 2 5 27 7 28 8 74 9 29 10 73 11 30 12 31 13
REMARK SMILES IDX 32 14 67 15 33 16 72 17 66 18 68 19 34 20 71 21 65 22 64 23
REMARK SMILES IDX 35 25 57 26 42 27 56 28 43 29 46 30 55 31 69 32 44 33 45 34
REMARK SMILES IDX 54 36 70 37 47 38 36 39 37 40 41 41 38 42 40 43 39 44 58 45
REMARK SMILES IDX 59 46 63 47 60 48 62 49 61 50 48 51 49 52 53 53 50 54 52 55
REMARK SMILES IDX 51 56 6 57 7 58 8 59 9 60 10 62 11 63 12 64 26 65 13 66
REMARK SMILES IDX 15 67 14 68 16 69 17 70 18 71 19 72 24 73 20 74 23 75 25 76
REMARK SMILES IDX 21 77 22 78
REMARK H PARENT 3 6 68 24 46 35 8 61
REMARK Flexibility Score: inf
ROOT
ATOM      1  C   UNL A   1      37.528  19.990  24.916  1.00  0.00     0.023 C 
ENDROOT
BRANCH   1   2
ATOM      2  C   UNL A   1      38.753  20.427  25.707  1.00  0.00     0.116 C 
BRANCH   2   3
ATOM      3  N   UNL A   1      39.833  19.453  25.683  1.00  0.00    -0.352 N 
ATOM      4  O   UNL A   1      41.964  18.717  25.853  1.00  0.00    -0.269 OA
ATOM      5  C   UNL A   1      41.152  19.618  26.039  1.00  0.00     0.251 C 
ATOM      6  H   UNL A   1      39.586  18.552  25.372  1.00  0.00     0.163 HD
BRANCH   5   7
ATOM      7  C   UNL A   1      41.597  20.905  26.616  1.00  0.00     0.039 A 
ATOM      8  C   UNL A   1      41.532  21.125  27.993  1.00  0.00     0.014 A 
ATOM      9  C   UNL A   1      42.069  21.909  25.766  1.00  0.00     0.014 A 
ATOM     10  C   UNL A   1      41.792  22.393  28.499  1.00  0.00     0.010 A 
ATOM     11  C   UNL A   1      42.414  23.160  26.289  1.00  0.00     0.010 A 
ATOM     12  C   UNL A   1      42.245  23.422  27.656  1.00  0.00    -0.014 A 
BRANCH  12  13
ATOM     13  C   UNL A   1      42.582  24.739  28.254  1.00  0.00     0.031 A 
ATOM     14  C   UNL A   1      43.999  25.108  28.595  1.00  0.00     0.074 A 
ATOM     15  C   UNL A   1      41.592  25.635  28.427  1.00  0.00     0.049 A 
ATOM     16  N   UNL A   1      44.464  26.250  29.039  1.00  0.00    -0.248 NA
ATOM     17  C   UNL A   1      45.026  24.070  28.422  1.00  0.00     0.031 C 
ATOM     18  C   UNL A   1      40.174  25.387  28.146  1.00  0.00     0.029 A 
ATOM     19  N   UNL A   1      41.625  26.941  28.841  1.00  0.00    -0.354 N 
ATOM     20  C   UNL A   1      45.831  26.066  29.209  1.00  0.00     0.074 A 
ATOM     21  C   UNL A   1      46.118  24.695  28.846  1.00  0.00     0.031 C 
ATOM     22  C   UNL A   1      39.486  26.522  28.335  1.00  0.00     0.029 A 
ATOM     23  C   UNL A   1      40.399  27.558  28.801  1.00  0.00     0.049 A 
ATOM     24  H   UNL A   1      42.448  27.392  29.138  1.00  0.00     0.167 HD
ATOM     25  C   UNL A   1      46.762  26.960  29.622  1.00  0.00     0.031 A 
ATOM     26  C   UNL A   1      40.043  28.819  29.107  1.00  0.00     0.031 A 
ATOM     27  C   UNL A   1      46.476  28.323  29.987  1.00  0.00     0.049 A 
ATOM     28  C   UNL A   1      41.095  29.784  29.564  1.00  0.00     0.074 A 
ATOM     29  C   UNL A   1      47.356  29.304  30.415  1.00  0.00     0.029 A 
ATOM     30  N   UNL A   1      45.217  28.901  29.964  1.00  0.00    -0.354 N 
ATOM     31  N   UNL A   1      42.384  29.595  29.700  1.00  0.00    -0.248 NA
ATOM     32  C   UNL A   1      40.640  31.138  29.907  1.00  0.00     0.031 C 
ATOM     33  C   UNL A   1      46.621  30.466  30.686  1.00  0.00     0.029 A 
ATOM     34  C   UNL A   1      45.292  30.219  30.382  1.00  0.00     0.049 A 
ATOM     35  H   UNL A   1      44.390  28.441  29.691  1.00  0.00     0.167 HD
ATOM     36  C   UNL A   1      42.897  30.805  30.140  1.00  0.00     0.074 A 
ATOM     37  C   UNL A   1      41.784  31.731  30.216  1.00  0.00     0.031 C 
ATOM     38  C   UNL A   1      44.173  31.120  30.464  1.00  0.00     0.031 A 
BRANCH  25  39
ATOM     39  C   UNL A   1      48.186  26.487  29.716  1.00  0.00    -0.014 A 
ATOM     40  C   UNL A   1      48.686  25.922  30.899  1.00  0.00     0.009 A 
ATOM     41  C   UNL A   1      49.022  26.559  28.590  1.00  0.00     0.009 A 
ATOM     42  C   UNL A   1      50.001  25.456  30.959  1.00  0.00     0.001 A 
ATOM     43  C   UNL A   1      50.330  26.072  28.647  1.00  0.00     0.001 A 
ATOM     44  C   UNL A   1      50.820  25.527  29.832  1.00  0.00     0.000 A 
ENDBRANCH  25  39
BRANCH  26  45
ATOM     45  C   UNL A   1      38.621  29.229  28.998  1.00  0.00    -0.014 A 
ATOM     46  C   UNL A   1      38.106  29.721  27.790  1.00  0.00     0.009 A 
ATOM     47  C   UNL A   1      37.766  29.114  30.106  1.00  0.00     0.009 A 
ATOM     48  C   UNL A   1      36.767  30.111  27.701  1.00  0.00     0.001 A 
ATOM     49  C   UNL A   1      36.422  29.476  30.005  1.00  0.00     0.001 A 
ATOM     50  C   UNL A   1      35.926  29.982  28.805  1.00  0.00     0.000 A 
ENDBRANCH  26  45
BRANCH  38  51
ATOM     51  C   UNL A   1      44.425  32.529  30.919  1.00  0.00    -0.014 A 
ATOM     52  C   UNL A   1      44.363  32.870  32.279  1.00  0.00     0.009 A 
ATOM     53  C   UNL A   1      44.734  33.522  29.978  1.00  0.00     0.009 A 
ATOM     54  C   UNL A   1      44.566  34.191  32.683  1.00  0.00     0.001 A 
ATOM     55  C   UNL A   1      44.960  34.837  30.388  1.00  0.00     0.001 A 
ATOM     56  C   UNL A   1      44.865  35.172  31.739  1.00  0.00     0.000 A 
ENDBRANCH  38  51
ENDBRANCH  12  13
ENDBRANCH   5   7
ENDBRANCH   2   3
ENDBRANCH   1   2
BRANCH   1  57
ATOM     57  C   UNL A   1      36.467  21.070  24.703  1.00  0.00     0.023 C 
BRANCH  57  58
ATOM     58  C   UNL A   1      35.494  21.257  25.865  1.00  0.00     0.116 C 
BRANCH  58  59
ATOM     59  N   UNL A   1      34.407  20.290  25.839  1.00  0.00    -0.356 N 
ATOM     60  C   UNL A   1      33.142  20.417  25.341  1.00  0.00     0.224 C 
ATOM     61  H   UNL A   1      34.614  19.415  26.243  1.00  0.00     0.163 HD
ATOM     62  O   UNL A   1      32.388  19.447  25.403  1.00  0.00    -0.275 OA
BRANCH  60  63
ATOM     63  C   UNL A   1      32.716  21.744  24.748  1.00  0.00     0.098 C 
ATOM     64  C   UNL A   1      32.445  21.651  23.238  1.00  0.00     0.017 C 
ATOM     65  C   UNL A   1      31.454  22.239  25.451  1.00  0.00     0.133 C 
ATOM     66  C   UNL A   1      32.000  23.012  22.697  1.00  0.00     0.022 C 
ATOM     67  N   UNL A   1      31.070  23.546  24.920  1.00  0.00    -0.338 N 
ATOM     68  C   UNL A   1      30.809  23.572  23.478  1.00  0.00     0.120 C 
BRANCH  67  69
ATOM     69  C   UNL A   1      31.050  24.636  25.783  1.00  0.00     0.255 C 
ATOM     70  O   UNL A   1      30.558  24.604  26.909  1.00  0.00    -0.269 OA
BRANCH  69  71
ATOM     71  C   UNL A   1      31.709  25.888  25.378  1.00  0.00     0.059 A 
ATOM     72  C   UNL A   1      30.884  26.907  24.881  1.00  0.00     0.031 A 
ATOM     73  C   UNL A   1      33.097  26.062  25.428  1.00  0.00     0.053 A 
ATOM     74  C   UNL A   1      31.449  28.113  24.480  1.00  0.00     0.018 A 
ATOM     75  C   UNL A   1      33.651  27.284  25.035  1.00  0.00     0.022 A 
ATOM     76  Cl  UNL A   1      34.175  24.817  25.944  1.00  0.00    -0.083 Cl
ATOM     77  Br  UNL A   1      30.342  29.492  23.815  1.00  0.00    -0.051 Br
ATOM     78  C   UNL A   1      32.827  28.313  24.566  1.00  0.00     0.017 A 
ENDBRANCH  69  71
ENDBRANCH  67  69
ENDBRANCH  60  63
ENDBRANCH  58  59
ENDBRANCH  57  58
ENDBRANCH   1  57
TORSDOF 13
ENDMDL
MODEL 2
REMARK VINA RESULT:     -11.6      2.476      7.552
REMARK SMILES O=C(NCCCCNC(=O)[C@H]1CCCN(C(=O)c2cc(Br)ccc2Cl)C1)c1ccc(-c2c3nc(c(-c4ccccc4)c4ccc([nH]4)c(-c4ccccc4)c4nc(c(-c5ccccc5)c5ccc2[nH]5)C=C4)C=C3)cc1
REMARK SMILES IDX 5 1 4 2 3 3 1 4 2 5 27 7 28 8 74 9 29 10 73 11 30 12 31 13
REMARK SMILES IDX 32 14 67 15 33 16 72 17 66 18 68 19 34 20 71 21 65 22 64 23
REMARK SMILES IDX 35 25 57 26 42 27 56 28 43 29 46 30 55 31 69 32 44 33 45 34
REMARK SMILES IDX 54 36 70 37 47 38 36 39 37 40 41 41 38 42 40 43 39 44 58 45
REMARK SMILES IDX 59 46 63 47 60 48 62 49 61 50 48 51 49 52 53 53 50 54 52 55
REMARK SMILES IDX 51 56 6 57 7 58 8 59 9 60 10 62 11 63 12 64 26 65 13 66
REMARK SMILES IDX 15 67 14 68 16 69 17 70 18 71 19 72 24 73 20 74 23 75 25 76
REMARK SMILES IDX 21 77 22 78
REMARK H PARENT 3 6 68 24 46 35 8 61
REMARK Flexibility Score: inf
ROOT
ATOM      1  C   UNL A   1      33.836  28.285  25.848  1.00  0.00     0.023 C 
ENDROOT
BRANCH   1   2
ATOM      2  C   UNL A   1      33.553  28.548  27.321  1.00  0.00     0.116 C 
BRANCH   2   3
ATOM      3  N   UNL A   1      33.520  29.962  27.658  1.00  0.00    -0.352 N 
ATOM      4  O   UNL A   1      34.288  31.904  28.525  1.00  0.00    -0.269 OA
ATOM      5  C   UNL A   1      34.517  30.744  28.195  1.00  0.00     0.251 C 
ATOM      6  H   UNL A   1      32.669  30.424  27.476  1.00  0.00     0.163 HD
BRANCH   5   7
ATOM      7  C   UNL A   1      35.862  30.167  28.410  1.00  0.00     0.039 A 
ATOM      8  C   UNL A   1      36.215  29.632  29.649  1.00  0.00     0.014 A 
ATOM      9  C   UNL A   1      36.787  30.179  27.361  1.00  0.00     0.014 A 
ATOM     10  C   UNL A   1      37.530  29.251  29.884  1.00  0.00     0.010 A 
ATOM     11  C   UNL A   1      38.088  29.714  27.575  1.00  0.00     0.010 A 
ATOM     12  C   UNL A   1      38.480  29.278  28.849  1.00  0.00    -0.014 A 
BRANCH  12  13
ATOM     13  C   UNL A   1      39.855  28.791  29.127  1.00  0.00     0.031 A 
ATOM     14  C   UNL A   1      40.300  27.415  28.717  1.00  0.00     0.074 A 
ATOM     15  C   UNL A   1      40.729  29.639  29.702  1.00  0.00     0.049 A 
ATOM     16  N   UNL A   1      41.491  26.877  28.810  1.00  0.00    -0.248 NA
ATOM     17  C   UNL A   1      39.285  26.525  28.133  1.00  0.00     0.031 C 
ATOM     18  C   UNL A   1      40.411  30.996  30.158  1.00  0.00     0.029 A 
ATOM     19  N   UNL A   1      42.067  29.505  29.968  1.00  0.00    -0.354 N 
ATOM     20  C   UNL A   1      41.369  25.587  28.309  1.00  0.00     0.074 A 
ATOM     21  C   UNL A   1      39.981  25.411  27.937  1.00  0.00     0.031 C 
ATOM     22  C   UNL A   1      41.534  31.589  30.586  1.00  0.00     0.029 A 
ATOM     23  C   UNL A   1      42.636  30.640  30.488  1.00  0.00     0.049 A 
ATOM     24  H   UNL A   1      42.570  28.675  29.802  1.00  0.00     0.167 HD
ATOM     25  C   UNL A   1      42.326  24.639  28.165  1.00  0.00     0.031 A 
ATOM     26  C   UNL A   1      43.907  30.896  30.851  1.00  0.00     0.031 A 
ATOM     27  C   UNL A   1      43.706  24.811  28.538  1.00  0.00     0.049 A 
ATOM     28  C   UNL A   1      44.943  29.826  30.682  1.00  0.00     0.074 A 
ATOM     29  C   UNL A   1      44.749  23.907  28.427  1.00  0.00     0.029 A 
ATOM     30  N   UNL A   1      44.237  25.965  29.091  1.00  0.00    -0.354 N 
ATOM     31  N   UNL A   1      44.810  28.620  30.189  1.00  0.00    -0.248 NA
ATOM     32  C   UNL A   1      46.307  30.156  31.118  1.00  0.00     0.031 C 
ATOM     33  C   UNL A   1      45.905  24.503  28.947  1.00  0.00     0.029 A 
ATOM     34  C   UNL A   1      45.589  25.794  29.340  1.00  0.00     0.049 A 
ATOM     35  H   UNL A   1      43.728  26.786  29.282  1.00  0.00     0.167 HD
ATOM     36  C   UNL A   1      46.071  28.046  30.251  1.00  0.00     0.074 A 
ATOM     37  C   UNL A   1      46.962  29.050  30.799  1.00  0.00     0.031 C 
ATOM     38  C   UNL A   1      46.456  26.797  29.898  1.00  0.00     0.031 A 
BRANCH  25  39
ATOM     39  C   UNL A   1      41.911  23.315  27.586  1.00  0.00    -0.014 A 
ATOM     40  C   UNL A   1      41.324  22.325  28.390  1.00  0.00     0.009 A 
ATOM     41  C   UNL A   1      42.059  23.075  26.211  1.00  0.00     0.009 A 
ATOM     42  C   UNL A   1      40.913  21.113  27.831  1.00  0.00     0.001 A 
ATOM     43  C   UNL A   1      41.627  21.870  25.651  1.00  0.00     0.001 A 
ATOM     44  C   UNL A   1      41.060  20.888  26.462  1.00  0.00     0.000 A 
ENDBRANCH  25  39
BRANCH  26  45
ATOM     45  C   UNL A   1      44.259  32.221  31.418  1.00  0.00    -0.014 A 
ATOM     46  C   UNL A   1      44.682  33.269  30.587  1.00  0.00     0.009 A 
ATOM     47  C   UNL A   1      44.156  32.447  32.800  1.00  0.00     0.009 A 
ATOM     48  C   UNL A   1      45.017  34.510  31.133  1.00  0.00     0.001 A 
ATOM     49  C   UNL A   1      44.462  33.697  33.339  1.00  0.00     0.001 A 
ATOM     50  C   UNL A   1      44.901  34.725  32.506  1.00  0.00     0.000 A 
ENDBRANCH  26  45
BRANCH  38  51
ATOM     51  C   UNL A   1      47.907  26.460  30.087  1.00  0.00    -0.014 A 
ATOM     52  C   UNL A   1      48.371  25.925  31.298  1.00  0.00     0.009 A 
ATOM     53  C   UNL A   1      48.816  26.674  29.041  1.00  0.00     0.009 A 
ATOM     54  C   UNL A   1      49.728  25.648  31.471  1.00  0.00     0.001 A 
ATOM     55  C   UNL A   1      50.168  26.373  29.208  1.00  0.00     0.001 A 
ATOM     56  C   UNL A   1      50.624  25.871  30.427  1.00  0.00     0.000 A 
ENDBRANCH  38  51
ENDBRANCH  12  13
ENDBRANCH   5   7
ENDBRANCH   2   3
ENDBRANCH   1   2
BRANCH   1  57
ATOM     57  C   UNL A   1      33.275  29.325  24.878  1.00  0.00     0.023 C 
BRANCH  57  58
ATOM     58  C   UNL A   1      33.481  29.007  23.399  1.00  0.00     0.116 C 
BRANCH  58  59
ATOM     59  N   UNL A   1      32.224  28.901  22.674  1.00  0.00    -0.356 N 
ATOM     60  C   UNL A   1      31.342  27.860  22.612  1.00  0.00     0.224 C 
ATOM     61  H   UNL A   1      31.974  29.697  22.150  1.00  0.00     0.163 HD
ATOM     62  O   UNL A   1      30.315  28.002  21.950  1.00  0.00    -0.275 OA
BRANCH  60  63
ATOM     63  C   UNL A   1      31.669  26.575  23.345  1.00  0.00     0.098 C 
ATOM     64  C   UNL A   1      30.722  26.318  24.527  1.00  0.00     0.017 C 
ATOM     65  C   UNL A   1      31.589  25.397  22.376  1.00  0.00     0.133 C 
ATOM     66  C   UNL A   1      31.085  25.001  25.217  1.00  0.00     0.022 C 
ATOM     67  N   UNL A   1      31.958  24.162  23.066  1.00  0.00    -0.338 N 
ATOM     68  C   UNL A   1      31.127  23.833  24.227  1.00  0.00     0.120 C 
BRANCH  67  69
ATOM     69  C   UNL A   1      33.071  23.457  22.620  1.00  0.00     0.255 C 
ATOM     70  O   UNL A   1      33.456  23.458  21.453  1.00  0.00    -0.269 OA
BRANCH  69  71
ATOM     71  C   UNL A   1      33.893  22.718  23.593  1.00  0.00     0.059 A 
ATOM     72  C   UNL A   1      35.023  23.378  24.098  1.00  0.00     0.031 A 
ATOM     73  C   UNL A   1      33.612  21.402  23.975  1.00  0.00     0.053 A 
ATOM     74  C   UNL A   1      35.840  22.730  25.019  1.00  0.00     0.018 A 
ATOM     75  C   UNL A   1      34.433  20.767  24.911  1.00  0.00     0.022 A 
ATOM     76  Cl  UNL A   1      32.290  20.504  23.322  1.00  0.00    -0.083 Cl
ATOM     77  Br  UNL A   1      37.360  23.616  25.708  1.00  0.00    -0.051 Br
ATOM     78  C   UNL A   1      35.544  21.433  25.439  1.00  0.00     0.017 A 
ENDBRANCH  69  71
ENDBRANCH  67  69
ENDBRANCH  60  63
ENDBRANCH  58  59
ENDBRANCH  57  58
ENDBRANCH   1  57
TORSDOF 13
ENDMDL
MODEL 3
REMARK VINA RESULT:     -11.4      0.425      5.979
REMARK SMILES O=C(NCCCCNC(=O)[C@H]1CCCN(C(=O)c2cc(Br)ccc2Cl)C1)c1ccc(-c2c3nc(c(-c4ccccc4)c4ccc([nH]4)c(-c4ccccc4)c4nc(c(-c5ccccc5)c5ccc2[nH]5)C=C4)C=C3)cc1
REMARK SMILES IDX 5 1 4 2 3 3 1 4 2 5 27 7 28 8 74 9 29 10 73 11 30 12 31 13
REMARK SMILES IDX 32 14 67 15 33 16 72 17 66 18 68 19 34 20 71 21 65 22 64 23
REMARK SMILES IDX 35 25 57 26 42 27 56 28 43 29 46 30 55 31 69 32 44 33 45 34
REMARK SMILES IDX 54 36 70 37 47 38 36 39 37 40 41 41 38 42 40 43 39 44 58 45
REMARK SMILES IDX 59 46 63 47 60 48 62 49 61 50 48 51 49 52 53 53 50 54 52 55
REMARK SMILES IDX 51 56 6 57 7 58 8 59 9 60 10 62 11 63 12 64 26 65 13 66
REMARK SMILES IDX 15 67 14 68 16 69 17 70 18 71 19 72 24 73 20 74 23 75 25 76
REMARK SMILES IDX 21 77 22 78
REMARK H PARENT 3 6 68 24 46 35 8 61
REMARK Flexibility Score: inf
ROOT
ATOM      1  C   UNL A   1      37.759  19.767  24.985  1.00  0.00     0.023 C 
ENDROOT
BRANCH   1   2
ATOM      2  C   UNL A   1      38.947  20.228  25.818  1.00  0.00     0.116 C 
BRANCH   2   3
ATOM      3  N   UNL A   1      40.038  19.266  25.848  1.00  0.00    -0.352 N 
ATOM      4  O   UNL A   1      42.181  18.568  26.030  1.00  0.00    -0.269 OA
ATOM      5  C   UNL A   1      41.362  19.473  26.161  1.00  0.00     0.251 C 
ATOM      6  H   UNL A   1      39.796  18.340  25.615  1.00  0.00     0.163 HD
BRANCH   5   7
ATOM      7  C   UNL A   1      41.803  20.807  26.623  1.00  0.00     0.039 A 
ATOM      8  C   UNL A   1      41.730  21.150  27.974  1.00  0.00     0.014 A 
ATOM      9  C   UNL A   1      42.281  21.731  25.689  1.00  0.00     0.014 A 
ATOM     10  C   UNL A   1      41.986  22.458  28.365  1.00  0.00     0.010 A 
ATOM     11  C   UNL A   1      42.623  23.023  26.099  1.00  0.00     0.010 A 
ATOM     12  C   UNL A   1      42.445  23.407  27.436  1.00  0.00    -0.014 A 
BRANCH  12  13
ATOM     13  C   UNL A   1      42.779  24.773  27.915  1.00  0.00     0.031 A 
ATOM     14  C   UNL A   1      41.713  25.808  28.145  1.00  0.00     0.074 A 
ATOM     15  C   UNL A   1      44.063  25.052  28.207  1.00  0.00     0.049 A 
ATOM     16  N   UNL A   1      41.835  27.014  28.645  1.00  0.00    -0.248 NA
ATOM     17  C   UNL A   1      40.337  25.454  27.766  1.00  0.00     0.031 C 
ATOM     18  C   UNL A   1      45.190  24.134  28.012  1.00  0.00     0.029 A 
ATOM     19  N   UNL A   1      44.636  26.166  28.763  1.00  0.00    -0.354 N 
ATOM     20  C   UNL A   1      40.560  27.565  28.630  1.00  0.00     0.074 A 
ATOM     21  C   UNL A   1      39.681  26.573  28.048  1.00  0.00     0.031 C 
ATOM     22  C   UNL A   1      46.304  24.698  28.500  1.00  0.00     0.029 A 
ATOM     23  C   UNL A   1      45.983  26.033  28.989  1.00  0.00     0.049 A 
ATOM     24  H   UNL A   1      44.130  26.983  28.979  1.00  0.00     0.167 HD
ATOM     25  C   UNL A   1      40.157  28.782  29.068  1.00  0.00     0.031 A 
ATOM     26  C   UNL A   1      46.870  26.889  29.529  1.00  0.00     0.031 A 
ATOM     27  C   UNL A   1      41.031  29.771  29.643  1.00  0.00     0.049 A 
ATOM     28  C   UNL A   1      46.395  28.230  30.002  1.00  0.00     0.074 A 
ATOM     29  C   UNL A   1      40.713  31.032  30.119  1.00  0.00     0.029 A 
ATOM     30  N   UNL A   1      42.395  29.609  29.826  1.00  0.00    -0.354 N 
ATOM     31  N   UNL A   1      45.182  28.724  29.996  1.00  0.00    -0.248 NA
ATOM     32  C   UNL A   1      47.414  29.129  30.559  1.00  0.00     0.031 C 
ATOM     33  C   UNL A   1      41.893  31.648  30.556  1.00  0.00     0.029 A 
ATOM     34  C   UNL A   1      42.936  30.751  30.394  1.00  0.00     0.049 A 
ATOM     35  H   UNL A   1      42.906  28.802  29.586  1.00  0.00     0.167 HD
ATOM     36  C   UNL A   1      45.289  29.990  30.551  1.00  0.00     0.074 A 
ATOM     37  C   UNL A   1      46.680  30.174  30.912  1.00  0.00     0.031 C 
ATOM     38  C   UNL A   1      44.324  30.922  30.734  1.00  0.00     0.031 A 
BRANCH  25  39
ATOM     39  C   UNL A   1      38.699  29.123  28.930  1.00  0.00    -0.014 A 
ATOM     40  C   UNL A   1      37.815  28.976  30.011  1.00  0.00     0.009 A 
ATOM     41  C   UNL A   1      38.215  29.649  27.722  1.00  0.00     0.009 A 
ATOM     42  C   UNL A   1      36.470  29.329  29.877  1.00  0.00     0.001 A 
ATOM     43  C   UNL A   1      36.875  30.022  27.598  1.00  0.00     0.001 A 
ATOM     44  C   UNL A   1      36.003  29.856  28.673  1.00  0.00     0.000 A 
ENDBRANCH  25  39
BRANCH  26  45
ATOM     45  C   UNL A   1      48.298  26.499  29.638  1.00  0.00    -0.014 A 
ATOM     46  C   UNL A   1      48.779  25.844  30.780  1.00  0.00     0.009 A 
ATOM     47  C   UNL A   1      49.186  26.771  28.584  1.00  0.00     0.009 A 
ATOM     48  C   UNL A   1      50.126  25.488  30.875  1.00  0.00     0.001 A 
ATOM     49  C   UNL A   1      50.524  26.386  28.669  1.00  0.00     0.001 A 
ATOM     50  C   UNL A   1      50.995  25.753  29.817  1.00  0.00     0.000 A 
ENDBRANCH  26  45
BRANCH  38  51
ATOM     51  C   UNL A   1      44.749  32.217  31.364  1.00  0.00    -0.014 A 
ATOM     52  C   UNL A   1      45.174  33.298  30.576  1.00  0.00     0.009 A 
ATOM     53  C   UNL A   1      44.717  32.359  32.759  1.00  0.00     0.009 A 
ATOM     54  C   UNL A   1      45.598  34.483  31.177  1.00  0.00     0.001 A 
ATOM     55  C   UNL A   1      45.119  33.554  33.356  1.00  0.00     0.001 A 
ATOM     56  C   UNL A   1      45.569  34.611  32.565  1.00  0.00     0.000 A 
ENDBRANCH  38  51
ENDBRANCH  12  13
ENDBRANCH   5   7
ENDBRANCH   2   3
ENDBRANCH   1   2
BRANCH   1  57
ATOM     57  C   UNL A   1      36.736  20.851  24.648  1.00  0.00     0.023 C 
BRANCH  57  58
ATOM     58  C   UNL A   1      35.707  21.132  25.741  1.00  0.00     0.116 C 
BRANCH  58  59
ATOM     59  N   UNL A   1      34.607  20.180  25.725  1.00  0.00    -0.356 N 
ATOM     60  C   UNL A   1      33.321  20.345  25.297  1.00  0.00     0.224 C 
ATOM     61  H   UNL A   1      34.822  19.285  26.076  1.00  0.00     0.163 HD
ATOM     62  O   UNL A   1      32.557  19.382  25.352  1.00  0.00    -0.275 OA
BRANCH  60  63
ATOM     63  C   UNL A   1      32.884  21.705  24.789  1.00  0.00     0.098 C 
ATOM     64  C   UNL A   1      32.659  21.716  23.269  1.00  0.00     0.017 C 
ATOM     65  C   UNL A   1      31.593  22.123  25.488  1.00  0.00     0.133 C 
ATOM     66  C   UNL A   1      32.202  23.104  22.814  1.00  0.00     0.022 C 
ATOM     67  N   UNL A   1      31.198  23.458  25.041  1.00  0.00    -0.338 N 
ATOM     68  C   UNL A   1      30.978  23.585  23.598  1.00  0.00     0.120 C 
BRANCH  67  69
ATOM     69  C   UNL A   1      31.130  24.482  25.980  1.00  0.00     0.255 C 
ATOM     70  O   UNL A   1      30.509  24.396  27.038  1.00  0.00    -0.269 OA
BRANCH  69  71
ATOM     71  C   UNL A   1      31.893  25.720  25.752  1.00  0.00     0.059 A 
ATOM     72  C   UNL A   1      31.165  26.845  25.338  1.00  0.00     0.031 A 
ATOM     73  C   UNL A   1      33.284  25.786  25.885  1.00  0.00     0.053 A 
ATOM     74  C   UNL A   1      31.831  28.044  25.105  1.00  0.00     0.018 A 
ATOM     75  C   UNL A   1      33.939  27.001  25.660  1.00  0.00     0.022 A 
ATOM     76  Cl  UNL A   1      34.247  24.416  26.302  1.00  0.00    -0.083 Cl
ATOM     77  Br  UNL A   1      30.855  29.566  24.554  1.00  0.00    -0.051 Br
ATOM     78  C   UNL A   1      33.213  28.132  25.276  1.00  0.00     0.017 A 
ENDBRANCH  69  71
ENDBRANCH  67  69
ENDBRANCH  60  63
ENDBRANCH  58  59
ENDBRANCH  57  58
ENDBRANCH   1  57
TORSDOF 13
ENDMDL
