MODEL 1
REMARK VINA RESULT:     -12.0      0.000      0.000
REMARK SMILES C[C@H]1[C@@H](C(=O)NCCCCNC(=O)c2ccc(-c3c4nc(c(-c5ccccc5)c5ccc([nH]5)c(-c5ccccc5)c5nc(c(-c6ccccc6)c6ccc3[nH]6)C=C5)C=C4)cc2)CCN1C(=O)c1cc2cc(F)ccc2s1
REMARK SMILES IDX 8 1 7 2 6 3 4 4 5 5 3 7 1 8 2 9 64 10 62 11 63 12 65 13
REMARK SMILES IDX 66 14 67 15 68 16 76 17 69 18 75 19 70 20 74 21 71 22 73 23
REMARK SMILES IDX 72 24 9 25 10 26 11 27 12 28 13 30 14 31 15 32 61 33 16 34
REMARK SMILES IDX 60 35 17 36 18 37 19 38 54 39 20 40 59 41 53 42 55 43 21 44
REMARK SMILES IDX 58 45 52 46 51 47 22 49 44 50 29 51 43 52 30 53 33 54 42 55
REMARK SMILES IDX 56 56 31 57 32 58 41 60 57 61 34 62 23 63 24 64 28 65 25 66
REMARK SMILES IDX 27 67 26 68 45 69 46 70 50 71 47 72 49 73 48 74 35 75 36 76
REMARK SMILES IDX 40 77 37 78 39 79 38 80
REMARK H PARENT 6 6 11 29 55 48 33 59
REMARK Flexibility Score: inf
ROOT
ATOM      1  C   UNL A   1      37.171  21.760  24.567  1.00  0.00     0.023 C 
ENDROOT
BRANCH   1   2
ATOM      2  C   UNL A   1      36.668  22.637  25.716  1.00  0.00     0.116 C 
BRANCH   2   3
ATOM      3  N   UNL A   1      35.721  21.876  26.493  1.00  0.00    -0.356 N 
ATOM      4  C   UNL A   1      34.389  21.691  26.296  1.00  0.00     0.225 C 
ATOM      5  O   UNL A   1      33.761  21.264  27.269  1.00  0.00    -0.275 OA
ATOM      6  H   UNL A   1      36.095  21.423  27.283  1.00  0.00     0.163 HD
BRANCH   4   7
ATOM      7  C   UNL A   1      33.751  21.858  24.909  1.00  0.00     0.102 C 
ATOM      8  C   UNL A   1      34.154  24.446  24.496  1.00  0.00     0.032 C 
ATOM      9  C   UNL A   1      33.255  23.234  24.410  1.00  0.00     0.094 C 
ATOM     10  N   UNL A   1      31.932  23.425  25.010  1.00  0.00    -0.334 N 
ATOM     11  C   UNL A   1      32.400  21.111  24.926  1.00  0.00     0.037 C 
ATOM     12  C   UNL A   1      31.460  22.150  25.533  1.00  0.00     0.121 C 
BRANCH  10  13
ATOM     13  C   UNL A   1      31.010  24.216  24.331  1.00  0.00     0.264 C 
ATOM     14  O   UNL A   1      30.420  23.780  23.342  1.00  0.00    -0.268 OA
BRANCH  13  15
ATOM     15  C   UNL A   1      30.763  25.557  24.823  1.00  0.00     0.093 A 
ATOM     16  C   UNL A   1      31.043  26.018  26.092  1.00  0.00     0.034 A 
ATOM     17  S   UNL A   1      30.316  26.837  23.787  1.00  0.00    -0.130 S 
ATOM     18  C   UNL A   1      31.268  27.431  26.115  1.00  0.00    -0.004 A 
ATOM     19  C   UNL A   1      30.956  28.014  24.882  1.00  0.00     0.035 A 
ATOM     20  C   UNL A   1      31.837  28.241  27.123  1.00  0.00     0.048 A 
ATOM     21  C   UNL A   1      31.204  29.378  24.628  1.00  0.00     0.022 A 
ATOM     22  C   UNL A   1      32.150  29.566  26.840  1.00  0.00     0.123 A 
ATOM     23  C   UNL A   1      31.847  30.133  25.614  1.00  0.00     0.041 A 
ATOM     24  F   UNL A   1      32.797  30.294  27.761  1.00  0.00    -0.207 F 
ENDBRANCH  13  15
ENDBRANCH  10  13
ENDBRANCH   4   7
ENDBRANCH   2   3
ENDBRANCH   1   2
BRANCH   1  25
ATOM     25  C   UNL A   1      37.842  20.466  25.002  1.00  0.00     0.023 C 
BRANCH  25  26
ATOM     26  C   UNL A   1      39.070  20.680  25.866  1.00  0.00     0.116 C 
BRANCH  26  27
ATOM     27  N   UNL A   1      40.034  19.588  25.790  1.00  0.00    -0.352 N 
ATOM     28  C   UNL A   1      41.375  19.611  26.101  1.00  0.00     0.251 C 
ATOM     29  H   UNL A   1      39.680  18.725  25.475  1.00  0.00     0.163 HD
ATOM     30  O   UNL A   1      42.081  18.633  25.921  1.00  0.00    -0.269 OA
BRANCH  28  31
ATOM     31  C   UNL A   1      41.948  20.873  26.606  1.00  0.00     0.039 A 
ATOM     32  C   UNL A   1      42.362  21.838  25.687  1.00  0.00     0.014 A 
ATOM     33  C   UNL A   1      41.953  21.138  27.978  1.00  0.00     0.014 A 
ATOM     34  C   UNL A   1      42.699  23.111  26.143  1.00  0.00     0.010 A 
ATOM     35  C   UNL A   1      42.194  22.430  28.417  1.00  0.00     0.010 A 
ATOM     36  C   UNL A   1      42.568  23.429  27.505  1.00  0.00    -0.014 A 
BRANCH  36  37
ATOM     37  C   UNL A   1      42.819  24.799  28.009  1.00  0.00     0.031 A 
ATOM     38  C   UNL A   1      44.210  25.195  28.418  1.00  0.00     0.074 A 
ATOM     39  C   UNL A   1      41.789  25.648  28.190  1.00  0.00     0.049 A 
ATOM     40  N   UNL A   1      44.619  26.298  28.991  1.00  0.00    -0.248 NA
ATOM     41  C   UNL A   1      45.273  24.202  28.193  1.00  0.00     0.031 C 
ATOM     42  C   UNL A   1      40.382  25.362  27.893  1.00  0.00     0.029 A 
ATOM     43  N   UNL A   1      41.769  26.929  28.679  1.00  0.00    -0.354 N 
ATOM     44  C   UNL A   1      45.972  26.110  29.234  1.00  0.00     0.074 A 
ATOM     45  C   UNL A   1      46.308  24.777  28.787  1.00  0.00     0.031 C 
ATOM     46  C   UNL A   1      39.645  26.448  28.173  1.00  0.00     0.029 A 
ATOM     47  C   UNL A   1      40.518  27.492  28.698  1.00  0.00     0.049 A 
ATOM     48  H   UNL A   1      42.578  27.401  28.986  1.00  0.00     0.167 HD
ATOM     49  C   UNL A   1      46.866  26.978  29.763  1.00  0.00     0.031 A 
ATOM     50  C   UNL A   1      40.120  28.715  29.093  1.00  0.00     0.031 A 
ATOM     51  C   UNL A   1      46.547  28.321  30.156  1.00  0.00     0.049 A 
ATOM     52  C   UNL A   1      41.141  29.687  29.613  1.00  0.00     0.074 A 
ATOM     53  C   UNL A   1      47.395  29.307  30.628  1.00  0.00     0.029 A 
ATOM     54  N   UNL A   1      45.276  28.873  30.105  1.00  0.00    -0.354 N 
ATOM     55  N   UNL A   1      42.429  29.515  29.783  1.00  0.00    -0.248 NA
ATOM     56  C   UNL A   1      40.654  31.023  29.983  1.00  0.00     0.031 C 
ATOM     57  C   UNL A   1      46.631  30.453  30.882  1.00  0.00     0.029 A 
ATOM     58  C   UNL A   1      45.316  30.185  30.539  1.00  0.00     0.049 A 
ATOM     59  H   UNL A   1      44.466  28.399  29.804  1.00  0.00     0.167 HD
ATOM     60  C   UNL A   1      42.911  30.727  30.259  1.00  0.00     0.074 A 
ATOM     61  C   UNL A   1      41.780  31.627  30.339  1.00  0.00     0.031 C 
ATOM     62  C   UNL A   1      44.178  31.063  30.602  1.00  0.00     0.031 A 
BRANCH  49  63
ATOM     63  C   UNL A   1      48.274  26.489  29.935  1.00  0.00    -0.014 A 
ATOM     64  C   UNL A   1      48.682  25.859  31.122  1.00  0.00     0.009 A 
ATOM     65  C   UNL A   1      49.205  26.659  28.900  1.00  0.00     0.009 A 
ATOM     66  C   UNL A   1      50.007  25.448  31.284  1.00  0.00     0.001 A 
ATOM     67  C   UNL A   1      50.521  26.224  29.055  1.00  0.00     0.001 A 
ATOM     68  C   UNL A   1      50.924  25.630  30.250  1.00  0.00     0.000 A 
ENDBRANCH  49  63
BRANCH  50  69
ATOM     69  C   UNL A   1      38.693  29.109  28.975  1.00  0.00    -0.014 A 
ATOM     70  C   UNL A   1      37.842  29.009  30.086  1.00  0.00     0.009 A 
ATOM     71  C   UNL A   1      38.177  29.583  27.761  1.00  0.00     0.009 A 
ATOM     72  C   UNL A   1      36.493  29.354  29.977  1.00  0.00     0.001 A 
ATOM     73  C   UNL A   1      36.832  29.946  27.661  1.00  0.00     0.001 A 
ATOM     74  C   UNL A   1      35.990  29.825  28.765  1.00  0.00     0.000 A 
ENDBRANCH  50  69
BRANCH  62  75
ATOM     75  C   UNL A   1      44.408  32.471  31.062  1.00  0.00    -0.014 A 
ATOM     76  C   UNL A   1      44.717  33.488  30.146  1.00  0.00     0.009 A 
ATOM     77  C   UNL A   1      44.269  32.790  32.421  1.00  0.00     0.009 A 
ATOM     78  C   UNL A   1      44.907  34.797  30.589  1.00  0.00     0.001 A 
ATOM     79  C   UNL A   1      44.439  34.104  32.858  1.00  0.00     0.001 A 
ATOM     80  C   UNL A   1      44.765  35.105  31.943  1.00  0.00     0.000 A 
ENDBRANCH  62  75
ENDBRANCH  36  37
ENDBRANCH  28  31
ENDBRANCH  26  27
ENDBRANCH  25  26
ENDBRANCH   1  25
TORSDOF 13
ENDMDL
MODEL 2
REMARK VINA RESULT:     -11.9      1.753      2.256
REMARK SMILES C[C@H]1[C@@H](C(=O)NCCCCNC(=O)c2ccc(-c3c4nc(c(-c5ccccc5)c5ccc([nH]5)c(-c5ccccc5)c5nc(c(-c6ccccc6)c6ccc3[nH]6)C=C5)C=C4)cc2)CCN1C(=O)c1cc2cc(F)ccc2s1
REMARK SMILES IDX 8 1 7 2 6 3 4 4 5 5 3 7 1 8 2 9 64 10 62 11 63 12 65 13
REMARK SMILES IDX 66 14 67 15 68 16 76 17 69 18 75 19 70 20 74 21 71 22 73 23
REMARK SMILES IDX 72 24 9 25 10 26 11 27 12 28 13 30 14 31 15 32 61 33 16 34
REMARK SMILES IDX 60 35 17 36 18 37 19 38 54 39 20 40 59 41 53 42 55 43 21 44
REMARK SMILES IDX 58 45 52 46 51 47 22 49 44 50 29 51 43 52 30 53 33 54 42 55
REMARK SMILES IDX 56 56 31 57 32 58 41 60 57 61 34 62 23 63 24 64 28 65 25 66
REMARK SMILES IDX 27 67 26 68 45 69 46 70 50 71 47 72 49 73 48 74 35 75 36 76
REMARK SMILES IDX 40 77 37 78 39 79 38 80
REMARK H PARENT 6 6 11 29 55 48 33 59
REMARK Flexibility Score: inf
ROOT
ATOM      1  C   UNL A   1      36.163  20.593  25.104  1.00  0.00     0.023 C 
ENDROOT
BRANCH   1   2
ATOM      2  C   UNL A   1      35.491  21.443  26.184  1.00  0.00     0.116 C 
BRANCH   2   3
ATOM      3  N   UNL A   1      34.128  21.695  25.787  1.00  0.00    -0.356 N 
ATOM      4  C   UNL A   1      33.587  22.791  25.192  1.00  0.00     0.225 C 
ATOM      5  O   UNL A   1      32.357  22.875  25.249  1.00  0.00    -0.275 OA
ATOM      6  H   UNL A   1      33.495  20.964  25.974  1.00  0.00     0.163 HD
BRANCH   4   7
ATOM      7  C   UNL A   1      34.447  23.768  24.377  1.00  0.00     0.102 C 
ATOM      8  C   UNL A   1      33.873  26.053  25.591  1.00  0.00     0.032 C 
ATOM      9  C   UNL A   1      34.118  25.277  24.318  1.00  0.00     0.094 C 
ATOM     10  N   UNL A   1      33.058  25.418  23.317  1.00  0.00    -0.334 N 
ATOM     11  C   UNL A   1      34.250  23.425  22.884  1.00  0.00     0.037 C 
ATOM     12  C   UNL A   1      32.974  24.189  22.539  1.00  0.00     0.121 C 
BRANCH  10  13
ATOM     13  C   UNL A   1      32.966  26.620  22.621  1.00  0.00     0.264 C 
ATOM     14  O   UNL A   1      33.789  26.904  21.751  1.00  0.00    -0.268 OA
BRANCH  13  15
ATOM     15  C   UNL A   1      31.876  27.519  22.947  1.00  0.00     0.093 A 
ATOM     16  C   UNL A   1      31.679  28.777  22.421  1.00  0.00     0.034 A 
ATOM     17  S   UNL A   1      30.525  27.015  23.860  1.00  0.00    -0.130 S 
ATOM     18  C   UNL A   1      30.300  29.159  22.436  1.00  0.00    -0.004 A 
ATOM     19  C   UNL A   1      29.529  28.241  23.157  1.00  0.00     0.035 A 
ATOM     20  C   UNL A   1      29.645  30.215  21.763  1.00  0.00     0.048 A 
ATOM     21  C   UNL A   1      28.124  28.345  23.216  1.00  0.00     0.022 A 
ATOM     22  C   UNL A   1      28.255  30.266  21.761  1.00  0.00     0.123 A 
ATOM     23  C   UNL A   1      27.498  29.348  22.469  1.00  0.00     0.041 A 
ATOM     24  F   UNL A   1      27.639  31.200  21.023  1.00  0.00    -0.207 F 
ENDBRANCH  13  15
ENDBRANCH  10  13
ENDBRANCH   4   7
ENDBRANCH   2   3
ENDBRANCH   1   2
BRANCH   1  25
ATOM     25  C   UNL A   1      37.498  21.130  24.611  1.00  0.00     0.023 C 
BRANCH  25  26
ATOM     26  C   UNL A   1      38.577  21.147  25.678  1.00  0.00     0.116 C 
BRANCH  26  27
ATOM     27  N   UNL A   1      39.462  19.990  25.629  1.00  0.00    -0.352 N 
ATOM     28  C   UNL A   1      40.780  19.908  26.020  1.00  0.00     0.251 C 
ATOM     29  H   UNL A   1      39.068  19.162  25.272  1.00  0.00     0.163 HD
ATOM     30  O   UNL A   1      41.425  18.885  25.855  1.00  0.00    -0.269 OA
BRANCH  28  31
ATOM     31  C   UNL A   1      41.411  21.114  26.590  1.00  0.00     0.039 A 
ATOM     32  C   UNL A   1      41.980  22.048  25.724  1.00  0.00     0.014 A 
ATOM     33  C   UNL A   1      41.320  21.366  27.961  1.00  0.00     0.014 A 
ATOM     34  C   UNL A   1      42.381  23.285  26.226  1.00  0.00     0.010 A 
ATOM     35  C   UNL A   1      41.629  22.630  28.439  1.00  0.00     0.010 A 
ATOM     36  C   UNL A   1      42.161  23.602  27.577  1.00  0.00    -0.014 A 
BRANCH  36  37
ATOM     37  C   UNL A   1      42.480  24.941  28.121  1.00  0.00     0.031 A 
ATOM     38  C   UNL A   1      43.887  25.252  28.549  1.00  0.00     0.074 A 
ATOM     39  C   UNL A   1      41.496  25.838  28.321  1.00  0.00     0.049 A 
ATOM     40  N   UNL A   1      44.350  26.315  29.155  1.00  0.00    -0.248 NA
ATOM     41  C   UNL A   1      44.899  24.211  28.301  1.00  0.00     0.031 C 
ATOM     42  C   UNL A   1      40.077  25.635  28.009  1.00  0.00     0.029 A 
ATOM     43  N   UNL A   1      41.540  27.105  28.846  1.00  0.00    -0.354 N 
ATOM     44  C   UNL A   1      45.690  26.049  29.400  1.00  0.00     0.074 A 
ATOM     45  C   UNL A   1      45.958  24.713  28.916  1.00  0.00     0.031 C 
ATOM     46  C   UNL A   1      39.396  26.751  28.315  1.00  0.00     0.029 A 
ATOM     47  C   UNL A   1      40.319  27.732  28.875  1.00  0.00     0.049 A 
ATOM     48  H   UNL A   1      42.370  27.524  29.171  1.00  0.00     0.167 HD
ATOM     49  C   UNL A   1      46.625  26.853  29.958  1.00  0.00     0.031 A 
ATOM     50  C   UNL A   1      39.984  28.963  29.303  1.00  0.00     0.031 A 
ATOM     51  C   UNL A   1      46.374  28.200  30.387  1.00  0.00     0.049 A 
ATOM     52  C   UNL A   1      41.052  29.864  29.855  1.00  0.00     0.074 A 
ATOM     53  C   UNL A   1      47.269  29.126  30.891  1.00  0.00     0.029 A 
ATOM     54  N   UNL A   1      45.134  28.819  30.345  1.00  0.00    -0.354 N 
ATOM     55  N   UNL A   1      42.327  29.619  30.027  1.00  0.00    -0.248 NA
ATOM     56  C   UNL A   1      40.633  31.213  30.260  1.00  0.00     0.031 C 
ATOM     57  C   UNL A   1      46.566  30.303  31.174  1.00  0.00     0.029 A 
ATOM     58  C   UNL A   1      45.240  30.115  30.817  1.00  0.00     0.049 A 
ATOM     59  H   UNL A   1      44.303  28.398  30.027  1.00  0.00     0.167 HD
ATOM     60  C   UNL A   1      42.870  30.790  30.540  1.00  0.00     0.074 A 
ATOM     61  C   UNL A   1      41.786  31.747  30.640  1.00  0.00     0.031 C 
ATOM     62  C   UNL A   1      44.149  31.050  30.899  1.00  0.00     0.031 A 
BRANCH  49  63
ATOM     63  C   UNL A   1      48.003  26.286  30.123  1.00  0.00    -0.014 A 
ATOM     64  C   UNL A   1      48.427  25.755  31.353  1.00  0.00     0.009 A 
ATOM     65  C   UNL A   1      48.893  26.281  29.038  1.00  0.00     0.009 A 
ATOM     66  C   UNL A   1      49.727  25.271  31.504  1.00  0.00     0.001 A 
ATOM     67  C   UNL A   1      50.183  25.771  29.185  1.00  0.00     0.001 A 
ATOM     68  C   UNL A   1      50.603  25.278  30.419  1.00  0.00     0.000 A 
ENDBRANCH  49  63
BRANCH  50  69
ATOM     69  C   UNL A   1      38.581  29.434  29.188  1.00  0.00    -0.014 A 
ATOM     70  C   UNL A   1      37.713  29.331  30.286  1.00  0.00     0.009 A 
ATOM     71  C   UNL A   1      38.103  29.986  27.991  1.00  0.00     0.009 A 
ATOM     72  C   UNL A   1      36.385  29.750  30.180  1.00  0.00     0.001 A 
ATOM     73  C   UNL A   1      36.780  30.422  27.894  1.00  0.00     0.001 A 
ATOM     74  C   UNL A   1      35.920  30.298  28.985  1.00  0.00     0.000 A 
ENDBRANCH  50  69
BRANCH  62  75
ATOM     75  C   UNL A   1      44.450  32.430  31.400  1.00  0.00    -0.014 A 
ATOM     76  C   UNL A   1      44.367  32.736  32.767  1.00  0.00     0.009 A 
ATOM     77  C   UNL A   1      44.865  33.421  30.498  1.00  0.00     0.009 A 
ATOM     78  C   UNL A   1      44.673  34.021  33.217  1.00  0.00     0.001 A 
ATOM     79  C   UNL A   1      45.189  34.699  30.955  1.00  0.00     0.001 A 
ATOM     80  C   UNL A   1      45.086  34.999  32.312  1.00  0.00     0.000 A 
ENDBRANCH  62  75
ENDBRANCH  36  37
ENDBRANCH  28  31
ENDBRANCH  26  27
ENDBRANCH  25  26
ENDBRANCH   1  25
TORSDOF 13
ENDMDL
MODEL 3
REMARK VINA RESULT:     -11.9      2.592      7.888
REMARK SMILES C[C@H]1[C@@H](C(=O)NCCCCNC(=O)c2ccc(-c3c4nc(c(-c5ccccc5)c5ccc([nH]5)c(-c5ccccc5)c5nc(c(-c6ccccc6)c6ccc3[nH]6)C=C5)C=C4)cc2)CCN1C(=O)c1cc2cc(F)ccc2s1
REMARK SMILES IDX 8 1 7 2 6 3 4 4 5 5 3 7 1 8 2 9 64 10 62 11 63 12 65 13
REMARK SMILES IDX 66 14 67 15 68 16 76 17 69 18 75 19 70 20 74 21 71 22 73 23
REMARK SMILES IDX 72 24 9 25 10 26 11 27 12 28 13 30 14 31 15 32 61 33 16 34
REMARK SMILES IDX 60 35 17 36 18 37 19 38 54 39 20 40 59 41 53 42 55 43 21 44
REMARK SMILES IDX 58 45 52 46 51 47 22 49 44 50 29 51 43 52 30 53 33 54 42 55
REMARK SMILES IDX 56 56 31 57 32 58 41 60 57 61 34 62 23 63 24 64 28 65 25 66
REMARK SMILES IDX 27 67 26 68 45 69 46 70 50 71 47 72 49 73 48 74 35 75 36 76
REMARK SMILES IDX 40 77 37 78 39 79 38 80
REMARK H PARENT 6 6 11 29 55 48 33 59
REMARK Flexibility Score: inf
ROOT
ATOM      1  C   UNL A   1      31.624  30.149  25.776  1.00  0.00     0.023 C 
ENDROOT
BRANCH   1   2
ATOM      2  C   UNL A   1      30.983  29.546  24.525  1.00  0.00     0.116 C 
BRANCH   2   3
ATOM      3  N   UNL A   1      32.015  29.330  23.540  1.00  0.00    -0.356 N 
ATOM      4  C   UNL A   1      32.414  28.177  22.941  1.00  0.00     0.225 C 
ATOM      5  O   UNL A   1      33.513  28.221  22.382  1.00  0.00    -0.275 OA
ATOM      6  H   UNL A   1      32.502  30.139  23.259  1.00  0.00     0.163 HD
BRANCH   4   7
ATOM      7  C   UNL A   1      31.484  26.959  22.844  1.00  0.00     0.102 C 
ATOM      8  C   UNL A   1      31.560  26.087  25.347  1.00  0.00     0.032 C 
ATOM      9  C   UNL A   1      31.564  25.799  23.863  1.00  0.00     0.094 C 
ATOM     10  N   UNL A   1      32.674  24.952  23.419  1.00  0.00    -0.334 N 
ATOM     11  C   UNL A   1      31.870  26.180  21.568  1.00  0.00     0.037 C 
ATOM     12  C   UNL A   1      33.029  25.313  22.053  1.00  0.00     0.121 C 
BRANCH  10  13
ATOM     13  C   UNL A   1      32.630  23.595  23.729  1.00  0.00     0.264 C 
ATOM     14  O   UNL A   1      31.721  22.885  23.300  1.00  0.00    -0.268 OA
BRANCH  13  15
ATOM     15  C   UNL A   1      33.683  23.048  24.561  1.00  0.00     0.093 A 
ATOM     16  C   UNL A   1      34.072  21.727  24.611  1.00  0.00     0.034 A 
ATOM     17  S   UNL A   1      34.770  24.043  25.421  1.00  0.00    -0.130 S 
ATOM     18  C   UNL A   1      35.439  21.581  25.010  1.00  0.00    -0.004 A 
ATOM     19  C   UNL A   1      35.974  22.802  25.436  1.00  0.00     0.035 A 
ATOM     20  C   UNL A   1      36.292  20.459  24.926  1.00  0.00     0.048 A 
ATOM     21  C   UNL A   1      37.337  22.931  25.770  1.00  0.00     0.022 A 
ATOM     22  C   UNL A   1      37.650  20.611  25.182  1.00  0.00     0.123 A 
ATOM     23  C   UNL A   1      38.175  21.825  25.594  1.00  0.00     0.041 A 
ATOM     24  F   UNL A   1      38.472  19.571  24.986  1.00  0.00    -0.207 F 
ENDBRANCH  13  15
ENDBRANCH  10  13
ENDBRANCH   4   7
ENDBRANCH   2   3
ENDBRANCH   1   2
BRANCH   1  25
ATOM     25  C   UNL A   1      32.267  29.137  26.712  1.00  0.00     0.023 C 
BRANCH  25  26
ATOM     26  C   UNL A   1      33.675  29.512  27.136  1.00  0.00     0.116 C 
BRANCH  26  27
ATOM     27  N   UNL A   1      33.733  30.704  27.975  1.00  0.00    -0.352 N 
ATOM     28  C   UNL A   1      34.777  31.147  28.755  1.00  0.00     0.251 C 
ATOM     29  H   UNL A   1      32.923  31.261  27.983  1.00  0.00     0.163 HD
ATOM     30  O   UNL A   1      34.660  32.131  29.466  1.00  0.00    -0.269 OA
BRANCH  28  31
ATOM     31  C   UNL A   1      36.026  30.361  28.753  1.00  0.00     0.039 A 
ATOM     32  C   UNL A   1      36.836  30.390  27.619  1.00  0.00     0.014 A 
ATOM     33  C   UNL A   1      36.441  29.708  29.917  1.00  0.00     0.014 A 
ATOM     34  C   UNL A   1      38.114  29.836  27.680  1.00  0.00     0.010 A 
ATOM     35  C   UNL A   1      37.744  29.245  30.005  1.00  0.00     0.010 A 
ATOM     36  C   UNL A   1      38.594  29.306  28.889  1.00  0.00    -0.014 A 
BRANCH  36  37
ATOM     37  C   UNL A   1      39.980  28.801  29.019  1.00  0.00     0.031 A 
ATOM     38  C   UNL A   1      41.067  29.729  29.484  1.00  0.00     0.074 A 
ATOM     39  C   UNL A   1      40.279  27.547  28.628  1.00  0.00     0.049 A 
ATOM     40  N   UNL A   1      42.357  29.522  29.552  1.00  0.00    -0.248 NA
ATOM     41  C   UNL A   1      40.653  31.085  29.882  1.00  0.00     0.031 C 
ATOM     42  C   UNL A   1      39.326  26.567  28.098  1.00  0.00     0.029 A 
ATOM     43  N   UNL A   1      41.479  26.883  28.612  1.00  0.00    -0.354 N 
ATOM     44  C   UNL A   1      42.907  30.730  29.956  1.00  0.00     0.074 A 
ATOM     45  C   UNL A   1      41.821  31.677  30.077  1.00  0.00     0.031 C 
ATOM     46  C   UNL A   1      39.973  25.419  27.842  1.00  0.00     0.029 A 
ATOM     47  C   UNL A   1      41.387  25.591  28.157  1.00  0.00     0.049 A 
ATOM     48  H   UNL A   1      42.326  27.295  28.899  1.00  0.00     0.167 HD
ATOM     49  C   UNL A   1      44.201  31.024  30.225  1.00  0.00     0.031 A 
ATOM     50  C   UNL A   1      42.338  24.650  28.015  1.00  0.00     0.031 A 
ATOM     51  C   UNL A   1      45.272  30.071  30.159  1.00  0.00     0.049 A 
ATOM     52  C   UNL A   1      43.756  24.978  28.386  1.00  0.00     0.074 A 
ATOM     53  C   UNL A   1      46.604  30.245  30.488  1.00  0.00     0.029 A 
ATOM     54  N   UNL A   1      45.127  28.754  29.750  1.00  0.00    -0.354 N 
ATOM     55  N   UNL A   1      44.253  26.109  28.821  1.00  0.00    -0.248 NA
ATOM     56  C   UNL A   1      44.741  23.895  28.255  1.00  0.00     0.031 C 
ATOM     57  C   UNL A   1      47.272  29.036  30.259  1.00  0.00     0.029 A 
ATOM     58  C   UNL A   1      46.346  28.105  29.816  1.00  0.00     0.049 A 
ATOM     59  H   UNL A   1      44.281  28.343  29.456  1.00  0.00     0.167 HD
ATOM     60  C   UNL A   1      45.603  25.870  29.038  1.00  0.00     0.074 A 
ATOM     61  C   UNL A   1      45.844  24.483  28.697  1.00  0.00     0.031 C 
ATOM     62  C   UNL A   1      46.559  26.722  29.478  1.00  0.00     0.031 A 
BRANCH  49  63
ATOM     63  C   UNL A   1      44.512  32.437  30.621  1.00  0.00    -0.014 A 
ATOM     64  C   UNL A   1      44.836  33.405  29.657  1.00  0.00     0.009 A 
ATOM     65  C   UNL A   1      44.483  32.807  31.974  1.00  0.00     0.009 A 
ATOM     66  C   UNL A   1      45.167  34.705  30.044  1.00  0.00     0.001 A 
ATOM     67  C   UNL A   1      44.788  34.113  32.355  1.00  0.00     0.001 A 
ATOM     68  C   UNL A   1      45.140  35.058  31.392  1.00  0.00     0.000 A 
ENDBRANCH  49  63
BRANCH  50  69
ATOM     69  C   UNL A   1      41.976  23.292  27.536  1.00  0.00    -0.014 A 
ATOM     70  C   UNL A   1      41.474  22.340  28.436  1.00  0.00     0.009 A 
ATOM     71  C   UNL A   1      42.128  22.941  26.187  1.00  0.00     0.009 A 
ATOM     72  C   UNL A   1      41.153  21.053  28.000  1.00  0.00     0.001 A 
ATOM     73  C   UNL A   1      41.787  21.659  25.749  1.00  0.00     0.001 A 
ATOM     74  C   UNL A   1      41.307  20.714  26.656  1.00  0.00     0.000 A 
ENDBRANCH  50  69
BRANCH  62  75
ATOM     75  C   UNL A   1      47.942  26.168  29.646  1.00  0.00    -0.014 A 
ATOM     76  C   UNL A   1      48.804  26.036  28.547  1.00  0.00     0.009 A 
ATOM     77  C   UNL A   1      48.400  25.818  30.925  1.00  0.00     0.009 A 
ATOM     78  C   UNL A   1      50.096  25.539  28.725  1.00  0.00     0.001 A 
ATOM     79  C   UNL A   1      49.698  25.341  31.102  1.00  0.00     0.001 A 
ATOM     80  C   UNL A   1      50.542  25.195  30.002  1.00  0.00     0.000 A 
ENDBRANCH  62  75
ENDBRANCH  36  37
ENDBRANCH  28  31
ENDBRANCH  26  27
ENDBRANCH  25  26
ENDBRANCH   1  25
TORSDOF 13
ENDMDL
