MODEL 1
REMARK VINA RESULT:      -8.6      0.000      0.000
REMARK SMILES O=C(Cc1cccc(-c2ccn(C(F)F)c(=O)c2)c1)NCCCCNC(=O)c1ccc(-c2c3nc(c(-c4ccccc4)c4ccc([nH]4)c(-c4ccccc4)c4nc(c(-c5ccccc5)c5ccc2[nH]5)C=C4)C=C3)cc1
REMARK SMILES IDX 22 1 21 2 20 3 1 4 2 5 3 7 4 8 5 9 19 10 6 11 8 12 7 13 9 14
REMARK SMILES IDX 10 15 18 16 11 17 16 18 12 19 17 20 13 21 14 22 15 23 23 24
REMARK SMILES IDX 24 25 25 26 26 27 27 29 28 30 29 31 75 32 30 33 74 34 31 35
REMARK SMILES IDX 32 36 33 37 68 38 34 39 73 40 67 41 69 42 35 43 72 44 66 45
REMARK SMILES IDX 65 46 36 48 58 49 43 50 57 51 44 52 47 53 56 54 70 55 45 56
REMARK SMILES IDX 46 57 55 59 71 60 48 61 37 62 38 63 42 64 39 65 41 66 40 67
REMARK SMILES IDX 59 68 60 69 64 70 61 71 63 72 62 73 49 74 50 75 54 76 51 77
REMARK SMILES IDX 53 78 52 79
REMARK H PARENT 20 6 25 28 69 47 47 58
REMARK Flexibility Score: inf
ROOT
ATOM      1  C   UNL A   1      33.773  35.940  32.883  1.00  0.00     0.023 C 
ENDROOT
BRANCH   1   2
ATOM      2  C   UNL A   1      35.140  35.360  32.529  1.00  0.00     0.116 C 
BRANCH   2   3
ATOM      3  N   UNL A   1      35.479  34.211  33.345  1.00  0.00    -0.356 N 
ATOM      4  O   UNL A   1      37.412  35.098  34.215  1.00  0.00    -0.275 OA
ATOM      5  C   UNL A   1      36.594  34.184  34.158  1.00  0.00     0.224 C 
ATOM      6  H   UNL A   1      34.892  33.422  33.319  1.00  0.00     0.163 HD
BRANCH   5   7
ATOM      7  C   UNL A   1      36.754  32.908  34.962  1.00  0.00     0.135 C 
BRANCH   7   8
ATOM      8  C   UNL A   1      37.517  31.785  34.289  1.00  0.00    -0.038 A 
ATOM      9  C   UNL A   1      36.973  30.994  33.267  1.00  0.00     0.004 A 
ATOM     10  C   UNL A   1      38.802  31.471  34.763  1.00  0.00     0.013 A 
ATOM     11  C   UNL A   1      37.711  29.950  32.705  1.00  0.00     0.001 A 
ATOM     12  C   UNL A   1      39.542  30.411  34.221  1.00  0.00    -0.018 A 
ATOM     13  C   UNL A   1      38.991  29.657  33.179  1.00  0.00     0.009 A 
BRANCH  12  14
ATOM     14  C   UNL A   1      40.864  30.079  34.788  1.00  0.00    -0.011 A 
ATOM     15  C   UNL A   1      41.574  28.864  34.432  1.00  0.00     0.027 A 
ATOM     16  C   UNL A   1      41.414  30.918  35.682  1.00  0.00     0.080 A 
ATOM     17  C   UNL A   1      42.743  28.564  35.008  1.00  0.00     0.095 A 
ATOM     18  C   UNL A   1      42.722  30.602  36.326  1.00  0.00     0.255 A 
ATOM     19  N   UNL A   1      43.312  29.408  35.944  1.00  0.00    -0.258 N 
ATOM     20  O   UNL A   1      43.177  31.396  37.141  1.00  0.00    -0.269 OA
BRANCH  19  21
ATOM     21  C   UNL A   1      44.552  29.056  36.587  1.00  0.00     0.451 C 
ATOM     22  F   UNL A   1      44.817  27.734  36.457  1.00  0.00    -0.185 F 
ATOM     23  F   UNL A   1      45.588  29.748  36.052  1.00  0.00    -0.185 F 
ENDBRANCH  19  21
ENDBRANCH  12  14
ENDBRANCH   7   8
ENDBRANCH   5   7
ENDBRANCH   2   3
ENDBRANCH   1   2
BRANCH   1  24
ATOM     24  C   UNL A   1      32.810  36.092  31.703  1.00  0.00     0.023 C 
BRANCH  24  25
ATOM     25  C   UNL A   1      33.463  36.161  30.325  1.00  0.00     0.116 C 
BRANCH  25  26
ATOM     26  N   UNL A   1      32.736  35.412  29.314  1.00  0.00    -0.352 N 
ATOM     27  C   UNL A   1      33.131  34.318  28.581  1.00  0.00     0.251 C 
ATOM     28  H   UNL A   1      31.827  35.737  29.124  1.00  0.00     0.163 HD
ATOM     29  O   UNL A   1      32.424  33.907  27.663  1.00  0.00    -0.269 OA
BRANCH  27  30
ATOM     30  C   UNL A   1      34.420  33.648  28.868  1.00  0.00     0.039 A 
ATOM     31  C   UNL A   1      35.519  33.928  28.053  1.00  0.00     0.014 A 
ATOM     32  C   UNL A   1      34.549  32.746  29.928  1.00  0.00     0.014 A 
ATOM     33  C   UNL A   1      36.763  33.362  28.344  1.00  0.00     0.010 A 
ATOM     34  C   UNL A   1      35.805  32.244  30.263  1.00  0.00     0.010 A 
ATOM     35  C   UNL A   1      36.927  32.549  29.476  1.00  0.00    -0.014 A 
BRANCH  35  36
ATOM     36  C   UNL A   1      38.264  32.021  29.861  1.00  0.00     0.031 A 
ATOM     37  C   UNL A   1      38.729  30.681  29.359  1.00  0.00     0.074 A 
ATOM     38  C   UNL A   1      39.037  32.722  30.714  1.00  0.00     0.049 A 
ATOM     39  N   UNL A   1      39.838  30.038  29.629  1.00  0.00    -0.248 NA
ATOM     40  C   UNL A   1      37.823  29.961  28.451  1.00  0.00     0.031 C 
ATOM     41  C   UNL A   1      38.693  34.017  31.304  1.00  0.00     0.029 A 
ATOM     42  N   UNL A   1      40.273  32.438  31.240  1.00  0.00    -0.354 N 
ATOM     43  C   UNL A   1      39.753  28.834  28.940  1.00  0.00     0.074 A 
ATOM     44  C   UNL A   1      38.466  28.815  28.280  1.00  0.00     0.031 C 
ATOM     45  C   UNL A   1      39.705  34.428  32.085  1.00  0.00     0.029 A 
ATOM     46  C   UNL A   1      40.748  33.408  32.090  1.00  0.00     0.049 A 
ATOM     47  H   UNL A   1      40.774  31.616  31.028  1.00  0.00     0.167 HD
ATOM     48  C   UNL A   1      40.671  27.841  28.848  1.00  0.00     0.031 A 
ATOM     49  C   UNL A   1      41.889  33.467  32.803  1.00  0.00     0.031 A 
ATOM     50  C   UNL A   1      41.953  27.858  29.502  1.00  0.00     0.049 A 
ATOM     51  C   UNL A   1      42.876  32.337  32.709  1.00  0.00     0.074 A 
ATOM     52  C   UNL A   1      42.971  26.923  29.426  1.00  0.00     0.029 A 
ATOM     53  N   UNL A   1      42.390  28.856  30.358  1.00  0.00    -0.354 N 
ATOM     54  N   UNL A   1      42.811  31.239  31.996  1.00  0.00    -0.248 NA
ATOM     55  C   UNL A   1      44.101  32.462  33.514  1.00  0.00     0.031 C 
ATOM     56  C   UNL A   1      43.999  27.325  30.284  1.00  0.00     0.029 A 
ATOM     57  C   UNL A   1      43.651  28.545  30.841  1.00  0.00     0.049 A 
ATOM     58  H   UNL A   1      41.881  29.666  30.589  1.00  0.00     0.167 HD
ATOM     59  C   UNL A   1      43.997  30.558  32.240  1.00  0.00     0.074 A 
ATOM     60  C   UNL A   1      44.769  31.375  33.154  1.00  0.00     0.031 C 
ATOM     61  C   UNL A   1      44.410  29.364  31.750  1.00  0.00     0.031 A 
BRANCH  48  62
ATOM     62  C   UNL A   1      40.312  26.640  28.015  1.00  0.00    -0.014 A 
ATOM     63  C   UNL A   1      40.783  26.497  26.699  1.00  0.00     0.009 A 
ATOM     64  C   UNL A   1      39.525  25.617  28.568  1.00  0.00     0.009 A 
ATOM     65  C   UNL A   1      40.440  25.375  25.943  1.00  0.00     0.001 A 
ATOM     66  C   UNL A   1      39.210  24.482  27.819  1.00  0.00     0.001 A 
ATOM     67  C   UNL A   1      39.658  24.367  26.504  1.00  0.00     0.000 A 
ENDBRANCH  48  62
BRANCH  49  68
ATOM     68  C   UNL A   1      42.168  34.645  33.667  1.00  0.00    -0.014 A 
ATOM     69  C   UNL A   1      41.746  34.666  35.005  1.00  0.00     0.009 A 
ATOM     70  C   UNL A   1      42.845  35.764  33.154  1.00  0.00     0.009 A 
ATOM     71  C   UNL A   1      41.969  35.791  35.802  1.00  0.00     0.001 A 
ATOM     72  C   UNL A   1      43.095  36.874  33.963  1.00  0.00     0.001 A 
ATOM     73  C   UNL A   1      42.647  36.892  35.282  1.00  0.00     0.000 A 
ENDBRANCH  49  68
BRANCH  61  74
ATOM     74  C   UNL A   1      45.777  28.886  32.158  1.00  0.00    -0.014 A 
ATOM     75  C   UNL A   1      45.956  28.016  33.245  1.00  0.00     0.009 A 
ATOM     76  C   UNL A   1      46.900  29.283  31.415  1.00  0.00     0.009 A 
ATOM     77  C   UNL A   1      47.236  27.583  33.599  1.00  0.00     0.001 A 
ATOM     78  C   UNL A   1      48.173  28.823  31.752  1.00  0.00     0.001 A 
ATOM     79  C   UNL A   1      48.341  27.982  32.850  1.00  0.00     0.000 A 
ENDBRANCH  61  74
ENDBRANCH  35  36
ENDBRANCH  27  30
ENDBRANCH  25  26
ENDBRANCH  24  25
ENDBRANCH   1  24
TORSDOF 14
ENDMDL
MODEL 2
REMARK VINA RESULT:      -8.2      6.899     12.445
REMARK SMILES O=C(Cc1cccc(-c2ccn(C(F)F)c(=O)c2)c1)NCCCCNC(=O)c1ccc(-c2c3nc(c(-c4ccccc4)c4ccc([nH]4)c(-c4ccccc4)c4nc(c(-c5ccccc5)c5ccc2[nH]5)C=C4)C=C3)cc1
REMARK SMILES IDX 22 1 21 2 20 3 1 4 2 5 3 7 4 8 5 9 19 10 6 11 8 12 7 13 9 14
REMARK SMILES IDX 10 15 18 16 11 17 16 18 12 19 17 20 13 21 14 22 15 23 23 24
REMARK SMILES IDX 24 25 25 26 26 27 27 29 28 30 29 31 75 32 30 33 74 34 31 35
REMARK SMILES IDX 32 36 33 37 68 38 34 39 73 40 67 41 69 42 35 43 72 44 66 45
REMARK SMILES IDX 65 46 36 48 58 49 43 50 57 51 44 52 47 53 56 54 70 55 45 56
REMARK SMILES IDX 46 57 55 59 71 60 48 61 37 62 38 63 42 64 39 65 41 66 40 67
REMARK SMILES IDX 59 68 60 69 64 70 61 71 63 72 62 73 49 74 50 75 54 76 51 77
REMARK SMILES IDX 53 78 52 79
REMARK H PARENT 20 6 25 28 69 47 47 58
REMARK Flexibility Score: inf
ROOT
ATOM      1  C   UNL A   1      35.983  21.267  25.270  1.00  0.00     0.023 C 
ENDROOT
BRANCH   1   2
ATOM      2  C   UNL A   1      34.605  20.701  24.935  1.00  0.00     0.116 C 
BRANCH   2   3
ATOM      3  N   UNL A   1      33.775  21.655  24.226  1.00  0.00    -0.356 N 
ATOM      4  O   UNL A   1      32.105  20.168  23.695  1.00  0.00    -0.275 OA
ATOM      5  C   UNL A   1      32.557  21.310  23.678  1.00  0.00     0.224 C 
ATOM      6  H   UNL A   1      34.092  22.582  24.134  1.00  0.00     0.163 HD
BRANCH   5   7
ATOM      7  C   UNL A   1      31.821  22.457  23.011  1.00  0.00     0.135 C 
BRANCH   7   8
ATOM      8  C   UNL A   1      31.230  23.501  23.937  1.00  0.00    -0.038 A 
ATOM      9  C   UNL A   1      31.024  23.283  25.306  1.00  0.00     0.004 A 
ATOM     10  C   UNL A   1      30.797  24.718  23.383  1.00  0.00     0.013 A 
ATOM     11  C   UNL A   1      30.445  24.270  26.105  1.00  0.00     0.001 A 
ATOM     12  C   UNL A   1      30.194  25.707  24.173  1.00  0.00    -0.018 A 
ATOM     13  C   UNL A   1      30.030  25.478  25.543  1.00  0.00     0.009 A 
BRANCH  12  14
ATOM     14  C   UNL A   1      29.701  26.946  23.541  1.00  0.00    -0.011 A 
ATOM     15  C   UNL A   1      30.585  27.858  22.838  1.00  0.00     0.027 A 
ATOM     16  C   UNL A   1      28.397  27.251  23.643  1.00  0.00     0.080 A 
ATOM     17  C   UNL A   1      30.117  29.002  22.325  1.00  0.00     0.095 A 
ATOM     18  C   UNL A   1      27.858  28.518  23.069  1.00  0.00     0.255 A 
ATOM     19  N   UNL A   1      28.782  29.338  22.439  1.00  0.00    -0.258 N 
ATOM     20  O   UNL A   1      26.662  28.754  23.196  1.00  0.00    -0.269 OA
BRANCH  19  21
ATOM     21  C   UNL A   1      28.296  30.591  21.919  1.00  0.00     0.451 C 
ATOM     22  F   UNL A   1      29.269  31.533  21.916  1.00  0.00    -0.185 F 
ATOM     23  F   UNL A   1      27.847  30.444  20.648  1.00  0.00    -0.185 F 
ENDBRANCH  19  21
ENDBRANCH  12  14
ENDBRANCH   7   8
ENDBRANCH   5   7
ENDBRANCH   2   3
ENDBRANCH   1   2
BRANCH   1  24
ATOM     24  C   UNL A   1      37.156  20.329  24.977  1.00  0.00     0.023 C 
BRANCH  24  25
ATOM     25  C   UNL A   1      38.524  20.824  25.436  1.00  0.00     0.116 C 
BRANCH  25  26
ATOM     26  N   UNL A   1      39.514  19.762  25.520  1.00  0.00    -0.352 N 
ATOM     27  C   UNL A   1      40.817  19.813  25.957  1.00  0.00     0.251 C 
ATOM     28  H   UNL A   1      39.207  18.877  25.221  1.00  0.00     0.163 HD
ATOM     29  O   UNL A   1      41.548  18.834  25.819  1.00  0.00    -0.269 OA
BRANCH  27  30
ATOM     30  C   UNL A   1      41.359  21.051  26.562  1.00  0.00     0.039 A 
ATOM     31  C   UNL A   1      42.014  21.970  25.740  1.00  0.00     0.014 A 
ATOM     32  C   UNL A   1      41.229  21.306  27.930  1.00  0.00     0.014 A 
ATOM     33  C   UNL A   1      42.473  23.177  26.274  1.00  0.00     0.010 A 
ATOM     34  C   UNL A   1      41.617  22.542  28.445  1.00  0.00     0.010 A 
ATOM     35  C   UNL A   1      42.242  23.492  27.622  1.00  0.00    -0.014 A 
BRANCH  35  36
ATOM     36  C   UNL A   1      42.631  24.813  28.185  1.00  0.00     0.031 A 
ATOM     37  C   UNL A   1      41.599  25.887  28.397  1.00  0.00     0.074 A 
ATOM     38  C   UNL A   1      43.928  25.069  28.449  1.00  0.00     0.049 A 
ATOM     39  N   UNL A   1      41.761  27.114  28.827  1.00  0.00    -0.248 NA
ATOM     40  C   UNL A   1      40.207  25.546  28.064  1.00  0.00     0.031 C 
ATOM     41  C   UNL A   1      45.035  24.130  28.256  1.00  0.00     0.029 A 
ATOM     42  N   UNL A   1      44.536  26.202  28.930  1.00  0.00    -0.354 N 
ATOM     43  C   UNL A   1      40.498  27.693  28.800  1.00  0.00     0.074 A 
ATOM     44  C   UNL A   1      39.591  26.701  28.265  1.00  0.00     0.031 C 
ATOM     45  C   UNL A   1      46.180  24.715  28.643  1.00  0.00     0.029 A 
ATOM     46  C   UNL A   1      45.898  26.082  29.066  1.00  0.00     0.049 A 
ATOM     47  H   UNL A   1      44.042  27.023  29.158  1.00  0.00     0.167 HD
ATOM     48  C   UNL A   1      40.122  28.932  29.200  1.00  0.00     0.031 A 
ATOM     49  C   UNL A   1      46.821  26.974  29.475  1.00  0.00     0.031 A 
ATOM     50  C   UNL A   1      41.022  29.920  29.734  1.00  0.00     0.049 A 
ATOM     51  C   UNL A   1      46.382  28.353  29.884  1.00  0.00     0.074 A 
ATOM     52  C   UNL A   1      40.726  31.184  30.216  1.00  0.00     0.029 A 
ATOM     53  N   UNL A   1      42.394  29.759  29.849  1.00  0.00    -0.354 N 
ATOM     54  N   UNL A   1      45.173  28.860  29.919  1.00  0.00    -0.248 NA
ATOM     55  C   UNL A   1      47.437  29.281  30.318  1.00  0.00     0.031 C 
ATOM     56  C   UNL A   1      41.926  31.810  30.565  1.00  0.00     0.029 A 
ATOM     57  C   UNL A   1      42.962  30.912  30.365  1.00  0.00     0.049 A 
ATOM     58  H   UNL A   1      42.891  28.947  29.599  1.00  0.00     0.167 HD
ATOM     59  C   UNL A   1      45.319  30.152  30.409  1.00  0.00     0.074 A 
ATOM     60  C   UNL A   1      46.730  30.344  30.672  1.00  0.00     0.031 C 
ATOM     61  C   UNL A   1      44.368  31.094  30.623  1.00  0.00     0.031 A 
BRANCH  48  62
ATOM     62  C   UNL A   1      38.668  29.293  29.063  1.00  0.00    -0.014 A 
ATOM     63  C   UNL A   1      37.777  29.158  30.141  1.00  0.00     0.009 A 
ATOM     64  C   UNL A   1      38.189  29.815  27.851  1.00  0.00     0.009 A 
ATOM     65  C   UNL A   1      36.431  29.500  29.995  1.00  0.00     0.001 A 
ATOM     66  C   UNL A   1      36.850  30.185  27.717  1.00  0.00     0.001 A 
ATOM     67  C   UNL A   1      35.970  30.018  28.785  1.00  0.00     0.000 A 
ENDBRANCH  48  62
BRANCH  49  68
ATOM     68  C   UNL A   1      48.257  26.591  29.529  1.00  0.00    -0.014 A 
ATOM     69  C   UNL A   1      49.093  26.801  28.422  1.00  0.00     0.009 A 
ATOM     70  C   UNL A   1      48.797  25.999  30.682  1.00  0.00     0.009 A 
ATOM     71  C   UNL A   1      50.431  26.400  28.456  1.00  0.00     0.001 A 
ATOM     72  C   UNL A   1      50.142  25.628  30.725  1.00  0.00     0.001 A 
ATOM     73  C   UNL A   1      50.955  25.818  29.609  1.00  0.00     0.000 A 
ENDBRANCH  49  68
BRANCH  61  74
ATOM     74  C   UNL A   1      44.814  32.405  31.209  1.00  0.00    -0.014 A 
ATOM     75  C   UNL A   1      45.259  33.459  30.395  1.00  0.00     0.009 A 
ATOM     76  C   UNL A   1      44.750  32.601  32.598  1.00  0.00     0.009 A 
ATOM     77  C   UNL A   1      45.664  34.668  30.965  1.00  0.00     0.001 A 
ATOM     78  C   UNL A   1      45.125  33.821  33.161  1.00  0.00     0.001 A 
ATOM     79  C   UNL A   1      45.592  34.850  32.345  1.00  0.00     0.000 A 
ENDBRANCH  61  74
ENDBRANCH  35  36
ENDBRANCH  27  30
ENDBRANCH  25  26
ENDBRANCH  24  25
ENDBRANCH   1  24
TORSDOF 14
ENDMDL
MODEL 3
REMARK VINA RESULT:      -8.0      5.877     10.788
REMARK SMILES O=C(Cc1cccc(-c2ccn(C(F)F)c(=O)c2)c1)NCCCCNC(=O)c1ccc(-c2c3nc(c(-c4ccccc4)c4ccc([nH]4)c(-c4ccccc4)c4nc(c(-c5ccccc5)c5ccc2[nH]5)C=C4)C=C3)cc1
REMARK SMILES IDX 22 1 21 2 20 3 1 4 2 5 3 7 4 8 5 9 19 10 6 11 8 12 7 13 9 14
REMARK SMILES IDX 10 15 18 16 11 17 16 18 12 19 17 20 13 21 14 22 15 23 23 24
REMARK SMILES IDX 24 25 25 26 26 27 27 29 28 30 29 31 75 32 30 33 74 34 31 35
REMARK SMILES IDX 32 36 33 37 68 38 34 39 73 40 67 41 69 42 35 43 72 44 66 45
REMARK SMILES IDX 65 46 36 48 58 49 43 50 57 51 44 52 47 53 56 54 70 55 45 56
REMARK SMILES IDX 46 57 55 59 71 60 48 61 37 62 38 63 42 64 39 65 41 66 40 67
REMARK SMILES IDX 59 68 60 69 64 70 61 71 63 72 62 73 49 74 50 75 54 76 51 77
REMARK SMILES IDX 53 78 52 79
REMARK H PARENT 20 6 25 28 69 47 47 58
REMARK Flexibility Score: inf
ROOT
ATOM      1  C   UNL A   1      32.195  29.600  25.237  1.00  0.00     0.023 C 
ENDROOT
BRANCH   1   2
ATOM      2  C   UNL A   1      31.078  28.656  24.798  1.00  0.00     0.116 C 
BRANCH   2   3
ATOM      3  N   UNL A   1      31.589  27.450  24.177  1.00  0.00    -0.356 N 
ATOM      4  O   UNL A   1      31.111  26.054  25.938  1.00  0.00    -0.275 OA
ATOM      5  C   UNL A   1      31.537  26.219  24.799  1.00  0.00     0.224 C 
ATOM      6  H   UNL A   1      31.986  27.512  23.279  1.00  0.00     0.163 HD
BRANCH   5   7
ATOM      7  C   UNL A   1      32.086  25.073  23.970  1.00  0.00     0.135 C 
BRANCH   7   8
ATOM      8  C   UNL A   1      33.281  24.343  24.548  1.00  0.00    -0.038 A 
ATOM      9  C   UNL A   1      34.416  25.000  25.042  1.00  0.00     0.004 A 
ATOM     10  C   UNL A   1      33.285  22.937  24.517  1.00  0.00     0.013 A 
ATOM     11  C   UNL A   1      35.503  24.274  25.534  1.00  0.00     0.001 A 
ATOM     12  C   UNL A   1      34.381  22.199  24.987  1.00  0.00    -0.018 A 
ATOM     13  C   UNL A   1      35.488  22.879  25.506  1.00  0.00     0.009 A 
BRANCH  12  14
ATOM     14  C   UNL A   1      34.367  20.728  24.882  1.00  0.00    -0.011 A 
ATOM     15  C   UNL A   1      35.589  19.945  24.839  1.00  0.00     0.027 A 
ATOM     16  C   UNL A   1      33.185  20.095  24.797  1.00  0.00     0.080 A 
ATOM     17  C   UNL A   1      35.544  18.618  24.685  1.00  0.00     0.095 A 
ATOM     18  C   UNL A   1      33.117  18.614  24.635  1.00  0.00     0.255 A 
ATOM     19  N   UNL A   1      34.335  17.955  24.577  1.00  0.00    -0.258 N 
ATOM     20  O   UNL A   1      32.014  18.086  24.554  1.00  0.00    -0.269 OA
BRANCH  19  21
ATOM     21  C   UNL A   1      34.299  16.530  24.371  1.00  0.00     0.451 C 
ATOM     22  F   UNL A   1      34.298  16.222  23.052  1.00  0.00    -0.185 F 
ATOM     23  F   UNL A   1      35.373  15.931  24.943  1.00  0.00    -0.185 F 
ENDBRANCH  19  21
ENDBRANCH  12  14
ENDBRANCH   7   8
ENDBRANCH   5   7
ENDBRANCH   2   3
ENDBRANCH   1   2
BRANCH   1  24
ATOM     24  C   UNL A   1      33.456  28.910  25.762  1.00  0.00     0.023 C 
BRANCH  24  25
ATOM     25  C   UNL A   1      33.635  28.931  27.277  1.00  0.00     0.116 C 
BRANCH  25  26
ATOM     26  N   UNL A   1      33.668  30.276  27.827  1.00  0.00    -0.352 N 
ATOM     27  C   UNL A   1      34.675  30.918  28.509  1.00  0.00     0.251 C 
ATOM     28  H   UNL A   1      32.850  30.805  27.692  1.00  0.00     0.163 HD
ATOM     29  O   UNL A   1      34.463  32.014  29.024  1.00  0.00    -0.269 OA
BRANCH  27  30
ATOM     30  C   UNL A   1      36.004  30.284  28.658  1.00  0.00     0.039 A 
ATOM     31  C   UNL A   1      36.887  30.312  27.575  1.00  0.00     0.014 A 
ATOM     32  C   UNL A   1      36.383  29.663  29.851  1.00  0.00     0.014 A 
ATOM     33  C   UNL A   1      38.173  29.782  27.712  1.00  0.00     0.010 A 
ATOM     34  C   UNL A   1      37.690  29.206  30.011  1.00  0.00     0.010 A 
ATOM     35  C   UNL A   1      38.600  29.263  28.944  1.00  0.00    -0.014 A 
BRANCH  35  36
ATOM     36  C   UNL A   1      39.997  28.788  29.139  1.00  0.00     0.031 A 
ATOM     37  C   UNL A   1      41.041  29.705  29.717  1.00  0.00     0.074 A 
ATOM     38  C   UNL A   1      40.342  27.548  28.740  1.00  0.00     0.049 A 
ATOM     39  N   UNL A   1      42.317  29.484  29.911  1.00  0.00    -0.248 NA
ATOM     40  C   UNL A   1      40.598  31.053  30.108  1.00  0.00     0.031 C 
ATOM     41  C   UNL A   1      39.438  26.570  28.132  1.00  0.00     0.029 A 
ATOM     42  N   UNL A   1      41.552  26.901  28.778  1.00  0.00    -0.354 N 
ATOM     43  C   UNL A   1      42.831  30.667  30.430  1.00  0.00     0.074 A 
ATOM     44  C   UNL A   1      41.740  31.616  30.473  1.00  0.00     0.031 C 
ATOM     45  C   UNL A   1      40.117  25.439  27.883  1.00  0.00     0.029 A 
ATOM     46  C   UNL A   1      41.512  25.626  28.268  1.00  0.00     0.049 A 
ATOM     47  H   UNL A   1      42.372  27.311  29.138  1.00  0.00     0.167 HD
ATOM     48  C   UNL A   1      44.091  30.934  30.850  1.00  0.00     0.031 A 
ATOM     49  C   UNL A   1      42.488  24.710  28.115  1.00  0.00     0.031 A 
ATOM     50  C   UNL A   1      45.177  29.991  30.809  1.00  0.00     0.049 A 
ATOM     51  C   UNL A   1      43.886  25.044  28.560  1.00  0.00     0.074 A 
ATOM     52  C   UNL A   1      46.476  30.152  31.261  1.00  0.00     0.029 A 
ATOM     53  N   UNL A   1      45.094  28.713  30.280  1.00  0.00    -0.354 N 
ATOM     54  N   UNL A   1      44.337  26.142  29.115  1.00  0.00    -0.248 NA
ATOM     55  C   UNL A   1      44.907  24.003  28.364  1.00  0.00     0.031 C 
ATOM     56  C   UNL A   1      47.194  28.994  30.949  1.00  0.00     0.029 A 
ATOM     57  C   UNL A   1      46.327  28.086  30.365  1.00  0.00     0.049 A 
ATOM     58  H   UNL A   1      44.281  28.310  29.898  1.00  0.00     0.167 HD
ATOM     59  C   UNL A   1      45.685  25.914  29.364  1.00  0.00     0.074 A 
ATOM     60  C   UNL A   1      45.972  24.567  28.915  1.00  0.00     0.031 C 
ATOM     61  C   UNL A   1      46.602  26.745  29.916  1.00  0.00     0.031 A 
BRANCH  48  62
ATOM     62  C   UNL A   1      44.366  32.315  31.381  1.00  0.00    -0.014 A 
ATOM     63  C   UNL A   1      44.224  32.614  32.746  1.00  0.00     0.009 A 
ATOM     64  C   UNL A   1      44.814  33.322  30.511  1.00  0.00     0.009 A 
ATOM     65  C   UNL A   1      44.485  33.900  33.221  1.00  0.00     0.001 A 
ATOM     66  C   UNL A   1      45.105  34.599  30.993  1.00  0.00     0.001 A 
ATOM     67  C   UNL A   1      44.930  34.890  32.345  1.00  0.00     0.000 A 
ENDBRANCH  48  62
BRANCH  49  68
ATOM     68  C   UNL A   1      42.180  23.382  27.521  1.00  0.00    -0.014 A 
ATOM     69  C   UNL A   1      41.547  22.389  28.284  1.00  0.00     0.009 A 
ATOM     70  C   UNL A   1      42.532  23.094  26.193  1.00  0.00     0.009 A 
ATOM     71  C   UNL A   1      41.299  21.127  27.740  1.00  0.00     0.001 A 
ATOM     72  C   UNL A   1      42.253  21.842  25.641  1.00  0.00     0.001 A 
ATOM     73  C   UNL A   1      41.648  20.856  26.418  1.00  0.00     0.000 A 
ENDBRANCH  49  68
BRANCH  61  74
ATOM     74  C   UNL A   1      47.994  26.209  30.106  1.00  0.00    -0.014 A 
ATOM     75  C   UNL A   1      48.939  26.236  29.068  1.00  0.00     0.009 A 
ATOM     76  C   UNL A   1      48.377  25.704  31.359  1.00  0.00     0.009 A 
ATOM     77  C   UNL A   1      50.227  25.736  29.272  1.00  0.00     0.001 A 
ATOM     78  C   UNL A   1      49.674  25.235  31.569  1.00  0.00     0.001 A 
ATOM     79  C   UNL A   1      50.595  25.242  30.523  1.00  0.00     0.000 A 
ENDBRANCH  61  74
ENDBRANCH  35  36
ENDBRANCH  27  30
ENDBRANCH  25  26
ENDBRANCH  24  25
ENDBRANCH   1  24
TORSDOF 14
ENDMDL
