MODEL 1
REMARK VINA RESULT:     -13.2      0.000      0.000
REMARK SMILES Cc1ccc(-c2c(C)sc(NC(=O)[C@H]3CC=CC[C@H]3C(=O)NCCCCNC(=O)c3ccc(-c4c5nc(c(-c6ccccc6)c6ccc([nH]6)c(-c6ccccc6)c6nc(c(-c7ccccc7)c7ccc4[nH]7)C=C6)C=C5)cc3)c2C(N)=O)cc1
REMARK SMILES IDX 24 1 23 2 22 3 20 4 21 5 19 7 14 8 15 9 16 10 18 11 17 12
REMARK SMILES IDX 12 13 11 14 13 16 10 17 6 18 7 19 78 20 8 21 9 22 5 23 1 24
REMARK SMILES IDX 2 25 3 26 83 27 4 28 82 29 79 30 80 31 81 32 25 35 26 36
REMARK SMILES IDX 27 37 28 38 29 40 30 41 31 42 77 43 32 44 76 45 33 46 34 47
REMARK SMILES IDX 35 48 70 49 36 50 75 51 69 52 71 53 37 54 74 55 68 56 67 57
REMARK SMILES IDX 38 59 60 60 45 61 59 62 46 63 49 64 58 65 72 66 47 67 48 68
REMARK SMILES IDX 57 70 73 71 50 72 39 73 40 74 44 75 41 76 43 77 42 78 61 79
REMARK SMILES IDX 62 80 66 81 63 82 65 83 64 84 51 85 52 86 56 87 53 88 55 89
REMARK SMILES IDX 54 90
REMARK H PARENT 22 6 11 15 80 33 80 34 27 39 71 58 49 69
REMARK Flexibility Score: inf
ROOT
ATOM      1  C   UNL A   1      31.524  30.286  26.309  1.00  0.00     0.023 C 
ENDROOT
BRANCH   1   2
ATOM      2  C   UNL A   1      32.066  29.590  25.054  1.00  0.00     0.116 C 
BRANCH   2   3
ATOM      3  N   UNL A   1      31.136  29.707  23.964  1.00  0.00    -0.356 N 
ATOM      4  C   UNL A   1      30.713  28.797  23.065  1.00  0.00     0.224 C 
ATOM      5  O   UNL A   1      30.097  29.253  22.094  1.00  0.00    -0.275 OA
ATOM      6  H   UNL A   1      30.743  30.603  23.856  1.00  0.00     0.163 HD
BRANCH   4   7
ATOM      7  C   UNL A   1      30.868  27.289  23.223  1.00  0.00     0.095 C 
ATOM      8  C   UNL A   1      32.145  26.541  22.793  1.00  0.00     0.095 C 
ATOM      9  C   UNL A   1      31.750  25.092  22.428  1.00  0.00     0.041 C 
ATOM     10  C   UNL A   1      30.635  24.520  23.281  1.00  0.00    -0.030 C 
ATOM     11  C   UNL A   1      30.194  26.694  24.452  1.00  0.00     0.041 C 
ATOM     12  C   UNL A   1      29.977  25.220  24.224  1.00  0.00    -0.030 C 
BRANCH   8  13
ATOM     13  C   UNL A   1      33.506  26.660  23.534  1.00  0.00     0.229 C 
ATOM     14  N   UNL A   1      33.985  25.957  24.601  1.00  0.00    -0.317 N 
ATOM     15  H   UNL A   1      34.518  26.495  25.229  1.00  0.00     0.170 HD
ATOM     16  O   UNL A   1      34.264  27.579  23.173  1.00  0.00    -0.274 OA
BRANCH  14  17
ATOM     17  C   UNL A   1      33.862  24.629  24.964  1.00  0.00     0.109 A 
ATOM     18  C   UNL A   1      33.825  22.298  25.129  1.00  0.00     0.010 A 
ATOM     19  C   UNL A   1      33.251  22.701  26.325  1.00  0.00     0.012 A 
ATOM     20  C   UNL A   1      34.194  23.448  24.294  1.00  0.00     0.082 A 
ATOM     21  C   UNL A   1      32.944  21.963  27.586  1.00  0.00     0.057 C 
ATOM     22  S   UNL A   1      32.712  24.298  26.164  1.00  0.00    -0.122 S 
BRANCH  18  23
ATOM     23  C   UNL A   1      33.916  20.868  24.834  1.00  0.00    -0.016 A 
ATOM     24  C   UNL A   1      33.950  16.631  24.020  1.00  0.00     0.044 C 
ATOM     25  C   UNL A   1      33.936  18.100  24.320  1.00  0.00    -0.051 A 
ATOM     26  C   UNL A   1      35.117  18.773  24.668  1.00  0.00     0.004 A 
ATOM     27  C   UNL A   1      32.747  18.825  24.218  1.00  0.00     0.004 A 
ATOM     28  C   UNL A   1      35.108  20.150  24.932  1.00  0.00     0.009 A 
ATOM     29  C   UNL A   1      32.742  20.195  24.462  1.00  0.00     0.009 A 
ENDBRANCH  18  23
BRANCH  20  30
ATOM     30  C   UNL A   1      34.807  23.328  22.962  1.00  0.00     0.252 C 
ATOM     31  N   UNL A   1      36.172  23.223  22.896  1.00  0.00    -0.365 N 
ATOM     32  O   UNL A   1      34.185  23.316  21.916  1.00  0.00    -0.269 OA
ATOM     33  H   UNL A   1      36.706  23.228  23.723  1.00  0.00     0.159 HD
ATOM     34  H   UNL A   1      36.618  23.139  22.022  1.00  0.00     0.159 HD
ENDBRANCH  20  30
ENDBRANCH  14  17
ENDBRANCH   8  13
ENDBRANCH   4   7
ENDBRANCH   2   3
ENDBRANCH   1   2
BRANCH   1  35
ATOM     35  C   UNL A   1      32.426  31.346  26.941  1.00  0.00     0.023 C 
BRANCH  35  36
ATOM     36  C   UNL A   1      33.726  30.799  27.488  1.00  0.00     0.116 C 
BRANCH  36  37
ATOM     37  N   UNL A   1      34.511  31.737  28.271  1.00  0.00    -0.352 N 
ATOM     38  C   UNL A   1      35.680  31.531  28.981  1.00  0.00     0.251 C 
ATOM     39  H   UNL A   1      34.159  32.656  28.301  1.00  0.00     0.163 HD
ATOM     40  O   UNL A   1      36.105  32.432  29.701  1.00  0.00    -0.269 OA
BRANCH  38  41
ATOM     41  C   UNL A   1      36.513  30.316  28.755  1.00  0.00     0.039 A 
ATOM     42  C   UNL A   1      36.655  29.422  29.826  1.00  0.00     0.014 A 
ATOM     43  C   UNL A   1      37.340  30.183  27.646  1.00  0.00     0.014 A 
ATOM     44  C   UNL A   1      37.797  28.633  29.914  1.00  0.00     0.010 A 
ATOM     45  C   UNL A   1      38.537  29.523  27.791  1.00  0.00     0.010 A 
ATOM     46  C   UNL A   1      38.791  28.811  28.961  1.00  0.00    -0.014 A 
BRANCH  46  47
ATOM     47  C   UNL A   1      40.156  28.348  29.110  1.00  0.00     0.031 A 
ATOM     48  C   UNL A   1      40.527  27.025  28.600  1.00  0.00     0.074 A 
ATOM     49  C   UNL A   1      41.086  29.212  29.566  1.00  0.00     0.049 A 
ATOM     50  N   UNL A   1      41.570  26.373  28.976  1.00  0.00    -0.248 NA
ATOM     51  C   UNL A   1      39.701  26.302  27.642  1.00  0.00     0.031 C 
ATOM     52  C   UNL A   1      42.540  29.102  29.500  1.00  0.00     0.029 A 
ATOM     53  N   UNL A   1      40.861  30.309  30.400  1.00  0.00    -0.354 N 
ATOM     54  C   UNL A   1      41.729  25.330  28.097  1.00  0.00     0.074 A 
ATOM     55  C   UNL A   1      40.484  25.257  27.368  1.00  0.00     0.031 C 
ATOM     56  C   UNL A   1      43.075  29.895  30.445  1.00  0.00     0.029 A 
ATOM     57  C   UNL A   1      41.973  30.382  31.261  1.00  0.00     0.049 A 
ATOM     58  H   UNL A   1      40.082  30.911  30.388  1.00  0.00     0.167 HD
ATOM     59  C   UNL A   1      42.958  24.756  27.976  1.00  0.00     0.031 A 
ATOM     60  C   UNL A   1      41.821  30.116  32.593  1.00  0.00     0.031 A 
ATOM     61  C   UNL A   1      43.904  25.306  28.953  1.00  0.00     0.049 A 
ATOM     62  C   UNL A   1      42.627  28.928  33.089  1.00  0.00     0.074 A 
ATOM     63  C   UNL A   1      44.953  26.207  28.869  1.00  0.00     0.029 A 
ATOM     64  N   UNL A   1      43.619  25.174  30.307  1.00  0.00    -0.354 N 
ATOM     65  N   UNL A   1      43.208  28.043  32.326  1.00  0.00    -0.248 NA
ATOM     66  C   UNL A   1      42.750  28.603  34.505  1.00  0.00     0.031 C 
ATOM     67  C   UNL A   1      45.281  26.630  30.190  1.00  0.00     0.029 A 
ATOM     68  C   UNL A   1      44.454  25.965  31.075  1.00  0.00     0.049 A 
ATOM     69  H   UNL A   1      42.914  24.593  30.673  1.00  0.00     0.167 HD
ATOM     70  C   UNL A   1      43.727  27.029  33.096  1.00  0.00     0.074 A 
ATOM     71  C   UNL A   1      43.411  27.433  34.455  1.00  0.00     0.031 C 
ATOM     72  C   UNL A   1      44.325  25.932  32.532  1.00  0.00     0.031 A 
BRANCH  59  73
ATOM     73  C   UNL A   1      43.369  23.908  26.792  1.00  0.00    -0.014 A 
ATOM     74  C   UNL A   1      43.087  22.531  26.797  1.00  0.00     0.009 A 
ATOM     75  C   UNL A   1      44.083  24.378  25.676  1.00  0.00     0.009 A 
ATOM     76  C   UNL A   1      43.568  21.669  25.799  1.00  0.00     0.001 A 
ATOM     77  C   UNL A   1      44.596  23.521  24.692  1.00  0.00     0.001 A 
ATOM     78  C   UNL A   1      44.346  22.160  24.760  1.00  0.00     0.000 A 
ENDBRANCH  59  73
BRANCH  60  79
ATOM     79  C   UNL A   1      40.462  30.465  33.113  1.00  0.00    -0.014 A 
ATOM     80  C   UNL A   1      40.065  31.819  33.132  1.00  0.00     0.009 A 
ATOM     81  C   UNL A   1      39.471  29.480  33.230  1.00  0.00     0.009 A 
ATOM     82  C   UNL A   1      38.709  32.168  33.124  1.00  0.00     0.001 A 
ATOM     83  C   UNL A   1      38.116  29.836  33.246  1.00  0.00     0.001 A 
ATOM     84  C   UNL A   1      37.736  31.173  33.146  1.00  0.00     0.000 A 
ENDBRANCH  60  79
BRANCH  72  85
ATOM     85  C   UNL A   1      44.819  24.681  33.249  1.00  0.00    -0.014 A 
ATOM     86  C   UNL A   1      44.054  23.545  33.530  1.00  0.00     0.009 A 
ATOM     87  C   UNL A   1      46.164  24.631  33.693  1.00  0.00     0.009 A 
ATOM     88  C   UNL A   1      44.613  22.404  34.132  1.00  0.00     0.001 A 
ATOM     89  C   UNL A   1      46.730  23.503  34.294  1.00  0.00     0.001 A 
ATOM     90  C   UNL A   1      45.953  22.377  34.499  1.00  0.00     0.000 A 
ENDBRANCH  72  85
ENDBRANCH  46  47
ENDBRANCH  38  41
ENDBRANCH  36  37
ENDBRANCH  35  36
ENDBRANCH   1  35
TORSDOF 15
ENDMDL
MODEL 2
REMARK VINA RESULT:     -12.3      1.465      2.215
REMARK SMILES Cc1ccc(-c2c(C)sc(NC(=O)[C@H]3CC=CC[C@H]3C(=O)NCCCCNC(=O)c3ccc(-c4c5nc(c(-c6ccccc6)c6ccc([nH]6)c(-c6ccccc6)c6nc(c(-c7ccccc7)c7ccc4[nH]7)C=C6)C=C5)cc3)c2C(N)=O)cc1
REMARK SMILES IDX 24 1 23 2 22 3 20 4 21 5 19 7 14 8 15 9 16 10 18 11 17 12
REMARK SMILES IDX 12 13 11 14 13 16 10 17 6 18 7 19 78 20 8 21 9 22 5 23 1 24
REMARK SMILES IDX 2 25 3 26 83 27 4 28 82 29 79 30 80 31 81 32 25 35 26 36
REMARK SMILES IDX 27 37 28 38 29 40 30 41 31 42 77 43 32 44 76 45 33 46 34 47
REMARK SMILES IDX 35 48 70 49 36 50 75 51 69 52 71 53 37 54 74 55 68 56 67 57
REMARK SMILES IDX 38 59 60 60 45 61 59 62 46 63 49 64 58 65 72 66 47 67 48 68
REMARK SMILES IDX 57 70 73 71 50 72 39 73 40 74 44 75 41 76 43 77 42 78 61 79
REMARK SMILES IDX 62 80 66 81 63 82 65 83 64 84 51 85 52 86 56 87 53 88 55 89
REMARK SMILES IDX 54 90
REMARK H PARENT 22 6 11 15 80 33 80 34 27 39 71 58 49 69
REMARK Flexibility Score: inf
ROOT
ATOM      1  C   UNL A   1      34.333  29.007  27.309  1.00  0.00     0.023 C 
ENDROOT
BRANCH   1   2
ATOM      2  C   UNL A   1      33.316  27.947  26.865  1.00  0.00     0.116 C 
BRANCH   2   3
ATOM      3  N   UNL A   1      33.779  27.255  25.694  1.00  0.00    -0.356 N 
ATOM      4  C   UNL A   1      33.171  27.011  24.516  1.00  0.00     0.224 C 
ATOM      5  O   UNL A   1      33.728  26.178  23.790  1.00  0.00    -0.275 OA
ATOM      6  H   UNL A   1      34.694  26.899  25.764  1.00  0.00     0.163 HD
BRANCH   4   7
ATOM      7  C   UNL A   1      31.933  27.743  24.014  1.00  0.00     0.095 C 
ATOM      8  C   UNL A   1      30.817  27.033  23.222  1.00  0.00     0.095 C 
ATOM      9  C   UNL A   1      30.138  28.080  22.310  1.00  0.00     0.041 C 
ATOM     10  C   UNL A   1      30.045  29.465  22.918  1.00  0.00    -0.030 C 
ATOM     11  C   UNL A   1      31.425  28.855  24.923  1.00  0.00     0.041 C 
ATOM     12  C   UNL A   1      30.573  29.798  24.112  1.00  0.00    -0.030 C 
BRANCH   8  13
ATOM     13  C   UNL A   1      29.835  26.004  23.848  1.00  0.00     0.229 C 
ATOM     14  N   UNL A   1      30.038  24.699  24.191  1.00  0.00    -0.317 N 
ATOM     15  H   UNL A   1      29.263  24.116  24.022  1.00  0.00     0.170 HD
ATOM     16  O   UNL A   1      28.657  26.374  24.000  1.00  0.00    -0.274 OA
BRANCH  14  17
ATOM     17  C   UNL A   1      31.127  24.043  24.731  1.00  0.00     0.109 A 
ATOM     18  C   UNL A   1      33.077  22.835  25.179  1.00  0.00     0.010 A 
ATOM     19  C   UNL A   1      32.583  23.104  26.446  1.00  0.00     0.012 A 
ATOM     20  C   UNL A   1      32.208  23.390  24.133  1.00  0.00     0.082 A 
ATOM     21  C   UNL A   1      33.194  22.986  27.804  1.00  0.00     0.057 C 
ATOM     22  S   UNL A   1      30.940  23.492  26.323  1.00  0.00    -0.122 S 
BRANCH  18  23
ATOM     23  C   UNL A   1      34.284  22.020  25.048  1.00  0.00    -0.016 A 
ATOM     24  C   UNL A   1      37.724  19.430  24.763  1.00  0.00     0.044 C 
ATOM     25  C   UNL A   1      36.530  20.330  24.879  1.00  0.00    -0.051 A 
ATOM     26  C   UNL A   1      36.683  21.724  24.918  1.00  0.00     0.004 A 
ATOM     27  C   UNL A   1      35.244  19.787  24.912  1.00  0.00     0.004 A 
ATOM     28  C   UNL A   1      35.567  22.567  25.010  1.00  0.00     0.009 A 
ATOM     29  C   UNL A   1      34.135  20.625  24.985  1.00  0.00     0.009 A 
ENDBRANCH  18  23
BRANCH  20  30
ATOM     30  C   UNL A   1      32.470  23.246  22.692  1.00  0.00     0.252 C 
ATOM     31  N   UNL A   1      32.422  21.985  22.158  1.00  0.00    -0.365 N 
ATOM     32  O   UNL A   1      32.728  24.170  21.943  1.00  0.00    -0.269 OA
ATOM     33  H   UNL A   1      32.215  21.214  22.736  1.00  0.00     0.159 HD
ATOM     34  H   UNL A   1      32.591  21.850  21.198  1.00  0.00     0.159 HD
ENDBRANCH  20  30
ENDBRANCH  14  17
ENDBRANCH   8  13
ENDBRANCH   4   7
ENDBRANCH   2   3
ENDBRANCH   1   2
BRANCH   1  35
ATOM     35  C   UNL A   1      33.912  30.466  27.135  1.00  0.00     0.023 C 
BRANCH  35  36
ATOM     36  C   UNL A   1      34.154  31.325  28.356  1.00  0.00     0.116 C 
BRANCH  36  37
ATOM     37  N   UNL A   1      35.261  32.258  28.246  1.00  0.00    -0.352 N 
ATOM     38  C   UNL A   1      36.616  32.044  28.428  1.00  0.00     0.251 C 
ATOM     39  H   UNL A   1      35.012  33.180  28.006  1.00  0.00     0.163 HD
ATOM     40  O   UNL A   1      37.375  33.011  28.431  1.00  0.00    -0.269 OA
BRANCH  38  41
ATOM     41  C   UNL A   1      37.181  30.665  28.446  1.00  0.00     0.039 A 
ATOM     42  C   UNL A   1      37.386  30.068  29.698  1.00  0.00     0.014 A 
ATOM     43  C   UNL A   1      37.740  30.080  27.316  1.00  0.00     0.014 A 
ATOM     44  C   UNL A   1      38.381  29.107  29.845  1.00  0.00     0.010 A 
ATOM     45  C   UNL A   1      38.819  29.245  27.471  1.00  0.00     0.010 A 
ATOM     46  C   UNL A   1      39.181  28.821  28.748  1.00  0.00    -0.014 A 
BRANCH  46  47
ATOM     47  C   UNL A   1      40.456  28.136  28.825  1.00  0.00     0.031 A 
ATOM     48  C   UNL A   1      40.506  26.684  28.633  1.00  0.00     0.074 A 
ATOM     49  C   UNL A   1      41.583  28.874  28.907  1.00  0.00     0.049 A 
ATOM     50  N   UNL A   1      41.480  25.938  29.020  1.00  0.00    -0.248 NA
ATOM     51  C   UNL A   1      39.411  25.943  28.020  1.00  0.00     0.031 C 
ATOM     52  C   UNL A   1      42.962  28.457  28.674  1.00  0.00     0.029 A 
ATOM     53  N   UNL A   1      41.697  30.157  29.446  1.00  0.00    -0.354 N 
ATOM     54  C   UNL A   1      41.302  24.710  28.433  1.00  0.00     0.074 A 
ATOM     55  C   UNL A   1      39.950  24.725  27.925  1.00  0.00     0.031 C 
ATOM     56  C   UNL A   1      43.784  29.321  29.296  1.00  0.00     0.029 A 
ATOM     57  C   UNL A   1      42.945  30.198  30.098  1.00  0.00     0.049 A 
ATOM     58  H   UNL A   1      41.039  30.885  29.383  1.00  0.00     0.167 HD
ATOM     59  C   UNL A   1      42.377  23.884  28.300  1.00  0.00     0.031 A 
ATOM     60  C   UNL A   1      42.999  30.285  31.461  1.00  0.00     0.031 A 
ATOM     61  C   UNL A   1      43.563  24.441  28.960  1.00  0.00     0.049 A 
ATOM     62  C   UNL A   1      43.677  29.105  32.135  1.00  0.00     0.074 A 
ATOM     63  C   UNL A   1      44.712  25.064  28.500  1.00  0.00     0.029 A 
ATOM     64  N   UNL A   1      43.515  24.688  30.326  1.00  0.00    -0.354 N 
ATOM     65  N   UNL A   1      43.956  27.968  31.559  1.00  0.00    -0.248 NA
ATOM     66  C   UNL A   1      44.003  29.099  33.557  1.00  0.00     0.031 C 
ATOM     67  C   UNL A   1      45.343  25.706  29.606  1.00  0.00     0.029 A 
ATOM     68  C   UNL A   1      44.594  25.447  30.739  1.00  0.00     0.049 A 
ATOM     69  H   UNL A   1      42.803  24.363  30.924  1.00  0.00     0.167 HD
ATOM     70  C   UNL A   1      44.435  27.076  32.490  1.00  0.00     0.074 A 
ATOM     71  C   UNL A   1      44.443  27.840  33.726  1.00  0.00     0.031 C 
ATOM     72  C   UNL A   1      44.732  25.780  32.157  1.00  0.00     0.031 A 
BRANCH  59  73
ATOM     73  C   UNL A   1      42.420  22.720  27.335  1.00  0.00    -0.014 A 
ATOM     74  C   UNL A   1      41.376  21.779  27.340  1.00  0.00     0.009 A 
ATOM     75  C   UNL A   1      43.473  22.453  26.442  1.00  0.00     0.009 A 
ATOM     76  C   UNL A   1      41.427  20.604  26.575  1.00  0.00     0.001 A 
ATOM     77  C   UNL A   1      43.550  21.267  25.699  1.00  0.00     0.001 A 
ATOM     78  C   UNL A   1      42.528  20.335  25.773  1.00  0.00     0.000 A 
ENDBRANCH  59  73
BRANCH  60  79
ATOM     79  C   UNL A   1      41.834  31.015  32.052  1.00  0.00    -0.014 A 
ATOM     80  C   UNL A   1      41.590  32.347  31.655  1.00  0.00     0.009 A 
ATOM     81  C   UNL A   1      40.801  30.310  32.685  1.00  0.00     0.009 A 
ATOM     82  C   UNL A   1      40.310  32.903  31.761  1.00  0.00     0.001 A 
ATOM     83  C   UNL A   1      39.527  30.880  32.812  1.00  0.00     0.001 A 
ATOM     84  C   UNL A   1      39.272  32.154  32.308  1.00  0.00     0.000 A 
ENDBRANCH  60  79
BRANCH  72  85
ATOM     85  C   UNL A   1      45.137  24.655  33.102  1.00  0.00    -0.014 A 
ATOM     86  C   UNL A   1      44.314  23.607  33.525  1.00  0.00     0.009 A 
ATOM     87  C   UNL A   1      46.454  24.642  33.626  1.00  0.00     0.009 A 
ATOM     88  C   UNL A   1      44.796  22.569  34.342  1.00  0.00     0.001 A 
ATOM     89  C   UNL A   1      46.942  23.616  34.441  1.00  0.00     0.001 A 
ATOM     90  C   UNL A   1      46.112  22.565  34.787  1.00  0.00     0.000 A 
ENDBRANCH  72  85
ENDBRANCH  46  47
ENDBRANCH  38  41
ENDBRANCH  36  37
ENDBRANCH  35  36
ENDBRANCH   1  35
TORSDOF 15
ENDMDL
MODEL 3
REMARK VINA RESULT:     -11.5      2.388      3.097
REMARK SMILES Cc1ccc(-c2c(C)sc(NC(=O)[C@H]3CC=CC[C@H]3C(=O)NCCCCNC(=O)c3ccc(-c4c5nc(c(-c6ccccc6)c6ccc([nH]6)c(-c6ccccc6)c6nc(c(-c7ccccc7)c7ccc4[nH]7)C=C6)C=C5)cc3)c2C(N)=O)cc1
REMARK SMILES IDX 24 1 23 2 22 3 20 4 21 5 19 7 14 8 15 9 16 10 18 11 17 12
REMARK SMILES IDX 12 13 11 14 13 16 10 17 6 18 7 19 78 20 8 21 9 22 5 23 1 24
REMARK SMILES IDX 2 25 3 26 83 27 4 28 82 29 79 30 80 31 81 32 25 35 26 36
REMARK SMILES IDX 27 37 28 38 29 40 30 41 31 42 77 43 32 44 76 45 33 46 34 47
REMARK SMILES IDX 35 48 70 49 36 50 75 51 69 52 71 53 37 54 74 55 68 56 67 57
REMARK SMILES IDX 38 59 60 60 45 61 59 62 46 63 49 64 58 65 72 66 47 67 48 68
REMARK SMILES IDX 57 70 73 71 50 72 39 73 40 74 44 75 41 76 43 77 42 78 61 79
REMARK SMILES IDX 62 80 66 81 63 82 65 83 64 84 51 85 52 86 56 87 53 88 55 89
REMARK SMILES IDX 54 90
REMARK H PARENT 22 6 11 15 80 33 80 34 27 39 71 58 49 69
REMARK Flexibility Score: inf
ROOT
ATOM      1  C   UNL A   1      33.003  30.445  26.378  1.00  0.00     0.023 C 
ENDROOT
BRANCH   1   2
ATOM      2  C   UNL A   1      31.563  30.921  26.148  1.00  0.00     0.116 C 
BRANCH   2   3
ATOM      3  N   UNL A   1      31.070  30.460  24.879  1.00  0.00    -0.356 N 
ATOM      4  C   UNL A   1      31.332  29.333  24.188  1.00  0.00     0.224 C 
ATOM      5  O   UNL A   1      30.947  29.327  23.012  1.00  0.00    -0.275 OA
ATOM      6  H   UNL A   1      30.433  31.070  24.441  1.00  0.00     0.163 HD
BRANCH   4   7
ATOM      7  C   UNL A   1      31.970  28.083  24.781  1.00  0.00     0.095 C 
ATOM      8  C   UNL A   1      31.136  26.939  25.389  1.00  0.00     0.095 C 
ATOM      9  C   UNL A   1      31.998  26.236  26.462  1.00  0.00     0.041 C 
ATOM     10  C   UNL A   1      33.474  26.170  26.124  1.00  0.00    -0.030 C 
ATOM     11  C   UNL A   1      33.240  27.612  24.085  1.00  0.00     0.041 C 
ATOM     12  C   UNL A   1      34.021  26.738  25.033  1.00  0.00    -0.030 C 
BRANCH   8  13
ATOM     13  C   UNL A   1      30.255  25.972  24.549  1.00  0.00     0.229 C 
ATOM     14  N   UNL A   1      30.536  24.724  24.074  1.00  0.00    -0.317 N 
ATOM     15  H   UNL A   1      30.162  24.541  23.182  1.00  0.00     0.170 HD
ATOM     16  O   UNL A   1      29.151  26.403  24.170  1.00  0.00    -0.274 OA
BRANCH  14  17
ATOM     17  C   UNL A   1      31.247  23.668  24.611  1.00  0.00     0.109 A 
ATOM     18  C   UNL A   1      32.506  21.748  25.054  1.00  0.00     0.010 A 
ATOM     19  C   UNL A   1      32.173  22.199  26.323  1.00  0.00     0.012 A 
ATOM     20  C   UNL A   1      31.950  22.620  24.010  1.00  0.00     0.082 A 
ATOM     21  C   UNL A   1      32.680  21.833  27.679  1.00  0.00     0.057 C 
ATOM     22  S   UNL A   1      30.848  23.246  26.204  1.00  0.00    -0.122 S 
BRANCH  18  23
ATOM     23  C   UNL A   1      33.255  20.500  24.921  1.00  0.00    -0.016 A 
ATOM     24  C   UNL A   1      35.277  16.699  24.623  1.00  0.00     0.044 C 
ATOM     25  C   UNL A   1      34.575  18.019  24.744  1.00  0.00    -0.051 A 
ATOM     26  C   UNL A   1      35.304  19.217  24.802  1.00  0.00     0.004 A 
ATOM     27  C   UNL A   1      33.180  18.072  24.761  1.00  0.00     0.004 A 
ATOM     28  C   UNL A   1      34.649  20.453  24.898  1.00  0.00     0.009 A 
ATOM     29  C   UNL A   1      32.529  19.301  24.837  1.00  0.00     0.009 A 
ENDBRANCH  18  23
BRANCH  20  30
ATOM     30  C   UNL A   1      32.125  22.382  22.569  1.00  0.00     0.252 C 
ATOM     31  N   UNL A   1      31.406  21.362  22.001  1.00  0.00    -0.365 N 
ATOM     32  O   UNL A   1      32.863  23.027  21.848  1.00  0.00    -0.269 OA
ATOM     33  H   UNL A   1      30.799  20.820  22.555  1.00  0.00     0.159 HD
ATOM     34  H   UNL A   1      31.496  21.172  21.039  1.00  0.00     0.159 HD
ENDBRANCH  20  30
ENDBRANCH  14  17
ENDBRANCH   8  13
ENDBRANCH   4   7
ENDBRANCH   2   3
ENDBRANCH   1   2
BRANCH   1  35
ATOM     35  C   UNL A   1      33.706  30.986  27.624  1.00  0.00     0.023 C 
BRANCH  35  36
ATOM     36  C   UNL A   1      35.010  30.291  27.944  1.00  0.00     0.116 C 
BRANCH  36  37
ATOM     37  N   UNL A   1      35.828  30.943  28.951  1.00  0.00    -0.352 N 
ATOM     38  C   UNL A   1      36.988  30.504  29.565  1.00  0.00     0.251 C 
ATOM     39  H   UNL A   1      35.511  31.829  29.240  1.00  0.00     0.163 HD
ATOM     40  O   UNL A   1      37.444  31.152  30.504  1.00  0.00    -0.269 OA
BRANCH  38  41
ATOM     41  C   UNL A   1      37.775  29.372  29.001  1.00  0.00     0.039 A 
ATOM     42  C   UNL A   1      38.369  28.484  29.910  1.00  0.00     0.014 A 
ATOM     43  C   UNL A   1      38.148  29.323  27.664  1.00  0.00     0.014 A 
ATOM     44  C   UNL A   1      39.524  27.799  29.544  1.00  0.00     0.010 A 
ATOM     45  C   UNL A   1      39.364  28.773  27.337  1.00  0.00     0.010 A 
ATOM     46  C   UNL A   1      40.083  28.075  28.304  1.00  0.00    -0.014 A 
BRANCH  46  47
ATOM     47  C   UNL A   1      41.441  27.735  27.928  1.00  0.00     0.031 A 
ATOM     48  C   UNL A   1      41.844  26.326  27.882  1.00  0.00     0.074 A 
ATOM     49  C   UNL A   1      42.250  28.713  27.473  1.00  0.00     0.049 A 
ATOM     50  N   UNL A   1      43.065  25.924  27.916  1.00  0.00    -0.248 NA
ATOM     51  C   UNL A   1      40.872  25.241  27.843  1.00  0.00     0.031 C 
ATOM     52  C   UNL A   1      43.510  28.587  26.746  1.00  0.00     0.029 A 
ATOM     53  N   UNL A   1      42.168  30.072  27.786  1.00  0.00    -0.354 N 
ATOM     54  C   UNL A   1      43.057  24.593  27.579  1.00  0.00     0.074 A 
ATOM     55  C   UNL A   1      41.673  24.189  27.662  1.00  0.00     0.031 C 
ATOM     56  C   UNL A   1      44.207  29.728  26.891  1.00  0.00     0.029 A 
ATOM     57  C   UNL A   1      43.495  30.535  27.870  1.00  0.00     0.049 A 
ATOM     58  H   UNL A   1      41.348  30.598  27.922  1.00  0.00     0.167 HD
ATOM     59  C   UNL A   1      44.204  24.029  27.107  1.00  0.00     0.031 A 
ATOM     60  C   UNL A   1      44.008  30.915  29.079  1.00  0.00     0.031 A 
ATOM     61  C   UNL A   1      45.328  24.970  27.171  1.00  0.00     0.049 A 
ATOM     62  C   UNL A   1      45.200  30.093  29.537  1.00  0.00     0.074 A 
ATOM     63  C   UNL A   1      45.995  25.732  26.225  1.00  0.00     0.029 A 
ATOM     64  N   UNL A   1      45.705  25.479  28.408  1.00  0.00    -0.354 N 
ATOM     65  N   UNL A   1      45.574  28.956  29.017  1.00  0.00    -0.248 NA
ATOM     66  C   UNL A   1      46.002  30.459  30.699  1.00  0.00     0.031 C 
ATOM     67  C   UNL A   1      46.763  26.719  26.910  1.00  0.00     0.029 A 
ATOM     68  C   UNL A   1      46.585  26.537  28.269  1.00  0.00     0.049 A 
ATOM     69  H   UNL A   1      45.386  25.131  29.272  1.00  0.00     0.167 HD
ATOM     70  C   UNL A   1      46.595  28.413  29.759  1.00  0.00     0.074 A 
ATOM     71  C   UNL A   1      46.824  29.400  30.802  1.00  0.00     0.031 C 
ATOM     72  C   UNL A   1      47.120  27.181  29.469  1.00  0.00     0.031 A 
BRANCH  59  73
ATOM     73  C   UNL A   1      44.237  22.731  26.331  1.00  0.00    -0.014 A 
ATOM     74  C   UNL A   1      43.106  21.896  26.332  1.00  0.00     0.009 A 
ATOM     75  C   UNL A   1      45.354  22.239  25.632  1.00  0.00     0.009 A 
ATOM     76  C   UNL A   1      43.123  20.617  25.755  1.00  0.00     0.001 A 
ATOM     77  C   UNL A   1      45.392  20.951  25.081  1.00  0.00     0.001 A 
ATOM     78  C   UNL A   1      44.276  20.133  25.152  1.00  0.00     0.000 A 
ENDBRANCH  59  73
BRANCH  60  79
ATOM     79  C   UNL A   1      42.976  31.464  30.013  1.00  0.00    -0.014 A 
ATOM     80  C   UNL A   1      42.572  32.809  29.872  1.00  0.00     0.009 A 
ATOM     81  C   UNL A   1      42.160  30.599  30.756  1.00  0.00     0.009 A 
ATOM     82  C   UNL A   1      41.324  33.234  30.339  1.00  0.00     0.001 A 
ATOM     83  C   UNL A   1      40.922  31.037  31.244  1.00  0.00     0.001 A 
ATOM     84  C   UNL A   1      40.485  32.337  30.995  1.00  0.00     0.000 A 
ENDBRANCH  60  79
BRANCH  72  85
ATOM     85  C   UNL A   1      48.151  26.403  30.278  1.00  0.00    -0.014 A 
ATOM     86  C   UNL A   1      48.040  26.060  31.629  1.00  0.00     0.009 A 
ATOM     87  C   UNL A   1      49.346  25.982  29.642  1.00  0.00     0.009 A 
ATOM     88  C   UNL A   1      49.010  25.275  32.277  1.00  0.00     0.001 A 
ATOM     89  C   UNL A   1      50.318  25.204  30.278  1.00  0.00     0.001 A 
ATOM     90  C   UNL A   1      50.139  24.834  31.599  1.00  0.00     0.000 A 
ENDBRANCH  72  85
ENDBRANCH  46  47
ENDBRANCH  38  41
ENDBRANCH  36  37
ENDBRANCH  35  36
ENDBRANCH   1  35
TORSDOF 15
ENDMDL
