MODEL 1
REMARK VINA RESULT:     -11.3      0.000      0.000
REMARK SMILES C[C@]1(c2nnnn2CCC(=O)NCCCCNC(=O)c2ccc(-c3c4nc(c(-c5ccccc5)c5ccc([nH]5)c(-c5ccccc5)c5nc(c(-c6ccccc6)c6ccc3[nH]6)C=C5)C=C4)cc2)CCCO1
REMARK SMILES IDX 14 1 13 2 12 3 10 4 11 5 9 7 8 8 7 9 3 10 4 11 5 12 6 13
REMARK SMILES IDX 2 14 1 15 68 16 71 17 69 18 70 19 15 20 16 21 17 22 18 23
REMARK SMILES IDX 19 25 20 26 21 27 67 28 22 29 66 30 23 31 24 32 25 33 60 34
REMARK SMILES IDX 26 35 65 36 59 37 61 38 27 39 64 40 58 41 57 42 28 44 50 45
REMARK SMILES IDX 35 46 49 47 36 48 39 49 48 50 62 51 37 52 38 53 47 55 63 56
REMARK SMILES IDX 40 57 29 58 30 59 34 60 31 61 33 62 32 63 51 64 52 65 56 66
REMARK SMILES IDX 53 67 55 68 54 69 41 70 42 71 46 72 43 73 45 74 44 75
REMARK H PARENT 12 6 17 24 61 43 39 54
REMARK Flexibility Score: inf
ROOT
ATOM      1  C   UNL A   1      40.806  21.598  26.112  1.00  0.00     0.023 C 
ENDROOT
BRANCH   1   2
ATOM      2  C   UNL A   1      39.388  21.936  26.561  1.00  0.00     0.116 C 
BRANCH   2   3
ATOM      3  N   UNL A   1      38.636  22.559  25.486  1.00  0.00    -0.356 N 
ATOM      4  C   UNL A   1      37.407  22.251  24.987  1.00  0.00     0.221 C 
ATOM      5  O   UNL A   1      37.042  22.814  23.952  1.00  0.00    -0.275 OA
ATOM      6  H   UNL A   1      39.084  23.322  25.052  1.00  0.00     0.163 HD
BRANCH   4   7
ATOM      7  C   UNL A   1      36.483  21.275  25.695  1.00  0.00     0.124 C 
BRANCH   7   8
ATOM      8  C   UNL A   1      35.552  20.527  24.741  1.00  0.00     0.158 C 
BRANCH   8   9
ATOM      9  N   UNL A   1      34.152  20.586  25.101  1.00  0.00    -0.226 N 
ATOM     10  C   UNL A   1      33.045  19.912  24.640  1.00  0.00     0.183 A 
ATOM     11  N   UNL A   1      31.991  20.620  25.017  1.00  0.00    -0.111 NA
ATOM     12  N   UNL A   1      32.442  21.470  25.989  1.00  0.00    -0.024 NA
ATOM     13  N   UNL A   1      33.759  21.403  26.097  1.00  0.00    -0.045 NA
BRANCH  10  14
ATOM     14  C   UNL A   1      32.964  18.459  24.317  1.00  0.00     0.126 C 
ATOM     15  C   UNL A   1      32.364  18.362  22.898  1.00  0.00     0.051 C 
ATOM     16  C   UNL A   1      34.285  17.707  24.421  1.00  0.00     0.046 C 
ATOM     17  O   UNL A   1      32.085  17.791  25.238  1.00  0.00    -0.367 OA
ATOM     18  C   UNL A   1      33.807  16.281  24.584  1.00  0.00     0.032 C 
ATOM     19  C   UNL A   1      32.582  16.459  25.459  1.00  0.00     0.161 C 
ENDBRANCH  10  14
ENDBRANCH   8   9
ENDBRANCH   7   8
ENDBRANCH   4   7
ENDBRANCH   2   3
ENDBRANCH   1   2
BRANCH   1  20
ATOM     20  C   UNL A   1      41.273  20.147  26.122  1.00  0.00     0.023 C 
BRANCH  20  21
ATOM     21  C   UNL A   1      42.672  19.948  26.659  1.00  0.00     0.116 C 
BRANCH  21  22
ATOM     22  N   UNL A   1      43.612  19.389  25.687  1.00  0.00    -0.352 N 
ATOM     23  C   UNL A   1      44.336  20.097  24.736  1.00  0.00     0.251 C 
ATOM     24  H   UNL A   1      43.744  18.413  25.708  1.00  0.00     0.163 HD
ATOM     25  O   UNL A   1      44.811  19.584  23.748  1.00  0.00    -0.269 OA
BRANCH  23  26
ATOM     26  C   UNL A   1      44.512  21.536  25.006  1.00  0.00     0.039 A 
ATOM     27  C   UNL A   1      43.771  22.495  24.319  1.00  0.00     0.014 A 
ATOM     28  C   UNL A   1      45.277  21.859  26.124  1.00  0.00     0.014 A 
ATOM     29  C   UNL A   1      43.709  23.779  24.852  1.00  0.00     0.010 A 
ATOM     30  C   UNL A   1      45.073  23.073  26.732  1.00  0.00     0.010 A 
ATOM     31  C   UNL A   1      44.317  24.051  26.093  1.00  0.00    -0.014 A 
BRANCH  31  32
ATOM     32  C   UNL A   1      44.038  25.308  26.790  1.00  0.00     0.031 A 
ATOM     33  C   UNL A   1      44.986  26.413  26.482  1.00  0.00     0.074 A 
ATOM     34  C   UNL A   1      42.936  25.540  27.539  1.00  0.00     0.049 A 
ATOM     35  N   UNL A   1      45.944  26.835  27.237  1.00  0.00    -0.248 NA
ATOM     36  C   UNL A   1      44.975  27.026  25.144  1.00  0.00     0.031 C 
ATOM     37  C   UNL A   1      41.748  24.690  27.701  1.00  0.00     0.029 A 
ATOM     38  N   UNL A   1      42.605  26.650  28.257  1.00  0.00    -0.354 N 
ATOM     39  C   UNL A   1      46.518  27.915  26.572  1.00  0.00     0.074 A 
ATOM     40  C   UNL A   1      46.005  27.875  25.227  1.00  0.00     0.031 C 
ATOM     41  C   UNL A   1      40.743  25.408  28.248  1.00  0.00     0.029 A 
ATOM     42  C   UNL A   1      41.279  26.685  28.673  1.00  0.00     0.049 A 
ATOM     43  H   UNL A   1      43.248  27.366  28.464  1.00  0.00     0.167 HD
ATOM     44  C   UNL A   1      47.138  28.906  27.272  1.00  0.00     0.031 A 
ATOM     45  C   UNL A   1      40.663  27.679  29.350  1.00  0.00     0.031 A 
ATOM     46  C   UNL A   1      47.296  28.536  28.657  1.00  0.00     0.049 A 
ATOM     47  C   UNL A   1      41.709  28.435  30.064  1.00  0.00     0.074 A 
ATOM     48  C   UNL A   1      48.081  27.676  29.389  1.00  0.00     0.029 A 
ATOM     49  N   UNL A   1      46.206  28.856  29.424  1.00  0.00    -0.354 N 
ATOM     50  N   UNL A   1      42.424  27.923  31.024  1.00  0.00    -0.248 NA
ATOM     51  C   UNL A   1      42.227  29.666  29.485  1.00  0.00     0.031 C 
ATOM     52  C   UNL A   1      47.293  27.305  30.523  1.00  0.00     0.029 A 
ATOM     53  C   UNL A   1      46.081  27.995  30.478  1.00  0.00     0.049 A 
ATOM     54  H   UNL A   1      45.596  29.607  29.242  1.00  0.00     0.167 HD
ATOM     55  C   UNL A   1      43.672  28.492  30.860  1.00  0.00     0.074 A 
ATOM     56  C   UNL A   1      43.443  29.676  30.039  1.00  0.00     0.031 C 
ATOM     57  C   UNL A   1      44.807  27.785  31.136  1.00  0.00     0.031 A 
BRANCH  44  58
ATOM     58  C   UNL A   1      47.115  30.370  26.888  1.00  0.00    -0.014 A 
ATOM     59  C   UNL A   1      48.230  31.166  27.217  1.00  0.00     0.009 A 
ATOM     60  C   UNL A   1      45.940  31.052  26.522  1.00  0.00     0.009 A 
ATOM     61  C   UNL A   1      48.152  32.565  27.242  1.00  0.00     0.001 A 
ATOM     62  C   UNL A   1      45.868  32.450  26.514  1.00  0.00     0.001 A 
ATOM     63  C   UNL A   1      46.967  33.206  26.898  1.00  0.00     0.000 A 
ENDBRANCH  44  58
BRANCH  45  64
ATOM     64  C   UNL A   1      39.271  28.160  29.242  1.00  0.00    -0.014 A 
ATOM     65  C   UNL A   1      38.455  28.256  30.381  1.00  0.00     0.009 A 
ATOM     66  C   UNL A   1      38.848  28.814  28.071  1.00  0.00     0.009 A 
ATOM     67  C   UNL A   1      37.290  29.035  30.364  1.00  0.00     0.001 A 
ATOM     68  C   UNL A   1      37.685  29.592  28.056  1.00  0.00     0.001 A 
ATOM     69  C   UNL A   1      36.917  29.718  29.210  1.00  0.00     0.000 A 
ENDBRANCH  45  64
BRANCH  57  70
ATOM     70  C   UNL A   1      44.684  26.601  32.055  1.00  0.00    -0.014 A 
ATOM     71  C   UNL A   1      44.600  26.694  33.454  1.00  0.00     0.009 A 
ATOM     72  C   UNL A   1      44.572  25.335  31.462  1.00  0.00     0.009 A 
ATOM     73  C   UNL A   1      44.436  25.543  34.235  1.00  0.00     0.001 A 
ATOM     74  C   UNL A   1      44.386  24.191  32.239  1.00  0.00     0.001 A 
ATOM     75  C   UNL A   1      44.326  24.295  33.625  1.00  0.00     0.000 A 
ENDBRANCH  57  70
ENDBRANCH  31  32
ENDBRANCH  23  26
ENDBRANCH  21  22
ENDBRANCH  20  21
ENDBRANCH   1  20
TORSDOF 14
ENDMDL
MODEL 2
REMARK VINA RESULT:     -11.1      5.535     11.613
REMARK SMILES C[C@]1(c2nnnn2CCC(=O)NCCCCNC(=O)c2ccc(-c3c4nc(c(-c5ccccc5)c5ccc([nH]5)c(-c5ccccc5)c5nc(c(-c6ccccc6)c6ccc3[nH]6)C=C5)C=C4)cc2)CCCO1
REMARK SMILES IDX 14 1 13 2 12 3 10 4 11 5 9 7 8 8 7 9 3 10 4 11 5 12 6 13
REMARK SMILES IDX 2 14 1 15 68 16 71 17 69 18 70 19 15 20 16 21 17 22 18 23
REMARK SMILES IDX 19 25 20 26 21 27 67 28 22 29 66 30 23 31 24 32 25 33 60 34
REMARK SMILES IDX 26 35 65 36 59 37 61 38 27 39 64 40 58 41 57 42 28 44 50 45
REMARK SMILES IDX 35 46 49 47 36 48 39 49 48 50 62 51 37 52 38 53 47 55 63 56
REMARK SMILES IDX 40 57 29 58 30 59 34 60 31 61 33 62 32 63 51 64 52 65 56 66
REMARK SMILES IDX 53 67 55 68 54 69 41 70 42 71 46 72 43 73 45 74 44 75
REMARK H PARENT 12 6 17 24 61 43 39 54
REMARK Flexibility Score: inf
ROOT
ATOM      1  C   UNL A   1      33.344  35.561  28.959  1.00  0.00     0.023 C 
ENDROOT
BRANCH   1   2
ATOM      2  C   UNL A   1      32.638  35.914  30.264  1.00  0.00     0.116 C 
BRANCH   2   3
ATOM      3  N   UNL A   1      33.167  37.144  30.827  1.00  0.00    -0.356 N 
ATOM      4  C   UNL A   1      33.435  37.467  32.122  1.00  0.00     0.221 C 
ATOM      5  O   UNL A   1      33.719  38.639  32.382  1.00  0.00    -0.275 OA
ATOM      6  H   UNL A   1      33.360  37.853  30.171  1.00  0.00     0.163 HD
BRANCH   4   7
ATOM      7  C   UNL A   1      33.431  36.418  33.220  1.00  0.00     0.124 C 
BRANCH   7   8
ATOM      8  C   UNL A   1      34.777  35.712  33.384  1.00  0.00     0.158 C 
BRANCH   8   9
ATOM      9  N   UNL A   1      34.836  34.391  32.799  1.00  0.00    -0.226 N 
ATOM     10  C   UNL A   1      35.886  33.597  32.399  1.00  0.00     0.183 A 
ATOM     11  N   UNL A   1      35.378  32.684  31.585  1.00  0.00    -0.111 NA
ATOM     12  N   UNL A   1      34.028  32.704  31.799  1.00  0.00    -0.024 NA
ATOM     13  N   UNL A   1      33.695  33.704  32.600  1.00  0.00    -0.045 NA
BRANCH  10  14
ATOM     14  C   UNL A   1      37.173  33.399  33.126  1.00  0.00     0.126 C 
ATOM     15  C   UNL A   1      36.803  33.141  34.602  1.00  0.00     0.051 C 
ATOM     16  C   UNL A   1      38.058  32.292  32.567  1.00  0.00     0.046 C 
ATOM     17  O   UNL A   1      37.977  34.589  33.051  1.00  0.00    -0.367 OA
ATOM     18  C   UNL A   1      39.414  32.690  33.107  1.00  0.00     0.032 C 
ATOM     19  C   UNL A   1      39.362  34.201  33.004  1.00  0.00     0.161 C 
ENDBRANCH  10  14
ENDBRANCH   8   9
ENDBRANCH   7   8
ENDBRANCH   4   7
ENDBRANCH   2   3
ENDBRANCH   1   2
BRANCH   1  20
ATOM     20  C   UNL A   1      34.853  35.340  28.956  1.00  0.00     0.023 C 
BRANCH  20  21
ATOM     21  C   UNL A   1      35.288  34.033  28.332  1.00  0.00     0.116 C 
BRANCH  21  22
ATOM     22  N   UNL A   1      34.320  32.946  28.486  1.00  0.00    -0.352 N 
ATOM     23  C   UNL A   1      34.534  31.604  28.197  1.00  0.00     0.251 C 
ATOM     24  H   UNL A   1      33.430  33.190  28.828  1.00  0.00     0.163 HD
ATOM     25  O   UNL A   1      33.635  30.818  28.001  1.00  0.00    -0.269 OA
BRANCH  23  26
ATOM     26  C   UNL A   1      35.943  31.174  28.154  1.00  0.00     0.039 A 
ATOM     27  C   UNL A   1      36.928  31.855  28.866  1.00  0.00     0.014 A 
ATOM     28  C   UNL A   1      36.188  29.938  27.560  1.00  0.00     0.014 A 
ATOM     29  C   UNL A   1      38.143  31.212  29.082  1.00  0.00     0.010 A 
ATOM     30  C   UNL A   1      37.317  29.247  27.920  1.00  0.00     0.010 A 
ATOM     31  C   UNL A   1      38.315  29.880  28.655  1.00  0.00    -0.014 A 
BRANCH  31  32
ATOM     32  C   UNL A   1      39.474  29.107  29.103  1.00  0.00     0.031 A 
ATOM     33  C   UNL A   1      39.613  28.994  30.581  1.00  0.00     0.074 A 
ATOM     34  C   UNL A   1      40.291  28.408  28.283  1.00  0.00     0.049 A 
ATOM     35  N   UNL A   1      40.441  29.645  31.326  1.00  0.00    -0.248 NA
ATOM     36  C   UNL A   1      38.644  28.186  31.339  1.00  0.00     0.031 C 
ATOM     37  C   UNL A   1      40.132  28.144  26.846  1.00  0.00     0.029 A 
ATOM     38  N   UNL A   1      41.412  27.695  28.591  1.00  0.00    -0.354 N 
ATOM     39  C   UNL A   1      40.256  29.170  32.621  1.00  0.00     0.074 A 
ATOM     40  C   UNL A   1      39.031  28.413  32.599  1.00  0.00     0.031 C 
ATOM     41  C   UNL A   1      40.960  27.145  26.469  1.00  0.00     0.029 A 
ATOM     42  C   UNL A   1      41.851  26.856  27.574  1.00  0.00     0.049 A 
ATOM     43  H   UNL A   1      41.870  27.769  29.459  1.00  0.00     0.167 HD
ATOM     44  C   UNL A   1      41.278  29.206  33.522  1.00  0.00     0.031 A 
ATOM     45  C   UNL A   1      42.897  26.001  27.618  1.00  0.00     0.031 A 
ATOM     46  C   UNL A   1      42.383  29.980  33.013  1.00  0.00     0.049 A 
ATOM     47  C   UNL A   1      43.821  26.493  28.657  1.00  0.00     0.074 A 
ATOM     48  C   UNL A   1      42.672  31.307  32.796  1.00  0.00     0.029 A 
ATOM     49  N   UNL A   1      43.252  29.239  32.255  1.00  0.00    -0.354 N 
ATOM     50  N   UNL A   1      44.462  27.623  28.559  1.00  0.00    -0.248 NA
ATOM     51  C   UNL A   1      43.779  25.910  29.990  1.00  0.00     0.031 C 
ATOM     52  C   UNL A   1      43.581  31.330  31.694  1.00  0.00     0.029 A 
ATOM     53  C   UNL A   1      43.865  30.017  31.313  1.00  0.00     0.049 A 
ATOM     54  H   UNL A   1      43.415  28.275  32.374  1.00  0.00     0.167 HD
ATOM     55  C   UNL A   1      44.501  28.104  29.853  1.00  0.00     0.074 A 
ATOM     56  C   UNL A   1      44.245  26.942  30.697  1.00  0.00     0.031 C 
ATOM     57  C   UNL A   1      44.424  29.444  30.105  1.00  0.00     0.031 A 
BRANCH  44  58
ATOM     58  C   UNL A   1      41.528  28.151  34.577  1.00  0.00    -0.014 A 
ATOM     59  C   UNL A   1      42.063  28.556  35.816  1.00  0.00     0.009 A 
ATOM     60  C   UNL A   1      41.568  26.773  34.295  1.00  0.00     0.009 A 
ATOM     61  C   UNL A   1      42.662  27.641  36.692  1.00  0.00     0.001 A 
ATOM     62  C   UNL A   1      42.137  25.852  35.182  1.00  0.00     0.001 A 
ATOM     63  C   UNL A   1      42.706  26.289  36.370  1.00  0.00     0.000 A 
ENDBRANCH  44  58
BRANCH  45  64
ATOM     64  C   UNL A   1      43.044  24.672  26.990  1.00  0.00    -0.014 A 
ATOM     65  C   UNL A   1      42.389  23.551  27.523  1.00  0.00     0.009 A 
ATOM     66  C   UNL A   1      43.576  24.570  25.692  1.00  0.00     0.009 A 
ATOM     67  C   UNL A   1      42.217  22.390  26.758  1.00  0.00     0.001 A 
ATOM     68  C   UNL A   1      43.402  23.411  24.929  1.00  0.00     0.001 A 
ATOM     69  C   UNL A   1      42.705  22.328  25.455  1.00  0.00     0.000 A 
ENDBRANCH  45  64
BRANCH  57  70
ATOM     70  C   UNL A   1      44.782  30.385  28.988  1.00  0.00    -0.014 A 
ATOM     71  C   UNL A   1      46.068  30.909  28.780  1.00  0.00     0.009 A 
ATOM     72  C   UNL A   1      43.777  30.692  28.059  1.00  0.00     0.009 A 
ATOM     73  C   UNL A   1      46.328  31.740  27.684  1.00  0.00     0.001 A 
ATOM     74  C   UNL A   1      44.042  31.503  26.955  1.00  0.00     0.001 A 
ATOM     75  C   UNL A   1      45.315  32.033  26.772  1.00  0.00     0.000 A 
ENDBRANCH  57  70
ENDBRANCH  31  32
ENDBRANCH  23  26
ENDBRANCH  21  22
ENDBRANCH  20  21
ENDBRANCH   1  20
TORSDOF 14
ENDMDL
MODEL 3
REMARK VINA RESULT:     -11.1      2.163      2.690
REMARK SMILES C[C@]1(c2nnnn2CCC(=O)NCCCCNC(=O)c2ccc(-c3c4nc(c(-c5ccccc5)c5ccc([nH]5)c(-c5ccccc5)c5nc(c(-c6ccccc6)c6ccc3[nH]6)C=C5)C=C4)cc2)CCCO1
REMARK SMILES IDX 14 1 13 2 12 3 10 4 11 5 9 7 8 8 7 9 3 10 4 11 5 12 6 13
REMARK SMILES IDX 2 14 1 15 68 16 71 17 69 18 70 19 15 20 16 21 17 22 18 23
REMARK SMILES IDX 19 25 20 26 21 27 67 28 22 29 66 30 23 31 24 32 25 33 60 34
REMARK SMILES IDX 26 35 65 36 59 37 61 38 27 39 64 40 58 41 57 42 28 44 50 45
REMARK SMILES IDX 35 46 49 47 36 48 39 49 48 50 62 51 37 52 38 53 47 55 63 56
REMARK SMILES IDX 40 57 29 58 30 59 34 60 31 61 33 62 32 63 51 64 52 65 56 66
REMARK SMILES IDX 53 67 55 68 54 69 41 70 42 71 46 72 43 73 45 74 44 75
REMARK H PARENT 12 6 17 24 61 43 39 54
REMARK Flexibility Score: inf
ROOT
ATOM      1  C   UNL A   1      41.157  20.803  27.449  1.00  0.00     0.023 C 
ENDROOT
BRANCH   1   2
ATOM      2  C   UNL A   1      40.012  21.047  26.471  1.00  0.00     0.116 C 
BRANCH   2   3
ATOM      3  N   UNL A   1      39.333  22.297  26.765  1.00  0.00    -0.356 N 
ATOM      4  C   UNL A   1      38.305  22.906  26.111  1.00  0.00     0.221 C 
ATOM      5  O   UNL A   1      38.005  24.055  26.445  1.00  0.00    -0.275 OA
ATOM      6  H   UNL A   1      39.667  22.776  27.557  1.00  0.00     0.163 HD
BRANCH   4   7
ATOM      7  C   UNL A   1      37.515  22.192  25.029  1.00  0.00     0.124 C 
BRANCH   7   8
ATOM      8  C   UNL A   1      36.167  22.849  24.734  1.00  0.00     0.158 C 
BRANCH   8   9
ATOM      9  N   UNL A   1      35.150  22.605  25.733  1.00  0.00    -0.226 N 
ATOM     10  C   UNL A   1      34.221  23.423  26.333  1.00  0.00     0.183 A 
ATOM     11  N   UNL A   1      33.825  22.800  27.433  1.00  0.00    -0.111 NA
ATOM     12  N   UNL A   1      34.220  21.499  27.285  1.00  0.00    -0.024 NA
ATOM     13  N   UNL A   1      34.973  21.356  26.206  1.00  0.00    -0.045 NA
BRANCH  10  14
ATOM     14  C   UNL A   1      33.397  24.468  25.661  1.00  0.00     0.126 C 
ATOM     15  C   UNL A   1      32.079  24.562  26.460  1.00  0.00     0.051 C 
ATOM     16  C   UNL A   1      34.073  25.828  25.531  1.00  0.00     0.046 C 
ATOM     17  O   UNL A   1      33.095  24.075  24.312  1.00  0.00    -0.367 OA
ATOM     18  C   UNL A   1      33.284  26.447  24.398  1.00  0.00     0.032 C 
ATOM     19  C   UNL A   1      33.047  25.256  23.492  1.00  0.00     0.161 C 
ENDBRANCH  10  14
ENDBRANCH   8   9
ENDBRANCH   7   8
ENDBRANCH   4   7
ENDBRANCH   2   3
ENDBRANCH   1   2
BRANCH   1  20
ATOM     20  C   UNL A   1      42.343  19.947  27.020  1.00  0.00     0.023 C 
BRANCH  20  21
ATOM     21  C   UNL A   1      42.405  19.671  25.534  1.00  0.00     0.116 C 
BRANCH  21  22
ATOM     22  N   UNL A   1      43.625  18.987  25.104  1.00  0.00    -0.352 N 
ATOM     23  C   UNL A   1      44.740  19.577  24.523  1.00  0.00     0.251 C 
ATOM     24  H   UNL A   1      43.658  18.012  25.240  1.00  0.00     0.163 HD
ATOM     25  O   UNL A   1      45.553  18.958  23.873  1.00  0.00    -0.269 OA
BRANCH  23  26
ATOM     26  C   UNL A   1      44.894  21.024  24.754  1.00  0.00     0.039 A 
ATOM     27  C   UNL A   1      44.034  21.946  24.161  1.00  0.00     0.014 A 
ATOM     28  C   UNL A   1      45.785  21.391  25.760  1.00  0.00     0.014 A 
ATOM     29  C   UNL A   1      43.992  23.234  24.686  1.00  0.00     0.010 A 
ATOM     30  C   UNL A   1      45.615  22.605  26.379  1.00  0.00     0.010 A 
ATOM     31  C   UNL A   1      44.745  23.546  25.835  1.00  0.00    -0.014 A 
BRANCH  31  32
ATOM     32  C   UNL A   1      44.511  24.801  26.551  1.00  0.00     0.031 A 
ATOM     33  C   UNL A   1      45.550  25.844  26.334  1.00  0.00     0.074 A 
ATOM     34  C   UNL A   1      43.384  25.090  27.239  1.00  0.00     0.049 A 
ATOM     35  N   UNL A   1      46.486  26.178  27.157  1.00  0.00    -0.248 NA
ATOM     36  C   UNL A   1      45.664  26.490  25.016  1.00  0.00     0.031 C 
ATOM     37  C   UNL A   1      42.132  24.323  27.305  1.00  0.00     0.029 A 
ATOM     38  N   UNL A   1      43.085  26.203  27.969  1.00  0.00    -0.354 N 
ATOM     39  C   UNL A   1      47.173  27.231  26.560  1.00  0.00     0.074 A 
ATOM     40  C   UNL A   1      46.743  27.262  25.186  1.00  0.00     0.031 C 
ATOM     41  C   UNL A   1      41.147  25.095  27.812  1.00  0.00     0.029 A 
ATOM     42  C   UNL A   1      41.743  26.320  28.305  1.00  0.00     0.049 A 
ATOM     43  H   UNL A   1      43.763  26.866  28.235  1.00  0.00     0.167 HD
ATOM     44  C   UNL A   1      47.816  28.158  27.324  1.00  0.00     0.031 A 
ATOM     45  C   UNL A   1      41.155  27.338  28.974  1.00  0.00     0.031 A 
ATOM     46  C   UNL A   1      47.862  27.743  28.705  1.00  0.00     0.049 A 
ATOM     47  C   UNL A   1      42.205  28.000  29.771  1.00  0.00     0.074 A 
ATOM     48  C   UNL A   1      48.538  26.811  29.457  1.00  0.00     0.029 A 
ATOM     49  N   UNL A   1      46.751  28.119  29.414  1.00  0.00    -0.354 N 
ATOM     50  N   UNL A   1      42.822  27.415  30.757  1.00  0.00    -0.248 NA
ATOM     51  C   UNL A   1      42.841  29.206  29.261  1.00  0.00     0.031 C 
ATOM     52  C   UNL A   1      47.659  26.468  30.530  1.00  0.00     0.029 A 
ATOM     53  C   UNL A   1      46.502  27.242  30.433  1.00  0.00     0.049 A 
ATOM     54  H   UNL A   1      46.206  28.915  29.218  1.00  0.00     0.167 HD
ATOM     55  C   UNL A   1      44.114  27.898  30.684  1.00  0.00     0.074 A 
ATOM     56  C   UNL A   1      44.018  29.115  29.887  1.00  0.00     0.031 C 
ATOM     57  C   UNL A   1      45.178  27.106  31.007  1.00  0.00     0.031 A 
BRANCH  44  58
ATOM     58  C   UNL A   1      47.917  29.629  26.983  1.00  0.00    -0.014 A 
ATOM     59  C   UNL A   1      49.122  30.301  27.267  1.00  0.00     0.009 A 
ATOM     60  C   UNL A   1      46.797  30.435  26.707  1.00  0.00     0.009 A 
ATOM     61  C   UNL A   1      49.186  31.699  27.335  1.00  0.00     0.001 A 
ATOM     62  C   UNL A   1      46.864  31.833  26.743  1.00  0.00     0.001 A 
ATOM     63  C   UNL A   1      48.053  32.465  27.081  1.00  0.00     0.000 A 
ENDBRANCH  44  58
BRANCH  45  64
ATOM     64  C   UNL A   1      39.809  27.918  28.797  1.00  0.00    -0.014 A 
ATOM     65  C   UNL A   1      38.889  27.931  29.857  1.00  0.00     0.009 A 
ATOM     66  C   UNL A   1      39.542  28.733  27.682  1.00  0.00     0.009 A 
ATOM     67  C   UNL A   1      37.775  28.781  29.829  1.00  0.00     0.001 A 
ATOM     68  C   UNL A   1      38.429  29.581  27.656  1.00  0.00     0.001 A 
ATOM     69  C   UNL A   1      37.557  29.619  28.739  1.00  0.00     0.000 A 
ENDBRANCH  45  64
BRANCH  57  70
ATOM     70  C   UNL A   1      44.918  25.911  31.882  1.00  0.00    -0.014 A 
ATOM     71  C   UNL A   1      44.550  24.644  31.398  1.00  0.00     0.009 A 
ATOM     72  C   UNL A   1      45.133  26.063  33.259  1.00  0.00     0.009 A 
ATOM     73  C   UNL A   1      44.376  23.570  32.279  1.00  0.00     0.001 A 
ATOM     74  C   UNL A   1      44.981  24.987  34.134  1.00  0.00     0.001 A 
ATOM     75  C   UNL A   1      44.595  23.743  33.645  1.00  0.00     0.000 A 
ENDBRANCH  57  70
ENDBRANCH  31  32
ENDBRANCH  23  26
ENDBRANCH  21  22
ENDBRANCH  20  21
ENDBRANCH   1  20
TORSDOF 14
ENDMDL
