MODEL 1
REMARK VINA RESULT:     -12.4      0.000      0.000
REMARK SMILES C[C@]12CCC[C@](C)(C(=O)NCCCCNC(=O)c3ccc(-c4c5nc(c(-c6ccccc6)c6ccc([nH]6)c(-c6ccccc6)c6nc(c(-c7ccccc7)c7ccc4[nH]7)C=C6)C=C5)cc3)[C@@H]1CC[C@]13C=C(CO)[C@H](CC[C@H]12)C3
REMARK SMILES IDX 12 1 11 2 10 3 8 4 9 5 6 7 1 8 2 9 3 10 66 11 77 12 4 13
REMARK SMILES IDX 67 14 69 15 76 16 5 17 7 18 68 19 70 20 78 21 75 22 71 23
REMARK SMILES IDX 74 24 72 25 73 26 13 28 14 29 15 30 16 31 17 33 18 34 19 35
REMARK SMILES IDX 65 36 20 37 64 38 21 39 22 40 23 41 58 42 24 43 63 44 57 45
REMARK SMILES IDX 59 46 25 47 62 48 56 49 55 50 26 52 48 53 33 54 47 55 34 56
REMARK SMILES IDX 37 57 46 58 60 59 35 60 36 61 45 63 61 64 38 65 27 66 28 67
REMARK SMILES IDX 32 68 29 69 31 70 30 71 49 72 50 73 54 74 51 75 53 76 52 77
REMARK SMILES IDX 39 78 40 79 44 80 41 81 43 82 42 83
REMARK H PARENT 10 6 73 27 15 32 59 51 37 62
REMARK Flexibility Score: inf
ROOT
ATOM      1  C   UNL A   1      36.203  20.528  24.646  1.00  0.00     0.023 C 
ENDROOT
BRANCH   1   2
ATOM      2  C   UNL A   1      34.943  19.756  25.036  1.00  0.00     0.116 C 
BRANCH   2   3
ATOM      3  N   UNL A   1      33.772  20.574  24.797  1.00  0.00    -0.356 N 
ATOM      4  C   UNL A   1      33.112  21.518  25.487  1.00  0.00     0.226 C 
ATOM      5  O   UNL A   1      31.904  21.535  25.190  1.00  0.00    -0.274 OA
ATOM      6  H   UNL A   1      33.361  20.394  23.919  1.00  0.00     0.163 HD
BRANCH   4   7
ATOM      7  C   UNL A   1      33.700  22.644  26.408  1.00  0.00     0.050 C 
ATOM      8  C   UNL A   1      34.175  23.898  23.725  1.00  0.00     0.012 C 
ATOM      9  C   UNL A   1      33.857  24.812  24.955  1.00  0.00    -0.025 C 
ATOM     10  C   UNL A   1      35.203  25.180  25.601  1.00  0.00     0.007 C 
ATOM     11  C   UNL A   1      33.021  24.047  26.028  1.00  0.00     0.010 C 
ATOM     12  C   UNL A   1      33.143  26.042  24.331  1.00  0.00     0.005 C 
ATOM     13  C   UNL A   1      36.028  23.937  25.932  1.00  0.00     0.002 C 
ATOM     14  C   UNL A   1      31.506  23.971  25.672  1.00  0.00     0.006 C 
ATOM     15  C   UNL A   1      31.604  25.885  24.005  1.00  0.00    -0.008 C 
ATOM     16  C   UNL A   1      33.466  27.518  24.519  1.00  0.00     0.006 C 
ATOM     17  C   UNL A   1      35.250  22.794  26.607  1.00  0.00     0.017 C 
ATOM     18  C   UNL A   1      33.216  22.150  27.812  1.00  0.00     0.022 C 
ATOM     19  C   UNL A   1      30.868  25.282  25.189  1.00  0.00     0.012 C 
ATOM     20  C   UNL A   1      31.568  25.169  22.686  1.00  0.00    -0.018 C 
ATOM     21  C   UNL A   1      30.985  27.197  23.456  1.00  0.00     0.019 C 
ATOM     22  C   UNL A   1      33.222  28.131  23.077  1.00  0.00     0.008 C 
ATOM     23  C   UNL A   1      32.036  26.034  21.761  1.00  0.00    -0.045 C 
ATOM     24  C   UNL A   1      31.989  27.483  22.322  1.00  0.00     0.018 C 
BRANCH  23  25
ATOM     25  C   UNL A   1      32.598  25.564  20.465  1.00  0.00     0.187 C 
BRANCH  25  26
ATOM     26  O   UNL A   1      31.616  25.689  19.448  1.00  0.00    -0.392 OA
ATOM     27  H   UNL A   1      31.911  26.339  18.792  1.00  0.00     0.211 HD
ENDBRANCH  25  26
ENDBRANCH  23  25
ENDBRANCH   4   7
ENDBRANCH   2   3
ENDBRANCH   1   2
BRANCH   1  28
ATOM     28  C   UNL A   1      37.496  19.696  24.673  1.00  0.00     0.023 C 
BRANCH  28  29
ATOM     29  C   UNL A   1      38.629  20.288  25.507  1.00  0.00     0.116 C 
BRANCH  29  30
ATOM     30  N   UNL A   1      39.706  19.329  25.701  1.00  0.00    -0.352 N 
ATOM     31  C   UNL A   1      41.012  19.560  26.040  1.00  0.00     0.251 C 
ATOM     32  H   UNL A   1      39.462  18.384  25.568  1.00  0.00     0.163 HD
ATOM     33  O   UNL A   1      41.859  18.674  25.884  1.00  0.00    -0.269 OA
BRANCH  31  34
ATOM     34  C   UNL A   1      41.413  20.868  26.588  1.00  0.00     0.039 A 
ATOM     35  C   UNL A   1      41.961  21.827  25.734  1.00  0.00     0.014 A 
ATOM     36  C   UNL A   1      41.266  21.140  27.952  1.00  0.00     0.014 A 
ATOM     37  C   UNL A   1      42.316  23.079  26.240  1.00  0.00     0.010 A 
ATOM     38  C   UNL A   1      41.549  22.413  28.438  1.00  0.00     0.010 A 
ATOM     39  C   UNL A   1      42.086  23.392  27.591  1.00  0.00    -0.014 A 
BRANCH  39  40
ATOM     40  C   UNL A   1      42.408  24.739  28.125  1.00  0.00     0.031 A 
ATOM     41  C   UNL A   1      43.814  25.080  28.539  1.00  0.00     0.074 A 
ATOM     42  C   UNL A   1      41.423  25.646  28.278  1.00  0.00     0.049 A 
ATOM     43  N   UNL A   1      44.282  26.198  29.033  1.00  0.00    -0.248 NA
ATOM     44  C   UNL A   1      44.823  24.017  28.401  1.00  0.00     0.031 C 
ATOM     45  C   UNL A   1      40.012  25.427  27.953  1.00  0.00     0.029 A 
ATOM     46  N   UNL A   1      41.461  26.937  28.741  1.00  0.00    -0.354 N 
ATOM     47  C   UNL A   1      45.631  25.970  29.273  1.00  0.00     0.074 A 
ATOM     48  C   UNL A   1      45.894  24.591  28.927  1.00  0.00     0.031 C 
ATOM     49  C   UNL A   1      39.327  26.558  28.190  1.00  0.00     0.029 A 
ATOM     50  C   UNL A   1      40.239  27.564  28.721  1.00  0.00     0.049 A 
ATOM     51  H   UNL A   1      42.286  27.372  29.058  1.00  0.00     0.167 HD
ATOM     52  C   UNL A   1      46.573  26.836  29.720  1.00  0.00     0.031 A 
ATOM     53  C   UNL A   1      39.892  28.812  29.089  1.00  0.00     0.031 A 
ATOM     54  C   UNL A   1      46.309  28.207  30.067  1.00  0.00     0.049 A 
ATOM     55  C   UNL A   1      40.950  29.746  29.606  1.00  0.00     0.074 A 
ATOM     56  C   UNL A   1      47.203  29.178  30.484  1.00  0.00     0.029 A 
ATOM     57  N   UNL A   1      45.057  28.802  30.044  1.00  0.00    -0.354 N 
ATOM     58  N   UNL A   1      42.235  29.536  29.759  1.00  0.00    -0.248 NA
ATOM     59  C   UNL A   1      40.508  31.094  29.986  1.00  0.00     0.031 C 
ATOM     60  C   UNL A   1      46.482  30.342  30.770  1.00  0.00     0.029 A 
ATOM     61  C   UNL A   1      45.150  30.118  30.466  1.00  0.00     0.049 A 
ATOM     62  H   UNL A   1      44.224  28.354  29.767  1.00  0.00     0.167 HD
ATOM     63  C   UNL A   1      42.760  30.735  30.225  1.00  0.00     0.074 A 
ATOM     64  C   UNL A   1      41.658  31.671  30.308  1.00  0.00     0.031 C 
ATOM     65  C   UNL A   1      44.043  31.034  30.552  1.00  0.00     0.031 A 
BRANCH  52  66
ATOM     66  C   UNL A   1      47.976  26.313  29.869  1.00  0.00    -0.014 A 
ATOM     67  C   UNL A   1      48.436  25.790  31.090  1.00  0.00     0.009 A 
ATOM     68  C   UNL A   1      48.846  26.320  28.767  1.00  0.00     0.009 A 
ATOM     69  C   UNL A   1      49.747  25.328  31.214  1.00  0.00     0.001 A 
ATOM     70  C   UNL A   1      50.147  25.826  28.886  1.00  0.00     0.001 A 
ATOM     71  C   UNL A   1      50.600  25.342  30.112  1.00  0.00     0.000 A 
ENDBRANCH  52  66
BRANCH  53  72
ATOM     72  C   UNL A   1      38.480  29.260  28.961  1.00  0.00    -0.014 A 
ATOM     73  C   UNL A   1      37.986  29.718  27.730  1.00  0.00     0.009 A 
ATOM     74  C   UNL A   1      37.618  29.238  30.070  1.00  0.00     0.009 A 
ATOM     75  C   UNL A   1      36.670  30.172  27.618  1.00  0.00     0.001 A 
ATOM     76  C   UNL A   1      36.294  29.662  29.947  1.00  0.00     0.001 A 
ATOM     77  C   UNL A   1      35.824  30.138  28.725  1.00  0.00     0.000 A 
ENDBRANCH  53  72
BRANCH  65  78
ATOM     78  C   UNL A   1      44.322  32.445  30.996  1.00  0.00    -0.014 A 
ATOM     79  C   UNL A   1      44.316  32.801  32.354  1.00  0.00     0.009 A 
ATOM     80  C   UNL A   1      44.621  33.426  30.038  1.00  0.00     0.009 A 
ATOM     81  C   UNL A   1      44.557  34.122  32.739  1.00  0.00     0.001 A 
ATOM     82  C   UNL A   1      44.896  34.737  30.428  1.00  0.00     0.001 A 
ATOM     83  C   UNL A   1      44.852  35.087  31.776  1.00  0.00     0.000 A 
ENDBRANCH  65  78
ENDBRANCH  39  40
ENDBRANCH  31  34
ENDBRANCH  29  30
ENDBRANCH  28  29
ENDBRANCH   1  28
TORSDOF 13
ENDMDL
MODEL 2
REMARK VINA RESULT:     -12.3      0.319      5.795
REMARK SMILES C[C@]12CCC[C@](C)(C(=O)NCCCCNC(=O)c3ccc(-c4c5nc(c(-c6ccccc6)c6ccc([nH]6)c(-c6ccccc6)c6nc(c(-c7ccccc7)c7ccc4[nH]7)C=C6)C=C5)cc3)[C@@H]1CC[C@]13C=C(CO)[C@H](CC[C@H]12)C3
REMARK SMILES IDX 12 1 11 2 10 3 8 4 9 5 6 7 1 8 2 9 3 10 66 11 77 12 4 13
REMARK SMILES IDX 67 14 69 15 76 16 5 17 7 18 68 19 70 20 78 21 75 22 71 23
REMARK SMILES IDX 74 24 72 25 73 26 13 28 14 29 15 30 16 31 17 33 18 34 19 35
REMARK SMILES IDX 65 36 20 37 64 38 21 39 22 40 23 41 58 42 24 43 63 44 57 45
REMARK SMILES IDX 59 46 25 47 62 48 56 49 55 50 26 52 48 53 33 54 47 55 34 56
REMARK SMILES IDX 37 57 46 58 60 59 35 60 36 61 45 63 61 64 38 65 27 66 28 67
REMARK SMILES IDX 32 68 29 69 31 70 30 71 49 72 50 73 54 74 51 75 53 76 52 77
REMARK SMILES IDX 39 78 40 79 44 80 41 81 43 82 42 83
REMARK H PARENT 10 6 73 27 15 32 59 51 37 62
REMARK Flexibility Score: inf
ROOT
ATOM      1  C   UNL A   1      36.138  20.738  24.757  1.00  0.00     0.023 C 
ENDROOT
BRANCH   1   2
ATOM      2  C   UNL A   1      34.909  19.894  25.097  1.00  0.00     0.116 C 
BRANCH   2   3
ATOM      3  N   UNL A   1      33.705  20.664  24.868  1.00  0.00    -0.356 N 
ATOM      4  C   UNL A   1      33.022  21.591  25.559  1.00  0.00     0.226 C 
ATOM      5  O   UNL A   1      31.809  21.560  25.282  1.00  0.00    -0.274 OA
ATOM      6  H   UNL A   1      33.288  20.460  24.000  1.00  0.00     0.163 HD
BRANCH   4   7
ATOM      7  C   UNL A   1      33.582  22.749  26.458  1.00  0.00     0.050 C 
ATOM      8  C   UNL A   1      34.098  23.929  23.750  1.00  0.00     0.012 C 
ATOM      9  C   UNL A   1      33.748  24.876  24.946  1.00  0.00    -0.025 C 
ATOM     10  C   UNL A   1      35.078  25.274  25.608  1.00  0.00     0.007 C 
ATOM     11  C   UNL A   1      32.898  24.134  26.025  1.00  0.00     0.010 C 
ATOM     12  C   UNL A   1      33.036  26.080  24.274  1.00  0.00     0.005 C 
ATOM     13  C   UNL A   1      35.907  24.048  25.990  1.00  0.00     0.002 C 
ATOM     14  C   UNL A   1      31.391  24.034  25.642  1.00  0.00     0.006 C 
ATOM     15  C   UNL A   1      31.505  25.900  23.923  1.00  0.00    -0.008 C 
ATOM     16  C   UNL A   1      33.342  27.564  24.425  1.00  0.00     0.006 C 
ATOM     17  C   UNL A   1      35.126  22.918  26.683  1.00  0.00     0.017 C 
ATOM     18  C   UNL A   1      33.075  22.290  27.867  1.00  0.00     0.022 C 
ATOM     19  C   UNL A   1      30.751  25.325  25.110  1.00  0.00     0.012 C 
ATOM     20  C   UNL A   1      31.501  25.146  22.624  1.00  0.00    -0.018 C 
ATOM     21  C   UNL A   1      30.885  27.190  23.324  1.00  0.00     0.019 C 
ATOM     22  C   UNL A   1      33.121  28.133  22.961  1.00  0.00     0.008 C 
ATOM     23  C   UNL A   1      31.979  25.989  21.684  1.00  0.00    -0.045 C 
ATOM     24  C   UNL A   1      31.909  27.452  22.202  1.00  0.00     0.018 C 
BRANCH  23  25
ATOM     25  C   UNL A   1      32.571  25.487  20.413  1.00  0.00     0.187 C 
BRANCH  25  26
ATOM     26  O   UNL A   1      31.659  25.702  19.347  1.00  0.00    -0.392 OA
ATOM     27  H   UNL A   1      30.768  25.835  19.706  1.00  0.00     0.211 HD
ENDBRANCH  25  26
ENDBRANCH  23  25
ENDBRANCH   4   7
ENDBRANCH   2   3
ENDBRANCH   1   2
BRANCH   1  28
ATOM     28  C   UNL A   1      37.452  19.944  24.660  1.00  0.00     0.023 C 
BRANCH  28  29
ATOM     29  C   UNL A   1      38.589  20.467  25.533  1.00  0.00     0.116 C 
BRANCH  29  30
ATOM     30  N   UNL A   1      39.620  19.458  25.725  1.00  0.00    -0.352 N 
ATOM     31  C   UNL A   1      40.937  19.628  26.058  1.00  0.00     0.251 C 
ATOM     32  H   UNL A   1      39.331  18.526  25.597  1.00  0.00     0.163 HD
ATOM     33  O   UNL A   1      41.740  18.702  25.901  1.00  0.00    -0.269 OA
BRANCH  31  34
ATOM     34  C   UNL A   1      41.403  20.918  26.599  1.00  0.00     0.039 A 
ATOM     35  C   UNL A   1      41.943  21.867  25.729  1.00  0.00     0.014 A 
ATOM     36  C   UNL A   1      41.325  21.181  27.970  1.00  0.00     0.014 A 
ATOM     37  C   UNL A   1      42.358  23.102  26.229  1.00  0.00     0.010 A 
ATOM     38  C   UNL A   1      41.669  22.439  28.454  1.00  0.00     0.010 A 
ATOM     39  C   UNL A   1      42.199  23.410  27.591  1.00  0.00    -0.014 A 
BRANCH  39  40
ATOM     40  C   UNL A   1      42.586  24.741  28.122  1.00  0.00     0.031 A 
ATOM     41  C   UNL A   1      41.552  25.816  28.313  1.00  0.00     0.074 A 
ATOM     42  C   UNL A   1      43.881  24.996  28.394  1.00  0.00     0.049 A 
ATOM     43  N   UNL A   1      41.703  27.039  28.757  1.00  0.00    -0.248 NA
ATOM     44  C   UNL A   1      40.169  25.482  27.936  1.00  0.00     0.031 C 
ATOM     45  C   UNL A   1      44.987  24.053  28.214  1.00  0.00     0.029 A 
ATOM     46  N   UNL A   1      44.484  26.126  28.886  1.00  0.00    -0.354 N 
ATOM     47  C   UNL A   1      40.442  27.619  28.701  1.00  0.00     0.074 A 
ATOM     48  C   UNL A   1      39.550  26.638  28.126  1.00  0.00     0.031 C 
ATOM     49  C   UNL A   1      46.127  24.631  28.627  1.00  0.00     0.029 A 
ATOM     50  C   UNL A   1      45.841  25.993  29.059  1.00  0.00     0.049 A 
ATOM     51  H   UNL A   1      43.992  26.954  29.094  1.00  0.00     0.167 HD
ATOM     52  C   UNL A   1      40.055  28.852  29.112  1.00  0.00     0.031 A 
ATOM     53  C   UNL A   1      46.753  26.872  29.516  1.00  0.00     0.031 A 
ATOM     54  C   UNL A   1      40.944  29.829  29.681  1.00  0.00     0.049 A 
ATOM     55  C   UNL A   1      46.303  28.242  29.943  1.00  0.00     0.074 A 
ATOM     56  C   UNL A   1      40.642  31.088  30.172  1.00  0.00     0.029 A 
ATOM     57  N   UNL A   1      42.312  29.661  29.830  1.00  0.00    -0.354 N 
ATOM     58  N   UNL A   1      45.094  28.750  29.951  1.00  0.00    -0.248 NA
ATOM     59  C   UNL A   1      47.344  29.152  30.437  1.00  0.00     0.031 C 
ATOM     60  C   UNL A   1      41.836  31.703  30.562  1.00  0.00     0.029 A 
ATOM     61  C   UNL A   1      42.873  30.803  30.379  1.00  0.00     0.049 A 
ATOM     62  H   UNL A   1      42.812  28.849  29.582  1.00  0.00     0.167 HD
ATOM     63  C   UNL A   1      45.226  30.029  30.478  1.00  0.00     0.074 A 
ATOM     64  C   UNL A   1      46.628  30.208  30.796  1.00  0.00     0.031 C 
ATOM     65  C   UNL A   1      44.270  30.970  30.682  1.00  0.00     0.031 A 
BRANCH  52  66
ATOM     66  C   UNL A   1      38.603  29.210  28.945  1.00  0.00    -0.014 A 
ATOM     67  C   UNL A   1      37.694  29.090  30.010  1.00  0.00     0.009 A 
ATOM     68  C   UNL A   1      38.140  29.698  27.713  1.00  0.00     0.009 A 
ATOM     69  C   UNL A   1      36.347  29.408  29.831  1.00  0.00     0.001 A 
ATOM     70  C   UNL A   1      36.798  30.048  27.547  1.00  0.00     0.001 A 
ATOM     71  C   UNL A   1      35.900  29.891  28.602  1.00  0.00     0.000 A 
ENDBRANCH  52  66
BRANCH  53  72
ATOM     72  C   UNL A   1      48.182  26.477  29.618  1.00  0.00    -0.014 A 
ATOM     73  C   UNL A   1      49.066  26.721  28.555  1.00  0.00     0.009 A 
ATOM     74  C   UNL A   1      48.672  25.849  30.774  1.00  0.00     0.009 A 
ATOM     75  C   UNL A   1      50.401  26.319  28.636  1.00  0.00     0.001 A 
ATOM     76  C   UNL A   1      50.014  25.477  30.865  1.00  0.00     0.001 A 
ATOM     77  C   UNL A   1      50.875  25.702  29.793  1.00  0.00     0.000 A 
ENDBRANCH  53  72
BRANCH  65  78
ATOM     78  C   UNL A   1      44.710  32.264  31.312  1.00  0.00    -0.014 A 
ATOM     79  C   UNL A   1      45.113  33.360  30.533  1.00  0.00     0.009 A 
ATOM     80  C   UNL A   1      44.697  32.393  32.709  1.00  0.00     0.009 A 
ATOM     81  C   UNL A   1      45.537  34.543  31.142  1.00  0.00     0.001 A 
ATOM     82  C   UNL A   1      45.087  33.588  33.315  1.00  0.00     0.001 A 
ATOM     83  C   UNL A   1      45.519  34.657  32.532  1.00  0.00     0.000 A 
ENDBRANCH  65  78
ENDBRANCH  39  40
ENDBRANCH  31  34
ENDBRANCH  29  30
ENDBRANCH  28  29
ENDBRANCH   1  28
TORSDOF 13
ENDMDL
MODEL 3
REMARK VINA RESULT:     -12.2      3.463      8.655
REMARK SMILES C[C@]12CCC[C@](C)(C(=O)NCCCCNC(=O)c3ccc(-c4c5nc(c(-c6ccccc6)c6ccc([nH]6)c(-c6ccccc6)c6nc(c(-c7ccccc7)c7ccc4[nH]7)C=C6)C=C5)cc3)[C@@H]1CC[C@]13C=C(CO)[C@H](CC[C@H]12)C3
REMARK SMILES IDX 12 1 11 2 10 3 8 4 9 5 6 7 1 8 2 9 3 10 66 11 77 12 4 13
REMARK SMILES IDX 67 14 69 15 76 16 5 17 7 18 68 19 70 20 78 21 75 22 71 23
REMARK SMILES IDX 74 24 72 25 73 26 13 28 14 29 15 30 16 31 17 33 18 34 19 35
REMARK SMILES IDX 65 36 20 37 64 38 21 39 22 40 23 41 58 42 24 43 63 44 57 45
REMARK SMILES IDX 59 46 25 47 62 48 56 49 55 50 26 52 48 53 33 54 47 55 34 56
REMARK SMILES IDX 37 57 46 58 60 59 35 60 36 61 45 63 61 64 38 65 27 66 28 67
REMARK SMILES IDX 32 68 29 69 31 70 30 71 49 72 50 73 54 74 51 75 53 76 52 77
REMARK SMILES IDX 39 78 40 79 44 80 41 81 43 82 42 83
REMARK H PARENT 10 6 73 27 15 32 59 51 37 62
REMARK Flexibility Score: inf
ROOT
ATOM      1  C   UNL A   1      31.208  30.195  25.488  1.00  0.00     0.023 C 
ENDROOT
BRANCH   1   2
ATOM      2  C   UNL A   1      30.674  30.138  24.057  1.00  0.00     0.116 C 
BRANCH   2   3
ATOM      3  N   UNL A   1      30.676  28.769  23.585  1.00  0.00    -0.356 N 
ATOM      4  C   UNL A   1      31.603  27.934  23.090  1.00  0.00     0.226 C 
ATOM      5  O   UNL A   1      31.097  27.106  22.311  1.00  0.00    -0.274 OA
ATOM      6  H   UNL A   1      29.786  28.351  23.641  1.00  0.00     0.163 HD
BRANCH   4   7
ATOM      7  C   UNL A   1      33.107  27.782  23.513  1.00  0.00     0.050 C 
ATOM      8  C   UNL A   1      31.803  26.300  25.771  1.00  0.00     0.012 C 
ATOM      9  C   UNL A   1      33.213  25.845  25.266  1.00  0.00    -0.025 C 
ATOM     10  C   UNL A   1      34.256  26.616  26.093  1.00  0.00     0.007 C 
ATOM     11  C   UNL A   1      33.431  26.232  23.770  1.00  0.00     0.010 C 
ATOM     12  C   UNL A   1      33.238  24.320  25.553  1.00  0.00     0.005 C 
ATOM     13  C   UNL A   1      34.018  28.124  26.036  1.00  0.00     0.002 C 
ATOM     14  C   UNL A   1      32.741  25.242  22.784  1.00  0.00     0.006 C 
ATOM     15  C   UNL A   1      32.521  23.383  24.500  1.00  0.00    -0.008 C 
ATOM     16  C   UNL A   1      34.294  23.515  26.299  1.00  0.00     0.006 C 
ATOM     17  C   UNL A   1      33.722  28.689  24.636  1.00  0.00     0.017 C 
ATOM     18  C   UNL A   1      33.824  28.297  22.220  1.00  0.00     0.022 C 
ATOM     19  C   UNL A   1      32.941  23.750  23.088  1.00  0.00     0.012 C 
ATOM     20  C   UNL A   1      31.066  23.449  24.866  1.00  0.00    -0.018 C 
ATOM     21  C   UNL A   1      32.674  21.880  24.853  1.00  0.00     0.019 C 
ATOM     22  C   UNL A   1      33.438  22.456  27.113  1.00  0.00     0.008 C 
ATOM     23  C   UNL A   1      30.932  22.812  26.049  1.00  0.00    -0.045 C 
ATOM     24  C   UNL A   1      32.180  21.922  26.312  1.00  0.00     0.018 C 
BRANCH  23  25
ATOM     25  C   UNL A   1      29.779  23.075  26.953  1.00  0.00     0.187 C 
BRANCH  25  26
ATOM     26  O   UNL A   1      28.897  21.963  26.933  1.00  0.00    -0.392 OA
ATOM     27  H   UNL A   1      29.344  21.190  27.310  1.00  0.00     0.211 HD
ENDBRANCH  25  26
ENDBRANCH  23  25
ENDBRANCH   4   7
ENDBRANCH   2   3
ENDBRANCH   1   2
BRANCH   1  28
ATOM     28  C   UNL A   1      31.058  31.564  26.173  1.00  0.00     0.023 C 
BRANCH  28  29
ATOM     29  C   UNL A   1      32.289  32.045  26.936  1.00  0.00     0.116 C 
BRANCH  29  30
ATOM     30  N   UNL A   1      32.196  33.460  27.260  1.00  0.00    -0.352 N 
ATOM     31  C   UNL A   1      32.953  34.193  28.134  1.00  0.00     0.251 C 
ATOM     32  H   UNL A   1      31.491  33.959  26.786  1.00  0.00     0.163 HD
ATOM     33  O   UNL A   1      32.565  35.305  28.507  1.00  0.00    -0.269 OA
BRANCH  31  34
ATOM     34  C   UNL A   1      34.229  33.654  28.638  1.00  0.00     0.039 A 
ATOM     35  C   UNL A   1      34.242  32.940  29.838  1.00  0.00     0.014 A 
ATOM     36  C   UNL A   1      35.418  33.874  27.936  1.00  0.00     0.014 A 
ATOM     37  C   UNL A   1      35.441  32.402  30.307  1.00  0.00     0.010 A 
ATOM     38  C   UNL A   1      36.597  33.273  28.365  1.00  0.00     0.010 A 
ATOM     39  C   UNL A   1      36.624  32.539  29.559  1.00  0.00    -0.014 A 
BRANCH  39  40
ATOM     40  C   UNL A   1      37.893  31.923  30.022  1.00  0.00     0.031 A 
ATOM     41  C   UNL A   1      38.745  32.612  31.052  1.00  0.00     0.074 A 
ATOM     42  C   UNL A   1      38.301  30.758  29.481  1.00  0.00     0.049 A 
ATOM     43  N   UNL A   1      39.886  32.231  31.570  1.00  0.00    -0.248 NA
ATOM     44  C   UNL A   1      38.265  33.911  31.550  1.00  0.00     0.031 C 
ATOM     45  C   UNL A   1      37.588  30.009  28.444  1.00  0.00     0.029 A 
ATOM     46  N   UNL A   1      39.415  29.998  29.733  1.00  0.00    -0.354 N 
ATOM     47  C   UNL A   1      40.261  33.245  32.443  1.00  0.00     0.074 A 
ATOM     48  C   UNL A   1      39.260  34.283  32.341  1.00  0.00     0.031 C 
ATOM     49  C   UNL A   1      38.261  28.878  28.178  1.00  0.00     0.029 A 
ATOM     50  C   UNL A   1      39.471  28.843  28.992  1.00  0.00     0.049 A 
ATOM     51  H   UNL A   1      40.108  30.255  30.384  1.00  0.00     0.167 HD
ATOM     52  C   UNL A   1      41.331  33.298  33.273  1.00  0.00     0.031 A 
ATOM     53  C   UNL A   1      40.394  27.863  28.970  1.00  0.00     0.031 A 
ATOM     54  C   UNL A   1      42.329  32.266  33.372  1.00  0.00     0.049 A 
ATOM     55  C   UNL A   1      41.586  27.957  29.882  1.00  0.00     0.074 A 
ATOM     56  C   UNL A   1      43.425  32.204  34.215  1.00  0.00     0.029 A 
ATOM     57  N   UNL A   1      42.357  31.117  32.596  1.00  0.00    -0.354 N 
ATOM     58  N   UNL A   1      41.889  28.888  30.753  1.00  0.00    -0.248 NA
ATOM     59  C   UNL A   1      42.554  26.855  29.814  1.00  0.00     0.031 C 
ATOM     60  C   UNL A   1      44.148  31.046  33.907  1.00  0.00     0.029 A 
ATOM     61  C   UNL A   1      43.465  30.353  32.921  1.00  0.00     0.049 A 
ATOM     62  H   UNL A   1      41.686  30.879  31.915  1.00  0.00     0.167 HD
ATOM     63  C   UNL A   1      43.067  28.470  31.359  1.00  0.00     0.074 A 
ATOM     64  C   UNL A   1      43.410  27.192  30.769  1.00  0.00     0.031 C 
ATOM     65  C   UNL A   1      43.798  29.088  32.320  1.00  0.00     0.031 A 
BRANCH  52  66
ATOM     66  C   UNL A   1      41.479  34.526  34.131  1.00  0.00    -0.014 A 
ATOM     67  C   UNL A   1      42.224  35.636  33.697  1.00  0.00     0.009 A 
ATOM     68  C   UNL A   1      40.844  34.586  35.382  1.00  0.00     0.009 A 
ATOM     69  C   UNL A   1      42.366  36.758  34.515  1.00  0.00     0.001 A 
ATOM     70  C   UNL A   1      40.960  35.723  36.183  1.00  0.00     0.001 A 
ATOM     71  C   UNL A   1      41.731  36.803  35.756  1.00  0.00     0.000 A 
ENDBRANCH  52  66
BRANCH  53  72
ATOM     72  C   UNL A   1      40.218  26.693  28.069  1.00  0.00    -0.014 A 
ATOM     73  C   UNL A   1      39.507  25.563  28.499  1.00  0.00     0.009 A 
ATOM     74  C   UNL A   1      40.765  26.697  26.776  1.00  0.00     0.009 A 
ATOM     75  C   UNL A   1      39.371  24.450  27.665  1.00  0.00     0.001 A 
ATOM     76  C   UNL A   1      40.600  25.597  25.932  1.00  0.00     0.001 A 
ATOM     77  C   UNL A   1      39.913  24.471  26.381  1.00  0.00     0.000 A 
ENDBRANCH  53  72
BRANCH  65  78
ATOM     78  C   UNL A   1      45.023  28.367  32.815  1.00  0.00    -0.014 A 
ATOM     79  C   UNL A   1      44.956  27.451  33.876  1.00  0.00     0.009 A 
ATOM     80  C   UNL A   1      46.259  28.594  32.192  1.00  0.00     0.009 A 
ATOM     81  C   UNL A   1      46.112  26.811  34.332  1.00  0.00     0.001 A 
ATOM     82  C   UNL A   1      47.406  27.928  32.626  1.00  0.00     0.001 A 
ATOM     83  C   UNL A   1      47.334  27.047  33.703  1.00  0.00     0.000 A 
ENDBRANCH  65  78
ENDBRANCH  39  40
ENDBRANCH  31  34
ENDBRANCH  29  30
ENDBRANCH  28  29
ENDBRANCH   1  28
TORSDOF 13
ENDMDL
