MODEL 1
REMARK VINA RESULT:      -8.9      0.000      0.000
REMARK SMILES COc1ccc(C(=O)NCCCCNC(=O)c2ccc(-c3c4nc(c(-c5ccccc5)c5ccc([nH]5)c(-c5ccccc5)c5nc(c(-c6ccccc6)c6ccc3[nH]6)C=C5)C=C4)cc2)cc1C(F)(F)F
REMARK SMILES IDX 12 1 11 2 10 3 9 4 7 5 8 6 6 8 3 9 4 10 66 11 5 12 65 13
REMARK SMILES IDX 2 14 1 15 67 16 68 17 69 18 70 19 13 20 14 21 15 22 16 24
REMARK SMILES IDX 17 25 18 26 64 27 19 28 63 29 20 30 21 31 22 32 57 33 23 34
REMARK SMILES IDX 62 35 56 36 58 37 24 38 61 39 55 40 54 41 25 43 47 44 32 45
REMARK SMILES IDX 46 46 33 47 36 48 45 49 59 50 34 51 35 52 44 54 60 55 37 56
REMARK SMILES IDX 26 57 27 58 31 59 28 60 30 61 29 62 48 63 49 64 53 65 50 66
REMARK SMILES IDX 52 67 51 68 38 69 39 70 43 71 40 72 42 73 41 74
REMARK H PARENT 9 7 14 23 58 42 36 53
REMARK Flexibility Score: inf
ROOT
ATOM      1  C   UNL A   1      44.510  20.153  24.925  1.00  0.00     0.023 C 
ENDROOT
BRANCH   1   2
ATOM      2  C   UNL A   1      45.683  20.969  25.478  1.00  0.00     0.023 C 
BRANCH   2   3
ATOM      3  C   UNL A   1      45.405  22.473  25.548  1.00  0.00     0.116 C 
BRANCH   3   4
ATOM      4  N   UNL A   1      46.476  23.210  24.906  1.00  0.00    -0.352 N 
ATOM      5  C   UNL A   1      46.681  24.549  24.686  1.00  0.00     0.251 C 
ATOM      6  O   UNL A   1      47.706  24.871  24.083  1.00  0.00    -0.269 OA
ATOM      7  H   UNL A   1      47.198  22.638  24.560  1.00  0.00     0.163 HD
BRANCH   5   8
ATOM      8  C   UNL A   1      45.769  25.620  25.186  1.00  0.00     0.040 A 
ATOM      9  C   UNL A   1      43.930  27.649  25.982  1.00  0.00     0.131 A 
ATOM     10  C   UNL A   1      43.503  26.415  25.451  1.00  0.00     0.048 A 
ATOM     11  C   UNL A   1      45.301  27.872  26.134  1.00  0.00     0.098 A 
ATOM     12  C   UNL A   1      44.401  25.428  25.033  1.00  0.00     0.017 A 
ATOM     13  C   UNL A   1      46.183  26.802  25.799  1.00  0.00     0.030 A 
BRANCH   9  14
ATOM     14  O   UNL A   1      42.855  28.402  26.339  1.00  0.00    -0.496 OA
ATOM     15  C   UNL A   1      41.683  28.437  25.549  1.00  0.00     0.278 C 
ENDBRANCH   9  14
BRANCH  11  16
ATOM     16  C   UNL A   1      46.040  29.101  26.606  1.00  0.00     0.419 C 
ATOM     17  F   UNL A   1      46.414  29.903  25.568  1.00  0.00    -0.166 F 
ATOM     18  F   UNL A   1      45.220  29.886  27.375  1.00  0.00    -0.166 F 
ATOM     19  F   UNL A   1      47.152  28.934  27.358  1.00  0.00    -0.166 F 
ENDBRANCH  11  16
ENDBRANCH   5   8
ENDBRANCH   3   4
ENDBRANCH   2   3
ENDBRANCH   1   2
BRANCH   1  20
ATOM     20  C   UNL A   1      43.947  19.119  25.893  1.00  0.00     0.116 C 
BRANCH  20  21
ATOM     21  N   UNL A   1      42.543  18.824  25.657  1.00  0.00    -0.352 N 
ATOM     22  C   UNL A   1      41.442  19.574  25.984  1.00  0.00     0.251 C 
ATOM     23  H   UNL A   1      42.356  17.971  25.201  1.00  0.00     0.163 HD
ATOM     24  O   UNL A   1      40.313  19.119  25.823  1.00  0.00    -0.269 OA
BRANCH  22  25
ATOM     25  C   UNL A   1      41.622  20.917  26.572  1.00  0.00     0.039 A 
ATOM     26  C   UNL A   1      41.914  21.015  27.932  1.00  0.00     0.014 A 
ATOM     27  C   UNL A   1      41.517  22.070  25.788  1.00  0.00     0.014 A 
ATOM     28  C   UNL A   1      42.154  22.268  28.496  1.00  0.00     0.010 A 
ATOM     29  C   UNL A   1      41.836  23.310  26.333  1.00  0.00     0.010 A 
ATOM     30  C   UNL A   1      42.149  23.423  27.695  1.00  0.00    -0.014 A 
BRANCH  30  31
ATOM     31  C   UNL A   1      42.478  24.746  28.282  1.00  0.00     0.031 A 
ATOM     32  C   UNL A   1      43.882  25.062  28.720  1.00  0.00     0.074 A 
ATOM     33  C   UNL A   1      41.497  25.657  28.444  1.00  0.00     0.049 A 
ATOM     34  N   UNL A   1      44.360  26.181  29.204  1.00  0.00    -0.248 NA
ATOM     35  C   UNL A   1      44.875  23.981  28.625  1.00  0.00     0.031 C 
ATOM     36  C   UNL A   1      40.083  25.448  28.117  1.00  0.00     0.029 A 
ATOM     37  N   UNL A   1      41.541  26.945  28.914  1.00  0.00    -0.354 N 
ATOM     38  C   UNL A   1      45.698  25.933  29.482  1.00  0.00     0.074 A 
ATOM     39  C   UNL A   1      45.946  24.545  29.163  1.00  0.00     0.031 C 
ATOM     40  C   UNL A   1      39.406  26.583  28.353  1.00  0.00     0.029 A 
ATOM     41  C   UNL A   1      40.326  27.585  28.880  1.00  0.00     0.049 A 
ATOM     42  H   UNL A   1      42.365  27.370  29.245  1.00  0.00     0.167 HD
ATOM     43  C   UNL A   1      46.641  26.789  29.943  1.00  0.00     0.031 A 
ATOM     44  C   UNL A   1      39.990  28.841  29.229  1.00  0.00     0.031 A 
ATOM     45  C   UNL A   1      46.396  28.174  30.248  1.00  0.00     0.049 A 
ATOM     46  C   UNL A   1      41.062  29.771  29.728  1.00  0.00     0.074 A 
ATOM     47  C   UNL A   1      47.302  29.142  30.645  1.00  0.00     0.029 A 
ATOM     48  N   UNL A   1      45.154  28.785  30.196  1.00  0.00    -0.354 N 
ATOM     49  N   UNL A   1      42.346  29.550  29.881  1.00  0.00    -0.248 NA
ATOM     50  C   UNL A   1      40.639  31.132  30.081  1.00  0.00     0.031 C 
ATOM     51  C   UNL A   1      46.597  30.322  30.896  1.00  0.00     0.029 A 
ATOM     52  C   UNL A   1      45.263  30.109  30.588  1.00  0.00     0.049 A 
ATOM     53  H   UNL A   1      44.317  28.345  29.922  1.00  0.00     0.167 HD
ATOM     54  C   UNL A   1      42.886  30.751  30.320  1.00  0.00     0.074 A 
ATOM     55  C   UNL A   1      41.796  31.704  30.380  1.00  0.00     0.031 C 
ATOM     56  C   UNL A   1      44.169  31.043  30.647  1.00  0.00     0.031 A 
BRANCH  43  57
ATOM     57  C   UNL A   1      48.030  26.251  30.158  1.00  0.00    -0.014 A 
ATOM     58  C   UNL A   1      48.965  26.200  29.111  1.00  0.00     0.009 A 
ATOM     59  C   UNL A   1      48.425  25.844  31.441  1.00  0.00     0.009 A 
ATOM     60  C   UNL A   1      50.258  25.723  29.340  1.00  0.00     0.001 A 
ATOM     61  C   UNL A   1      49.728  25.396  31.674  1.00  0.00     0.001 A 
ATOM     62  C   UNL A   1      50.640  25.329  30.622  1.00  0.00     0.000 A 
ENDBRANCH  43  57
BRANCH  44  63
ATOM     63  C   UNL A   1      38.583  29.307  29.107  1.00  0.00    -0.014 A 
ATOM     64  C   UNL A   1      37.706  29.232  30.202  1.00  0.00     0.009 A 
ATOM     65  C   UNL A   1      38.097  29.794  27.884  1.00  0.00     0.009 A 
ATOM     66  C   UNL A   1      36.363  29.593  30.060  1.00  0.00     0.001 A 
ATOM     67  C   UNL A   1      36.763  30.188  27.756  1.00  0.00     0.001 A 
ATOM     68  C   UNL A   1      35.895  30.072  28.839  1.00  0.00     0.000 A 
ENDBRANCH  44  63
BRANCH  56  69
ATOM     69  C   UNL A   1      44.463  32.459  31.062  1.00  0.00    -0.014 A 
ATOM     70  C   UNL A   1      44.405  32.855  32.408  1.00  0.00     0.009 A 
ATOM     71  C   UNL A   1      44.812  33.408  30.088  1.00  0.00     0.009 A 
ATOM     72  C   UNL A   1      44.640  34.185  32.763  1.00  0.00     0.001 A 
ATOM     73  C   UNL A   1      45.081  34.728  30.451  1.00  0.00     0.001 A 
ATOM     74  C   UNL A   1      44.981  35.119  31.784  1.00  0.00     0.000 A 
ENDBRANCH  56  69
ENDBRANCH  30  31
ENDBRANCH  22  25
ENDBRANCH  20  21
ENDBRANCH   1  20
TORSDOF 13
ENDMDL
MODEL 2
REMARK VINA RESULT:      -8.8      0.472      6.204
REMARK SMILES COc1ccc(C(=O)NCCCCNC(=O)c2ccc(-c3c4nc(c(-c5ccccc5)c5ccc([nH]5)c(-c5ccccc5)c5nc(c(-c6ccccc6)c6ccc3[nH]6)C=C5)C=C4)cc2)cc1C(F)(F)F
REMARK SMILES IDX 12 1 11 2 10 3 9 4 7 5 8 6 6 8 3 9 4 10 66 11 5 12 65 13
REMARK SMILES IDX 2 14 1 15 67 16 68 17 69 18 70 19 13 20 14 21 15 22 16 24
REMARK SMILES IDX 17 25 18 26 64 27 19 28 63 29 20 30 21 31 22 32 57 33 23 34
REMARK SMILES IDX 62 35 56 36 58 37 24 38 61 39 55 40 54 41 25 43 47 44 32 45
REMARK SMILES IDX 46 46 33 47 36 48 45 49 59 50 34 51 35 52 44 54 60 55 37 56
REMARK SMILES IDX 26 57 27 58 31 59 28 60 30 61 29 62 48 63 49 64 53 65 50 66
REMARK SMILES IDX 52 67 51 68 38 69 39 70 43 71 40 72 42 73 41 74
REMARK H PARENT 9 7 14 23 58 42 36 53
REMARK Flexibility Score: inf
ROOT
ATOM      1  C   UNL A   1      44.434  20.070  24.876  1.00  0.00     0.023 C 
ENDROOT
BRANCH   1   2
ATOM      2  C   UNL A   1      45.607  20.898  25.411  1.00  0.00     0.023 C 
BRANCH   2   3
ATOM      3  C   UNL A   1      45.330  22.404  25.442  1.00  0.00     0.116 C 
BRANCH   3   4
ATOM      4  N   UNL A   1      46.406  23.124  24.789  1.00  0.00    -0.352 N 
ATOM      5  C   UNL A   1      46.640  24.461  24.583  1.00  0.00     0.251 C 
ATOM      6  O   UNL A   1      47.661  24.766  23.965  1.00  0.00    -0.269 OA
ATOM      7  H   UNL A   1      47.107  22.539  24.419  1.00  0.00     0.163 HD
BRANCH   5   8
ATOM      8  C   UNL A   1      45.766  25.546  25.117  1.00  0.00     0.040 A 
ATOM      9  C   UNL A   1      44.002  27.615  25.975  1.00  0.00     0.131 A 
ATOM     10  C   UNL A   1      43.532  26.430  25.376  1.00  0.00     0.048 A 
ATOM     11  C   UNL A   1      45.377  27.768  26.166  1.00  0.00     0.098 A 
ATOM     12  C   UNL A   1      44.395  25.424  24.928  1.00  0.00     0.017 A 
ATOM     13  C   UNL A   1      46.218  26.677  25.797  1.00  0.00     0.030 A 
BRANCH   9  14
ATOM     14  O   UNL A   1      42.954  28.399  26.348  1.00  0.00    -0.496 OA
ATOM     15  C   UNL A   1      41.762  28.446  25.589  1.00  0.00     0.278 C 
ENDBRANCH   9  14
BRANCH  11  16
ATOM     16  C   UNL A   1      46.160  28.938  26.714  1.00  0.00     0.419 C 
ATOM     17  F   UNL A   1      47.347  28.548  27.263  1.00  0.00    -0.166 F 
ATOM     18  F   UNL A   1      46.509  29.794  25.701  1.00  0.00    -0.166 F 
ATOM     19  F   UNL A   1      45.572  29.729  27.639  1.00  0.00    -0.166 F 
ENDBRANCH  11  16
ENDBRANCH   5   8
ENDBRANCH   3   4
ENDBRANCH   2   3
ENDBRANCH   1   2
BRANCH   1  20
ATOM     20  C   UNL A   1      43.859  19.070  25.872  1.00  0.00     0.116 C 
BRANCH  20  21
ATOM     21  N   UNL A   1      42.446  18.801  25.658  1.00  0.00    -0.352 N 
ATOM     22  C   UNL A   1      41.365  19.575  25.995  1.00  0.00     0.251 C 
ATOM     23  H   UNL A   1      42.237  17.949  25.211  1.00  0.00     0.163 HD
ATOM     24  O   UNL A   1      40.226  19.141  25.853  1.00  0.00    -0.269 OA
BRANCH  22  25
ATOM     25  C   UNL A   1      41.579  20.919  26.570  1.00  0.00     0.039 A 
ATOM     26  C   UNL A   1      41.757  21.032  27.949  1.00  0.00     0.014 A 
ATOM     27  C   UNL A   1      41.618  22.055  25.757  1.00  0.00     0.014 A 
ATOM     28  C   UNL A   1      42.027  22.282  28.507  1.00  0.00     0.010 A 
ATOM     29  C   UNL A   1      41.968  23.287  26.304  1.00  0.00     0.010 A 
ATOM     30  C   UNL A   1      42.167  23.414  27.685  1.00  0.00    -0.014 A 
BRANCH  30  31
ATOM     31  C   UNL A   1      42.528  24.728  28.274  1.00  0.00     0.031 A 
ATOM     32  C   UNL A   1      41.483  25.792  28.472  1.00  0.00     0.074 A 
ATOM     33  C   UNL A   1      43.811  24.970  28.607  1.00  0.00     0.049 A 
ATOM     34  N   UNL A   1      41.608  26.976  29.017  1.00  0.00    -0.248 NA
ATOM     35  C   UNL A   1      40.128  25.504  27.975  1.00  0.00     0.031 C 
ATOM     36  C   UNL A   1      44.929  24.043  28.406  1.00  0.00     0.029 A 
ATOM     37  N   UNL A   1      44.392  26.065  29.195  1.00  0.00    -0.354 N 
ATOM     38  C   UNL A   1      40.359  27.574  28.917  1.00  0.00     0.074 A 
ATOM     39  C   UNL A   1      39.501  26.647  28.213  1.00  0.00     0.031 C 
ATOM     40  C   UNL A   1      46.049  24.590  28.905  1.00  0.00     0.029 A 
ATOM     41  C   UNL A   1      45.739  25.916  29.427  1.00  0.00     0.049 A 
ATOM     42  H   UNL A   1      43.892  26.880  29.428  1.00  0.00     0.167 HD
ATOM     43  C   UNL A   1      39.955  28.779  29.386  1.00  0.00     0.031 A 
ATOM     44  C   UNL A   1      46.623  26.753  30.001  1.00  0.00     0.031 A 
ATOM     45  C   UNL A   1      40.806  29.695  30.098  1.00  0.00     0.049 A 
ATOM     46  C   UNL A   1      46.142  28.080  30.521  1.00  0.00     0.074 A 
ATOM     47  C   UNL A   1      40.471  30.904  30.682  1.00  0.00     0.029 A 
ATOM     48  N   UNL A   1      42.161  29.506  30.317  1.00  0.00    -0.354 N 
ATOM     49  N   UNL A   1      44.931  28.582  30.514  1.00  0.00    -0.248 NA
ATOM     50  C   UNL A   1      47.151  28.944  31.148  1.00  0.00     0.031 C 
ATOM     51  C   UNL A   1      41.637  31.478  31.197  1.00  0.00     0.029 A 
ATOM     52  C   UNL A   1      42.685  30.594  30.996  1.00  0.00     0.049 A 
ATOM     53  H   UNL A   1      42.676  28.718  30.031  1.00  0.00     0.167 HD
ATOM     54  C   UNL A   1      45.028  29.807  31.161  1.00  0.00     0.074 A 
ATOM     55  C   UNL A   1      46.409  29.957  31.571  1.00  0.00     0.031 C 
ATOM     56  C   UNL A   1      44.061  30.730  31.394  1.00  0.00     0.031 A 
BRANCH  43  57
ATOM     57  C   UNL A   1      38.528  29.185  29.136  1.00  0.00    -0.014 A 
ATOM     58  C   UNL A   1      37.551  29.084  30.140  1.00  0.00     0.009 A 
ATOM     59  C   UNL A   1      38.169  29.732  27.894  1.00  0.00     0.009 A 
ATOM     60  C   UNL A   1      36.238  29.493  29.894  1.00  0.00     0.001 A 
ATOM     61  C   UNL A   1      36.863  30.169  27.661  1.00  0.00     0.001 A 
ATOM     62  C   UNL A   1      35.898  30.042  28.658  1.00  0.00     0.000 A 
ENDBRANCH  43  57
BRANCH  44  63
ATOM     63  C   UNL A   1      48.053  26.363  30.133  1.00  0.00    -0.014 A 
ATOM     64  C   UNL A   1      48.939  26.514  29.054  1.00  0.00     0.009 A 
ATOM     65  C   UNL A   1      48.530  25.802  31.327  1.00  0.00     0.009 A 
ATOM     66  C   UNL A   1      50.260  26.069  29.155  1.00  0.00     0.001 A 
ATOM     67  C   UNL A   1      49.862  25.392  31.436  1.00  0.00     0.001 A 
ATOM     68  C   UNL A   1      50.720  25.512  30.346  1.00  0.00     0.000 A 
ENDBRANCH  44  63
BRANCH  56  69
ATOM     69  C   UNL A   1      44.464  31.962  32.158  1.00  0.00    -0.014 A 
ATOM     70  C   UNL A   1      44.911  33.119  31.501  1.00  0.00     0.009 A 
ATOM     71  C   UNL A   1      44.382  31.964  33.560  1.00  0.00     0.009 A 
ATOM     72  C   UNL A   1      45.320  34.234  32.235  1.00  0.00     0.001 A 
ATOM     73  C   UNL A   1      44.757  33.093  34.288  1.00  0.00     0.001 A 
ATOM     74  C   UNL A   1      45.240  34.221  33.627  1.00  0.00     0.000 A 
ENDBRANCH  56  69
ENDBRANCH  30  31
ENDBRANCH  22  25
ENDBRANCH  20  21
ENDBRANCH   1  20
TORSDOF 13
ENDMDL
MODEL 3
REMARK VINA RESULT:      -8.4      5.516     10.999
REMARK SMILES COc1ccc(C(=O)NCCCCNC(=O)c2ccc(-c3c4nc(c(-c5ccccc5)c5ccc([nH]5)c(-c5ccccc5)c5nc(c(-c6ccccc6)c6ccc3[nH]6)C=C5)C=C4)cc2)cc1C(F)(F)F
REMARK SMILES IDX 12 1 11 2 10 3 9 4 7 5 8 6 6 8 3 9 4 10 66 11 5 12 65 13
REMARK SMILES IDX 2 14 1 15 67 16 68 17 69 18 70 19 13 20 14 21 15 22 16 24
REMARK SMILES IDX 17 25 18 26 64 27 19 28 63 29 20 30 21 31 22 32 57 33 23 34
REMARK SMILES IDX 62 35 56 36 58 37 24 38 61 39 55 40 54 41 25 43 47 44 32 45
REMARK SMILES IDX 46 46 33 47 36 48 45 49 59 50 34 51 35 52 44 54 60 55 37 56
REMARK SMILES IDX 26 57 27 58 31 59 28 60 30 61 29 62 48 63 49 64 53 65 50 66
REMARK SMILES IDX 52 67 51 68 38 69 39 70 43 71 40 72 42 73 41 74
REMARK H PARENT 9 7 14 23 58 42 36 53
REMARK Flexibility Score: inf
ROOT
ATOM      1  C   UNL A   1      31.500  31.808  26.610  1.00  0.00     0.023 C 
ENDROOT
BRANCH   1   2
ATOM      2  C   UNL A   1      31.725  30.322  26.318  1.00  0.00     0.023 C 
BRANCH   2   3
ATOM      3  C   UNL A   1      33.203  29.930  26.237  1.00  0.00     0.116 C 
BRANCH   3   4
ATOM      4  N   UNL A   1      33.523  29.454  24.905  1.00  0.00    -0.352 N 
ATOM      5  C   UNL A   1      33.498  28.207  24.332  1.00  0.00     0.251 C 
ATOM      6  O   UNL A   1      33.849  28.120  23.155  1.00  0.00    -0.269 OA
ATOM      7  H   UNL A   1      33.815  30.165  24.290  1.00  0.00     0.163 HD
BRANCH   5   8
ATOM      8  C   UNL A   1      33.015  26.982  25.036  1.00  0.00     0.040 A 
ATOM      9  C   UNL A   1      32.022  24.754  26.512  1.00  0.00     0.131 A 
ATOM     10  C   UNL A   1      31.232  25.891  26.247  1.00  0.00     0.048 A 
ATOM     11  C   UNL A   1      33.328  24.718  26.018  1.00  0.00     0.098 A 
ATOM     12  C   UNL A   1      31.723  26.998  25.548  1.00  0.00     0.017 A 
ATOM     13  C   UNL A   1      33.759  25.817  25.217  1.00  0.00     0.030 A 
BRANCH   9  14
ATOM     14  O   UNL A   1      31.288  23.817  27.173  1.00  0.00    -0.496 OA
ATOM     15  C   UNL A   1      30.588  22.805  26.478  1.00  0.00     0.278 C 
ENDBRANCH   9  14
BRANCH  11  16
ATOM     16  C   UNL A   1      34.409  23.679  26.197  1.00  0.00     0.419 C 
ATOM     17  F   UNL A   1      35.654  24.192  25.982  1.00  0.00    -0.166 F 
ATOM     18  F   UNL A   1      34.434  23.235  27.494  1.00  0.00    -0.166 F 
ATOM     19  F   UNL A   1      34.345  22.550  25.455  1.00  0.00    -0.166 F 
ENDBRANCH  11  16
ENDBRANCH   5   8
ENDBRANCH   3   4
ENDBRANCH   2   3
ENDBRANCH   1   2
BRANCH   1  20
ATOM     20  C   UNL A   1      32.729  32.546  27.129  1.00  0.00     0.116 C 
BRANCH  20  21
ATOM     21  N   UNL A   1      32.423  33.872  27.641  1.00  0.00    -0.352 N 
ATOM     22  C   UNL A   1      33.098  34.603  28.586  1.00  0.00     0.251 C 
ATOM     23  H   UNL A   1      31.626  34.304  27.258  1.00  0.00     0.163 HD
ATOM     24  O   UNL A   1      32.634  35.663  28.996  1.00  0.00    -0.269 OA
BRANCH  22  25
ATOM     25  C   UNL A   1      34.368  34.088  29.139  1.00  0.00     0.039 A 
ATOM     26  C   UNL A   1      34.318  33.270  30.267  1.00  0.00     0.014 A 
ATOM     27  C   UNL A   1      35.594  34.396  28.544  1.00  0.00     0.014 A 
ATOM     28  C   UNL A   1      35.497  32.717  30.769  1.00  0.00     0.010 A 
ATOM     29  C   UNL A   1      36.758  33.780  28.995  1.00  0.00     0.010 A 
ATOM     30  C   UNL A   1      36.722  32.942  30.117  1.00  0.00    -0.014 A 
BRANCH  30  31
ATOM     31  C   UNL A   1      37.963  32.292  30.608  1.00  0.00     0.031 A 
ATOM     32  C   UNL A   1      38.706  32.853  31.790  1.00  0.00     0.074 A 
ATOM     33  C   UNL A   1      38.435  31.204  29.967  1.00  0.00     0.049 A 
ATOM     34  N   UNL A   1      39.775  32.388  32.386  1.00  0.00    -0.248 NA
ATOM     35  C   UNL A   1      38.201  34.110  32.366  1.00  0.00     0.031 C 
ATOM     36  C   UNL A   1      37.841  30.600  28.771  1.00  0.00     0.029 A 
ATOM     37  N   UNL A   1      39.518  30.406  30.238  1.00  0.00    -0.354 N 
ATOM     38  C   UNL A   1      40.076  33.298  33.392  1.00  0.00     0.074 A 
ATOM     39  C   UNL A   1      39.109  34.369  33.295  1.00  0.00     0.031 C 
ATOM     40  C   UNL A   1      38.539  29.502  28.440  1.00  0.00     0.029 A 
ATOM     41  C   UNL A   1      39.648  29.344  29.374  1.00  0.00     0.049 A 
ATOM     42  H   UNL A   1      40.142  30.577  30.978  1.00  0.00     0.167 HD
ATOM     43  C   UNL A   1      41.055  33.237  34.325  1.00  0.00     0.031 A 
ATOM     44  C   UNL A   1      40.556  28.350  29.343  1.00  0.00     0.031 A 
ATOM     45  C   UNL A   1      42.007  32.164  34.429  1.00  0.00     0.049 A 
ATOM     46  C   UNL A   1      41.625  28.305  30.400  1.00  0.00     0.074 A 
ATOM     47  C   UNL A   1      42.987  31.972  35.387  1.00  0.00     0.029 A 
ATOM     48  N   UNL A   1      42.103  31.105  33.540  1.00  0.00    -0.354 N 
ATOM     49  N   UNL A   1      41.827  29.117  31.410  1.00  0.00    -0.248 NA
ATOM     50  C   UNL A   1      42.579  27.191  30.322  1.00  0.00     0.031 C 
ATOM     51  C   UNL A   1      43.718  30.831  35.041  1.00  0.00     0.029 A 
ATOM     52  C   UNL A   1      43.150  30.275  33.906  1.00  0.00     0.049 A 
ATOM     53  H   UNL A   1      41.516  30.964  32.763  1.00  0.00     0.167 HD
ATOM     54  C   UNL A   1      42.911  28.595  32.102  1.00  0.00     0.074 A 
ATOM     55  C   UNL A   1      43.304  27.383  31.414  1.00  0.00     0.031 C 
ATOM     56  C   UNL A   1      43.531  29.075  33.209  1.00  0.00     0.031 A 
BRANCH  43  57
ATOM     57  C   UNL A   1      41.156  34.372  35.308  1.00  0.00    -0.014 A 
ATOM     58  C   UNL A   1      41.944  35.504  35.042  1.00  0.00     0.009 A 
ATOM     59  C   UNL A   1      40.405  34.333  36.493  1.00  0.00     0.009 A 
ATOM     60  C   UNL A   1      42.001  36.558  35.957  1.00  0.00     0.001 A 
ATOM     61  C   UNL A   1      40.439  35.402  37.392  1.00  0.00     0.001 A 
ATOM     62  C   UNL A   1      41.243  36.509  37.126  1.00  0.00     0.000 A 
ENDBRANCH  43  57
BRANCH  44  63
ATOM     63  C   UNL A   1      40.491  27.303  28.288  1.00  0.00    -0.014 A 
ATOM     64  C   UNL A   1      41.137  27.489  27.055  1.00  0.00     0.009 A 
ATOM     65  C   UNL A   1      39.751  26.130  28.495  1.00  0.00     0.009 A 
ATOM     66  C   UNL A   1      41.005  26.541  26.037  1.00  0.00     0.001 A 
ATOM     67  C   UNL A   1      39.651  25.167  27.487  1.00  0.00     0.001 A 
ATOM     68  C   UNL A   1      40.265  25.381  26.255  1.00  0.00     0.000 A 
ENDBRANCH  44  63
BRANCH  56  69
ATOM     69  C   UNL A   1      44.672  28.264  33.759  1.00  0.00    -0.014 A 
ATOM     70  C   UNL A   1      45.998  28.499  33.360  1.00  0.00     0.009 A 
ATOM     71  C   UNL A   1      44.414  27.253  34.699  1.00  0.00     0.009 A 
ATOM     72  C   UNL A   1      47.035  27.704  33.852  1.00  0.00     0.001 A 
ATOM     73  C   UNL A   1      45.457  26.484  35.216  1.00  0.00     0.001 A 
ATOM     74  C   UNL A   1      46.764  26.700  34.782  1.00  0.00     0.000 A 
ENDBRANCH  56  69
ENDBRANCH  30  31
ENDBRANCH  22  25
ENDBRANCH  20  21
ENDBRANCH   1  20
TORSDOF 13
ENDMDL
