MODEL 1
REMARK VINA RESULT:     -10.6      0.000      0.000
REMARK SMILES CCCN1C(=O)C[C@H](C(=O)NCCCCNC(=O)c2ccc(-c3c4nc(c(-c5ccccc5)c5ccc([nH]5)c(-c5ccccc5)c5nc(c(-c6ccccc6)c6ccc3[nH]6)C=C5)C=C4)cc2)[C@@H]1c1cncn1C1CC1
REMARK SMILES IDX 13 1 12 2 11 3 9 4 10 5 8 7 4 8 5 9 67 10 6 11 7 12 3 13
REMARK SMILES IDX 2 14 1 15 68 16 69 17 72 18 70 19 71 20 73 21 74 22 75 23
REMARK SMILES IDX 14 24 15 25 16 26 17 27 18 29 19 30 20 31 66 32 21 33 65 34
REMARK SMILES IDX 22 35 23 36 24 37 59 38 25 39 64 40 58 41 60 42 26 43 63 44
REMARK SMILES IDX 57 45 56 46 27 48 49 49 34 50 48 51 35 52 38 53 47 54 61 55
REMARK SMILES IDX 36 56 37 57 46 59 62 60 39 61 28 62 29 63 33 64 30 65 32 66
REMARK SMILES IDX 31 67 50 68 51 69 55 70 52 71 54 72 53 73 40 74 41 75 45 76
REMARK SMILES IDX 42 77 44 78 43 79
REMARK H PARENT 11 6 16 28 60 47 38 58
REMARK Flexibility Score: inf
ROOT
ATOM      1  C   UNL A   1      36.900  22.354  24.082  1.00  0.00     0.023 C 
ENDROOT
BRANCH   1   2
ATOM      2  C   UNL A   1      35.583  22.833  24.664  1.00  0.00     0.116 C 
BRANCH   2   3
ATOM      3  N   UNL A   1      34.466  22.825  23.759  1.00  0.00    -0.356 N 
ATOM      4  C   UNL A   1      33.885  23.885  23.136  1.00  0.00     0.226 C 
ATOM      5  O   UNL A   1      33.168  23.626  22.162  1.00  0.00    -0.275 OA
ATOM      6  H   UNL A   1      34.072  21.943  23.569  1.00  0.00     0.163 HD
BRANCH   4   7
ATOM      7  C   UNL A   1      34.049  25.335  23.573  1.00  0.00     0.116 C 
ATOM      8  N   UNL A   1      33.507  27.254  24.810  1.00  0.00    -0.333 N 
ATOM      9  C   UNL A   1      33.625  27.655  23.477  1.00  0.00     0.224 C 
ATOM     10  C   UNL A   1      33.505  25.817  24.919  1.00  0.00     0.146 C 
ATOM     11  O   UNL A   1      33.692  28.806  23.075  1.00  0.00    -0.275 OA
ATOM     12  C   UNL A   1      33.700  26.436  22.585  1.00  0.00     0.116 C 
BRANCH   8  13
ATOM     13  C   UNL A   1      33.960  28.121  25.903  1.00  0.00     0.120 C 
BRANCH  13  14
ATOM     14  C   UNL A   1      32.899  28.696  26.841  1.00  0.00     0.018 C 
ATOM     15  C   UNL A   1      31.814  29.516  26.159  1.00  0.00     0.006 C 
ENDBRANCH  13  14
ENDBRANCH   8  13
BRANCH  10  16
ATOM     16  C   UNL A   1      32.262  25.199  25.467  1.00  0.00     0.061 A 
ATOM     17  C   UNL A   1      32.298  24.440  26.640  1.00  0.00     0.136 A 
ATOM     18  N   UNL A   1      30.909  25.209  25.141  1.00  0.00    -0.330 N 
ATOM     19  N   UNL A   1      31.075  24.003  27.028  1.00  0.00    -0.245 NA
ATOM     20  C   UNL A   1      30.260  24.504  26.138  1.00  0.00     0.199 A 
BRANCH  18  21
ATOM     21  C   UNL A   1      30.071  25.692  24.048  1.00  0.00     0.088 C 
ATOM     22  C   UNL A   1      28.756  26.420  24.094  1.00  0.00     0.027 C 
ATOM     23  C   UNL A   1      29.956  27.132  23.591  1.00  0.00     0.027 C 
ENDBRANCH  18  21
ENDBRANCH  10  16
ENDBRANCH   4   7
ENDBRANCH   2   3
ENDBRANCH   1   2
BRANCH   1  24
ATOM     24  C   UNL A   1      37.363  20.996  24.605  1.00  0.00     0.023 C 
BRANCH  24  25
ATOM     25  C   UNL A   1      38.468  21.024  25.661  1.00  0.00     0.116 C 
BRANCH  25  26
ATOM     26  N   UNL A   1      39.379  19.889  25.601  1.00  0.00    -0.352 N 
ATOM     27  C   UNL A   1      40.693  19.817  26.001  1.00  0.00     0.251 C 
ATOM     28  H   UNL A   1      39.003  19.062  25.222  1.00  0.00     0.163 HD
ATOM     29  O   UNL A   1      41.336  18.784  25.833  1.00  0.00    -0.269 OA
BRANCH  27  30
ATOM     30  C   UNL A   1      41.341  21.009  26.587  1.00  0.00     0.039 A 
ATOM     31  C   UNL A   1      41.946  21.936  25.735  1.00  0.00     0.014 A 
ATOM     32  C   UNL A   1      41.291  21.245  27.963  1.00  0.00     0.014 A 
ATOM     33  C   UNL A   1      42.421  23.142  26.253  1.00  0.00     0.010 A 
ATOM     34  C   UNL A   1      41.693  22.481  28.465  1.00  0.00     0.010 A 
ATOM     35  C   UNL A   1      42.254  23.446  27.615  1.00  0.00    -0.014 A 
BRANCH  35  36
ATOM     36  C   UNL A   1      42.639  24.777  28.153  1.00  0.00     0.031 A 
ATOM     37  C   UNL A   1      41.605  25.851  28.351  1.00  0.00     0.074 A 
ATOM     38  C   UNL A   1      43.936  25.042  28.410  1.00  0.00     0.049 A 
ATOM     39  N   UNL A   1      41.758  27.067  28.812  1.00  0.00    -0.248 NA
ATOM     40  C   UNL A   1      40.225  25.528  27.956  1.00  0.00     0.031 C 
ATOM     41  C   UNL A   1      45.051  24.116  28.200  1.00  0.00     0.029 A 
ATOM     42  N   UNL A   1      44.536  26.174  28.906  1.00  0.00    -0.354 N 
ATOM     43  C   UNL A   1      40.502  27.656  28.746  1.00  0.00     0.074 A 
ATOM     44  C   UNL A   1      39.610  26.684  28.153  1.00  0.00     0.031 C 
ATOM     45  C   UNL A   1      46.191  24.701  28.600  1.00  0.00     0.029 A 
ATOM     46  C   UNL A   1      45.895  26.052  29.065  1.00  0.00     0.049 A 
ATOM     47  H   UNL A   1      44.039  26.994  29.127  1.00  0.00     0.167 HD
ATOM     48  C   UNL A   1      40.117  28.886  29.163  1.00  0.00     0.031 A 
ATOM     49  C   UNL A   1      46.803  26.925  29.541  1.00  0.00     0.031 A 
ATOM     50  C   UNL A   1      40.996  29.851  29.766  1.00  0.00     0.049 A 
ATOM     51  C   UNL A   1      46.348  28.275  30.021  1.00  0.00     0.074 A 
ATOM     52  C   UNL A   1      40.685  31.098  30.281  1.00  0.00     0.029 A 
ATOM     53  N   UNL A   1      42.361  29.678  29.933  1.00  0.00    -0.354 N 
ATOM     54  N   UNL A   1      45.140  28.782  30.035  1.00  0.00    -0.248 NA
ATOM     55  C   UNL A   1      47.382  29.165  30.567  1.00  0.00     0.031 C 
ATOM     56  C   UNL A   1      41.869  31.698  30.722  1.00  0.00     0.029 A 
ATOM     57  C   UNL A   1      42.909  30.803  30.527  1.00  0.00     0.049 A 
ATOM     58  H   UNL A   1      42.865  28.876  29.669  1.00  0.00     0.167 HD
ATOM     59  C   UNL A   1      45.263  30.036  30.621  1.00  0.00     0.074 A 
ATOM     60  C   UNL A   1      46.660  30.207  30.958  1.00  0.00     0.031 C 
ATOM     61  C   UNL A   1      44.301  30.959  30.861  1.00  0.00     0.031 A 
BRANCH  48  62
ATOM     62  C   UNL A   1      38.671  29.255  28.977  1.00  0.00    -0.014 A 
ATOM     63  C   UNL A   1      38.194  29.724  27.743  1.00  0.00     0.009 A 
ATOM     64  C   UNL A   1      37.768  29.105  30.041  1.00  0.00     0.009 A 
ATOM     65  C   UNL A   1      36.851  30.076  27.590  1.00  0.00     0.001 A 
ATOM     66  C   UNL A   1      36.421  29.430  29.877  1.00  0.00     0.001 A 
ATOM     67  C   UNL A   1      35.965  29.923  28.655  1.00  0.00     0.000 A 
ENDBRANCH  48  62
BRANCH  49  68
ATOM     68  C   UNL A   1      48.233  26.533  29.632  1.00  0.00    -0.014 A 
ATOM     69  C   UNL A   1      49.120  26.837  28.587  1.00  0.00     0.009 A 
ATOM     70  C   UNL A   1      48.720  25.854  30.759  1.00  0.00     0.009 A 
ATOM     71  C   UNL A   1      50.460  26.447  28.659  1.00  0.00     0.001 A 
ATOM     72  C   UNL A   1      50.065  25.488  30.839  1.00  0.00     0.001 A 
ATOM     73  C   UNL A   1      50.932  25.777  29.785  1.00  0.00     0.000 A 
ENDBRANCH  49  68
BRANCH  61  74
ATOM     74  C   UNL A   1      44.720  32.223  31.557  1.00  0.00    -0.014 A 
ATOM     75  C   UNL A   1      45.070  33.374  30.834  1.00  0.00     0.009 A 
ATOM     76  C   UNL A   1      44.726  32.271  32.960  1.00  0.00     0.009 A 
ATOM     77  C   UNL A   1      45.453  34.538  31.506  1.00  0.00     0.001 A 
ATOM     78  C   UNL A   1      45.082  33.444  33.627  1.00  0.00     0.001 A 
ATOM     79  C   UNL A   1      45.453  34.573  32.899  1.00  0.00     0.000 A 
ENDBRANCH  61  74
ENDBRANCH  35  36
ENDBRANCH  27  30
ENDBRANCH  25  26
ENDBRANCH  24  25
ENDBRANCH   1  24
TORSDOF 15
ENDMDL
MODEL 2
REMARK VINA RESULT:     -10.5      2.835      8.195
REMARK SMILES CCCN1C(=O)C[C@H](C(=O)NCCCCNC(=O)c2ccc(-c3c4nc(c(-c5ccccc5)c5ccc([nH]5)c(-c5ccccc5)c5nc(c(-c6ccccc6)c6ccc3[nH]6)C=C5)C=C4)cc2)[C@@H]1c1cncn1C1CC1
REMARK SMILES IDX 13 1 12 2 11 3 9 4 10 5 8 7 4 8 5 9 67 10 6 11 7 12 3 13
REMARK SMILES IDX 2 14 1 15 68 16 69 17 72 18 70 19 71 20 73 21 74 22 75 23
REMARK SMILES IDX 14 24 15 25 16 26 17 27 18 29 19 30 20 31 66 32 21 33 65 34
REMARK SMILES IDX 22 35 23 36 24 37 59 38 25 39 64 40 58 41 60 42 26 43 63 44
REMARK SMILES IDX 57 45 56 46 27 48 49 49 34 50 48 51 35 52 38 53 47 54 61 55
REMARK SMILES IDX 36 56 37 57 46 59 62 60 39 61 28 62 29 63 33 64 30 65 32 66
REMARK SMILES IDX 31 67 50 68 51 69 55 70 52 71 54 72 53 73 40 74 41 75 45 76
REMARK SMILES IDX 42 77 44 78 43 79
REMARK H PARENT 11 6 16 28 60 47 38 58
REMARK Flexibility Score: inf
ROOT
ATOM      1  C   UNL A   1      31.852  29.136  26.057  1.00  0.00     0.023 C 
ENDROOT
BRANCH   1   2
ATOM      2  C   UNL A   1      31.944  27.763  26.696  1.00  0.00     0.116 C 
BRANCH   2   3
ATOM      3  N   UNL A   1      31.109  26.750  26.112  1.00  0.00    -0.356 N 
ATOM      4  C   UNL A   1      31.307  25.404  26.099  1.00  0.00     0.226 C 
ATOM      5  O   UNL A   1      30.321  24.705  25.842  1.00  0.00    -0.275 OA
ATOM      6  H   UNL A   1      30.292  27.070  25.665  1.00  0.00     0.163 HD
BRANCH   4   7
ATOM      7  C   UNL A   1      32.649  24.731  26.358  1.00  0.00     0.116 C 
ATOM      8  N   UNL A   1      34.695  23.766  25.734  1.00  0.00    -0.333 N 
ATOM      9  C   UNL A   1      34.093  22.884  26.636  1.00  0.00     0.224 C 
ATOM     10  C   UNL A   1      33.773  24.793  25.322  1.00  0.00     0.146 C 
ATOM     11  O   UNL A   1      34.633  21.938  27.187  1.00  0.00    -0.275 OA
ATOM     12  C   UNL A   1      32.657  23.300  26.870  1.00  0.00     0.116 C 
BRANCH   8  13
ATOM     13  C   UNL A   1      36.148  23.973  25.736  1.00  0.00     0.120 C 
BRANCH  13  14
ATOM     14  C   UNL A   1      36.955  23.358  24.592  1.00  0.00     0.018 C 
ATOM     15  C   UNL A   1      36.133  22.602  23.559  1.00  0.00     0.006 C 
ENDBRANCH  13  14
ENDBRANCH   8  13
BRANCH  10  16
ATOM     16  C   UNL A   1      33.426  24.822  23.870  1.00  0.00     0.061 A 
ATOM     17  C   UNL A   1      33.847  25.877  23.056  1.00  0.00     0.136 A 
ATOM     18  N   UNL A   1      32.777  23.975  22.977  1.00  0.00    -0.330 N 
ATOM     19  N   UNL A   1      33.496  25.716  21.756  1.00  0.00    -0.245 NA
ATOM     20  C   UNL A   1      32.891  24.559  21.729  1.00  0.00     0.199 A 
BRANCH  18  21
ATOM     21  C   UNL A   1      32.004  22.738  23.037  1.00  0.00     0.088 C 
ATOM     22  C   UNL A   1      32.098  21.503  22.186  1.00  0.00     0.027 C 
ATOM     23  C   UNL A   1      32.483  21.422  23.616  1.00  0.00     0.027 C 
ENDBRANCH  18  21
ENDBRANCH  10  16
ENDBRANCH   4   7
ENDBRANCH   2   3
ENDBRANCH   1   2
BRANCH   1  24
ATOM     24  C   UNL A   1      31.776  30.291  27.053  1.00  0.00     0.023 C 
BRANCH  24  25
ATOM     25  C   UNL A   1      32.831  31.387  26.893  1.00  0.00     0.116 C 
BRANCH  25  26
ATOM     26  N   UNL A   1      32.377  32.713  27.293  1.00  0.00    -0.352 N 
ATOM     27  C   UNL A   1      33.019  33.642  28.078  1.00  0.00     0.251 C 
ATOM     28  H   UNL A   1      31.492  32.978  26.956  1.00  0.00     0.163 HD
ATOM     29  O   UNL A   1      32.467  34.703  28.358  1.00  0.00    -0.269 OA
BRANCH  27  30
ATOM     30  C   UNL A   1      34.358  33.332  28.624  1.00  0.00     0.039 A 
ATOM     31  C   UNL A   1      34.448  32.643  29.836  1.00  0.00     0.014 A 
ATOM     32  C   UNL A   1      35.513  33.660  27.911  1.00  0.00     0.014 A 
ATOM     33  C   UNL A   1      35.694  32.203  30.286  1.00  0.00     0.010 A 
ATOM     34  C   UNL A   1      36.743  33.151  28.321  1.00  0.00     0.010 A 
ATOM     35  C   UNL A   1      36.847  32.410  29.509  1.00  0.00    -0.014 A 
BRANCH  35  36
ATOM     36  C   UNL A   1      38.155  31.835  29.915  1.00  0.00     0.031 A 
ATOM     37  C   UNL A   1      39.060  32.581  30.857  1.00  0.00     0.074 A 
ATOM     38  C   UNL A   1      38.560  30.661  29.389  1.00  0.00     0.049 A 
ATOM     39  N   UNL A   1      40.232  32.231  31.324  1.00  0.00    -0.248 NA
ATOM     40  C   UNL A   1      38.601  33.902  31.316  1.00  0.00     0.031 C 
ATOM     41  C   UNL A   1      37.813  29.865  28.412  1.00  0.00     0.029 A 
ATOM     42  N   UNL A   1      39.704  29.932  29.603  1.00  0.00    -0.354 N 
ATOM     43  C   UNL A   1      40.656  33.293  32.113  1.00  0.00     0.074 A 
ATOM     44  C   UNL A   1      39.642  34.319  32.021  1.00  0.00     0.031 C 
ATOM     45  C   UNL A   1      38.498  28.743  28.143  1.00  0.00     0.029 A 
ATOM     46  C   UNL A   1      39.745  28.752  28.901  1.00  0.00     0.049 A 
ATOM     47  H   UNL A   1      40.426  30.228  30.203  1.00  0.00     0.167 HD
ATOM     48  C   UNL A   1      41.777  33.397  32.866  1.00  0.00     0.031 A 
ATOM     49  C   UNL A   1      40.676  27.780  28.875  1.00  0.00     0.031 A 
ATOM     50  C   UNL A   1      42.783  32.374  32.972  1.00  0.00     0.049 A 
ATOM     51  C   UNL A   1      41.900  27.907  29.739  1.00  0.00     0.074 A 
ATOM     52  C   UNL A   1      43.919  32.362  33.762  1.00  0.00     0.029 A 
ATOM     53  N   UNL A   1      42.773  31.182  32.264  1.00  0.00    -0.354 N 
ATOM     54  N   UNL A   1      42.241  28.879  30.549  1.00  0.00    -0.248 NA
ATOM     55  C   UNL A   1      42.857  26.793  29.695  1.00  0.00     0.031 C 
ATOM     56  C   UNL A   1      44.621  31.180  33.501  1.00  0.00     0.029 A 
ATOM     57  C   UNL A   1      43.893  30.435  32.586  1.00  0.00     0.049 A 
ATOM     58  H   UNL A   1      42.074  30.909  31.629  1.00  0.00     0.167 HD
ATOM     59  C   UNL A   1      43.434  28.478  31.138  1.00  0.00     0.074 A 
ATOM     60  C   UNL A   1      43.751  27.173  30.599  1.00  0.00     0.031 C 
ATOM     61  C   UNL A   1      44.195  29.135  32.046  1.00  0.00     0.031 A 
BRANCH  48  62
ATOM     62  C   UNL A   1      41.971  34.672  33.638  1.00  0.00    -0.014 A 
ATOM     63  C   UNL A   1      42.688  35.750  33.093  1.00  0.00     0.009 A 
ATOM     64  C   UNL A   1      41.407  34.810  34.916  1.00  0.00     0.009 A 
ATOM     65  C   UNL A   1      42.872  36.922  33.829  1.00  0.00     0.001 A 
ATOM     66  C   UNL A   1      41.567  35.994  35.637  1.00  0.00     0.001 A 
ATOM     67  C   UNL A   1      42.306  37.046  35.097  1.00  0.00     0.000 A 
ENDBRANCH  48  62
BRANCH  49  68
ATOM     68  C   UNL A   1      40.467  26.574  28.033  1.00  0.00    -0.014 A 
ATOM     69  C   UNL A   1      39.717  25.491  28.518  1.00  0.00     0.009 A 
ATOM     70  C   UNL A   1      41.016  26.496  26.744  1.00  0.00     0.009 A 
ATOM     71  C   UNL A   1      39.540  24.346  27.738  1.00  0.00     0.001 A 
ATOM     72  C   UNL A   1      40.816  25.360  25.957  1.00  0.00     0.001 A 
ATOM     73  C   UNL A   1      40.087  24.283  26.457  1.00  0.00     0.000 A 
ENDBRANCH  49  68
BRANCH  61  74
ATOM     74  C   UNL A   1      45.426  28.434  32.547  1.00  0.00    -0.014 A 
ATOM     75  C   UNL A   1      45.379  27.581  33.660  1.00  0.00     0.009 A 
ATOM     76  C   UNL A   1      46.644  28.603  31.869  1.00  0.00     0.009 A 
ATOM     77  C   UNL A   1      46.537  26.938  34.105  1.00  0.00     0.001 A 
ATOM     78  C   UNL A   1      47.793  27.938  32.299  1.00  0.00     0.001 A 
ATOM     79  C   UNL A   1      47.740  27.113  33.421  1.00  0.00     0.000 A 
ENDBRANCH  61  74
ENDBRANCH  35  36
ENDBRANCH  27  30
ENDBRANCH  25  26
ENDBRANCH  24  25
ENDBRANCH   1  24
TORSDOF 15
ENDMDL
MODEL 3
REMARK VINA RESULT:     -10.5      0.479      5.909
REMARK SMILES CCCN1C(=O)C[C@H](C(=O)NCCCCNC(=O)c2ccc(-c3c4nc(c(-c5ccccc5)c5ccc([nH]5)c(-c5ccccc5)c5nc(c(-c6ccccc6)c6ccc3[nH]6)C=C5)C=C4)cc2)[C@@H]1c1cncn1C1CC1
REMARK SMILES IDX 13 1 12 2 11 3 9 4 10 5 8 7 4 8 5 9 67 10 6 11 7 12 3 13
REMARK SMILES IDX 2 14 1 15 68 16 69 17 72 18 70 19 71 20 73 21 74 22 75 23
REMARK SMILES IDX 14 24 15 25 16 26 17 27 18 29 19 30 20 31 66 32 21 33 65 34
REMARK SMILES IDX 22 35 23 36 24 37 59 38 25 39 64 40 58 41 60 42 26 43 63 44
REMARK SMILES IDX 57 45 56 46 27 48 49 49 34 50 48 51 35 52 38 53 47 54 61 55
REMARK SMILES IDX 36 56 37 57 46 59 62 60 39 61 28 62 29 63 33 64 30 65 32 66
REMARK SMILES IDX 31 67 50 68 51 69 55 70 52 71 54 72 53 73 40 74 41 75 45 76
REMARK SMILES IDX 42 77 44 78 43 79
REMARK H PARENT 11 6 16 28 60 47 38 58
REMARK Flexibility Score: inf
ROOT
ATOM      1  C   UNL A   1      36.132  22.042  24.724  1.00  0.00     0.023 C 
ENDROOT
BRANCH   1   2
ATOM      2  C   UNL A   1      35.779  22.924  23.541  1.00  0.00     0.116 C 
BRANCH   2   3
ATOM      3  N   UNL A   1      34.389  22.943  23.176  1.00  0.00    -0.356 N 
ATOM      4  C   UNL A   1      33.580  24.024  23.014  1.00  0.00     0.226 C 
ATOM      5  O   UNL A   1      32.532  23.839  22.385  1.00  0.00    -0.275 OA
ATOM      6  H   UNL A   1      33.970  22.065  23.025  1.00  0.00     0.163 HD
BRANCH   4   7
ATOM      7  C   UNL A   1      33.878  25.412  23.569  1.00  0.00     0.116 C 
ATOM      8  N   UNL A   1      33.525  27.257  24.974  1.00  0.00    -0.333 N 
ATOM      9  C   UNL A   1      33.662  27.760  23.677  1.00  0.00     0.224 C 
ATOM     10  C   UNL A   1      33.397  25.822  24.961  1.00  0.00     0.146 C 
ATOM     11  O   UNL A   1      33.826  28.931  23.372  1.00  0.00    -0.275 OA
ATOM     12  C   UNL A   1      33.617  26.620  22.684  1.00  0.00     0.116 C 
BRANCH   8  13
ATOM     13  C   UNL A   1      34.067  27.985  26.127  1.00  0.00     0.120 C 
BRANCH  13  14
ATOM     14  C   UNL A   1      33.104  28.343  27.259  1.00  0.00     0.018 C 
ATOM     15  C   UNL A   1      32.120  29.458  26.937  1.00  0.00     0.006 C 
ENDBRANCH  13  14
ENDBRANCH   8  13
BRANCH  10  16
ATOM     16  C   UNL A   1      32.110  25.271  25.480  1.00  0.00     0.061 A 
ATOM     17  C   UNL A   1      32.078  24.518  26.657  1.00  0.00     0.136 A 
ATOM     18  N   UNL A   1      30.768  25.348  25.119  1.00  0.00    -0.330 N 
ATOM     19  N   UNL A   1      30.824  24.146  27.015  1.00  0.00    -0.245 NA
ATOM     20  C   UNL A   1      30.059  24.682  26.102  1.00  0.00     0.199 A 
BRANCH  18  21
ATOM     21  C   UNL A   1      29.984  25.865  24.002  1.00  0.00     0.088 C 
ATOM     22  C   UNL A   1      28.583  26.411  23.982  1.00  0.00     0.027 C 
ATOM     23  C   UNL A   1      29.716  27.329  23.712  1.00  0.00     0.027 C 
ENDBRANCH  18  21
ENDBRANCH  10  16
ENDBRANCH   4   7
ENDBRANCH   2   3
ENDBRANCH   1   2
BRANCH   1  24
ATOM     24  C   UNL A   1      37.356  21.155  24.506  1.00  0.00     0.023 C 
BRANCH  24  25
ATOM     25  C   UNL A   1      38.343  21.072  25.671  1.00  0.00     0.116 C 
BRANCH  25  26
ATOM     26  N   UNL A   1      39.300  19.979  25.565  1.00  0.00    -0.352 N 
ATOM     27  C   UNL A   1      40.620  19.949  25.950  1.00  0.00     0.251 C 
ATOM     28  H   UNL A   1      38.954  19.150  25.164  1.00  0.00     0.163 HD
ATOM     29  O   UNL A   1      41.304  18.950  25.742  1.00  0.00    -0.269 OA
BRANCH  27  30
ATOM     30  C   UNL A   1      41.224  21.149  26.568  1.00  0.00     0.039 A 
ATOM     31  C   UNL A   1      41.790  22.122  25.741  1.00  0.00     0.014 A 
ATOM     32  C   UNL A   1      41.171  21.343  27.950  1.00  0.00     0.014 A 
ATOM     33  C   UNL A   1      42.220  23.330  26.292  1.00  0.00     0.010 A 
ATOM     34  C   UNL A   1      41.527  22.578  28.486  1.00  0.00     0.010 A 
ATOM     35  C   UNL A   1      42.047  23.589  27.663  1.00  0.00    -0.014 A 
BRANCH  35  36
ATOM     36  C   UNL A   1      42.383  24.918  28.237  1.00  0.00     0.031 A 
ATOM     37  C   UNL A   1      43.786  25.229  28.677  1.00  0.00     0.074 A 
ATOM     38  C   UNL A   1      41.408  25.831  28.418  1.00  0.00     0.049 A 
ATOM     39  N   UNL A   1      44.262  26.334  29.195  1.00  0.00    -0.248 NA
ATOM     40  C   UNL A   1      44.781  24.152  28.544  1.00  0.00     0.031 C 
ATOM     41  C   UNL A   1      39.991  25.637  28.098  1.00  0.00     0.029 A 
ATOM     42  N   UNL A   1      41.461  27.109  28.916  1.00  0.00    -0.354 N 
ATOM     43  C   UNL A   1      45.600  26.080  29.464  1.00  0.00     0.074 A 
ATOM     44  C   UNL A   1      45.850  24.702  29.102  1.00  0.00     0.031 C 
ATOM     45  C   UNL A   1      39.319  26.767  28.371  1.00  0.00     0.029 A 
ATOM     46  C   UNL A   1      40.248  27.754  28.913  1.00  0.00     0.049 A 
ATOM     47  H   UNL A   1      42.291  27.525  29.245  1.00  0.00     0.167 HD
ATOM     48  C   UNL A   1      46.546  26.921  29.946  1.00  0.00     0.031 A 
ATOM     49  C   UNL A   1      39.917  29.002  29.295  1.00  0.00     0.031 A 
ATOM     50  C   UNL A   1      46.307  28.296  30.294  1.00  0.00     0.049 A 
ATOM     51  C   UNL A   1      40.988  29.926  29.803  1.00  0.00     0.074 A 
ATOM     52  C   UNL A   1      47.216  29.246  30.728  1.00  0.00     0.029 A 
ATOM     53  N   UNL A   1      45.069  28.917  30.251  1.00  0.00    -0.354 N 
ATOM     54  N   UNL A   1      42.268  29.696  29.966  1.00  0.00    -0.248 NA
ATOM     55  C   UNL A   1      40.569  31.288  30.164  1.00  0.00     0.031 C 
ATOM     56  C   UNL A   1      46.520  30.431  30.988  1.00  0.00     0.029 A 
ATOM     57  C   UNL A   1      45.187  30.233  30.668  1.00  0.00     0.049 A 
ATOM     58  H   UNL A   1      44.231  28.487  29.968  1.00  0.00     0.167 HD
ATOM     59  C   UNL A   1      42.813  30.893  30.414  1.00  0.00     0.074 A 
ATOM     60  C   UNL A   1      41.727  31.847  30.489  1.00  0.00     0.031 C 
ATOM     61  C   UNL A   1      44.099  31.174  30.733  1.00  0.00     0.031 A 
BRANCH  48  62
ATOM     62  C   UNL A   1      47.933  26.370  30.124  1.00  0.00    -0.014 A 
ATOM     63  C   UNL A   1      48.330  25.779  31.334  1.00  0.00     0.009 A 
ATOM     64  C   UNL A   1      48.846  26.416  29.059  1.00  0.00     0.009 A 
ATOM     65  C   UNL A   1      49.626  25.284  31.489  1.00  0.00     0.001 A 
ATOM     66  C   UNL A   1      50.132  25.893  29.207  1.00  0.00     0.001 A 
ATOM     67  C   UNL A   1      50.524  25.336  30.423  1.00  0.00     0.000 A 
ENDBRANCH  48  62
BRANCH  49  68
ATOM     68  C   UNL A   1      38.513  29.470  29.167  1.00  0.00    -0.014 A 
ATOM     69  C   UNL A   1      38.058  30.033  27.965  1.00  0.00     0.009 A 
ATOM     70  C   UNL A   1      37.620  29.359  30.245  1.00  0.00     0.009 A 
ATOM     71  C   UNL A   1      36.746  30.498  27.851  1.00  0.00     0.001 A 
ATOM     72  C   UNL A   1      36.302  29.801  30.120  1.00  0.00     0.001 A 
ATOM     73  C   UNL A   1      35.868  30.378  28.927  1.00  0.00     0.000 A 
ENDBRANCH  49  68
BRANCH  61  74
ATOM     74  C   UNL A   1      44.412  32.582  31.152  1.00  0.00    -0.014 A 
ATOM     75  C   UNL A   1      44.750  33.567  30.211  1.00  0.00     0.009 A 
ATOM     76  C   UNL A   1      44.331  32.935  32.509  1.00  0.00     0.009 A 
ATOM     77  C   UNL A   1      45.033  34.870  30.626  1.00  0.00     0.001 A 
ATOM     78  C   UNL A   1      44.588  34.245  32.916  1.00  0.00     0.001 A 
ATOM     79  C   UNL A   1      44.948  35.208  31.976  1.00  0.00     0.000 A 
ENDBRANCH  61  74
ENDBRANCH  35  36
ENDBRANCH  27  30
ENDBRANCH  25  26
ENDBRANCH  24  25
ENDBRANCH   1  24
TORSDOF 15
ENDMDL
