MODEL 1
REMARK VINA RESULT:     -10.5      0.000      0.000
REMARK SMILES CCC[NH2+][C@]1(C(=O)NCCCCNC(=O)c2ccc(-c3c4nc(c(-c5ccccc5)c5ccc([nH]5)c(-c5ccccc5)c5nc(c(-c6ccccc6)c6ccc3[nH]6)C=C5)C=C4)cc2)CC[C@@H](Sc2nnc(C)n2C)C1
REMARK SMILES IDX 10 1 9 2 8 3 6 4 7 5 5 7 64 8 75 9 65 10 66 11 4 12 3 15
REMARK SMILES IDX 2 16 1 17 67 18 68 19 69 20 73 21 70 22 71 23 74 24 72 25
REMARK SMILES IDX 11 26 12 27 13 28 14 29 15 31 16 32 17 33 63 34 18 35 62 36
REMARK SMILES IDX 19 37 20 38 21 39 56 40 22 41 61 42 55 43 57 44 23 45 60 46
REMARK SMILES IDX 54 47 53 48 24 50 46 51 31 52 45 53 32 54 35 55 44 56 58 57
REMARK SMILES IDX 33 58 34 59 43 61 59 62 36 63 25 64 26 65 30 66 27 67 29 68
REMARK SMILES IDX 28 69 47 70 48 71 52 72 49 73 51 74 50 75 37 76 38 77 42 78
REMARK SMILES IDX 39 79 41 80 40 81
REMARK H PARENT 8 6 4 13 4 14 13 30 57 49 35 60
REMARK Flexibility Score: inf
ROOT
ATOM      1  C   UNL A   1      32.449  29.798  27.230  1.00  0.00     0.023 C 
ENDROOT
BRANCH   1   2
ATOM      2  C   UNL A   1      33.822  29.259  26.852  1.00  0.00     0.116 C 
BRANCH   2   3
ATOM      3  N   UNL A   1      33.928  29.255  25.409  1.00  0.00    -0.351 N 
ATOM      4  C   UNL A   1      33.741  28.276  24.479  1.00  0.00     0.281 C 
ATOM      5  O   UNL A   1      34.219  28.528  23.366  1.00  0.00    -0.268 OA
ATOM      6  H   UNL A   1      34.184  30.125  25.025  1.00  0.00     0.163 HD
BRANCH   4   7
ATOM      7  C   UNL A   1      32.877  26.988  24.727  1.00  0.00     0.176 C 
ATOM      8  C   UNL A   1      33.057  26.115  23.453  1.00  0.00     0.080 C 
ATOM      9  C   UNL A   1      33.334  25.993  25.812  1.00  0.00     0.094 C 
ATOM     10  C   UNL A   1      32.675  24.693  23.826  1.00  0.00     0.022 C 
ATOM     11  C   UNL A   1      33.029  24.570  25.301  1.00  0.00     0.062 C 
BRANCH   7  12
ATOM     12  N   UNL A   1      31.436  27.345  24.869  1.00  0.00    -0.334 N 
ATOM     13  H   UNL A   1      30.899  26.480  24.925  1.00  0.00     0.347 HD
ATOM     14  H   UNL A   1      31.364  27.920  25.707  1.00  0.00     0.347 HD
BRANCH  12  15
ATOM     15  C   UNL A   1      30.889  28.148  23.772  1.00  0.00     0.261 C 
BRANCH  15  16
ATOM     16  C   UNL A   1      29.489  27.711  23.334  1.00  0.00     0.058 C 
ATOM     17  C   UNL A   1      29.031  26.412  23.972  1.00  0.00     0.010 C 
ENDBRANCH  15  16
ENDBRANCH  12  15
ENDBRANCH   7  12
BRANCH  11  18
ATOM     18  S   UNL A   1      34.288  23.319  25.746  1.00  0.00    -0.082 SA
BRANCH  18  19
ATOM     19  C   UNL A   1      33.602  21.780  25.351  1.00  0.00     0.191 A 
ATOM     20  N   UNL A   1      32.326  21.469  25.368  1.00  0.00    -0.123 NA
ATOM     21  N   UNL A   1      34.328  20.649  25.123  1.00  0.00    -0.309 N 
ATOM     22  N   UNL A   1      32.213  20.126  25.058  1.00  0.00    -0.135 NA
ATOM     23  C   UNL A   1      33.425  19.646  24.872  1.00  0.00     0.130 A 
ATOM     24  C   UNL A   1      35.746  20.524  24.962  1.00  0.00     0.154 C 
ATOM     25  C   UNL A   1      33.805  18.285  24.419  1.00  0.00     0.090 C 
ENDBRANCH  18  19
ENDBRANCH  11  18
ENDBRANCH   4   7
ENDBRANCH   2   3
ENDBRANCH   1   2
BRANCH   1  26
ATOM     26  C   UNL A   1      32.169  31.239  26.858  1.00  0.00     0.023 C 
BRANCH  26  27
ATOM     27  C   UNL A   1      33.205  32.212  27.377  1.00  0.00     0.116 C 
BRANCH  27  28
ATOM     28  N   UNL A   1      32.685  33.547  27.664  1.00  0.00    -0.352 N 
ATOM     29  C   UNL A   1      33.214  34.511  28.504  1.00  0.00     0.251 C 
ATOM     30  H   UNL A   1      31.853  33.793  27.200  1.00  0.00     0.163 HD
ATOM     31  O   UNL A   1      32.639  35.564  28.697  1.00  0.00    -0.269 OA
BRANCH  29  32
ATOM     32  C   UNL A   1      34.474  34.187  29.209  1.00  0.00     0.039 A 
ATOM     33  C   UNL A   1      34.422  33.449  30.391  1.00  0.00     0.014 A 
ATOM     34  C   UNL A   1      35.690  34.453  28.584  1.00  0.00     0.014 A 
ATOM     35  C   UNL A   1      35.594  32.866  30.878  1.00  0.00     0.010 A 
ATOM     36  C   UNL A   1      36.814  33.748  28.981  1.00  0.00     0.010 A 
ATOM     37  C   UNL A   1      36.786  32.951  30.136  1.00  0.00    -0.014 A 
BRANCH  37  38
ATOM     38  C   UNL A   1      38.023  32.235  30.542  1.00  0.00     0.031 A 
ATOM     39  C   UNL A   1      38.906  32.833  31.607  1.00  0.00     0.074 A 
ATOM     40  C   UNL A   1      38.411  31.119  29.894  1.00  0.00     0.049 A 
ATOM     41  N   UNL A   1      40.091  32.452  32.010  1.00  0.00    -0.248 NA
ATOM     42  C   UNL A   1      38.420  34.062  32.261  1.00  0.00     0.031 C 
ATOM     43  C   UNL A   1      37.699  30.475  28.786  1.00  0.00     0.029 A 
ATOM     44  N   UNL A   1      39.513  30.322  30.079  1.00  0.00    -0.354 N 
ATOM     45  C   UNL A   1      40.507  33.424  32.911  1.00  0.00     0.074 A 
ATOM     46  C   UNL A   1      39.487  34.445  32.942  1.00  0.00     0.031 C 
ATOM     47  C   UNL A   1      38.351  29.357  28.431  1.00  0.00     0.029 A 
ATOM     48  C   UNL A   1      39.547  29.222  29.254  1.00  0.00     0.049 A 
ATOM     49  H   UNL A   1      40.216  30.519  30.740  1.00  0.00     0.167 HD
ATOM     50  C   UNL A   1      41.620  33.450  33.681  1.00  0.00     0.031 A 
ATOM     51  C   UNL A   1      40.437  28.215  29.181  1.00  0.00     0.031 A 
ATOM     52  C   UNL A   1      42.592  32.394  33.717  1.00  0.00     0.049 A 
ATOM     53  C   UNL A   1      41.618  28.214  30.111  1.00  0.00     0.074 A 
ATOM     54  C   UNL A   1      43.704  32.271  34.529  1.00  0.00     0.029 A 
ATOM     55  N   UNL A   1      42.546  31.262  32.918  1.00  0.00    -0.354 N 
ATOM     56  N   UNL A   1      41.963  29.107  31.007  1.00  0.00    -0.248 NA
ATOM     57  C   UNL A   1      42.522  27.058  30.030  1.00  0.00     0.031 C 
ATOM     58  C   UNL A   1      44.345  31.070  34.207  1.00  0.00     0.029 A 
ATOM     59  C   UNL A   1      43.611  30.433  33.218  1.00  0.00     0.049 A 
ATOM     60  H   UNL A   1      41.859  31.078  32.237  1.00  0.00     0.167 HD
ATOM     61  C   UNL A   1      43.106  28.608  31.616  1.00  0.00     0.074 A 
ATOM     62  C   UNL A   1      43.388  27.328  30.997  1.00  0.00     0.031 C 
ATOM     63  C   UNL A   1      43.859  29.159  32.598  1.00  0.00     0.031 A 
BRANCH  50  64
ATOM     64  C   UNL A   1      41.817  34.652  34.561  1.00  0.00    -0.014 A 
ATOM     65  C   UNL A   1      41.244  34.716  35.842  1.00  0.00     0.009 A 
ATOM     66  C   UNL A   1      42.577  35.737  34.102  1.00  0.00     0.009 A 
ATOM     67  C   UNL A   1      41.381  35.865  36.623  1.00  0.00     0.001 A 
ATOM     68  C   UNL A   1      42.741  36.872  34.899  1.00  0.00     0.001 A 
ATOM     69  C   UNL A   1      42.133  36.941  36.151  1.00  0.00     0.000 A 
ENDBRANCH  50  64
BRANCH  51  70
ATOM     70  C   UNL A   1      40.219  27.089  28.234  1.00  0.00    -0.014 A 
ATOM     71  C   UNL A   1      39.444  25.984  28.621  1.00  0.00     0.009 A 
ATOM     72  C   UNL A   1      40.786  27.105  26.951  1.00  0.00     0.009 A 
ATOM     73  C   UNL A   1      39.266  24.904  27.753  1.00  0.00     0.001 A 
ATOM     74  C   UNL A   1      40.585  26.034  26.076  1.00  0.00     0.001 A 
ATOM     75  C   UNL A   1      39.834  24.930  26.481  1.00  0.00     0.000 A 
ENDBRANCH  51  70
BRANCH  63  76
ATOM     76  C   UNL A   1      45.033  28.365  33.091  1.00  0.00    -0.014 A 
ATOM     77  C   UNL A   1      46.313  28.548  32.549  1.00  0.00     0.009 A 
ATOM     78  C   UNL A   1      44.859  27.457  34.147  1.00  0.00     0.009 A 
ATOM     79  C   UNL A   1      47.395  27.815  33.039  1.00  0.00     0.001 A 
ATOM     80  C   UNL A   1      45.947  26.744  34.650  1.00  0.00     0.001 A 
ATOM     81  C   UNL A   1      47.211  26.918  34.091  1.00  0.00     0.000 A 
ENDBRANCH  63  76
ENDBRANCH  37  38
ENDBRANCH  29  32
ENDBRANCH  27  28
ENDBRANCH  26  27
ENDBRANCH   1  26
TORSDOF 16
ENDMDL
MODEL 2
REMARK VINA RESULT:     -10.4      3.621      9.117
REMARK SMILES CCC[NH2+][C@]1(C(=O)NCCCCNC(=O)c2ccc(-c3c4nc(c(-c5ccccc5)c5ccc([nH]5)c(-c5ccccc5)c5nc(c(-c6ccccc6)c6ccc3[nH]6)C=C5)C=C4)cc2)CC[C@@H](Sc2nnc(C)n2C)C1
REMARK SMILES IDX 10 1 9 2 8 3 6 4 7 5 5 7 64 8 75 9 65 10 66 11 4 12 3 15
REMARK SMILES IDX 2 16 1 17 67 18 68 19 69 20 73 21 70 22 71 23 74 24 72 25
REMARK SMILES IDX 11 26 12 27 13 28 14 29 15 31 16 32 17 33 63 34 18 35 62 36
REMARK SMILES IDX 19 37 20 38 21 39 56 40 22 41 61 42 55 43 57 44 23 45 60 46
REMARK SMILES IDX 54 47 53 48 24 50 46 51 31 52 45 53 32 54 35 55 44 56 58 57
REMARK SMILES IDX 33 58 34 59 43 61 59 62 36 63 25 64 26 65 30 66 27 67 29 68
REMARK SMILES IDX 28 69 47 70 48 71 52 72 49 73 51 74 50 75 37 76 38 77 42 78
REMARK SMILES IDX 39 79 41 80 40 81
REMARK H PARENT 8 6 4 13 4 14 13 30 57 49 35 60
REMARK Flexibility Score: inf
ROOT
ATOM      1  C   UNL A   1      36.946  21.923  25.366  1.00  0.00     0.023 C 
ENDROOT
BRANCH   1   2
ATOM      2  C   UNL A   1      35.630  21.168  25.486  1.00  0.00     0.116 C 
BRANCH   2   3
ATOM      3  N   UNL A   1      35.015  21.521  26.747  1.00  0.00    -0.351 N 
ATOM      4  C   UNL A   1      33.813  22.084  27.055  1.00  0.00     0.281 C 
ATOM      5  O   UNL A   1      33.736  22.536  28.204  1.00  0.00    -0.268 OA
ATOM      6  H   UNL A   1      35.571  21.315  27.534  1.00  0.00     0.163 HD
BRANCH   4   7
ATOM      7  C   UNL A   1      32.564  22.054  26.103  1.00  0.00     0.176 C 
ATOM      8  C   UNL A   1      31.405  22.697  26.916  1.00  0.00     0.080 C 
ATOM      9  C   UNL A   1      32.567  22.963  24.857  1.00  0.00     0.094 C 
ATOM     10  C   UNL A   1      30.350  23.143  25.918  1.00  0.00     0.022 C 
ATOM     11  C   UNL A   1      31.129  23.486  24.656  1.00  0.00     0.062 C 
BRANCH   7  12
ATOM     12  N   UNL A   1      32.197  20.648  25.766  1.00  0.00    -0.334 N 
ATOM     13  H   UNL A   1      32.741  20.026  26.363  1.00  0.00     0.347 HD
ATOM     14  H   UNL A   1      31.191  20.572  25.913  1.00  0.00     0.347 HD
BRANCH  12  15
ATOM     15  C   UNL A   1      32.438  20.266  24.372  1.00  0.00     0.261 C 
BRANCH  15  16
ATOM     16  C   UNL A   1      32.662  18.764  24.181  1.00  0.00     0.058 C 
ATOM     17  C   UNL A   1      32.865  18.009  25.483  1.00  0.00     0.010 C 
ENDBRANCH  15  16
ENDBRANCH  12  15
ENDBRANCH   7  12
BRANCH  11  18
ATOM     18  S   UNL A   1      31.028  25.216  24.069  1.00  0.00    -0.082 SA
BRANCH  18  19
ATOM     19  C   UNL A   1      31.430  26.212  25.427  1.00  0.00     0.191 A 
ATOM     20  N   UNL A   1      30.688  26.416  26.490  1.00  0.00    -0.123 NA
ATOM     21  N   UNL A   1      32.516  27.036  25.482  1.00  0.00    -0.309 N 
ATOM     22  N   UNL A   1      31.343  27.327  27.297  1.00  0.00    -0.135 NA
ATOM     23  C   UNL A   1      32.467  27.667  26.700  1.00  0.00     0.130 A 
ATOM     24  C   UNL A   1      33.618  27.111  24.572  1.00  0.00     0.154 C 
ATOM     25  C   UNL A   1      33.550  28.535  27.226  1.00  0.00     0.090 C 
ENDBRANCH  18  19
ENDBRANCH  11  18
ENDBRANCH   4   7
ENDBRANCH   2   3
ENDBRANCH   1   2
BRANCH   1  26
ATOM     26  C   UNL A   1      38.157  21.101  24.978  1.00  0.00     0.023 C 
BRANCH  26  27
ATOM     27  C   UNL A   1      39.137  20.892  26.112  1.00  0.00     0.116 C 
BRANCH  27  28
ATOM     28  N   UNL A   1      39.993  19.718  25.958  1.00  0.00    -0.352 N 
ATOM     29  C   UNL A   1      41.361  19.624  26.144  1.00  0.00     0.251 C 
ATOM     30  H   UNL A   1      39.539  18.888  25.687  1.00  0.00     0.163 HD
ATOM     31  O   UNL A   1      41.959  18.590  25.919  1.00  0.00    -0.269 OA
BRANCH  29  32
ATOM     32  C   UNL A   1      42.080  20.846  26.566  1.00  0.00     0.039 A 
ATOM     33  C   UNL A   1      42.411  21.806  25.610  1.00  0.00     0.014 A 
ATOM     34  C   UNL A   1      42.237  21.107  27.925  1.00  0.00     0.014 A 
ATOM     35  C   UNL A   1      42.785  23.083  26.032  1.00  0.00     0.010 A 
ATOM     36  C   UNL A   1      42.454  22.411  28.335  1.00  0.00     0.010 A 
ATOM     37  C   UNL A   1      42.739  23.417  27.397  1.00  0.00    -0.014 A 
BRANCH  37  38
ATOM     38  C   UNL A   1      42.994  24.797  27.883  1.00  0.00     0.031 A 
ATOM     39  C   UNL A   1      44.413  25.242  28.129  1.00  0.00     0.074 A 
ATOM     40  C   UNL A   1      41.968  25.611  28.203  1.00  0.00     0.049 A 
ATOM     41  N   UNL A   1      44.851  26.345  28.680  1.00  0.00    -0.248 NA
ATOM     42  C   UNL A   1      45.480  24.292  27.765  1.00  0.00     0.031 C 
ATOM     43  C   UNL A   1      40.544  25.282  28.097  1.00  0.00     0.029 A 
ATOM     44  N   UNL A   1      41.970  26.895  28.688  1.00  0.00    -0.354 N 
ATOM     45  C   UNL A   1      46.227  26.188  28.781  1.00  0.00     0.074 A 
ATOM     46  C   UNL A   1      46.544  24.863  28.305  1.00  0.00     0.031 C 
ATOM     47  C   UNL A   1      39.814  26.352  28.450  1.00  0.00     0.029 A 
ATOM     48  C   UNL A   1      40.713  27.430  28.845  1.00  0.00     0.049 A 
ATOM     49  H   UNL A   1      42.794  27.388  28.904  1.00  0.00     0.167 HD
ATOM     50  C   UNL A   1      47.157  27.081  29.194  1.00  0.00     0.031 A 
ATOM     51  C   UNL A   1      40.333  28.655  29.252  1.00  0.00     0.031 A 
ATOM     52  C   UNL A   1      46.853  28.429  29.585  1.00  0.00     0.049 A 
ATOM     53  C   UNL A   1      41.386  29.664  29.616  1.00  0.00     0.074 A 
ATOM     54  C   UNL A   1      47.725  29.446  29.926  1.00  0.00     0.029 A 
ATOM     55  N   UNL A   1      45.572  28.951  29.658  1.00  0.00    -0.354 N 
ATOM     56  N   UNL A   1      42.689  29.524  29.642  1.00  0.00    -0.248 NA
ATOM     57  C   UNL A   1      40.915  31.005  29.991  1.00  0.00     0.031 C 
ATOM     58  C   UNL A   1      46.967  30.583  30.227  1.00  0.00     0.029 A 
ATOM     59  C   UNL A   1      45.628  30.279  30.038  1.00  0.00     0.049 A 
ATOM     60  H   UNL A   1      44.745  28.451  29.468  1.00  0.00     0.167 HD
ATOM     61  C   UNL A   1      43.195  30.764  30.007  1.00  0.00     0.074 A 
ATOM     62  C   UNL A   1      42.060  31.647  30.179  1.00  0.00     0.031 C 
ATOM     63  C   UNL A   1      44.484  31.140  30.187  1.00  0.00     0.031 A 
BRANCH  50  64
ATOM     64  C   UNL A   1      48.588  26.623  29.211  1.00  0.00    -0.014 A 
ATOM     65  C   UNL A   1      49.139  26.001  30.345  1.00  0.00     0.009 A 
ATOM     66  C   UNL A   1      49.399  26.821  28.085  1.00  0.00     0.009 A 
ATOM     67  C   UNL A   1      50.486  25.639  30.369  1.00  0.00     0.001 A 
ATOM     68  C   UNL A   1      50.739  26.427  28.100  1.00  0.00     0.001 A 
ATOM     69  C   UNL A   1      51.284  25.850  29.245  1.00  0.00     0.000 A 
ENDBRANCH  50  64
BRANCH  51  70
ATOM     70  C   UNL A   1      38.892  29.022  29.280  1.00  0.00    -0.014 A 
ATOM     71  C   UNL A   1      38.264  29.498  28.118  1.00  0.00     0.009 A 
ATOM     72  C   UNL A   1      38.142  28.911  30.459  1.00  0.00     0.009 A 
ATOM     73  C   UNL A   1      36.921  29.882  28.143  1.00  0.00     0.001 A 
ATOM     74  C   UNL A   1      36.792  29.272  30.476  1.00  0.00     0.001 A 
ATOM     75  C   UNL A   1      36.185  29.767  29.322  1.00  0.00     0.000 A 
ENDBRANCH  51  70
BRANCH  63  76
ATOM     76  C   UNL A   1      44.737  32.573  30.551  1.00  0.00    -0.014 A 
ATOM     77  C   UNL A   1      44.876  33.558  29.564  1.00  0.00     0.009 A 
ATOM     78  C   UNL A   1      44.785  32.945  31.903  1.00  0.00     0.009 A 
ATOM     79  C   UNL A   1      45.087  34.890  29.925  1.00  0.00     0.001 A 
ATOM     80  C   UNL A   1      44.970  34.280  32.261  1.00  0.00     0.001 A 
ATOM     81  C   UNL A   1      45.129  35.250  31.272  1.00  0.00     0.000 A 
ENDBRANCH  63  76
ENDBRANCH  37  38
ENDBRANCH  29  32
ENDBRANCH  27  28
ENDBRANCH  26  27
ENDBRANCH   1  26
TORSDOF 16
ENDMDL
MODEL 3
REMARK VINA RESULT:     -10.4      1.477      1.867
REMARK SMILES CCC[NH2+][C@]1(C(=O)NCCCCNC(=O)c2ccc(-c3c4nc(c(-c5ccccc5)c5ccc([nH]5)c(-c5ccccc5)c5nc(c(-c6ccccc6)c6ccc3[nH]6)C=C5)C=C4)cc2)CC[C@@H](Sc2nnc(C)n2C)C1
REMARK SMILES IDX 10 1 9 2 8 3 6 4 7 5 5 7 64 8 75 9 65 10 66 11 4 12 3 15
REMARK SMILES IDX 2 16 1 17 67 18 68 19 69 20 73 21 70 22 71 23 74 24 72 25
REMARK SMILES IDX 11 26 12 27 13 28 14 29 15 31 16 32 17 33 63 34 18 35 62 36
REMARK SMILES IDX 19 37 20 38 21 39 56 40 22 41 61 42 55 43 57 44 23 45 60 46
REMARK SMILES IDX 54 47 53 48 24 50 46 51 31 52 45 53 32 54 35 55 44 56 58 57
REMARK SMILES IDX 33 58 34 59 43 61 59 62 36 63 25 64 26 65 30 66 27 67 29 68
REMARK SMILES IDX 28 69 47 70 48 71 52 72 49 73 51 74 50 75 37 76 38 77 42 78
REMARK SMILES IDX 39 79 41 80 40 81
REMARK H PARENT 8 6 4 13 4 14 13 30 57 49 35 60
REMARK Flexibility Score: inf
ROOT
ATOM      1  C   UNL A   1      32.137  29.321  26.963  1.00  0.00     0.023 C 
ENDROOT
BRANCH   1   2
ATOM      2  C   UNL A   1      32.947  28.263  26.227  1.00  0.00     0.116 C 
BRANCH   2   3
ATOM      3  N   UNL A   1      33.567  28.883  25.076  1.00  0.00    -0.351 N 
ATOM      4  C   UNL A   1      33.525  28.591  23.745  1.00  0.00     0.281 C 
ATOM      5  O   UNL A   1      34.417  29.126  23.074  1.00  0.00    -0.268 OA
ATOM      6  H   UNL A   1      34.125  29.664  25.295  1.00  0.00     0.163 HD
BRANCH   4   7
ATOM      7  C   UNL A   1      32.376  27.763  23.067  1.00  0.00     0.176 C 
ATOM      8  C   UNL A   1      33.034  27.062  21.845  1.00  0.00     0.080 C 
ATOM      9  C   UNL A   1      31.808  26.541  23.816  1.00  0.00     0.094 C 
ATOM     10  C   UNL A   1      32.138  25.896  21.461  1.00  0.00     0.022 C 
ATOM     11  C   UNL A   1      31.497  25.453  22.768  1.00  0.00     0.062 C 
BRANCH   7  12
ATOM     12  N   UNL A   1      31.295  28.670  22.580  1.00  0.00    -0.334 N 
ATOM     13  H   UNL A   1      31.709  29.581  22.385  1.00  0.00     0.347 HD
ATOM     14  H   UNL A   1      30.896  28.223  21.756  1.00  0.00     0.347 HD
BRANCH  12  15
ATOM     15  C   UNL A   1      30.187  28.866  23.519  1.00  0.00     0.261 C 
BRANCH  15  16
ATOM     16  C   UNL A   1      29.141  29.869  23.027  1.00  0.00     0.058 C 
ATOM     17  C   UNL A   1      29.173  31.193  23.770  1.00  0.00     0.010 C 
ENDBRANCH  15  16
ENDBRANCH  12  15
ENDBRANCH   7  12
BRANCH  11  18
ATOM     18  S   UNL A   1      31.849  23.745  23.322  1.00  0.00    -0.082 SA
BRANCH  18  19
ATOM     19  C   UNL A   1      33.571  23.616  23.429  1.00  0.00     0.191 A 
ATOM     20  N   UNL A   1      34.389  23.290  22.455  1.00  0.00    -0.123 NA
ATOM     21  N   UNL A   1      34.279  23.689  24.593  1.00  0.00    -0.309 N 
ATOM     22  N   UNL A   1      35.669  23.234  22.976  1.00  0.00    -0.135 NA
ATOM     23  C   UNL A   1      35.599  23.515  24.261  1.00  0.00     0.130 A 
ATOM     24  C   UNL A   1      33.811  24.071  25.891  1.00  0.00     0.154 C 
ATOM     25  C   UNL A   1      36.721  23.680  25.218  1.00  0.00     0.090 C 
ENDBRANCH  18  19
ENDBRANCH  11  18
ENDBRANCH   4   7
ENDBRANCH   2   3
ENDBRANCH   1   2
BRANCH   1  26
ATOM     26  C   UNL A   1      32.272  30.742  26.457  1.00  0.00     0.023 C 
BRANCH  26  27
ATOM     27  C   UNL A   1      33.143  31.617  27.331  1.00  0.00     0.116 C 
BRANCH  27  28
ATOM     28  N   UNL A   1      32.611  32.959  27.558  1.00  0.00    -0.352 N 
ATOM     29  C   UNL A   1      33.158  33.982  28.312  1.00  0.00     0.251 C 
ATOM     30  H   UNL A   1      31.754  33.161  27.120  1.00  0.00     0.163 HD
ATOM     31  O   UNL A   1      32.572  35.035  28.466  1.00  0.00    -0.269 OA
BRANCH  29  32
ATOM     32  C   UNL A   1      34.455  33.724  28.976  1.00  0.00     0.039 A 
ATOM     33  C   UNL A   1      34.480  32.978  30.154  1.00  0.00     0.014 A 
ATOM     34  C   UNL A   1      35.635  34.059  28.317  1.00  0.00     0.014 A 
ATOM     35  C   UNL A   1      35.696  32.458  30.602  1.00  0.00     0.010 A 
ATOM     36  C   UNL A   1      36.807  33.415  28.675  1.00  0.00     0.010 A 
ATOM     37  C   UNL A   1      36.858  32.612  29.826  1.00  0.00    -0.014 A 
BRANCH  37  38
ATOM     38  C   UNL A   1      38.144  31.963  30.189  1.00  0.00     0.031 A 
ATOM     39  C   UNL A   1      39.073  32.655  31.153  1.00  0.00     0.074 A 
ATOM     40  C   UNL A   1      38.528  30.820  29.586  1.00  0.00     0.049 A 
ATOM     41  N   UNL A   1      40.295  32.338  31.497  1.00  0.00    -0.248 NA
ATOM     42  C   UNL A   1      38.587  33.906  31.763  1.00  0.00     0.031 C 
ATOM     43  C   UNL A   1      37.768  30.086  28.570  1.00  0.00     0.029 A 
ATOM     44  N   UNL A   1      39.669  30.073  29.743  1.00  0.00    -0.354 N 
ATOM     45  C   UNL A   1      40.734  33.378  32.307  1.00  0.00     0.074 A 
ATOM     46  C   UNL A   1      39.683  34.366  32.345  1.00  0.00     0.031 C 
ATOM     47  C   UNL A   1      38.436  28.969  28.239  1.00  0.00     0.029 A 
ATOM     48  C   UNL A   1      39.687  28.925  28.986  1.00  0.00     0.049 A 
ATOM     49  H   UNL A   1      40.405  30.333  30.341  1.00  0.00     0.167 HD
ATOM     50  C   UNL A   1      41.894  33.488  32.996  1.00  0.00     0.031 A 
ATOM     51  C   UNL A   1      40.606  27.944  28.914  1.00  0.00     0.031 A 
ATOM     52  C   UNL A   1      42.904  32.467  33.030  1.00  0.00     0.049 A 
ATOM     53  C   UNL A   1      41.845  28.039  29.760  1.00  0.00     0.074 A 
ATOM     54  C   UNL A   1      44.070  32.431  33.770  1.00  0.00     0.029 A 
ATOM     55  N   UNL A   1      42.846  31.287  32.306  1.00  0.00    -0.354 N 
ATOM     56  N   UNL A   1      42.216  28.997  30.574  1.00  0.00    -0.248 NA
ATOM     57  C   UNL A   1      42.783  26.910  29.688  1.00  0.00     0.031 C 
ATOM     58  C   UNL A   1      44.732  31.234  33.479  1.00  0.00     0.029 A 
ATOM     59  C   UNL A   1      43.957  30.512  32.583  1.00  0.00     0.049 A 
ATOM     60  H   UNL A   1      42.123  31.038  31.686  1.00  0.00     0.167 HD
ATOM     61  C   UNL A   1      43.414  28.575  31.133  1.00  0.00     0.074 A 
ATOM     62  C   UNL A   1      43.700  27.268  30.576  1.00  0.00     0.031 C 
ATOM     63  C   UNL A   1      44.210  29.210  32.026  1.00  0.00     0.031 A 
BRANCH  50  64
ATOM     64  C   UNL A   1      42.105  34.748  33.786  1.00  0.00    -0.014 A 
ATOM     65  C   UNL A   1      42.672  35.890  33.196  1.00  0.00     0.009 A 
ATOM     66  C   UNL A   1      41.743  34.793  35.140  1.00  0.00     0.009 A 
ATOM     67  C   UNL A   1      42.921  37.032  33.958  1.00  0.00     0.001 A 
ATOM     68  C   UNL A   1      41.962  35.948  35.893  1.00  0.00     0.001 A 
ATOM     69  C   UNL A   1      42.563  37.061  35.306  1.00  0.00     0.000 A 
ENDBRANCH  50  64
BRANCH  51  70
ATOM     70  C   UNL A   1      40.367  26.754  28.055  1.00  0.00    -0.014 A 
ATOM     71  C   UNL A   1      39.618  25.671  28.544  1.00  0.00     0.009 A 
ATOM     72  C   UNL A   1      40.888  26.686  26.754  1.00  0.00     0.009 A 
ATOM     73  C   UNL A   1      39.421  24.533  27.758  1.00  0.00     0.001 A 
ATOM     74  C   UNL A   1      40.667  25.556  25.962  1.00  0.00     0.001 A 
ATOM     75  C   UNL A   1      39.944  24.477  26.468  1.00  0.00     0.000 A 
ENDBRANCH  51  70
BRANCH  63  76
ATOM     76  C   UNL A   1      45.441  28.486  32.485  1.00  0.00    -0.014 A 
ATOM     77  C   UNL A   1      46.670  28.655  31.831  1.00  0.00     0.009 A 
ATOM     78  C   UNL A   1      45.377  27.663  33.620  1.00  0.00     0.009 A 
ATOM     79  C   UNL A   1      47.808  27.990  32.290  1.00  0.00     0.001 A 
ATOM     80  C   UNL A   1      46.521  27.020  34.091  1.00  0.00     0.001 A 
ATOM     81  C   UNL A   1      47.733  27.178  33.421  1.00  0.00     0.000 A 
ENDBRANCH  63  76
ENDBRANCH  37  38
ENDBRANCH  29  32
ENDBRANCH  27  28
ENDBRANCH  26  27
ENDBRANCH   1  26
TORSDOF 16
ENDMDL
