MODEL 1
REMARK VINA RESULT:     -10.8      0.000      0.000
REMARK SMILES CCNC(=O)N1[C@@H](C(=O)NCCCCNC(=O)c2ccc(-c3c4nc(c(-c5ccccc5)c5ccc([nH]5)c(-c5ccccc5)c5nc(c(-c6ccccc6)c6ccc3[nH]6)C=C5)C=C4)cc2)CC[C@@H]2CCCC[C@H]21
REMARK SMILES IDX 12 1 11 2 10 3 8 4 9 5 7 7 6 8 73 9 66 10 68 11 72 12 67 13
REMARK SMILES IDX 69 14 71 15 70 16 4 17 3 18 5 20 2 21 1 22 13 23 14 24 15 25
REMARK SMILES IDX 16 26 17 28 18 29 19 30 65 31 20 32 64 33 21 34 22 35 23 36
REMARK SMILES IDX 58 37 24 38 63 39 57 40 59 41 25 42 62 43 56 44 55 45 26 47
REMARK SMILES IDX 48 48 33 49 47 50 34 51 37 52 46 53 60 54 35 55 36 56 45 58
REMARK SMILES IDX 61 59 38 60 27 61 28 62 32 63 29 64 31 65 30 66 49 67 50 68
REMARK SMILES IDX 54 69 51 70 53 71 52 72 39 73 40 74 44 75 41 76 43 77 42 78
REMARK H PARENT 10 6 3 19 15 27 59 46 37 57
REMARK Flexibility Score: inf
ROOT
ATOM      1  C   UNL A   1      36.143  20.479  25.012  1.00  0.00     0.023 C 
ENDROOT
BRANCH   1   2
ATOM      2  C   UNL A   1      35.768  21.847  24.451  1.00  0.00     0.116 C 
BRANCH   2   3
ATOM      3  N   UNL A   1      34.443  21.800  23.861  1.00  0.00    -0.354 N 
ATOM      4  C   UNL A   1      33.603  22.823  23.541  1.00  0.00     0.242 C 
ATOM      5  O   UNL A   1      32.433  22.535  23.268  1.00  0.00    -0.273 OA
ATOM      6  H   UNL A   1      34.103  20.898  23.664  1.00  0.00     0.163 HD
BRANCH   4   7
ATOM      7  C   UNL A   1      34.044  24.302  23.647  1.00  0.00     0.176 C 
ATOM      8  N   UNL A   1      33.650  25.019  24.888  1.00  0.00    -0.310 N 
ATOM      9  C   UNL A   1      33.798  26.499  24.856  1.00  0.00     0.091 C 
ATOM     10  C   UNL A   1      33.496  24.972  22.367  1.00  0.00     0.036 C 
ATOM     11  C   UNL A   1      33.101  27.108  23.619  1.00  0.00     0.012 C 
ATOM     12  C   UNL A   1      33.391  27.261  26.134  1.00  0.00     0.025 C 
ATOM     13  C   UNL A   1      33.661  26.478  22.343  1.00  0.00     0.008 C 
ATOM     14  C   UNL A   1      33.267  28.634  23.538  1.00  0.00     0.006 C 
ATOM     15  C   UNL A   1      33.623  28.765  26.014  1.00  0.00     0.002 C 
ATOM     16  C   UNL A   1      32.862  29.335  24.827  1.00  0.00     0.000 C 
BRANCH   8  17
ATOM     17  C   UNL A   1      33.380  24.387  26.076  1.00  0.00     0.318 C 
ATOM     18  N   UNL A   1      32.124  24.221  26.532  1.00  0.00    -0.338 N 
ATOM     19  H   UNL A   1      32.084  24.043  27.500  1.00  0.00     0.165 HD
ATOM     20  O   UNL A   1      34.274  23.979  26.821  1.00  0.00    -0.249 OA
BRANCH  18  21
ATOM     21  C   UNL A   1      30.818  24.248  25.901  1.00  0.00     0.114 C 
ATOM     22  C   UNL A   1      30.210  25.637  25.983  1.00  0.00     0.027 C 
ENDBRANCH  18  21
ENDBRANCH   8  17
ENDBRANCH   4   7
ENDBRANCH   2   3
ENDBRANCH   1   2
BRANCH   1  23
ATOM     23  C   UNL A   1      37.550  20.019  24.629  1.00  0.00     0.023 C 
BRANCH  23  24
ATOM     24  C   UNL A   1      38.623  20.362  25.654  1.00  0.00     0.116 C 
BRANCH  24  25
ATOM     25  N   UNL A   1      39.688  19.373  25.696  1.00  0.00    -0.352 N 
ATOM     26  C   UNL A   1      41.009  19.551  26.018  1.00  0.00     0.251 C 
ATOM     27  H   UNL A   1      39.426  18.453  25.461  1.00  0.00     0.163 HD
ATOM     28  O   UNL A   1      41.827  18.656  25.831  1.00  0.00    -0.269 OA
BRANCH  26  29
ATOM     29  C   UNL A   1      41.441  20.848  26.574  1.00  0.00     0.039 A 
ATOM     30  C   UNL A   1      41.955  21.817  25.711  1.00  0.00     0.014 A 
ATOM     31  C   UNL A   1      41.308  21.111  27.940  1.00  0.00     0.014 A 
ATOM     32  C   UNL A   1      42.289  23.074  26.213  1.00  0.00     0.010 A 
ATOM     33  C   UNL A   1      41.559  22.391  28.422  1.00  0.00     0.010 A 
ATOM     34  C   UNL A   1      42.063  23.381  27.566  1.00  0.00    -0.014 A 
BRANCH  34  35
ATOM     35  C   UNL A   1      42.371  24.727  28.108  1.00  0.00     0.031 A 
ATOM     36  C   UNL A   1      43.774  25.063  28.537  1.00  0.00     0.074 A 
ATOM     37  C   UNL A   1      41.383  25.632  28.253  1.00  0.00     0.049 A 
ATOM     38  N   UNL A   1      44.233  26.169  29.065  1.00  0.00    -0.248 NA
ATOM     39  C   UNL A   1      44.789  24.009  28.374  1.00  0.00     0.031 C 
ATOM     40  C   UNL A   1      39.976  25.419  27.907  1.00  0.00     0.029 A 
ATOM     41  N   UNL A   1      41.415  26.919  28.729  1.00  0.00    -0.354 N 
ATOM     42  C   UNL A   1      45.582  25.940  29.302  1.00  0.00     0.074 A 
ATOM     43  C   UNL A   1      45.855  24.572  28.923  1.00  0.00     0.031 C 
ATOM     44  C   UNL A   1      39.288  26.547  28.146  1.00  0.00     0.029 A 
ATOM     45  C   UNL A   1      40.193  27.547  28.703  1.00  0.00     0.049 A 
ATOM     46  H   UNL A   1      42.235  27.351  29.059  1.00  0.00     0.167 HD
ATOM     47  C   UNL A   1      46.519  26.799  29.769  1.00  0.00     0.031 A 
ATOM     48  C   UNL A   1      39.843  28.788  29.087  1.00  0.00     0.031 A 
ATOM     49  C   UNL A   1      46.251  28.162  30.141  1.00  0.00     0.049 A 
ATOM     50  C   UNL A   1      40.897  29.710  29.634  1.00  0.00     0.074 A 
ATOM     51  C   UNL A   1      47.138  29.123  30.592  1.00  0.00     0.029 A 
ATOM     52  N   UNL A   1      44.999  28.756  30.106  1.00  0.00    -0.354 N 
ATOM     53  N   UNL A   1      42.181  29.498  29.795  1.00  0.00    -0.248 NA
ATOM     54  C   UNL A   1      40.454  31.053  30.039  1.00  0.00     0.031 C 
ATOM     55  C   UNL A   1      46.415  30.284  30.879  1.00  0.00     0.029 A 
ATOM     56  C   UNL A   1      45.087  30.065  30.545  1.00  0.00     0.049 A 
ATOM     57  H   UNL A   1      44.170  28.312  29.814  1.00  0.00     0.167 HD
ATOM     58  C   UNL A   1      42.704  30.689  30.283  1.00  0.00     0.074 A 
ATOM     59  C   UNL A   1      41.602  31.624  30.374  1.00  0.00     0.031 C 
ATOM     60  C   UNL A   1      43.982  30.985  30.622  1.00  0.00     0.031 A 
BRANCH  47  61
ATOM     61  C   UNL A   1      47.926  26.285  29.899  1.00  0.00    -0.014 A 
ATOM     62  C   UNL A   1      48.405  25.782  31.121  1.00  0.00     0.009 A 
ATOM     63  C   UNL A   1      48.774  26.266  28.781  1.00  0.00     0.009 A 
ATOM     64  C   UNL A   1      49.714  25.305  31.227  1.00  0.00     0.001 A 
ATOM     65  C   UNL A   1      50.070  25.758  28.882  1.00  0.00     0.001 A 
ATOM     66  C   UNL A   1      50.542  25.288  30.106  1.00  0.00     0.000 A 
ENDBRANCH  47  61
BRANCH  48  67
ATOM     67  C   UNL A   1      38.434  29.249  28.956  1.00  0.00    -0.014 A 
ATOM     68  C   UNL A   1      37.967  29.777  27.741  1.00  0.00     0.009 A 
ATOM     69  C   UNL A   1      37.557  29.195  30.051  1.00  0.00     0.009 A 
ATOM     70  C   UNL A   1      36.668  30.279  27.639  1.00  0.00     0.001 A 
ATOM     71  C   UNL A   1      36.248  29.666  29.935  1.00  0.00     0.001 A 
ATOM     72  C   UNL A   1      35.809  30.221  28.735  1.00  0.00     0.000 A 
ENDBRANCH  48  67
BRANCH  60  73
ATOM     73  C   UNL A   1      44.267  32.392  31.070  1.00  0.00    -0.014 A 
ATOM     74  C   UNL A   1      44.227  32.756  32.424  1.00  0.00     0.009 A 
ATOM     75  C   UNL A   1      44.614  33.362  30.116  1.00  0.00     0.009 A 
ATOM     76  C   UNL A   1      44.487  34.072  32.810  1.00  0.00     0.001 A 
ATOM     77  C   UNL A   1      44.908  34.668  30.507  1.00  0.00     0.001 A 
ATOM     78  C   UNL A   1      44.832  35.025  31.852  1.00  0.00     0.000 A 
ENDBRANCH  60  73
ENDBRANCH  34  35
ENDBRANCH  26  29
ENDBRANCH  24  25
ENDBRANCH  23  24
ENDBRANCH   1  23
TORSDOF 13
ENDMDL
MODEL 2
REMARK VINA RESULT:     -10.8      1.849      7.664
REMARK SMILES CCNC(=O)N1[C@@H](C(=O)NCCCCNC(=O)c2ccc(-c3c4nc(c(-c5ccccc5)c5ccc([nH]5)c(-c5ccccc5)c5nc(c(-c6ccccc6)c6ccc3[nH]6)C=C5)C=C4)cc2)CC[C@@H]2CCCC[C@H]21
REMARK SMILES IDX 12 1 11 2 10 3 8 4 9 5 7 7 6 8 73 9 66 10 68 11 72 12 67 13
REMARK SMILES IDX 69 14 71 15 70 16 4 17 3 18 5 20 2 21 1 22 13 23 14 24 15 25
REMARK SMILES IDX 16 26 17 28 18 29 19 30 65 31 20 32 64 33 21 34 22 35 23 36
REMARK SMILES IDX 58 37 24 38 63 39 57 40 59 41 25 42 62 43 56 44 55 45 26 47
REMARK SMILES IDX 48 48 33 49 47 50 34 51 37 52 46 53 60 54 35 55 36 56 45 58
REMARK SMILES IDX 61 59 38 60 27 61 28 62 32 63 29 64 31 65 30 66 49 67 50 68
REMARK SMILES IDX 54 69 51 70 53 71 52 72 39 73 40 74 44 75 41 76 43 77 42 78
REMARK H PARENT 10 6 3 19 15 27 59 46 37 57
REMARK Flexibility Score: inf
ROOT
ATOM      1  C   UNL A   1      31.725  27.200  26.131  1.00  0.00     0.023 C 
ENDROOT
BRANCH   1   2
ATOM      2  C   UNL A   1      32.121  25.729  26.207  1.00  0.00     0.116 C 
BRANCH   2   3
ATOM      3  N   UNL A   1      33.385  25.514  25.527  1.00  0.00    -0.354 N 
ATOM      4  C   UNL A   1      33.859  24.392  24.918  1.00  0.00     0.242 C 
ATOM      5  O   UNL A   1      35.056  24.373  24.613  1.00  0.00    -0.273 OA
ATOM      6  H   UNL A   1      33.986  26.293  25.503  1.00  0.00     0.163 HD
BRANCH   4   7
ATOM      7  C   UNL A   1      32.981  23.131  24.737  1.00  0.00     0.176 C 
ATOM      8  N   UNL A   1      33.432  21.908  25.450  1.00  0.00    -0.310 N 
ATOM      9  C   UNL A   1      32.777  20.638  25.035  1.00  0.00     0.091 C 
ATOM     10  C   UNL A   1      32.883  22.933  23.208  1.00  0.00     0.036 C 
ATOM     11  C   UNL A   1      32.845  20.443  23.504  1.00  0.00     0.012 C 
ATOM     12  C   UNL A   1      33.234  19.355  25.762  1.00  0.00     0.025 C 
ATOM     13  C   UNL A   1      32.206  21.641  22.798  1.00  0.00     0.008 C 
ATOM     14  C   UNL A   1      32.145  19.157  23.040  1.00  0.00     0.006 C 
ATOM     15  C   UNL A   1      32.471  18.119  25.295  1.00  0.00     0.002 C 
ATOM     16  C   UNL A   1      32.624  17.925  23.795  1.00  0.00     0.000 C 
BRANCH   8  17
ATOM     17  C   UNL A   1      34.223  21.930  26.571  1.00  0.00     0.318 C 
ATOM     18  N   UNL A   1      35.520  21.567  26.542  1.00  0.00    -0.338 N 
ATOM     19  H   UNL A   1      35.878  21.336  27.430  1.00  0.00     0.165 HD
ATOM     20  O   UNL A   1      33.783  22.237  27.681  1.00  0.00    -0.249 OA
BRANCH  18  21
ATOM     21  C   UNL A   1      36.501  21.443  25.481  1.00  0.00     0.114 C 
ATOM     22  C   UNL A   1      37.696  22.341  25.745  1.00  0.00     0.027 C 
ENDBRANCH  18  21
ENDBRANCH   8  17
ENDBRANCH   4   7
ENDBRANCH   2   3
ENDBRANCH   1   2
BRANCH   1  23
ATOM     23  C   UNL A   1      32.111  28.009  27.369  1.00  0.00     0.023 C 
BRANCH  23  24
ATOM     24  C   UNL A   1      33.488  28.655  27.293  1.00  0.00     0.116 C 
BRANCH  24  25
ATOM     25  N   UNL A   1      33.460  30.065  27.648  1.00  0.00    -0.352 N 
ATOM     26  C   UNL A   1      34.434  30.813  28.259  1.00  0.00     0.251 C 
ATOM     27  H   UNL A   1      32.632  30.546  27.421  1.00  0.00     0.163 HD
ATOM     28  O   UNL A   1      34.194  31.947  28.660  1.00  0.00    -0.269 OA
BRANCH  26  29
ATOM     29  C   UNL A   1      35.773  30.225  28.451  1.00  0.00     0.039 A 
ATOM     30  C   UNL A   1      36.679  30.243  27.389  1.00  0.00     0.014 A 
ATOM     31  C   UNL A   1      36.139  29.686  29.688  1.00  0.00     0.014 A 
ATOM     32  C   UNL A   1      37.975  29.766  27.586  1.00  0.00     0.010 A 
ATOM     33  C   UNL A   1      37.454  29.292  29.905  1.00  0.00     0.010 A 
ATOM     34  C   UNL A   1      38.382  29.316  28.853  1.00  0.00    -0.014 A 
BRANCH  34  35
ATOM     35  C   UNL A   1      39.768  28.846  29.092  1.00  0.00     0.031 A 
ATOM     36  C   UNL A   1      40.769  29.758  29.747  1.00  0.00     0.074 A 
ATOM     37  C   UNL A   1      40.137  27.616  28.683  1.00  0.00     0.049 A 
ATOM     38  N   UNL A   1      42.033  29.543  30.010  1.00  0.00    -0.248 NA
ATOM     39  C   UNL A   1      40.295  31.097  30.137  1.00  0.00     0.031 C 
ATOM     40  C   UNL A   1      39.271  26.648  28.006  1.00  0.00     0.029 A 
ATOM     41  N   UNL A   1      41.343  26.968  28.783  1.00  0.00    -0.354 N 
ATOM     42  C   UNL A   1      42.502  30.718  30.585  1.00  0.00     0.074 A 
ATOM     43  C   UNL A   1      41.409  31.663  30.574  1.00  0.00     0.031 C 
ATOM     44  C   UNL A   1      39.962  25.518  27.786  1.00  0.00     0.029 A 
ATOM     45  C   UNL A   1      41.329  25.695  28.264  1.00  0.00     0.049 A 
ATOM     46  H   UNL A   1      42.142  27.376  29.186  1.00  0.00     0.167 HD
ATOM     47  C   UNL A   1      43.726  30.979  31.102  1.00  0.00     0.031 A 
ATOM     48  C   UNL A   1      42.309  24.777  28.182  1.00  0.00     0.031 A 
ATOM     49  C   UNL A   1      44.814  30.038  31.118  1.00  0.00     0.049 A 
ATOM     50  C   UNL A   1      43.669  25.106  28.733  1.00  0.00     0.074 A 
ATOM     51  C   UNL A   1      46.081  30.194  31.649  1.00  0.00     0.029 A 
ATOM     52  N   UNL A   1      44.760  28.763  30.577  1.00  0.00    -0.354 N 
ATOM     53  N   UNL A   1      44.079  26.200  29.328  1.00  0.00    -0.248 NA
ATOM     54  C   UNL A   1      44.699  24.064  28.612  1.00  0.00     0.031 C 
ATOM     55  C   UNL A   1      46.812  29.033  31.383  1.00  0.00     0.029 A 
ATOM     56  C   UNL A   1      45.978  28.129  30.744  1.00  0.00     0.049 A 
ATOM     57  H   UNL A   1      43.972  28.368  30.136  1.00  0.00     0.167 HD
ATOM     58  C   UNL A   1      45.400  25.964  29.687  1.00  0.00     0.074 A 
ATOM     59  C   UNL A   1      45.717  24.617  29.257  1.00  0.00     0.031 C 
ATOM     60  C   UNL A   1      46.274  26.785  30.318  1.00  0.00     0.031 A 
BRANCH  47  61
ATOM     61  C   UNL A   1      43.951  32.342  31.695  1.00  0.00    -0.014 A 
ATOM     62  C   UNL A   1      44.398  33.414  30.904  1.00  0.00     0.009 A 
ATOM     63  C   UNL A   1      43.676  32.571  33.052  1.00  0.00     0.009 A 
ATOM     64  C   UNL A   1      44.599  34.676  31.468  1.00  0.00     0.001 A 
ATOM     65  C   UNL A   1      43.847  33.841  33.606  1.00  0.00     0.001 A 
ATOM     66  C   UNL A   1      44.318  34.889  32.817  1.00  0.00     0.000 A 
ENDBRANCH  47  61
BRANCH  48  67
ATOM     67  C   UNL A   1      42.046  23.446  27.570  1.00  0.00    -0.014 A 
ATOM     68  C   UNL A   1      41.439  22.425  28.319  1.00  0.00     0.009 A 
ATOM     69  C   UNL A   1      42.430  23.177  26.247  1.00  0.00     0.009 A 
ATOM     70  C   UNL A   1      41.261  21.153  27.771  1.00  0.00     0.001 A 
ATOM     71  C   UNL A   1      42.218  21.915  25.690  1.00  0.00     0.001 A 
ATOM     72  C   UNL A   1      41.648  20.900  26.456  1.00  0.00     0.000 A 
ENDBRANCH  48  67
BRANCH  60  73
ATOM     73  C   UNL A   1      47.636  26.231  30.632  1.00  0.00    -0.014 A 
ATOM     74  C   UNL A   1      47.958  25.747  31.909  1.00  0.00     0.009 A 
ATOM     75  C   UNL A   1      48.603  26.165  29.616  1.00  0.00     0.009 A 
ATOM     76  C   UNL A   1      49.234  25.247  32.173  1.00  0.00     0.001 A 
ATOM     77  C   UNL A   1      49.866  25.632  29.873  1.00  0.00     0.001 A 
ATOM     78  C   UNL A   1      50.185  25.185  31.155  1.00  0.00     0.000 A 
ENDBRANCH  60  73
ENDBRANCH  34  35
ENDBRANCH  26  29
ENDBRANCH  24  25
ENDBRANCH  23  24
ENDBRANCH   1  23
TORSDOF 13
ENDMDL
MODEL 3
REMARK VINA RESULT:     -10.7      2.295      7.620
REMARK SMILES CCNC(=O)N1[C@@H](C(=O)NCCCCNC(=O)c2ccc(-c3c4nc(c(-c5ccccc5)c5ccc([nH]5)c(-c5ccccc5)c5nc(c(-c6ccccc6)c6ccc3[nH]6)C=C5)C=C4)cc2)CC[C@@H]2CCCC[C@H]21
REMARK SMILES IDX 12 1 11 2 10 3 8 4 9 5 7 7 6 8 73 9 66 10 68 11 72 12 67 13
REMARK SMILES IDX 69 14 71 15 70 16 4 17 3 18 5 20 2 21 1 22 13 23 14 24 15 25
REMARK SMILES IDX 16 26 17 28 18 29 19 30 65 31 20 32 64 33 21 34 22 35 23 36
REMARK SMILES IDX 58 37 24 38 63 39 57 40 59 41 25 42 62 43 56 44 55 45 26 47
REMARK SMILES IDX 48 48 33 49 47 50 34 51 37 52 46 53 60 54 35 55 36 56 45 58
REMARK SMILES IDX 61 59 38 60 27 61 28 62 32 63 29 64 31 65 30 66 49 67 50 68
REMARK SMILES IDX 54 69 51 70 53 71 52 72 39 73 40 74 44 75 41 76 43 77 42 78
REMARK H PARENT 10 6 3 19 15 27 59 46 37 57
REMARK Flexibility Score: inf
ROOT
ATOM      1  C   UNL A   1      31.562  27.821  27.088  1.00  0.00     0.023 C 
ENDROOT
BRANCH   1   2
ATOM      2  C   UNL A   1      31.132  27.104  25.813  1.00  0.00     0.116 C 
BRANCH   2   3
ATOM      3  N   UNL A   1      30.531  25.824  26.136  1.00  0.00    -0.354 N 
ATOM      4  C   UNL A   1      31.110  24.594  26.225  1.00  0.00     0.242 C 
ATOM      5  O   UNL A   1      30.360  23.615  26.283  1.00  0.00    -0.273 OA
ATOM      6  H   UNL A   1      29.564  25.848  26.319  1.00  0.00     0.163 HD
BRANCH   4   7
ATOM      7  C   UNL A   1      32.641  24.406  26.116  1.00  0.00     0.176 C 
ATOM      8  N   UNL A   1      33.171  24.087  24.765  1.00  0.00    -0.310 N 
ATOM      9  C   UNL A   1      34.578  23.606  24.717  1.00  0.00     0.091 C 
ATOM     10  C   UNL A   1      32.984  23.326  27.166  1.00  0.00     0.036 C 
ATOM     11  C   UNL A   1      34.805  22.431  25.693  1.00  0.00     0.012 C 
ATOM     12  C   UNL A   1      35.145  23.266  23.323  1.00  0.00     0.025 C 
ATOM     13  C   UNL A   1      34.422  22.852  27.113  1.00  0.00     0.008 C 
ATOM     14  C   UNL A   1      36.260  21.935  25.694  1.00  0.00     0.006 C 
ATOM     15  C   UNL A   1      36.606  22.827  23.379  1.00  0.00     0.002 C 
ATOM     16  C   UNL A   1      36.773  21.624  24.295  1.00  0.00     0.000 C 
BRANCH   8  17
ATOM     17  C   UNL A   1      32.523  24.411  23.599  1.00  0.00     0.318 C 
ATOM     18  N   UNL A   1      32.639  25.624  23.026  1.00  0.00    -0.338 N 
ATOM     19  H   UNL A   1      31.911  25.826  22.395  1.00  0.00     0.165 HD
ATOM     20  O   UNL A   1      31.756  23.628  23.032  1.00  0.00    -0.249 OA
BRANCH  18  21
ATOM     21  C   UNL A   1      33.609  26.697  23.142  1.00  0.00     0.114 C 
ATOM     22  C   UNL A   1      33.012  28.014  22.680  1.00  0.00     0.027 C 
ENDBRANCH  18  21
ENDBRANCH   8  17
ENDBRANCH   4   7
ENDBRANCH   2   3
ENDBRANCH   1   2
BRANCH   1  23
ATOM     23  C   UNL A   1      33.078  27.949  27.244  1.00  0.00     0.023 C 
BRANCH  23  24
ATOM     24  C   UNL A   1      33.724  28.949  26.295  1.00  0.00     0.116 C 
BRANCH  24  25
ATOM     25  N   UNL A   1      33.625  30.317  26.778  1.00  0.00    -0.352 N 
ATOM     26  C   UNL A   1      34.451  30.978  27.651  1.00  0.00     0.251 C 
ATOM     27  H   UNL A   1      32.864  30.838  26.433  1.00  0.00     0.163 HD
ATOM     28  O   UNL A   1      34.135  32.072  28.107  1.00  0.00    -0.269 OA
BRANCH  26  29
ATOM     29  C   UNL A   1      35.719  30.343  28.056  1.00  0.00     0.039 A 
ATOM     30  C   UNL A   1      36.815  30.409  27.195  1.00  0.00     0.014 A 
ATOM     31  C   UNL A   1      35.829  29.712  29.299  1.00  0.00     0.014 A 
ATOM     32  C   UNL A   1      38.041  29.885  27.604  1.00  0.00     0.010 A 
ATOM     33  C   UNL A   1      37.071  29.269  29.738  1.00  0.00     0.010 A 
ATOM     34  C   UNL A   1      38.187  29.340  28.891  1.00  0.00    -0.014 A 
BRANCH  34  35
ATOM     35  C   UNL A   1      39.494  28.818  29.360  1.00  0.00     0.031 A 
ATOM     36  C   UNL A   1      40.321  29.620  30.326  1.00  0.00     0.074 A 
ATOM     37  C   UNL A   1      39.954  27.643  28.886  1.00  0.00     0.049 A 
ATOM     38  N   UNL A   1      41.501  29.351  30.825  1.00  0.00    -0.248 NA
ATOM     39  C   UNL A   1      39.762  30.907  30.773  1.00  0.00     0.031 C 
ATOM     40  C   UNL A   1      39.263  26.785  27.920  1.00  0.00     0.029 A 
ATOM     41  N   UNL A   1      41.116  26.965  29.158  1.00  0.00    -0.354 N 
ATOM     42  C   UNL A   1      41.824  30.433  31.633  1.00  0.00     0.074 A 
ATOM     43  C   UNL A   1      40.750  31.392  31.509  1.00  0.00     0.031 C 
ATOM     44  C   UNL A   1      39.996  25.680  27.710  1.00  0.00     0.029 A 
ATOM     45  C   UNL A   1      41.226  25.770  28.490  1.00  0.00     0.049 A 
ATOM     46  H   UNL A   1      41.805  27.304  29.773  1.00  0.00     0.167 HD
ATOM     47  C   UNL A   1      42.905  30.604  32.430  1.00  0.00     0.031 A 
ATOM     48  C   UNL A   1      42.209  24.851  28.504  1.00  0.00     0.031 A 
ATOM     49  C   UNL A   1      43.972  29.649  32.559  1.00  0.00     0.049 A 
ATOM     50  C   UNL A   1      43.416  25.083  29.372  1.00  0.00     0.074 A 
ATOM     51  C   UNL A   1      45.094  29.713  33.366  1.00  0.00     0.029 A 
ATOM     52  N   UNL A   1      44.048  28.454  31.860  1.00  0.00    -0.354 N 
ATOM     53  N   UNL A   1      43.677  26.085  30.176  1.00  0.00    -0.248 NA
ATOM     54  C   UNL A   1      44.458  24.046  29.343  1.00  0.00     0.031 C 
ATOM     55  C   UNL A   1      45.876  28.582  33.117  1.00  0.00     0.029 A 
ATOM     56  C   UNL A   1      45.208  27.782  32.203  1.00  0.00     0.049 A 
ATOM     57  H   UNL A   1      43.378  28.133  31.214  1.00  0.00     0.167 HD
ATOM     58  C   UNL A   1      44.892  25.780  30.778  1.00  0.00     0.074 A 
ATOM     59  C   UNL A   1      45.307  24.493  30.257  1.00  0.00     0.031 C 
ATOM     60  C   UNL A   1      45.601  26.498  31.682  1.00  0.00     0.031 A 
BRANCH  47  61
ATOM     61  C   UNL A   1      42.983  31.877  33.228  1.00  0.00    -0.014 A 
ATOM     62  C   UNL A   1      42.444  31.956  34.523  1.00  0.00     0.009 A 
ATOM     63  C   UNL A   1      43.637  32.999  32.697  1.00  0.00     0.009 A 
ATOM     64  C   UNL A   1      42.526  33.144  35.253  1.00  0.00     0.001 A 
ATOM     65  C   UNL A   1      43.747  34.174  33.442  1.00  0.00     0.001 A 
ATOM     66  C   UNL A   1      43.183  34.249  34.714  1.00  0.00     0.000 A 
ENDBRANCH  47  61
BRANCH  48  67
ATOM     67  C   UNL A   1      42.097  23.614  27.684  1.00  0.00    -0.014 A 
ATOM     68  C   UNL A   1      41.533  22.448  28.227  1.00  0.00     0.009 A 
ATOM     69  C   UNL A   1      42.583  23.580  26.368  1.00  0.00     0.009 A 
ATOM     70  C   UNL A   1      41.497  21.266  27.485  1.00  0.00     0.001 A 
ATOM     71  C   UNL A   1      42.513  22.406  25.616  1.00  0.00     0.001 A 
ATOM     72  C   UNL A   1      41.984  21.246  26.179  1.00  0.00     0.000 A 
ENDBRANCH  48  67
BRANCH  60  73
ATOM     73  C   UNL A   1      46.869  25.884  32.207  1.00  0.00    -0.014 A 
ATOM     74  C   UNL A   1      48.102  26.078  31.566  1.00  0.00     0.009 A 
ATOM     75  C   UNL A   1      46.829  25.122  33.386  1.00  0.00     0.009 A 
ATOM     76  C   UNL A   1      49.261  25.488  32.071  1.00  0.00     0.001 A 
ATOM     77  C   UNL A   1      47.995  24.562  33.908  1.00  0.00     0.001 A 
ATOM     78  C   UNL A   1      49.208  24.735  33.244  1.00  0.00     0.000 A 
ENDBRANCH  60  73
ENDBRANCH  34  35
ENDBRANCH  26  29
ENDBRANCH  24  25
ENDBRANCH  23  24
ENDBRANCH   1  23
TORSDOF 13
ENDMDL
