MODEL 1
REMARK VINA RESULT:     -12.1      0.000      0.000
REMARK SMILES Cc1ccc(C)c(S(=O)(=O)N[C@H](CC2=c3ccccc3=NC2)C(=O)NCCCCNC(=O)c2ccc(-c3c4nc(c(-c5ccccc5)c5ccc([nH]5)c(-c5ccccc5)c5nc(c(-c6ccccc6)c6ccc3[nH]6)C=C5)C=C4)cc2)c1
REMARK SMILES IDX 27 1 26 2 25 3 23 4 24 5 12 7 11 8 8 10 9 11 10 12 7 13 1 14
REMARK SMILES IDX 2 15 3 16 81 17 4 18 5 19 6 20 13 21 14 22 15 23 22 24 16 25
REMARK SMILES IDX 20 26 21 27 17 28 19 29 18 30 28 31 29 32 30 33 31 34 32 36
REMARK SMILES IDX 33 37 34 38 80 39 35 40 79 41 36 42 37 43 38 44 73 45 39 46
REMARK SMILES IDX 78 47 72 48 74 49 40 50 77 51 71 52 70 53 41 55 63 56 48 57
REMARK SMILES IDX 62 58 49 59 52 60 61 61 75 62 50 63 51 64 60 66 76 67 53 68
REMARK SMILES IDX 42 69 43 70 47 71 44 72 46 73 45 74 64 75 65 76 69 77 66 78
REMARK SMILES IDX 68 79 67 80 54 81 55 82 59 83 56 84 58 85 57 86
REMARK H PARENT 25 6 11 9 30 35 74 54 52 65
REMARK Flexibility Score: inf
ROOT
ATOM      1  C   UNL A   1      34.469  30.444  26.947  1.00  0.00     0.023 C 
ENDROOT
BRANCH   1   2
ATOM      2  C   UNL A   1      34.128  28.982  27.382  1.00  0.00     0.116 C 
BRANCH   2   3
ATOM      3  N   UNL A   1      32.748  28.631  27.680  1.00  0.00    -0.355 N 
ATOM      4  C   UNL A   1      31.927  27.595  27.307  1.00  0.00     0.238 C 
ATOM      5  O   UNL A   1      30.785  27.624  27.782  1.00  0.00    -0.273 OA
ATOM      6  H   UNL A   1      32.306  29.275  28.279  1.00  0.00     0.163 HD
BRANCH   4   7
ATOM      7  C   UNL A   1      32.320  26.459  26.330  1.00  0.00     0.163 C 
BRANCH   7   8
ATOM      8  N   UNL A   1      31.998  25.133  26.942  1.00  0.00    -0.198 NA
ATOM      9  H   UNL A   1      32.880  24.626  27.020  1.00  0.00     0.142 HD
BRANCH   8  10
ATOM     10  S   UNL A   1      30.902  24.088  26.193  1.00  0.00     0.241 S 
ATOM     11  O   UNL A   1      30.273  24.804  25.111  1.00  0.00    -0.207 OA
ATOM     12  O   UNL A   1      30.146  23.523  27.291  1.00  0.00    -0.207 OA
BRANCH  10  13
ATOM     13  C   UNL A   1      31.894  22.772  25.514  1.00  0.00     0.085 A 
ATOM     14  C   UNL A   1      32.072  20.893  22.202  1.00  0.00     0.044 C 
ATOM     15  C   UNL A   1      32.346  21.303  23.618  1.00  0.00    -0.050 A 
ATOM     16  C   UNL A   1      33.237  20.579  24.409  1.00  0.00     0.004 A 
ATOM     17  C   UNL A   1      31.705  22.415  24.171  1.00  0.00     0.025 A 
ATOM     18  C   UNL A   1      33.484  20.969  25.729  1.00  0.00     0.005 A 
ATOM     19  C   UNL A   1      32.823  22.070  26.304  1.00  0.00    -0.031 A 
ATOM     20  C   UNL A   1      33.182  22.422  27.721  1.00  0.00     0.046 C 
ENDBRANCH  10  13
ENDBRANCH   8  10
ENDBRANCH   7   8
BRANCH   7  21
ATOM     21  C   UNL A   1      33.770  26.434  25.731  1.00  0.00     0.063 C 
BRANCH  21  22
ATOM     22  C   UNL A   1      34.251  25.343  24.808  1.00  0.00    -0.037 C 
ATOM     23  C   UNL A   1      35.176  24.384  24.917  1.00  0.00     0.001 A 
ATOM     24  C   UNL A   1      33.753  25.361  23.412  1.00  0.00     0.174 C 
ATOM     25  C   UNL A   1      36.088  23.914  25.910  1.00  0.00     0.010 A 
ATOM     26  C   UNL A   1      35.216  23.807  23.553  1.00  0.00     0.065 A 
ATOM     27  N   UNL A   1      34.470  24.342  22.643  1.00  0.00    -0.280 NA
ATOM     28  C   UNL A   1      36.921  22.903  25.599  1.00  0.00     0.001 A 
ATOM     29  C   UNL A   1      36.113  22.673  23.297  1.00  0.00     0.028 A 
ATOM     30  C   UNL A   1      36.907  22.260  24.293  1.00  0.00     0.002 A 
ENDBRANCH  21  22
ENDBRANCH   7  21
ENDBRANCH   4   7
ENDBRANCH   2   3
ENDBRANCH   1   2
BRANCH   1  31
ATOM     31  C   UNL A   1      33.928  31.679  27.718  1.00  0.00     0.023 C 
BRANCH  31  32
ATOM     32  C   UNL A   1      34.843  32.880  28.065  1.00  0.00     0.116 C 
BRANCH  32  33
ATOM     33  N   UNL A   1      34.949  33.213  29.474  1.00  0.00    -0.352 N 
ATOM     34  C   UNL A   1      35.676  32.660  30.509  1.00  0.00     0.251 C 
ATOM     35  H   UNL A   1      34.398  33.982  29.743  1.00  0.00     0.163 HD
ATOM     36  O   UNL A   1      35.461  33.058  31.653  1.00  0.00    -0.269 OA
BRANCH  34  37
ATOM     37  C   UNL A   1      36.724  31.626  30.284  1.00  0.00     0.039 A 
ATOM     38  C   UNL A   1      36.385  30.270  30.154  1.00  0.00     0.014 A 
ATOM     39  C   UNL A   1      38.069  31.966  30.249  1.00  0.00     0.014 A 
ATOM     40  C   UNL A   1      37.401  29.306  30.087  1.00  0.00     0.010 A 
ATOM     41  C   UNL A   1      39.056  31.060  30.034  1.00  0.00     0.010 A 
ATOM     42  C   UNL A   1      38.733  29.726  30.079  1.00  0.00    -0.014 A 
BRANCH  42  43
ATOM     43  C   UNL A   1      39.888  28.863  30.063  1.00  0.00     0.031 A 
ATOM     44  C   UNL A   1      40.425  28.536  31.394  1.00  0.00     0.074 A 
ATOM     45  C   UNL A   1      40.171  28.030  29.040  1.00  0.00     0.049 A 
ATOM     46  N   UNL A   1      41.488  29.021  31.933  1.00  0.00    -0.248 NA
ATOM     47  C   UNL A   1      39.620  27.685  32.285  1.00  0.00     0.031 C 
ATOM     48  C   UNL A   1      39.416  27.765  27.811  1.00  0.00     0.029 A 
ATOM     49  N   UNL A   1      41.185  27.133  28.978  1.00  0.00    -0.354 N 
ATOM     50  C   UNL A   1      41.587  28.409  33.173  1.00  0.00     0.074 A 
ATOM     51  C   UNL A   1      40.309  27.791  33.421  1.00  0.00     0.031 C 
ATOM     52  C   UNL A   1      39.905  26.650  27.217  1.00  0.00     0.029 A 
ATOM     53  C   UNL A   1      41.100  26.232  27.932  1.00  0.00     0.049 A 
ATOM     54  H   UNL A   1      41.925  27.123  29.628  1.00  0.00     0.167 HD
ATOM     55  C   UNL A   1      42.786  28.259  33.795  1.00  0.00     0.031 A 
ATOM     56  C   UNL A   1      41.956  25.207  27.716  1.00  0.00     0.031 A 
ATOM     57  C   UNL A   1      43.838  28.937  33.075  1.00  0.00     0.049 A 
ATOM     58  C   UNL A   1      43.196  25.499  28.479  1.00  0.00     0.074 A 
ATOM     59  C   UNL A   1      44.090  30.250  32.728  1.00  0.00     0.029 A 
ATOM     60  N   UNL A   1      44.588  28.164  32.216  1.00  0.00    -0.354 N 
ATOM     61  N   UNL A   1      43.985  26.507  28.232  1.00  0.00    -0.248 NA
ATOM     62  C   UNL A   1      43.380  24.881  29.783  1.00  0.00     0.031 C 
ATOM     63  C   UNL A   1      44.633  30.190  31.409  1.00  0.00     0.029 A 
ATOM     64  C   UNL A   1      44.729  28.846  31.033  1.00  0.00     0.049 A 
ATOM     65  H   UNL A   1      44.959  27.274  32.417  1.00  0.00     0.167 HD
ATOM     66  C   UNL A   1      44.455  26.913  29.473  1.00  0.00     0.074 A 
ATOM     67  C   UNL A   1      44.171  25.791  30.361  1.00  0.00     0.031 C 
ATOM     68  C   UNL A   1      44.765  28.221  29.720  1.00  0.00     0.031 A 
BRANCH  55  69
ATOM     69  C   UNL A   1      43.075  27.235  34.857  1.00  0.00    -0.014 A 
ATOM     70  C   UNL A   1      42.899  27.448  36.237  1.00  0.00     0.009 A 
ATOM     71  C   UNL A   1      43.365  25.920  34.457  1.00  0.00     0.009 A 
ATOM     72  C   UNL A   1      43.035  26.420  37.173  1.00  0.00     0.001 A 
ATOM     73  C   UNL A   1      43.454  24.877  35.386  1.00  0.00     0.001 A 
ATOM     74  C   UNL A   1      43.295  25.128  36.744  1.00  0.00     0.000 A 
ENDBRANCH  55  69
BRANCH  56  75
ATOM     75  C   UNL A   1      41.697  23.882  27.122  1.00  0.00    -0.014 A 
ATOM     76  C   UNL A   1      40.521  23.180  27.439  1.00  0.00     0.009 A 
ATOM     77  C   UNL A   1      42.731  23.181  26.482  1.00  0.00     0.009 A 
ATOM     78  C   UNL A   1      40.407  21.809  27.182  1.00  0.00     0.001 A 
ATOM     79  C   UNL A   1      42.617  21.808  26.226  1.00  0.00     0.001 A 
ATOM     80  C   UNL A   1      41.464  21.120  26.595  1.00  0.00     0.000 A 
ENDBRANCH  56  75
BRANCH  68  81
ATOM     81  C   UNL A   1      44.881  29.160  28.533  1.00  0.00    -0.014 A 
ATOM     82  C   UNL A   1      46.162  29.477  28.052  1.00  0.00     0.009 A 
ATOM     83  C   UNL A   1      43.786  29.852  27.986  1.00  0.00     0.009 A 
ATOM     84  C   UNL A   1      46.343  30.455  27.070  1.00  0.00     0.001 A 
ATOM     85  C   UNL A   1      43.963  30.812  26.983  1.00  0.00     0.001 A 
ATOM     86  C   UNL A   1      45.243  31.120  26.533  1.00  0.00     0.000 A 
ENDBRANCH  68  81
ENDBRANCH  42  43
ENDBRANCH  34  37
ENDBRANCH  32  33
ENDBRANCH  31  32
ENDBRANCH   1  31
TORSDOF 16
ENDMDL
MODEL 2
REMARK VINA RESULT:     -11.4      1.513      2.427
REMARK SMILES Cc1ccc(C)c(S(=O)(=O)N[C@H](CC2=c3ccccc3=NC2)C(=O)NCCCCNC(=O)c2ccc(-c3c4nc(c(-c5ccccc5)c5ccc([nH]5)c(-c5ccccc5)c5nc(c(-c6ccccc6)c6ccc3[nH]6)C=C5)C=C4)cc2)c1
REMARK SMILES IDX 27 1 26 2 25 3 23 4 24 5 12 7 11 8 8 10 9 11 10 12 7 13 1 14
REMARK SMILES IDX 2 15 3 16 81 17 4 18 5 19 6 20 13 21 14 22 15 23 22 24 16 25
REMARK SMILES IDX 20 26 21 27 17 28 19 29 18 30 28 31 29 32 30 33 31 34 32 36
REMARK SMILES IDX 33 37 34 38 80 39 35 40 79 41 36 42 37 43 38 44 73 45 39 46
REMARK SMILES IDX 78 47 72 48 74 49 40 50 77 51 71 52 70 53 41 55 63 56 48 57
REMARK SMILES IDX 62 58 49 59 52 60 61 61 75 62 50 63 51 64 60 66 76 67 53 68
REMARK SMILES IDX 42 69 43 70 47 71 44 72 46 73 45 74 64 75 65 76 69 77 66 78
REMARK SMILES IDX 68 79 67 80 54 81 55 82 59 83 56 84 58 85 57 86
REMARK H PARENT 25 6 11 9 30 35 74 54 52 65
REMARK Flexibility Score: inf
ROOT
ATOM      1  C   UNL A   1      32.577  28.746  24.695  1.00  0.00     0.023 C 
ENDROOT
BRANCH   1   2
ATOM      2  C   UNL A   1      33.805  28.054  24.019  1.00  0.00     0.116 C 
BRANCH   2   3
ATOM      3  N   UNL A   1      33.581  26.984  23.059  1.00  0.00    -0.355 N 
ATOM      4  C   UNL A   1      33.552  25.614  23.149  1.00  0.00     0.238 C 
ATOM      5  O   UNL A   1      33.312  25.017  22.092  1.00  0.00    -0.273 OA
ATOM      6  H   UNL A   1      33.414  27.314  22.146  1.00  0.00     0.163 HD
BRANCH   4   7
ATOM      7  C   UNL A   1      33.832  24.804  24.439  1.00  0.00     0.163 C 
BRANCH   7   8
ATOM      8  N   UNL A   1      32.767  25.082  25.452  1.00  0.00    -0.198 NA
ATOM      9  H   UNL A   1      33.243  25.249  26.338  1.00  0.00     0.142 HD
BRANCH   8  10
ATOM     10  S   UNL A   1      31.558  23.943  25.757  1.00  0.00     0.241 S 
ATOM     11  O   UNL A   1      30.540  24.092  24.748  1.00  0.00    -0.207 OA
ATOM     12  O   UNL A   1      31.276  24.097  27.169  1.00  0.00    -0.207 OA
BRANCH  10  13
ATOM     13  C   UNL A   1      32.344  22.356  25.554  1.00  0.00     0.085 A 
ATOM     14  C   UNL A   1      32.194  19.521  23.011  1.00  0.00     0.044 C 
ATOM     15  C   UNL A   1      32.550  20.316  24.232  1.00  0.00    -0.050 A 
ATOM     16  C   UNL A   1      33.346  19.763  25.233  1.00  0.00     0.004 A 
ATOM     17  C   UNL A   1      32.080  21.622  24.388  1.00  0.00     0.025 A 
ATOM     18  C   UNL A   1      33.671  20.512  26.368  1.00  0.00     0.005 A 
ATOM     19  C   UNL A   1      33.180  21.819  26.549  1.00  0.00    -0.031 A 
ATOM     20  C   UNL A   1      33.613  22.547  27.791  1.00  0.00     0.046 C 
ENDBRANCH  10  13
ENDBRANCH   8  10
ENDBRANCH   7   8
BRANCH   7  21
ATOM     21  C   UNL A   1      35.247  24.902  25.110  1.00  0.00     0.063 C 
BRANCH  21  22
ATOM     22  C   UNL A   1      36.187  23.727  25.202  1.00  0.00    -0.037 C 
ATOM     23  C   UNL A   1      37.352  23.525  25.825  1.00  0.00     0.001 A 
ATOM     24  C   UNL A   1      35.913  22.562  24.326  1.00  0.00     0.174 C 
ATOM     25  C   UNL A   1      38.219  24.257  26.692  1.00  0.00     0.010 A 
ATOM     26  C   UNL A   1      37.774  22.198  25.317  1.00  0.00     0.065 A 
ATOM     27  N   UNL A   1      37.028  21.619  24.433  1.00  0.00    -0.280 NA
ATOM     28  C   UNL A   1      39.375  23.689  27.084  1.00  0.00     0.001 A 
ATOM     29  C   UNL A   1      39.022  21.617  25.825  1.00  0.00     0.028 A 
ATOM     30  C   UNL A   1      39.760  22.347  26.671  1.00  0.00     0.002 A 
ENDBRANCH  21  22
ENDBRANCH   7  21
ENDBRANCH   4   7
ENDBRANCH   2   3
ENDBRANCH   1   2
BRANCH   1  31
ATOM     31  C   UNL A   1      32.420  28.820  26.238  1.00  0.00     0.023 C 
BRANCH  31  32
ATOM     32  C   UNL A   1      33.563  29.344  27.142  1.00  0.00     0.116 C 
BRANCH  32  33
ATOM     33  N   UNL A   1      33.767  30.782  27.142  1.00  0.00    -0.352 N 
ATOM     34  C   UNL A   1      34.776  31.578  27.645  1.00  0.00     0.251 C 
ATOM     35  H   UNL A   1      33.047  31.285  26.699  1.00  0.00     0.163 HD
ATOM     36  O   UNL A   1      34.618  32.798  27.632  1.00  0.00    -0.269 OA
BRANCH  34  37
ATOM     37  C   UNL A   1      36.050  31.015  28.169  1.00  0.00     0.039 A 
ATOM     38  C   UNL A   1      37.011  31.841  28.774  1.00  0.00     0.014 A 
ATOM     39  C   UNL A   1      36.349  29.667  28.028  1.00  0.00     0.014 A 
ATOM     40  C   UNL A   1      38.258  31.308  29.129  1.00  0.00     0.010 A 
ATOM     41  C   UNL A   1      37.492  29.109  28.502  1.00  0.00     0.010 A 
ATOM     42  C   UNL A   1      38.491  29.944  28.934  1.00  0.00    -0.014 A 
BRANCH  42  43
ATOM     43  C   UNL A   1      39.731  29.256  29.200  1.00  0.00     0.031 A 
ATOM     44  C   UNL A   1      39.973  28.964  30.622  1.00  0.00     0.074 A 
ATOM     45  C   UNL A   1      40.371  28.509  28.278  1.00  0.00     0.049 A 
ATOM     46  N   UNL A   1      40.792  29.576  31.403  1.00  0.00    -0.248 NA
ATOM     47  C   UNL A   1      39.112  27.975  31.290  1.00  0.00     0.031 C 
ATOM     48  C   UNL A   1      39.983  28.182  26.902  1.00  0.00     0.029 A 
ATOM     49  N   UNL A   1      41.491  27.770  28.465  1.00  0.00    -0.354 N 
ATOM     50  C   UNL A   1      40.678  28.942  32.630  1.00  0.00     0.074 A 
ATOM     51  C   UNL A   1      39.484  28.138  32.560  1.00  0.00     0.031 C 
ATOM     52  C   UNL A   1      40.759  27.170  26.445  1.00  0.00     0.029 A 
ATOM     53  C   UNL A   1      41.794  26.903  27.430  1.00  0.00     0.049 A 
ATOM     54  H   UNL A   1      42.047  27.843  29.275  1.00  0.00     0.167 HD
ATOM     55  C   UNL A   1      41.700  28.944  33.526  1.00  0.00     0.031 A 
ATOM     56  C   UNL A   1      42.819  26.020  27.430  1.00  0.00     0.031 A 
ATOM     57  C   UNL A   1      42.783  29.791  33.082  1.00  0.00     0.049 A 
ATOM     58  C   UNL A   1      43.782  26.460  28.472  1.00  0.00     0.074 A 
ATOM     59  C   UNL A   1      42.915  31.137  32.806  1.00  0.00     0.029 A 
ATOM     60  N   UNL A   1      43.824  29.163  32.433  1.00  0.00    -0.354 N 
ATOM     61  N   UNL A   1      44.450  27.578  28.423  1.00  0.00    -0.248 NA
ATOM     62  C   UNL A   1      43.735  25.828  29.782  1.00  0.00     0.031 C 
ATOM     63  C   UNL A   1      43.762  31.202  31.659  1.00  0.00     0.029 A 
ATOM     64  C   UNL A   1      44.144  29.900  31.319  1.00  0.00     0.049 A 
ATOM     65  H   UNL A   1      44.263  28.330  32.719  1.00  0.00     0.167 HD
ATOM     66  C   UNL A   1      44.541  28.004  29.741  1.00  0.00     0.074 A 
ATOM     67  C   UNL A   1      44.221  26.822  30.533  1.00  0.00     0.031 C 
ATOM     68  C   UNL A   1      44.586  29.333  30.054  1.00  0.00     0.031 A 
BRANCH  55  69
ATOM     69  C   UNL A   1      41.873  27.935  34.627  1.00  0.00    -0.014 A 
ATOM     70  C   UNL A   1      41.621  26.556  34.489  1.00  0.00     0.009 A 
ATOM     71  C   UNL A   1      42.497  28.343  35.817  1.00  0.00     0.009 A 
ATOM     72  C   UNL A   1      41.940  25.637  35.491  1.00  0.00     0.001 A 
ATOM     73  C   UNL A   1      42.863  27.420  36.803  1.00  0.00     0.001 A 
ATOM     74  C   UNL A   1      42.579  26.068  36.643  1.00  0.00     0.000 A 
ENDBRANCH  55  69
BRANCH  56  75
ATOM     75  C   UNL A   1      42.909  24.693  26.791  1.00  0.00    -0.014 A 
ATOM     76  C   UNL A   1      42.995  23.531  27.578  1.00  0.00     0.009 A 
ATOM     77  C   UNL A   1      43.209  24.586  25.424  1.00  0.00     0.009 A 
ATOM     78  C   UNL A   1      43.426  22.318  27.030  1.00  0.00     0.001 A 
ATOM     79  C   UNL A   1      43.641  23.372  24.876  1.00  0.00     0.001 A 
ATOM     80  C   UNL A   1      43.770  22.245  25.683  1.00  0.00     0.000 A 
ENDBRANCH  56  75
BRANCH  68  81
ATOM     81  C   UNL A   1      44.845  30.320  28.931  1.00  0.00    -0.014 A 
ATOM     82  C   UNL A   1      43.789  30.641  28.064  1.00  0.00     0.009 A 
ATOM     83  C   UNL A   1      46.124  30.812  28.615  1.00  0.00     0.009 A 
ATOM     84  C   UNL A   1      44.002  31.414  26.920  1.00  0.00     0.001 A 
ATOM     85  C   UNL A   1      46.335  31.610  27.485  1.00  0.00     0.001 A 
ATOM     86  C   UNL A   1      45.275  31.902  26.632  1.00  0.00     0.000 A 
ENDBRANCH  68  81
ENDBRANCH  42  43
ENDBRANCH  34  37
ENDBRANCH  32  33
ENDBRANCH  31  32
ENDBRANCH   1  31
TORSDOF 16
ENDMDL
MODEL 3
REMARK VINA RESULT:     -11.3      2.749      7.814
REMARK SMILES Cc1ccc(C)c(S(=O)(=O)N[C@H](CC2=c3ccccc3=NC2)C(=O)NCCCCNC(=O)c2ccc(-c3c4nc(c(-c5ccccc5)c5ccc([nH]5)c(-c5ccccc5)c5nc(c(-c6ccccc6)c6ccc3[nH]6)C=C5)C=C4)cc2)c1
REMARK SMILES IDX 27 1 26 2 25 3 23 4 24 5 12 7 11 8 8 10 9 11 10 12 7 13 1 14
REMARK SMILES IDX 2 15 3 16 81 17 4 18 5 19 6 20 13 21 14 22 15 23 22 24 16 25
REMARK SMILES IDX 20 26 21 27 17 28 19 29 18 30 28 31 29 32 30 33 31 34 32 36
REMARK SMILES IDX 33 37 34 38 80 39 35 40 79 41 36 42 37 43 38 44 73 45 39 46
REMARK SMILES IDX 78 47 72 48 74 49 40 50 77 51 71 52 70 53 41 55 63 56 48 57
REMARK SMILES IDX 62 58 49 59 52 60 61 61 75 62 50 63 51 64 60 66 76 67 53 68
REMARK SMILES IDX 42 69 43 70 47 71 44 72 46 73 45 74 64 75 65 76 69 77 66 78
REMARK SMILES IDX 68 79 67 80 54 81 55 82 59 83 56 84 58 85 57 86
REMARK H PARENT 25 6 11 9 30 35 74 54 52 65
REMARK Flexibility Score: inf
ROOT
ATOM      1  C   UNL A   1      38.121  23.414  26.120  1.00  0.00     0.023 C 
ENDROOT
BRANCH   1   2
ATOM      2  C   UNL A   1      36.830  23.697  25.287  1.00  0.00     0.116 C 
BRANCH   2   3
ATOM      3  N   UNL A   1      35.931  22.597  24.969  1.00  0.00    -0.355 N 
ATOM      4  C   UNL A   1      34.581  22.508  24.733  1.00  0.00     0.238 C 
ATOM      5  O   UNL A   1      34.160  21.373  24.474  1.00  0.00    -0.273 OA
ATOM      6  H   UNL A   1      36.391  21.729  24.909  1.00  0.00     0.163 HD
BRANCH   4   7
ATOM      7  C   UNL A   1      33.587  23.693  24.811  1.00  0.00     0.163 C 
BRANCH   7   8
ATOM      8  N   UNL A   1      33.804  24.612  23.652  1.00  0.00    -0.198 NA
ATOM      9  H   UNL A   1      33.936  25.546  24.039  1.00  0.00     0.142 HD
BRANCH   8  10
ATOM     10  S   UNL A   1      32.635  24.751  22.440  1.00  0.00     0.241 S 
ATOM     11  O   UNL A   1      31.744  23.624  22.550  1.00  0.00    -0.207 OA
ATOM     12  O   UNL A   1      33.401  25.018  21.240  1.00  0.00    -0.207 OA
BRANCH  10  13
ATOM     13  C   UNL A   1      31.734  26.240  22.823  1.00  0.00     0.085 A 
ATOM     14  C   UNL A   1      28.150  27.112  23.785  1.00  0.00     0.044 C 
ATOM     15  C   UNL A   1      29.596  27.257  23.416  1.00  0.00    -0.050 A 
ATOM     16  C   UNL A   1      30.162  28.518  23.237  1.00  0.00     0.004 A 
ATOM     17  C   UNL A   1      30.398  26.127  23.237  1.00  0.00     0.025 A 
ATOM     18  C   UNL A   1      31.510  28.642  22.891  1.00  0.00     0.005 A 
ATOM     19  C   UNL A   1      32.320  27.510  22.681  1.00  0.00    -0.031 A 
ATOM     20  C   UNL A   1      33.765  27.755  22.341  1.00  0.00     0.046 C 
ENDBRANCH  10  13
ENDBRANCH   8  10
ENDBRANCH   7   8
BRANCH   7  21
ATOM     21  C   UNL A   1      33.490  24.523  26.140  1.00  0.00     0.063 C 
BRANCH  21  22
ATOM     22  C   UNL A   1      32.680  25.790  26.251  1.00  0.00    -0.037 C 
ATOM     23  C   UNL A   1      32.995  27.088  26.259  1.00  0.00     0.001 A 
ATOM     24  C   UNL A   1      31.239  25.653  26.573  1.00  0.00     0.174 C 
ATOM     25  C   UNL A   1      34.177  27.881  26.136  1.00  0.00     0.010 A 
ATOM     26  C   UNL A   1      31.704  27.741  26.579  1.00  0.00     0.065 A 
ATOM     27  N   UNL A   1      30.681  26.986  26.813  1.00  0.00    -0.280 NA
ATOM     28  C   UNL A   1      34.074  29.219  26.246  1.00  0.00     0.001 A 
ATOM     29  C   UNL A   1      31.655  29.207  26.634  1.00  0.00     0.028 A 
ATOM     30  C   UNL A   1      32.798  29.884  26.465  1.00  0.00     0.002 A 
ENDBRANCH  21  22
ENDBRANCH   7  21
ENDBRANCH   4   7
ENDBRANCH   2   3
ENDBRANCH   1   2
BRANCH   1  31
ATOM     31  C   UNL A   1      38.788  22.012  26.152  1.00  0.00     0.023 C 
BRANCH  31  32
ATOM     32  C   UNL A   1      40.119  21.767  26.906  1.00  0.00     0.116 C 
BRANCH  32  33
ATOM     33  N   UNL A   1      41.326  21.822  26.101  1.00  0.00    -0.352 N 
ATOM     34  C   UNL A   1      42.238  22.829  25.859  1.00  0.00     0.251 C 
ATOM     35  H   UNL A   1      41.535  20.978  25.640  1.00  0.00     0.163 HD
ATOM     36  O   UNL A   1      43.104  22.641  25.005  1.00  0.00    -0.269 OA
BRANCH  34  37
ATOM     37  C   UNL A   1      42.226  24.114  26.611  1.00  0.00     0.039 A 
ATOM     38  C   UNL A   1      42.934  24.253  27.815  1.00  0.00     0.014 A 
ATOM     39  C   UNL A   1      41.474  25.194  26.172  1.00  0.00     0.014 A 
ATOM     40  C   UNL A   1      42.790  25.423  28.572  1.00  0.00     0.010 A 
ATOM     41  C   UNL A   1      41.444  26.387  26.819  1.00  0.00     0.010 A 
ATOM     42  C   UNL A   1      41.995  26.458  28.073  1.00  0.00    -0.014 A 
BRANCH  42  43
ATOM     43  C   UNL A   1      41.708  27.700  28.749  1.00  0.00     0.031 A 
ATOM     44  C   UNL A   1      42.579  28.822  28.361  1.00  0.00     0.074 A 
ATOM     45  C   UNL A   1      40.505  27.985  29.288  1.00  0.00     0.049 A 
ATOM     46  N   UNL A   1      43.547  29.315  29.050  1.00  0.00    -0.248 NA
ATOM     47  C   UNL A   1      42.455  29.366  27.000  1.00  0.00     0.031 C 
ATOM     48  C   UNL A   1      39.265  27.201  29.279  1.00  0.00     0.029 A 
ATOM     49  N   UNL A   1      40.128  29.150  29.867  1.00  0.00    -0.354 N 
ATOM     50  C   UNL A   1      44.056  30.352  28.283  1.00  0.00     0.074 A 
ATOM     51  C   UNL A   1      43.508  30.183  26.960  1.00  0.00     0.031 C 
ATOM     52  C   UNL A   1      38.234  27.989  29.668  1.00  0.00     0.029 A 
ATOM     53  C   UNL A   1      38.771  29.267  30.107  1.00  0.00     0.049 A 
ATOM     54  H   UNL A   1      40.770  29.860  30.099  1.00  0.00     0.167 HD
ATOM     55  C   UNL A   1      44.703  31.403  28.852  1.00  0.00     0.031 A 
ATOM     56  C   UNL A   1      38.160  30.365  30.608  1.00  0.00     0.031 A 
ATOM     57  C   UNL A   1      44.896  31.193  30.268  1.00  0.00     0.049 A 
ATOM     58  C   UNL A   1      39.207  31.193  31.261  1.00  0.00     0.074 A 
ATOM     59  C   UNL A   1      45.571  30.260  31.031  1.00  0.00     0.029 A 
ATOM     60  N   UNL A   1      43.966  31.770  31.104  1.00  0.00    -0.354 N 
ATOM     61  N   UNL A   1      39.888  30.817  32.307  1.00  0.00    -0.248 NA
ATOM     62  C   UNL A   1      39.779  32.310  30.524  1.00  0.00     0.031 C 
ATOM     63  C   UNL A   1      44.727  30.017  32.156  1.00  0.00     0.029 A 
ATOM     64  C   UNL A   1      43.604  30.844  32.051  1.00  0.00     0.049 A 
ATOM     65  H   UNL A   1      43.620  32.690  31.035  1.00  0.00     0.167 HD
ATOM     66  C   UNL A   1      41.157  31.348  32.124  1.00  0.00     0.074 A 
ATOM     67  C   UNL A   1      40.985  32.371  31.099  1.00  0.00     0.031 C 
ATOM     68  C   UNL A   1      42.267  30.715  32.610  1.00  0.00     0.031 A 
BRANCH  55  69
ATOM     69  C   UNL A   1      44.862  32.755  28.214  1.00  0.00    -0.014 A 
ATOM     70  C   UNL A   1      45.956  33.132  27.412  1.00  0.00     0.009 A 
ATOM     71  C   UNL A   1      43.779  33.648  28.259  1.00  0.00     0.009 A 
ATOM     72  C   UNL A   1      45.988  34.344  26.718  1.00  0.00     0.001 A 
ATOM     73  C   UNL A   1      43.785  34.840  27.526  1.00  0.00     0.001 A 
ATOM     74  C   UNL A   1      44.891  35.191  26.760  1.00  0.00     0.000 A 
ENDBRANCH  55  69
BRANCH  56  75
ATOM     75  C   UNL A   1      36.805  30.883  30.346  1.00  0.00    -0.014 A 
ATOM     76  C   UNL A   1      36.319  30.965  29.029  1.00  0.00     0.009 A 
ATOM     77  C   UNL A   1      36.104  31.569  31.350  1.00  0.00     0.009 A 
ATOM     78  C   UNL A   1      35.208  31.757  28.717  1.00  0.00     0.001 A 
ATOM     79  C   UNL A   1      34.992  32.362  31.037  1.00  0.00     0.001 A 
ATOM     80  C   UNL A   1      34.558  32.472  29.719  1.00  0.00     0.000 A 
ENDBRANCH  56  75
BRANCH  68  81
ATOM     81  C   UNL A   1      42.063  29.594  33.612  1.00  0.00    -0.014 A 
ATOM     82  C   UNL A   1      42.223  29.878  34.978  1.00  0.00     0.009 A 
ATOM     83  C   UNL A   1      41.877  28.251  33.239  1.00  0.00     0.009 A 
ATOM     84  C   UNL A   1      42.207  28.859  35.934  1.00  0.00     0.001 A 
ATOM     85  C   UNL A   1      41.833  27.232  34.198  1.00  0.00     0.001 A 
ATOM     86  C   UNL A   1      42.008  27.536  35.545  1.00  0.00     0.000 A 
ENDBRANCH  68  81
ENDBRANCH  42  43
ENDBRANCH  34  37
ENDBRANCH  32  33
ENDBRANCH  31  32
ENDBRANCH   1  31
TORSDOF 16
ENDMDL
