MODEL 1
REMARK VINA RESULT:     -12.0      0.000      0.000
REMARK SMILES O=C(NCCCCNC(=O)c1ccc(-c2c3nc(c(-c4ccccc4)c4ccc([nH]4)c(-c4ccccc4)c4nc(c(-c5ccccc5)c5ccc2[nH]5)C=C4)C=C3)cc1)C1=Cc2ccc(Cl)c(Cl)c2O[C@@H]1C(F)(F)F
REMARK SMILES IDX 6 1 5 2 4 3 3 4 1 5 2 6 59 8 60 9 70 10 61 11 69 12 62 13
REMARK SMILES IDX 68 14 63 15 66 16 64 17 67 18 65 19 71 20 72 21 73 22 74 23
REMARK SMILES IDX 7 24 8 25 9 26 10 28 11 29 12 30 58 31 13 32 57 33 14 34
REMARK SMILES IDX 15 35 16 36 51 37 17 38 56 39 50 40 52 41 18 42 55 43 49 44
REMARK SMILES IDX 48 45 19 47 41 48 26 49 40 50 27 51 30 52 39 53 53 54 28 55
REMARK SMILES IDX 29 56 38 58 54 59 31 60 20 61 21 62 25 63 22 64 24 65 23 66
REMARK SMILES IDX 42 67 43 68 47 69 44 70 46 71 45 72 32 73 33 74 37 75 34 76
REMARK SMILES IDX 36 77 35 78
REMARK H PARENT 3 7 8 27 52 46 30 57
REMARK Flexibility Score: inf
ROOT
ATOM      1  C   UNL A   1      33.564  28.640  27.392  1.00  0.00     0.023 C 
ENDROOT
BRANCH   1   2
ATOM      2  C   UNL A   1      32.044  28.551  27.415  1.00  0.00     0.023 C 
BRANCH   2   3
ATOM      3  C   UNL A   1      31.403  27.648  26.368  1.00  0.00     0.116 C 
BRANCH   3   4
ATOM      4  N   UNL A   1      31.046  26.319  26.830  1.00  0.00    -0.352 N 
ATOM      5  O   UNL A   1      31.273  24.117  27.194  1.00  0.00    -0.270 OA
ATOM      6  C   UNL A   1      31.655  25.118  26.588  1.00  0.00     0.251 C 
ATOM      7  H   UNL A   1      30.246  26.276  27.403  1.00  0.00     0.163 HD
BRANCH   6   8
ATOM      8  C   UNL A   1      32.831  24.984  25.677  1.00  0.00     0.067 C 
ATOM      9  C   UNL A   1      33.972  24.388  26.065  1.00  0.00     0.025 C 
ATOM     10  C   UNL A   1      32.439  24.921  24.219  1.00  0.00     0.314 C 
ATOM     11  C   UNL A   1      34.146  23.064  25.417  1.00  0.00     0.019 A 
ATOM     12  O   UNL A   1      32.454  23.552  23.734  1.00  0.00    -0.474 OA
ATOM     13  C   UNL A   1      34.975  22.129  26.049  1.00  0.00     0.013 A 
ATOM     14  C   UNL A   1      33.307  22.669  24.360  1.00  0.00     0.148 A 
ATOM     15  C   UNL A   1      34.901  20.786  25.688  1.00  0.00     0.023 A 
ATOM     16  C   UNL A   1      33.244  21.316  23.989  1.00  0.00     0.102 A 
ATOM     17  C   UNL A   1      34.025  20.374  24.676  1.00  0.00     0.063 A 
ATOM     18  Cl  UNL A   1      32.127  20.824  22.757  1.00  0.00    -0.079 Cl
ATOM     19  Cl  UNL A   1      33.912  18.678  24.373  1.00  0.00    -0.083 Cl
BRANCH  10  20
ATOM     20  C   UNL A   1      33.301  25.841  23.340  1.00  0.00     0.429 C 
ATOM     21  F   UNL A   1      33.763  26.904  24.039  1.00  0.00    -0.167 F 
ATOM     22  F   UNL A   1      34.382  25.191  22.848  1.00  0.00    -0.167 F 
ATOM     23  F   UNL A   1      32.614  26.327  22.278  1.00  0.00    -0.167 F 
ENDBRANCH  10  20
ENDBRANCH   6   8
ENDBRANCH   3   4
ENDBRANCH   2   3
ENDBRANCH   1   2
BRANCH   1  24
ATOM     24  C   UNL A   1      34.169  30.026  27.168  1.00  0.00     0.116 C 
BRANCH  24  25
ATOM     25  N   UNL A   1      34.321  30.829  28.374  1.00  0.00    -0.352 N 
ATOM     26  C   UNL A   1      35.367  30.900  29.266  1.00  0.00     0.251 C 
ATOM     27  H   UNL A   1      33.556  31.412  28.583  1.00  0.00     0.163 HD
ATOM     28  O   UNL A   1      35.269  31.613  30.262  1.00  0.00    -0.269 OA
BRANCH  26  29
ATOM     29  C   UNL A   1      36.580  30.071  29.072  1.00  0.00     0.039 A 
ATOM     30  C   UNL A   1      37.216  30.101  27.827  1.00  0.00     0.014 A 
ATOM     31  C   UNL A   1      37.124  29.315  30.112  1.00  0.00     0.014 A 
ATOM     32  C   UNL A   1      38.454  29.474  27.666  1.00  0.00     0.010 A 
ATOM     33  C   UNL A   1      38.398  28.766  29.978  1.00  0.00     0.010 A 
ATOM     34  C   UNL A   1      39.086  28.858  28.759  1.00  0.00    -0.014 A 
BRANCH  34  35
ATOM     35  C   UNL A   1      40.488  28.378  28.648  1.00  0.00     0.031 A 
ATOM     36  C   UNL A   1      40.798  26.955  28.276  1.00  0.00     0.074 A 
ATOM     37  C   UNL A   1      41.496  29.226  28.938  1.00  0.00     0.049 A 
ATOM     38  N   UNL A   1      41.964  26.392  28.079  1.00  0.00    -0.248 NA
ATOM     39  C   UNL A   1      39.656  26.040  28.134  1.00  0.00     0.031 C 
ATOM     40  C   UNL A   1      41.335  30.611  29.390  1.00  0.00     0.029 A 
ATOM     41  N   UNL A   1      42.857  29.053  28.885  1.00  0.00    -0.354 N 
ATOM     42  C   UNL A   1      41.697  25.057  27.805  1.00  0.00     0.074 A 
ATOM     43  C   UNL A   1      40.265  24.884  27.912  1.00  0.00     0.031 C 
ATOM     44  C   UNL A   1      42.546  31.178  29.513  1.00  0.00     0.029 A 
ATOM     45  C   UNL A   1      43.567  30.192  29.179  1.00  0.00     0.049 A 
ATOM     46  H   UNL A   1      43.282  28.196  28.658  1.00  0.00     0.167 HD
ATOM     47  C   UNL A   1      42.562  24.068  27.474  1.00  0.00     0.031 A 
ATOM     48  C   UNL A   1      44.893  30.426  29.159  1.00  0.00     0.031 A 
ATOM     49  C   UNL A   1      43.985  24.238  27.358  1.00  0.00     0.049 A 
ATOM     50  C   UNL A   1      45.828  29.324  28.755  1.00  0.00     0.074 A 
ATOM     51  C   UNL A   1      44.936  23.317  26.953  1.00  0.00     0.029 A 
ATOM     52  N   UNL A   1      44.665  25.410  27.652  1.00  0.00    -0.354 N 
ATOM     53  N   UNL A   1      45.551  28.095  28.396  1.00  0.00    -0.248 NA
ATOM     54  C   UNL A   1      47.260  29.653  28.733  1.00  0.00     0.031 C 
ATOM     55  C   UNL A   1      46.197  23.919  27.044  1.00  0.00     0.029 A 
ATOM     56  C   UNL A   1      46.025  25.229  27.461  1.00  0.00     0.049 A 
ATOM     57  H   UNL A   1      44.244  26.247  27.954  1.00  0.00     0.167 HD
ATOM     58  C   UNL A   1      46.769  27.510  28.080  1.00  0.00     0.074 A 
ATOM     59  C   UNL A   1      47.785  28.526  28.273  1.00  0.00     0.031 C 
ATOM     60  C   UNL A   1      47.025  26.245  27.666  1.00  0.00     0.031 A 
BRANCH  47  61
ATOM     61  C   UNL A   1      41.980  22.705  27.219  1.00  0.00    -0.014 A 
ATOM     62  C   UNL A   1      41.412  22.377  25.977  1.00  0.00     0.009 A 
ATOM     63  C   UNL A   1      42.012  21.731  28.229  1.00  0.00     0.009 A 
ATOM     64  C   UNL A   1      40.850  21.117  25.766  1.00  0.00     0.001 A 
ATOM     65  C   UNL A   1      41.473  20.462  28.005  1.00  0.00     0.001 A 
ATOM     66  C   UNL A   1      40.883  20.159  26.779  1.00  0.00     0.000 A 
ENDBRANCH  47  61
BRANCH  48  67
ATOM     67  C   UNL A   1      45.413  31.782  29.470  1.00  0.00    -0.014 A 
ATOM     68  C   UNL A   1      45.601  32.718  28.440  1.00  0.00     0.009 A 
ATOM     69  C   UNL A   1      45.724  32.150  30.788  1.00  0.00     0.009 A 
ATOM     70  C   UNL A   1      46.114  33.986  28.719  1.00  0.00     0.001 A 
ATOM     71  C   UNL A   1      46.214  33.429  31.067  1.00  0.00     0.001 A 
ATOM     72  C   UNL A   1      46.416  34.342  30.033  1.00  0.00     0.000 A 
ENDBRANCH  48  67
BRANCH  60  73
ATOM     73  C   UNL A   1      48.458  25.904  27.372  1.00  0.00    -0.014 A 
ATOM     74  C   UNL A   1      49.289  25.341  28.353  1.00  0.00     0.009 A 
ATOM     75  C   UNL A   1      48.982  26.147  26.093  1.00  0.00     0.009 A 
ATOM     76  C   UNL A   1      50.629  25.068  28.071  1.00  0.00     0.001 A 
ATOM     77  C   UNL A   1      50.314  25.847  25.806  1.00  0.00     0.001 A 
ATOM     78  C   UNL A   1      51.139  25.318  26.798  1.00  0.00     0.000 A 
ENDBRANCH  60  73
ENDBRANCH  34  35
ENDBRANCH  26  29
ENDBRANCH  24  25
ENDBRANCH   1  24
TORSDOF 12
ENDMDL
MODEL 2
REMARK VINA RESULT:     -11.7      2.807      7.880
REMARK SMILES O=C(NCCCCNC(=O)c1ccc(-c2c3nc(c(-c4ccccc4)c4ccc([nH]4)c(-c4ccccc4)c4nc(c(-c5ccccc5)c5ccc2[nH]5)C=C4)C=C3)cc1)C1=Cc2ccc(Cl)c(Cl)c2O[C@@H]1C(F)(F)F
REMARK SMILES IDX 6 1 5 2 4 3 3 4 1 5 2 6 59 8 60 9 70 10 61 11 69 12 62 13
REMARK SMILES IDX 68 14 63 15 66 16 64 17 67 18 65 19 71 20 72 21 73 22 74 23
REMARK SMILES IDX 7 24 8 25 9 26 10 28 11 29 12 30 58 31 13 32 57 33 14 34
REMARK SMILES IDX 15 35 16 36 51 37 17 38 56 39 50 40 52 41 18 42 55 43 49 44
REMARK SMILES IDX 48 45 19 47 41 48 26 49 40 50 27 51 30 52 39 53 53 54 28 55
REMARK SMILES IDX 29 56 38 58 54 59 31 60 20 61 21 62 25 63 22 64 24 65 23 66
REMARK SMILES IDX 42 67 43 68 47 69 44 70 46 71 45 72 32 73 33 74 37 75 34 76
REMARK SMILES IDX 36 77 35 78
REMARK H PARENT 3 7 8 27 52 46 30 57
REMARK Flexibility Score: inf
ROOT
ATOM      1  C   UNL A   1      37.530  20.768  24.924  1.00  0.00     0.023 C 
ENDROOT
BRANCH   1   2
ATOM      2  C   UNL A   1      37.024  22.010  24.203  1.00  0.00     0.023 C 
BRANCH   2   3
ATOM      3  C   UNL A   1      35.516  22.228  24.205  1.00  0.00     0.116 C 
BRANCH   3   4
ATOM      4  N   UNL A   1      35.016  23.119  23.174  1.00  0.00    -0.352 N 
ATOM      5  O   UNL A   1      34.045  24.942  22.299  1.00  0.00    -0.270 OA
ATOM      6  C   UNL A   1      34.244  24.243  23.292  1.00  0.00     0.251 C 
ATOM      7  H   UNL A   1      35.270  22.879  22.254  1.00  0.00     0.163 HD
BRANCH   6   8
ATOM      8  C   UNL A   1      33.700  24.709  24.603  1.00  0.00     0.067 C 
ATOM      9  C   UNL A   1      34.033  25.899  25.133  1.00  0.00     0.025 C 
ATOM     10  C   UNL A   1      32.336  24.135  24.909  1.00  0.00     0.314 C 
ATOM     11  C   UNL A   1      32.907  26.864  25.064  1.00  0.00     0.019 A 
ATOM     12  O   UNL A   1      31.289  25.098  24.622  1.00  0.00    -0.474 OA
ATOM     13  C   UNL A   1      33.211  28.230  25.104  1.00  0.00     0.013 A 
ATOM     14  C   UNL A   1      31.618  26.434  24.704  1.00  0.00     0.148 A 
ATOM     15  C   UNL A   1      32.258  29.161  24.698  1.00  0.00     0.023 A 
ATOM     16  C   UNL A   1      30.654  27.376  24.309  1.00  0.00     0.102 A 
ATOM     17  C   UNL A   1      30.990  28.738  24.283  1.00  0.00     0.063 A 
ATOM     18  Cl  UNL A   1      29.102  26.826  23.765  1.00  0.00    -0.079 Cl
ATOM     19  Cl  UNL A   1      29.910  29.948  23.687  1.00  0.00    -0.083 Cl
BRANCH  10  20
ATOM     20  C   UNL A   1      32.235  23.602  26.347  1.00  0.00     0.429 C 
ATOM     21  F   UNL A   1      33.450  23.255  26.834  1.00  0.00    -0.167 F 
ATOM     22  F   UNL A   1      31.723  24.531  27.189  1.00  0.00    -0.167 F 
ATOM     23  F   UNL A   1      31.441  22.508  26.435  1.00  0.00    -0.167 F 
ENDBRANCH  10  20
ENDBRANCH   6   8
ENDBRANCH   3   4
ENDBRANCH   2   3
ENDBRANCH   1   2
BRANCH   1  24
ATOM     24  C   UNL A   1      38.779  20.936  25.788  1.00  0.00     0.116 C 
BRANCH  24  25
ATOM     25  N   UNL A   1      39.761  19.867  25.657  1.00  0.00    -0.352 N 
ATOM     26  C   UNL A   1      41.096  19.843  25.994  1.00  0.00     0.251 C 
ATOM     27  H   UNL A   1      39.416  19.032  25.268  1.00  0.00     0.163 HD
ATOM     28  O   UNL A   1      41.767  18.844  25.747  1.00  0.00    -0.269 OA
BRANCH  26  29
ATOM     29  C   UNL A   1      41.746  21.036  26.586  1.00  0.00     0.039 A 
ATOM     30  C   UNL A   1      42.214  22.036  25.727  1.00  0.00     0.014 A 
ATOM     31  C   UNL A   1      41.848  21.205  27.968  1.00  0.00     0.014 A 
ATOM     32  C   UNL A   1      42.667  23.247  26.255  1.00  0.00     0.010 A 
ATOM     33  C   UNL A   1      42.216  22.443  28.491  1.00  0.00     0.010 A 
ATOM     34  C   UNL A   1      42.609  23.485  27.639  1.00  0.00    -0.014 A 
BRANCH  34  35
ATOM     35  C   UNL A   1      42.890  24.839  28.184  1.00  0.00     0.031 A 
ATOM     36  C   UNL A   1      44.286  25.262  28.540  1.00  0.00     0.074 A 
ATOM     37  C   UNL A   1      41.859  25.680  28.410  1.00  0.00     0.049 A 
ATOM     38  N   UNL A   1      44.708  26.425  28.970  1.00  0.00    -0.248 NA
ATOM     39  C   UNL A   1      45.342  24.244  28.425  1.00  0.00     0.031 C 
ATOM     40  C   UNL A   1      40.445  25.367  28.185  1.00  0.00     0.029 A 
ATOM     41  N   UNL A   1      41.842  26.974  28.868  1.00  0.00    -0.354 N 
ATOM     42  C   UNL A   1      46.072  26.274  29.190  1.00  0.00     0.074 A 
ATOM     43  C   UNL A   1      46.395  24.895  28.896  1.00  0.00     0.031 C 
ATOM     44  C   UNL A   1      39.706  26.457  28.448  1.00  0.00     0.029 A 
ATOM     45  C   UNL A   1      40.587  27.533  28.885  1.00  0.00     0.049 A 
ATOM     46  H   UNL A   1      42.651  27.454  29.156  1.00  0.00     0.167 HD
ATOM     47  C   UNL A   1      46.978  27.202  29.583  1.00  0.00     0.031 A 
ATOM     48  C   UNL A   1      40.191  28.782  29.195  1.00  0.00     0.031 A 
ATOM     49  C   UNL A   1      46.661  28.577  29.867  1.00  0.00     0.049 A 
ATOM     50  C   UNL A   1      41.217  29.803  29.592  1.00  0.00     0.074 A 
ATOM     51  C   UNL A   1      47.521  29.611  30.196  1.00  0.00     0.029 A 
ATOM     52  N   UNL A   1      45.381  29.108  29.862  1.00  0.00    -0.354 N 
ATOM     53  N   UNL A   1      42.517  29.671  29.694  1.00  0.00    -0.248 NA
ATOM     54  C   UNL A   1      40.720  31.151  29.897  1.00  0.00     0.031 C 
ATOM     55  C   UNL A   1      46.755  30.760  30.432  1.00  0.00     0.029 A 
ATOM     56  C   UNL A   1      45.423  30.450  30.204  1.00  0.00     0.049 A 
ATOM     57  H   UNL A   1      44.562  28.605  29.647  1.00  0.00     0.167 HD
ATOM     58  C   UNL A   1      42.997  30.925  30.049  1.00  0.00     0.074 A 
ATOM     59  C   UNL A   1      41.849  31.806  30.126  1.00  0.00     0.031 C 
ATOM     60  C   UNL A   1      44.274  31.312  30.287  1.00  0.00     0.031 A 
BRANCH  47  61
ATOM     61  C   UNL A   1      48.403  26.749  29.731  1.00  0.00    -0.014 A 
ATOM     62  C   UNL A   1      48.882  26.240  30.949  1.00  0.00     0.009 A 
ATOM     63  C   UNL A   1      49.277  26.820  28.635  1.00  0.00     0.009 A 
ATOM     64  C   UNL A   1      50.216  25.850  31.078  1.00  0.00     0.001 A 
ATOM     65  C   UNL A   1      50.605  26.404  28.760  1.00  0.00     0.001 A 
ATOM     66  C   UNL A   1      51.076  25.930  29.984  1.00  0.00     0.000 A 
ENDBRANCH  47  61
BRANCH  48  67
ATOM     67  C   UNL A   1      38.758  29.158  29.079  1.00  0.00    -0.014 A 
ATOM     68  C   UNL A   1      37.914  29.067  30.197  1.00  0.00     0.009 A 
ATOM     69  C   UNL A   1      38.228  29.608  27.861  1.00  0.00     0.009 A 
ATOM     70  C   UNL A   1      36.560  29.392  30.091  1.00  0.00     0.001 A 
ATOM     71  C   UNL A   1      36.879  29.958  27.765  1.00  0.00     0.001 A 
ATOM     72  C   UNL A   1      36.045  29.841  28.876  1.00  0.00     0.000 A 
ENDBRANCH  48  67
BRANCH  60  73
ATOM     73  C   UNL A   1      44.491  32.758  30.629  1.00  0.00    -0.014 A 
ATOM     74  C   UNL A   1      44.679  33.723  29.627  1.00  0.00     0.009 A 
ATOM     75  C   UNL A   1      44.503  33.162  31.973  1.00  0.00     0.009 A 
ATOM     76  C   UNL A   1      44.917  35.056  29.966  1.00  0.00     0.001 A 
ATOM     77  C   UNL A   1      44.714  34.499  32.309  1.00  0.00     0.001 A 
ATOM     78  C   UNL A   1      44.932  35.443  31.306  1.00  0.00     0.000 A 
ENDBRANCH  60  73
ENDBRANCH  34  35
ENDBRANCH  26  29
ENDBRANCH  24  25
ENDBRANCH   1  24
TORSDOF 12
ENDMDL
MODEL 3
REMARK VINA RESULT:     -11.7      4.974      9.335
REMARK SMILES O=C(NCCCCNC(=O)c1ccc(-c2c3nc(c(-c4ccccc4)c4ccc([nH]4)c(-c4ccccc4)c4nc(c(-c5ccccc5)c5ccc2[nH]5)C=C4)C=C3)cc1)C1=Cc2ccc(Cl)c(Cl)c2O[C@@H]1C(F)(F)F
REMARK SMILES IDX 6 1 5 2 4 3 3 4 1 5 2 6 59 8 60 9 70 10 61 11 69 12 62 13
REMARK SMILES IDX 68 14 63 15 66 16 64 17 67 18 65 19 71 20 72 21 73 22 74 23
REMARK SMILES IDX 7 24 8 25 9 26 10 28 11 29 12 30 58 31 13 32 57 33 14 34
REMARK SMILES IDX 15 35 16 36 51 37 17 38 56 39 50 40 52 41 18 42 55 43 49 44
REMARK SMILES IDX 48 45 19 47 41 48 26 49 40 50 27 51 30 52 39 53 53 54 28 55
REMARK SMILES IDX 29 56 38 58 54 59 31 60 20 61 21 62 25 63 22 64 24 65 23 66
REMARK SMILES IDX 42 67 43 68 47 69 44 70 46 71 45 72 32 73 33 74 37 75 34 76
REMARK SMILES IDX 36 77 35 78
REMARK H PARENT 3 7 8 27 52 46 30 57
REMARK Flexibility Score: inf
ROOT
ATOM      1  C   UNL A   1      33.212  33.606  28.208  1.00  0.00     0.023 C 
ENDROOT
BRANCH   1   2
ATOM      2  C   UNL A   1      33.656  35.050  28.400  1.00  0.00     0.023 C 
BRANCH   2   3
ATOM      3  C   UNL A   1      33.582  35.598  29.820  1.00  0.00     0.116 C 
BRANCH   3   4
ATOM      4  N   UNL A   1      33.285  34.618  30.849  1.00  0.00    -0.352 N 
ATOM      5  O   UNL A   1      33.654  33.288  32.617  1.00  0.00    -0.270 OA
ATOM      6  C   UNL A   1      34.128  33.984  31.720  1.00  0.00     0.251 C 
ATOM      7  H   UNL A   1      32.334  34.375  30.933  1.00  0.00     0.163 HD
BRANCH   6   8
ATOM      8  C   UNL A   1      35.610  34.171  31.682  1.00  0.00     0.067 C 
ATOM      9  C   UNL A   1      36.279  34.780  32.676  1.00  0.00     0.025 C 
ATOM     10  C   UNL A   1      36.315  33.101  30.881  1.00  0.00     0.314 C 
ATOM     11  C   UNL A   1      37.078  33.813  33.471  1.00  0.00     0.019 A 
ATOM     12  O   UNL A   1      36.898  32.096  31.753  1.00  0.00    -0.474 OA
ATOM     13  C   UNL A   1      37.421  34.168  34.781  1.00  0.00     0.013 A 
ATOM     14  C   UNL A   1      37.253  32.491  33.025  1.00  0.00     0.148 A 
ATOM     15  C   UNL A   1      37.852  33.186  35.671  1.00  0.00     0.023 A 
ATOM     16  C   UNL A   1      37.700  31.507  33.920  1.00  0.00     0.102 A 
ATOM     17  C   UNL A   1      37.973  31.857  35.251  1.00  0.00     0.063 A 
ATOM     18  Cl  UNL A   1      37.810  29.860  33.387  1.00  0.00    -0.079 Cl
ATOM     19  Cl  UNL A   1      38.401  30.687  36.448  1.00  0.00    -0.083 Cl
BRANCH  10  20
ATOM     20  C   UNL A   1      37.358  33.684  29.915  1.00  0.00     0.429 C 
ATOM     21  F   UNL A   1      36.840  34.693  29.175  1.00  0.00    -0.167 F 
ATOM     22  F   UNL A   1      38.425  34.189  30.579  1.00  0.00    -0.167 F 
ATOM     23  F   UNL A   1      37.833  32.755  29.050  1.00  0.00    -0.167 F 
ENDBRANCH  10  20
ENDBRANCH   6   8
ENDBRANCH   3   4
ENDBRANCH   2   3
ENDBRANCH   1   2
BRANCH   1  24
ATOM     24  C   UNL A   1      34.302  32.590  27.870  1.00  0.00     0.116 C 
BRANCH  24  25
ATOM     25  N   UNL A   1      33.815  31.254  27.554  1.00  0.00    -0.352 N 
ATOM     26  C   UNL A   1      34.444  30.032  27.658  1.00  0.00     0.251 C 
ATOM     27  H   UNL A   1      32.893  31.218  27.214  1.00  0.00     0.163 HD
ATOM     28  O   UNL A   1      33.864  29.016  27.282  1.00  0.00    -0.269 OA
BRANCH  26  29
ATOM     29  C   UNL A   1      35.837  29.943  28.153  1.00  0.00     0.039 A 
ATOM     30  C   UNL A   1      36.049  29.589  29.489  1.00  0.00     0.014 A 
ATOM     31  C   UNL A   1      36.930  30.148  27.308  1.00  0.00     0.014 A 
ATOM     32  C   UNL A   1      37.344  29.323  29.939  1.00  0.00     0.010 A 
ATOM     33  C   UNL A   1      38.210  29.798  27.732  1.00  0.00     0.010 A 
ATOM     34  C   UNL A   1      38.428  29.361  29.046  1.00  0.00    -0.014 A 
BRANCH  34  35
ATOM     35  C   UNL A   1      39.769  28.877  29.467  1.00  0.00     0.031 A 
ATOM     36  C   UNL A   1      40.629  29.676  30.404  1.00  0.00     0.074 A 
ATOM     37  C   UNL A   1      40.239  27.721  28.952  1.00  0.00     0.049 A 
ATOM     38  N   UNL A   1      41.795  29.369  30.914  1.00  0.00    -0.248 NA
ATOM     39  C   UNL A   1      40.130  31.002  30.800  1.00  0.00     0.031 C 
ATOM     40  C   UNL A   1      39.543  26.886  27.969  1.00  0.00     0.029 A 
ATOM     41  N   UNL A   1      41.409  27.044  29.191  1.00  0.00    -0.354 N 
ATOM     42  C   UNL A   1      42.175  30.466  31.676  1.00  0.00     0.074 A 
ATOM     43  C   UNL A   1      41.140  31.465  31.520  1.00  0.00     0.031 C 
ATOM     44  C   UNL A   1      40.270  25.781  27.737  1.00  0.00     0.029 A 
ATOM     45  C   UNL A   1      41.492  25.842  28.529  1.00  0.00     0.049 A 
ATOM     46  H   UNL A   1      42.119  27.386  29.780  1.00  0.00     0.167 HD
ATOM     47  C   UNL A   1      43.274  30.624  32.453  1.00  0.00     0.031 A 
ATOM     48  C   UNL A   1      42.437  24.884  28.572  1.00  0.00     0.031 A 
ATOM     49  C   UNL A   1      44.301  29.629  32.618  1.00  0.00     0.049 A 
ATOM     50  C   UNL A   1      43.628  25.064  29.467  1.00  0.00     0.074 A 
ATOM     51  C   UNL A   1      45.413  29.663  33.442  1.00  0.00     0.029 A 
ATOM     52  N   UNL A   1      44.344  28.421  31.940  1.00  0.00    -0.354 N 
ATOM     53  N   UNL A   1      43.920  26.064  30.263  1.00  0.00    -0.248 NA
ATOM     54  C   UNL A   1      44.610  23.971  29.483  1.00  0.00     0.031 C 
ATOM     55  C   UNL A   1      46.152  28.493  33.230  1.00  0.00     0.029 A 
ATOM     56  C   UNL A   1      45.474  27.710  32.308  1.00  0.00     0.049 A 
ATOM     57  H   UNL A   1      43.670  28.113  31.291  1.00  0.00     0.167 HD
ATOM     58  C   UNL A   1      45.104  25.710  30.894  1.00  0.00     0.074 A 
ATOM     59  C   UNL A   1      45.466  24.396  30.401  1.00  0.00     0.031 C 
ATOM     60  C   UNL A   1      45.827  26.410  31.803  1.00  0.00     0.031 A 
BRANCH  47  61
ATOM     61  C   UNL A   1      43.420  31.931  33.180  1.00  0.00    -0.014 A 
ATOM     62  C   UNL A   1      42.885  32.112  34.466  1.00  0.00     0.009 A 
ATOM     63  C   UNL A   1      44.113  32.993  32.578  1.00  0.00     0.009 A 
ATOM     64  C   UNL A   1      43.004  33.341  35.116  1.00  0.00     0.001 A 
ATOM     65  C   UNL A   1      44.253  34.213  33.243  1.00  0.00     0.001 A 
ATOM     66  C   UNL A   1      43.690  34.390  34.505  1.00  0.00     0.000 A 
ENDBRANCH  47  61
BRANCH  48  67
ATOM     67  C   UNL A   1      42.262  23.633  27.791  1.00  0.00    -0.014 A 
ATOM     68  C   UNL A   1      42.741  23.553  26.473  1.00  0.00     0.009 A 
ATOM     69  C   UNL A   1      41.622  22.516  28.350  1.00  0.00     0.009 A 
ATOM     70  C   UNL A   1      42.559  22.391  25.722  1.00  0.00     0.001 A 
ATOM     71  C   UNL A   1      41.464  21.346  27.604  1.00  0.00     0.001 A 
ATOM     72  C   UNL A   1      41.924  21.287  26.289  1.00  0.00     0.000 A 
ENDBRANCH  48  67
BRANCH  60  73
ATOM     73  C   UNL A   1      47.067  25.750  32.336  1.00  0.00    -0.014 A 
ATOM     74  C   UNL A   1      47.030  24.963  33.498  1.00  0.00     0.009 A 
ATOM     75  C   UNL A   1      48.287  25.914  31.663  1.00  0.00     0.009 A 
ATOM     76  C   UNL A   1      48.201  24.390  33.999  1.00  0.00     0.001 A 
ATOM     77  C   UNL A   1      49.450  25.317  32.151  1.00  0.00     0.001 A 
ATOM     78  C   UNL A   1      49.408  24.565  33.324  1.00  0.00     0.000 A 
ENDBRANCH  60  73
ENDBRANCH  34  35
ENDBRANCH  26  29
ENDBRANCH  24  25
ENDBRANCH   1  24
TORSDOF 12
ENDMDL
