MODEL 1
REMARK VINA RESULT:     -11.3      0.000      0.000
REMARK SMILES O=C(NCCCCNC(=O)[C@H]1CC[C@H]2CCCC[C@@H]2[N@H+]1[C@@H]1CCCSC1)c1ccc(-c2c3nc(c(-c4ccccc4)c4ccc([nH]4)c(-c4ccccc4)c4nc(c(-c5ccccc5)c5ccc2[nH]5)C=C4)C=C3)cc1
REMARK SMILES IDX 5 1 4 2 3 3 1 4 2 5 27 7 28 8 74 9 29 10 73 11 30 12 31 13
REMARK SMILES IDX 32 14 67 15 33 16 72 17 66 18 68 19 34 20 71 21 65 22 64 23
REMARK SMILES IDX 35 25 57 26 42 27 56 28 43 29 46 30 55 31 69 32 44 33 45 34
REMARK SMILES IDX 54 36 70 37 47 38 36 39 37 40 41 41 38 42 40 43 39 44 58 45
REMARK SMILES IDX 59 46 63 47 60 48 62 49 61 50 48 51 49 52 53 53 50 54 52 55
REMARK SMILES IDX 51 56 6 57 7 58 8 59 9 60 10 62 11 63 12 64 20 65 13 66
REMARK SMILES IDX 19 67 14 69 18 70 15 71 17 72 16 73 21 74 22 75 26 76 23 77
REMARK SMILES IDX 25 78 24 79
REMARK H PARENT 3 6 68 24 46 35 8 61 20 68
REMARK Flexibility Score: inf
ROOT
ATOM      1  C   UNL A   1      32.241  29.112  26.887  1.00  0.00     0.023 C 
ENDROOT
BRANCH   1   2
ATOM      2  C   UNL A   1      33.637  29.688  27.045  1.00  0.00     0.116 C 
BRANCH   2   3
ATOM      3  N   UNL A   1      33.752  30.836  27.941  1.00  0.00    -0.352 N 
ATOM      4  O   UNL A   1      34.817  32.168  29.452  1.00  0.00    -0.269 OA
ATOM      5  C   UNL A   1      34.840  31.190  28.714  1.00  0.00     0.251 C 
ATOM      6  H   UNL A   1      32.965  31.424  28.000  1.00  0.00     0.163 HD
BRANCH   5   7
ATOM      7  C   UNL A   1      36.022  30.309  28.685  1.00  0.00     0.039 A 
ATOM      8  C   UNL A   1      36.375  29.597  29.830  1.00  0.00     0.014 A 
ATOM      9  C   UNL A   1      36.868  30.345  27.575  1.00  0.00     0.014 A 
ATOM     10  C   UNL A   1      37.674  29.133  29.955  1.00  0.00     0.010 A 
ATOM     11  C   UNL A   1      38.134  29.761  27.661  1.00  0.00     0.010 A 
ATOM     12  C   UNL A   1      38.573  29.215  28.877  1.00  0.00    -0.014 A 
BRANCH  12  13
ATOM     13  C   UNL A   1      39.961  28.724  29.067  1.00  0.00     0.031 A 
ATOM     14  C   UNL A   1      40.384  27.362  28.585  1.00  0.00     0.074 A 
ATOM     15  C   UNL A   1      40.867  29.562  29.605  1.00  0.00     0.049 A 
ATOM     16  N   UNL A   1      41.571  26.807  28.638  1.00  0.00    -0.248 NA
ATOM     17  C   UNL A   1      39.354  26.506  27.975  1.00  0.00     0.031 C 
ATOM     18  C   UNL A   1      40.579  30.913  30.096  1.00  0.00     0.029 A 
ATOM     19  N   UNL A   1      42.218  29.427  29.781  1.00  0.00    -0.354 N 
ATOM     20  C   UNL A   1      41.417  25.525  28.121  1.00  0.00     0.074 A 
ATOM     21  C   UNL A   1      40.024  25.383  27.756  1.00  0.00     0.031 C 
ATOM     22  C   UNL A   1      41.730  31.516  30.421  1.00  0.00     0.029 A 
ATOM     23  C   UNL A   1      42.822  30.569  30.246  1.00  0.00     0.049 A 
ATOM     24  H   UNL A   1      42.708  28.593  29.592  1.00  0.00     0.167 HD
ATOM     25  C   UNL A   1      42.351  24.555  27.971  1.00  0.00     0.031 A 
ATOM     26  C   UNL A   1      44.114  30.829  30.512  1.00  0.00     0.031 A 
ATOM     27  C   UNL A   1      43.744  24.712  28.296  1.00  0.00     0.049 A 
ATOM     28  C   UNL A   1      45.128  29.744  30.323  1.00  0.00     0.074 A 
ATOM     29  C   UNL A   1      44.773  23.796  28.152  1.00  0.00     0.029 A 
ATOM     30  N   UNL A   1      44.306  25.864  28.822  1.00  0.00    -0.354 N 
ATOM     31  N   UNL A   1      44.958  28.533  29.851  1.00  0.00    -0.248 NA
ATOM     32  C   UNL A   1      46.506  30.056  30.720  1.00  0.00     0.031 C 
ATOM     33  C   UNL A   1      45.953  24.385  28.623  1.00  0.00     0.029 A 
ATOM     34  C   UNL A   1      45.664  25.678  29.024  1.00  0.00     0.049 A 
ATOM     35  H   UNL A   1      43.814  26.693  29.023  1.00  0.00     0.167 HD
ATOM     36  C   UNL A   1      46.208  27.934  29.898  1.00  0.00     0.074 A 
ATOM     37  C   UNL A   1      47.129  28.927  30.417  1.00  0.00     0.031 C 
ATOM     38  C   UNL A   1      46.559  26.673  29.553  1.00  0.00     0.031 A 
BRANCH  25  39
ATOM     39  C   UNL A   1      41.890  23.217  27.465  1.00  0.00    -0.014 A 
ATOM     40  C   UNL A   1      41.922  22.893  26.101  1.00  0.00     0.009 A 
ATOM     41  C   UNL A   1      41.461  22.245  28.384  1.00  0.00     0.009 A 
ATOM     42  C   UNL A   1      41.509  21.632  25.664  1.00  0.00     0.001 A 
ATOM     43  C   UNL A   1      41.069  20.978  27.947  1.00  0.00     0.001 A 
ATOM     44  C   UNL A   1      41.087  20.674  26.587  1.00  0.00     0.000 A 
ENDBRANCH  25  39
BRANCH  26  45
ATOM     45  C   UNL A   1      44.505  32.174  30.996  1.00  0.00    -0.014 A 
ATOM     46  C   UNL A   1      44.915  33.163  30.091  1.00  0.00     0.009 A 
ATOM     47  C   UNL A   1      44.424  32.491  32.362  1.00  0.00     0.009 A 
ATOM     48  C   UNL A   1      45.243  34.442  30.544  1.00  0.00     0.001 A 
ATOM     49  C   UNL A   1      44.726  33.778  32.808  1.00  0.00     0.001 A 
ATOM     50  C   UNL A   1      45.141  34.750  31.901  1.00  0.00     0.000 A 
ENDBRANCH  26  45
BRANCH  38  51
ATOM     51  C   UNL A   1      48.004  26.311  29.721  1.00  0.00    -0.014 A 
ATOM     52  C   UNL A   1      48.918  26.490  28.672  1.00  0.00     0.009 A 
ATOM     53  C   UNL A   1      48.453  25.786  30.942  1.00  0.00     0.009 A 
ATOM     54  C   UNL A   1      50.253  26.119  28.832  1.00  0.00     0.001 A 
ATOM     55  C   UNL A   1      49.794  25.435  31.105  1.00  0.00     0.001 A 
ATOM     56  C   UNL A   1      50.690  25.593  30.048  1.00  0.00     0.000 A 
ENDBRANCH  38  51
ENDBRANCH  12  13
ENDBRANCH   5   7
ENDBRANCH   2   3
ENDBRANCH   1   2
BRANCH   1  57
ATOM     57  C   UNL A   1      32.107  27.683  27.372  1.00  0.00     0.023 C 
BRANCH  57  58
ATOM     58  C   UNL A   1      31.786  26.623  26.307  1.00  0.00     0.116 C 
BRANCH  58  59
ATOM     59  N   UNL A   1      31.346  25.404  26.946  1.00  0.00    -0.351 N 
ATOM     60  C   UNL A   1      31.669  24.099  26.821  1.00  0.00     0.278 C 
ATOM     61  H   UNL A   1      30.653  25.560  27.628  1.00  0.00     0.163 HD
ATOM     62  O   UNL A   1      30.814  23.355  27.339  1.00  0.00    -0.268 OA
BRANCH  60  63
ATOM     63  C   UNL A   1      32.952  23.426  26.253  1.00  0.00     0.274 C 
ATOM     64  C   UNL A   1      32.685  21.920  26.034  1.00  0.00     0.076 C 
ATOM     65  N   UNL A   1      33.815  24.034  25.205  1.00  0.00    -0.319 N 
ATOM     66  C   UNL A   1      33.910  21.147  25.532  1.00  0.00     0.016 C 
ATOM     67  C   UNL A   1      35.118  23.322  25.107  1.00  0.00     0.188 C 
ATOM     68  H   UNL A   1      33.942  24.984  25.554  1.00  0.00     0.349 HD
ATOM     69  C   UNL A   1      35.178  21.944  25.810  1.00  0.00     0.048 C 
ATOM     70  C   UNL A   1      36.273  24.178  25.651  1.00  0.00     0.065 C 
ATOM     71  C   UNL A   1      36.454  21.224  25.370  1.00  0.00     0.010 C 
ATOM     72  C   UNL A   1      37.615  23.505  25.333  1.00  0.00     0.006 C 
ATOM     73  C   UNL A   1      37.684  22.040  25.775  1.00  0.00     0.001 C 
BRANCH  65  74
ATOM     74  C   UNL A   1      33.235  24.277  23.863  1.00  0.00     0.194 C 
ATOM     75  C   UNL A   1      33.735  23.489  22.633  1.00  0.00     0.067 C 
ATOM     76  C   UNL A   1      33.256  25.805  23.582  1.00  0.00     0.134 C 
ATOM     77  C   UNL A   1      32.870  23.744  21.392  1.00  0.00     0.017 C 
ATOM     78  S   UNL A   1      32.222  26.316  22.175  1.00  0.00    -0.156 SA
ATOM     79  C   UNL A   1      32.881  25.191  20.921  1.00  0.00     0.070 C 
ENDBRANCH  65  74
ENDBRANCH  60  63
ENDBRANCH  58  59
ENDBRANCH  57  58
ENDBRANCH   1  57
TORSDOF 12
ENDMDL
MODEL 2
REMARK VINA RESULT:     -11.0      2.444      6.888
REMARK SMILES O=C(NCCCCNC(=O)[C@H]1CC[C@H]2CCCC[C@@H]2[N@H+]1[C@@H]1CCCSC1)c1ccc(-c2c3nc(c(-c4ccccc4)c4ccc([nH]4)c(-c4ccccc4)c4nc(c(-c5ccccc5)c5ccc2[nH]5)C=C4)C=C3)cc1
REMARK SMILES IDX 5 1 4 2 3 3 1 4 2 5 27 7 28 8 74 9 29 10 73 11 30 12 31 13
REMARK SMILES IDX 32 14 67 15 33 16 72 17 66 18 68 19 34 20 71 21 65 22 64 23
REMARK SMILES IDX 35 25 57 26 42 27 56 28 43 29 46 30 55 31 69 32 44 33 45 34
REMARK SMILES IDX 54 36 70 37 47 38 36 39 37 40 41 41 38 42 40 43 39 44 58 45
REMARK SMILES IDX 59 46 63 47 60 48 62 49 61 50 48 51 49 52 53 53 50 54 52 55
REMARK SMILES IDX 51 56 6 57 7 58 8 59 9 60 10 62 11 63 12 64 20 65 13 66
REMARK SMILES IDX 19 67 14 69 18 70 15 71 17 72 16 73 21 74 22 75 26 76 23 77
REMARK SMILES IDX 25 78 24 79
REMARK H PARENT 3 6 68 24 46 35 8 61 20 68
REMARK Flexibility Score: inf
ROOT
ATOM      1  C   UNL A   1      32.474  30.369  26.434  1.00  0.00     0.023 C 
ENDROOT
BRANCH   1   2
ATOM      2  C   UNL A   1      33.276  31.364  27.253  1.00  0.00     0.116 C 
BRANCH   2   3
ATOM      3  N   UNL A   1      32.636  32.658  27.482  1.00  0.00    -0.352 N 
ATOM      4  O   UNL A   1      32.497  34.758  28.353  1.00  0.00    -0.269 OA
ATOM      5  C   UNL A   1      33.134  33.722  28.206  1.00  0.00     0.251 C 
ATOM      6  H   UNL A   1      31.749  32.785  27.074  1.00  0.00     0.163 HD
BRANCH   5   7
ATOM      7  C   UNL A   1      34.441  33.554  28.868  1.00  0.00     0.039 A 
ATOM      8  C   UNL A   1      35.595  34.013  28.236  1.00  0.00     0.014 A 
ATOM      9  C   UNL A   1      34.520  32.777  30.026  1.00  0.00     0.014 A 
ATOM     10  C   UNL A   1      36.820  33.490  28.616  1.00  0.00     0.010 A 
ATOM     11  C   UNL A   1      35.771  32.356  30.483  1.00  0.00     0.010 A 
ATOM     12  C   UNL A   1      36.924  32.649  29.739  1.00  0.00    -0.014 A 
BRANCH  12  13
ATOM     13  C   UNL A   1      38.255  32.095  30.094  1.00  0.00     0.031 A 
ATOM     14  C   UNL A   1      39.117  32.739  31.147  1.00  0.00     0.074 A 
ATOM     15  C   UNL A   1      38.645  30.945  29.513  1.00  0.00     0.049 A 
ATOM     16  N   UNL A   1      40.284  32.351  31.600  1.00  0.00    -0.248 NA
ATOM     17  C   UNL A   1      38.620  33.978  31.768  1.00  0.00     0.031 C 
ATOM     18  C   UNL A   1      37.887  30.219  28.489  1.00  0.00     0.029 A 
ATOM     19  N   UNL A   1      39.741  30.155  29.736  1.00  0.00    -0.354 N 
ATOM     20  C   UNL A   1      40.683  33.320  32.514  1.00  0.00     0.074 A 
ATOM     21  C   UNL A   1      39.632  34.315  32.556  1.00  0.00     0.031 C 
ATOM     22  C   UNL A   1      38.488  29.047  28.247  1.00  0.00     0.029 A 
ATOM     23  C   UNL A   1      39.714  28.978  29.031  1.00  0.00     0.049 A 
ATOM     24  H   UNL A   1      40.476  30.408  30.341  1.00  0.00     0.167 HD
ATOM     25  C   UNL A   1      41.821  33.378  33.245  1.00  0.00     0.031 A 
ATOM     26  C   UNL A   1      40.583  27.953  29.007  1.00  0.00     0.031 A 
ATOM     27  C   UNL A   1      42.846  32.367  33.233  1.00  0.00     0.049 A 
ATOM     28  C   UNL A   1      41.827  28.035  29.837  1.00  0.00     0.074 A 
ATOM     29  C   UNL A   1      44.023  32.322  33.961  1.00  0.00     0.029 A 
ATOM     30  N   UNL A   1      42.810  31.217  32.459  1.00  0.00    -0.354 N 
ATOM     31  N   UNL A   1      42.193  28.969  30.679  1.00  0.00    -0.248 NA
ATOM     32  C   UNL A   1      42.783  26.930  29.697  1.00  0.00     0.031 C 
ATOM     33  C   UNL A   1      44.716  31.159  33.602  1.00  0.00     0.029 A 
ATOM     34  C   UNL A   1      43.952  30.464  32.680  1.00  0.00     0.049 A 
ATOM     35  H   UNL A   1      42.083  30.973  31.844  1.00  0.00     0.167 HD
ATOM     36  C   UNL A   1      43.427  28.569  31.169  1.00  0.00     0.074 A 
ATOM     37  C   UNL A   1      43.730  27.293  30.551  1.00  0.00     0.031 C 
ATOM     38  C   UNL A   1      44.240  29.206  32.045  1.00  0.00     0.031 A 
BRANCH  25  39
ATOM     39  C   UNL A   1      42.042  34.597  34.096  1.00  0.00    -0.014 A 
ATOM     40  C   UNL A   1      42.619  35.765  33.575  1.00  0.00     0.009 A 
ATOM     41  C   UNL A   1      41.618  34.587  35.435  1.00  0.00     0.009 A 
ATOM     42  C   UNL A   1      42.790  36.889  34.386  1.00  0.00     0.001 A 
ATOM     43  C   UNL A   1      41.772  35.720  36.237  1.00  0.00     0.001 A 
ATOM     44  C   UNL A   1      42.363  36.868  35.714  1.00  0.00     0.000 A 
ENDBRANCH  25  39
BRANCH  26  45
ATOM     45  C   UNL A   1      40.300  26.773  28.156  1.00  0.00    -0.014 A 
ATOM     46  C   UNL A   1      39.481  25.736  28.627  1.00  0.00     0.009 A 
ATOM     47  C   UNL A   1      40.809  26.699  26.849  1.00  0.00     0.009 A 
ATOM     48  C   UNL A   1      39.182  24.645  27.809  1.00  0.00     0.001 A 
ATOM     49  C   UNL A   1      40.486  25.621  26.024  1.00  0.00     0.001 A 
ATOM     50  C   UNL A   1      39.678  24.593  26.506  1.00  0.00     0.000 A 
ENDBRANCH  26  45
BRANCH  38  51
ATOM     51  C   UNL A   1      45.528  28.518  32.383  1.00  0.00    -0.014 A 
ATOM     52  C   UNL A   1      46.695  28.774  31.648  1.00  0.00     0.009 A 
ATOM     53  C   UNL A   1      45.573  27.608  33.449  1.00  0.00     0.009 A 
ATOM     54  C   UNL A   1      47.879  28.102  31.954  1.00  0.00     0.001 A 
ATOM     55  C   UNL A   1      46.765  26.953  33.765  1.00  0.00     0.001 A 
ATOM     56  C   UNL A   1      47.913  27.194  33.012  1.00  0.00     0.000 A 
ENDBRANCH  38  51
ENDBRANCH  12  13
ENDBRANCH   5   7
ENDBRANCH   2   3
ENDBRANCH   1   2
BRANCH   1  57
ATOM     57  C   UNL A   1      31.719  29.353  27.267  1.00  0.00     0.023 C 
BRANCH  57  58
ATOM     58  C   UNL A   1      32.275  27.920  27.273  1.00  0.00     0.116 C 
BRANCH  58  59
ATOM     59  N   UNL A   1      31.186  26.972  27.219  1.00  0.00    -0.351 N 
ATOM     60  C   UNL A   1      30.960  25.827  26.540  1.00  0.00     0.278 C 
ATOM     61  H   UNL A   1      30.438  27.217  27.811  1.00  0.00     0.163 HD
ATOM     62  O   UNL A   1      29.755  25.508  26.553  1.00  0.00    -0.268 OA
BRANCH  60  63
ATOM     63  C   UNL A   1      31.956  24.833  25.876  1.00  0.00     0.274 C 
ATOM     64  C   UNL A   1      31.163  23.763  25.092  1.00  0.00     0.076 C 
ATOM     65  N   UNL A   1      33.219  25.245  25.206  1.00  0.00    -0.319 N 
ATOM     66  C   UNL A   1      32.052  22.693  24.447  1.00  0.00     0.016 C 
ATOM     67  C   UNL A   1      34.102  24.072  24.964  1.00  0.00     0.188 C 
ATOM     68  H   UNL A   1      33.630  25.878  25.893  1.00  0.00     0.349 HD
ATOM     69  C   UNL A   1      33.423  22.688  25.109  1.00  0.00     0.048 C 
ATOM     70  C   UNL A   1      35.333  24.091  25.884  1.00  0.00     0.065 C 
ATOM     71  C   UNL A   1      34.363  21.621  24.544  1.00  0.00     0.010 C 
ATOM     72  C   UNL A   1      36.320  22.996  25.455  1.00  0.00     0.006 C 
ATOM     73  C   UNL A   1      35.678  21.611  25.327  1.00  0.00     0.001 C 
BRANCH  65  74
ATOM     74  C   UNL A   1      33.135  26.110  24.005  1.00  0.00     0.194 C 
ATOM     75  C   UNL A   1      33.583  25.587  22.624  1.00  0.00     0.067 C 
ATOM     76  C   UNL A   1      33.814  27.470  24.325  1.00  0.00     0.134 C 
ATOM     77  C   UNL A   1      33.225  26.560  21.493  1.00  0.00     0.017 C 
ATOM     78  S   UNL A   1      33.446  28.784  23.122  1.00  0.00    -0.156 SA
ATOM     79  C   UNL A   1      33.912  27.913  21.606  1.00  0.00     0.070 C 
ENDBRANCH  65  74
ENDBRANCH  60  63
ENDBRANCH  58  59
ENDBRANCH  57  58
ENDBRANCH   1  57
TORSDOF 12
ENDMDL
MODEL 3
REMARK VINA RESULT:     -11.0      3.868      5.355
REMARK SMILES O=C(NCCCCNC(=O)[C@H]1CC[C@H]2CCCC[C@@H]2[N@H+]1[C@@H]1CCCSC1)c1ccc(-c2c3nc(c(-c4ccccc4)c4ccc([nH]4)c(-c4ccccc4)c4nc(c(-c5ccccc5)c5ccc2[nH]5)C=C4)C=C3)cc1
REMARK SMILES IDX 5 1 4 2 3 3 1 4 2 5 27 7 28 8 74 9 29 10 73 11 30 12 31 13
REMARK SMILES IDX 32 14 67 15 33 16 72 17 66 18 68 19 34 20 71 21 65 22 64 23
REMARK SMILES IDX 35 25 57 26 42 27 56 28 43 29 46 30 55 31 69 32 44 33 45 34
REMARK SMILES IDX 54 36 70 37 47 38 36 39 37 40 41 41 38 42 40 43 39 44 58 45
REMARK SMILES IDX 59 46 63 47 60 48 62 49 61 50 48 51 49 52 53 53 50 54 52 55
REMARK SMILES IDX 51 56 6 57 7 58 8 59 9 60 10 62 11 63 12 64 20 65 13 66
REMARK SMILES IDX 19 67 14 69 18 70 15 71 17 72 16 73 21 74 22 75 26 76 23 77
REMARK SMILES IDX 25 78 24 79
REMARK H PARENT 3 6 68 24 46 35 8 61 20 68
REMARK Flexibility Score: inf
ROOT
ATOM      1  C   UNL A   1      31.163  31.721  26.518  1.00  0.00     0.023 C 
ENDROOT
BRANCH   1   2
ATOM      2  C   UNL A   1      32.299  32.727  26.499  1.00  0.00     0.116 C 
BRANCH   2   3
ATOM      3  N   UNL A   1      32.143  33.878  27.385  1.00  0.00    -0.352 N 
ATOM      4  O   UNL A   1      32.772  35.279  29.069  1.00  0.00    -0.269 OA
ATOM      5  C   UNL A   1      33.018  34.307  28.363  1.00  0.00     0.251 C 
ATOM      6  H   UNL A   1      31.321  34.407  27.273  1.00  0.00     0.163 HD
BRANCH   5   7
ATOM      7  C   UNL A   1      34.241  33.515  28.590  1.00  0.00     0.039 A 
ATOM      8  C   UNL A   1      34.135  32.148  28.840  1.00  0.00     0.014 A 
ATOM      9  C   UNL A   1      35.462  34.175  28.732  1.00  0.00     0.014 A 
ATOM     10  C   UNL A   1      35.185  31.499  29.468  1.00  0.00     0.010 A 
ATOM     11  C   UNL A   1      36.559  33.482  29.247  1.00  0.00     0.010 A 
ATOM     12  C   UNL A   1      36.408  32.158  29.687  1.00  0.00    -0.014 A 
BRANCH  12  13
ATOM     13  C   UNL A   1      37.497  31.428  30.384  1.00  0.00     0.031 A 
ATOM     14  C   UNL A   1      38.428  30.509  29.639  1.00  0.00     0.074 A 
ATOM     15  C   UNL A   1      37.694  31.672  31.694  1.00  0.00     0.049 A 
ATOM     16  N   UNL A   1      39.453  29.834  30.098  1.00  0.00    -0.248 NA
ATOM     17  C   UNL A   1      38.179  30.309  28.202  1.00  0.00     0.031 C 
ATOM     18  C   UNL A   1      36.867  32.555  32.520  1.00  0.00     0.029 A 
ATOM     19  N   UNL A   1      38.678  31.247  32.545  1.00  0.00    -0.354 N 
ATOM     20  C   UNL A   1      39.935  29.093  29.025  1.00  0.00     0.074 A 
ATOM     21  C   UNL A   1      39.094  29.401  27.888  1.00  0.00     0.031 C 
ATOM     22  C   UNL A   1      37.433  32.686  33.727  1.00  0.00     0.029 A 
ATOM     23  C   UNL A   1      38.611  31.830  33.787  1.00  0.00     0.049 A 
ATOM     24  H   UNL A   1      39.366  30.589  32.293  1.00  0.00     0.167 HD
ATOM     25  C   UNL A   1      40.979  28.231  28.992  1.00  0.00     0.031 A 
ATOM     26  C   UNL A   1      39.403  31.689  34.864  1.00  0.00     0.031 A 
ATOM     27  C   UNL A   1      41.841  27.956  30.112  1.00  0.00     0.049 A 
ATOM     28  C   UNL A   1      40.559  30.741  34.796  1.00  0.00     0.074 A 
ATOM     29  C   UNL A   1      42.943  27.119  30.168  1.00  0.00     0.029 A 
ATOM     30  N   UNL A   1      41.703  28.520  31.370  1.00  0.00    -0.354 N 
ATOM     31  N   UNL A   1      40.985  30.035  33.777  1.00  0.00    -0.248 NA
ATOM     32  C   UNL A   1      41.330  30.556  36.031  1.00  0.00     0.031 C 
ATOM     33  C   UNL A   1      43.452  27.152  31.473  1.00  0.00     0.029 A 
ATOM     34  C   UNL A   1      42.689  28.038  32.215  1.00  0.00     0.049 A 
ATOM     35  H   UNL A   1      41.007  29.167  31.626  1.00  0.00     0.167 HD
ATOM     36  C   UNL A   1      42.075  29.318  34.248  1.00  0.00     0.074 A 
ATOM     37  C   UNL A   1      42.259  29.697  35.636  1.00  0.00     0.031 C 
ATOM     38  C   UNL A   1      42.846  28.418  33.593  1.00  0.00     0.031 A 
BRANCH  25  39
ATOM     39  C   UNL A   1      41.229  27.486  27.710  1.00  0.00    -0.014 A 
ATOM     40  C   UNL A   1      42.089  27.988  26.721  1.00  0.00     0.009 A 
ATOM     41  C   UNL A   1      40.625  26.233  27.513  1.00  0.00     0.009 A 
ATOM     42  C   UNL A   1      42.318  27.261  25.551  1.00  0.00     0.001 A 
ATOM     43  C   UNL A   1      40.873  25.500  26.351  1.00  0.00     0.001 A 
ATOM     44  C   UNL A   1      41.714  26.016  25.368  1.00  0.00     0.000 A 
ENDBRANCH  25  39
BRANCH  26  45
ATOM     45  C   UNL A   1      39.110  32.462  36.094  1.00  0.00    -0.014 A 
ATOM     46  C   UNL A   1      39.707  33.713  36.305  1.00  0.00     0.009 A 
ATOM     47  C   UNL A   1      38.195  31.973  37.041  1.00  0.00     0.009 A 
ATOM     48  C   UNL A   1      39.398  34.458  37.445  1.00  0.00     0.001 A 
ATOM     49  C   UNL A   1      37.868  32.733  38.165  1.00  0.00     0.001 A 
ATOM     50  C   UNL A   1      38.473  33.971  38.369  1.00  0.00     0.000 A 
ENDBRANCH  26  45
BRANCH  38  51
ATOM     51  C   UNL A   1      43.961  27.796  34.379  1.00  0.00    -0.014 A 
ATOM     52  C   UNL A   1      45.238  28.378  34.401  1.00  0.00     0.009 A 
ATOM     53  C   UNL A   1      43.731  26.618  35.104  1.00  0.00     0.009 A 
ATOM     54  C   UNL A   1      46.274  27.770  35.110  1.00  0.00     0.001 A 
ATOM     55  C   UNL A   1      44.765  26.024  35.829  1.00  0.00     0.001 A 
ATOM     56  C   UNL A   1      46.037  26.596  35.824  1.00  0.00     0.000 A 
ENDBRANCH  38  51
ENDBRANCH  12  13
ENDBRANCH   5   7
ENDBRANCH   2   3
ENDBRANCH   1   2
BRANCH   1  57
ATOM     57  C   UNL A   1      31.527  30.370  25.936  1.00  0.00     0.023 C 
BRANCH  57  58
ATOM     58  C   UNL A   1      33.010  29.969  26.004  1.00  0.00     0.116 C 
BRANCH  58  59
ATOM     59  N   UNL A   1      33.510  29.712  24.673  1.00  0.00    -0.351 N 
ATOM     60  C   UNL A   1      33.862  28.601  23.992  1.00  0.00     0.278 C 
ATOM     61  H   UNL A   1      33.619  30.534  24.142  1.00  0.00     0.163 HD
ATOM     62  O   UNL A   1      34.544  28.869  22.984  1.00  0.00    -0.268 OA
BRANCH  60  63
ATOM     63  C   UNL A   1      33.460  27.114  24.209  1.00  0.00     0.274 C 
ATOM     64  C   UNL A   1      33.495  26.790  25.720  1.00  0.00     0.076 C 
ATOM     65  N   UNL A   1      32.351  26.438  23.483  1.00  0.00    -0.319 N 
ATOM     66  C   UNL A   1      33.172  25.326  26.040  1.00  0.00     0.016 C 
ATOM     67  C   UNL A   1      32.418  24.963  23.659  1.00  0.00     0.188 C 
ATOM     68  H   UNL A   1      32.535  26.701  22.515  1.00  0.00     0.349 HD
ATOM     69  C   UNL A   1      33.349  24.470  24.793  1.00  0.00     0.048 C 
ATOM     70  C   UNL A   1      32.843  24.257  22.361  1.00  0.00     0.065 C 
ATOM     71  C   UNL A   1      33.079  22.983  25.038  1.00  0.00     0.010 C 
ATOM     72  C   UNL A   1      32.687  22.738  22.520  1.00  0.00     0.006 C 
ATOM     73  C   UNL A   1      33.377  22.181  23.769  1.00  0.00     0.001 C 
BRANCH  65  74
ATOM     74  C   UNL A   1      30.969  26.939  23.677  1.00  0.00     0.194 C 
ATOM     75  C   UNL A   1      29.773  25.964  23.703  1.00  0.00     0.067 C 
ATOM     76  C   UNL A   1      30.714  28.095  22.671  1.00  0.00     0.134 C 
ATOM     77  C   UNL A   1      28.469  26.658  24.116  1.00  0.00     0.017 C 
ATOM     78  S   UNL A   1      29.234  29.088  23.039  1.00  0.00    -0.156 SA
ATOM     79  C   UNL A   1      28.022  27.749  23.154  1.00  0.00     0.070 C 
ENDBRANCH  65  74
ENDBRANCH  60  63
ENDBRANCH  58  59
ENDBRANCH  57  58
ENDBRANCH   1  57
TORSDOF 12
ENDMDL
