MODEL 1
REMARK VINA RESULT:     -11.3      0.000      0.000
REMARK SMILES Cc1cc(N2CCC[C@H](C(=O)NCCCCNC(=O)c3ccc(-c4c5nc(c(-c6ccccc6)c6ccc([nH]6)c(-c6ccccc6)c6nc(c(-c7ccccc7)c7ccc4[nH]7)C=C6)C=C5)cc3)C2)nc(C(C)C)n1
REMARK SMILES IDX 14 1 13 2 12 3 10 4 11 5 9 7 5 8 6 9 68 10 7 11 8 12 4 13
REMARK SMILES IDX 1 14 2 15 3 16 74 17 70 18 69 19 71 20 72 21 73 22 15 23
REMARK SMILES IDX 16 24 17 25 18 26 19 28 20 29 21 30 67 31 22 32 66 33 23 34
REMARK SMILES IDX 24 35 25 36 60 37 26 38 65 39 59 40 61 41 27 42 64 43 58 44
REMARK SMILES IDX 57 45 28 47 50 48 35 49 49 50 36 51 39 52 48 53 62 54 37 55
REMARK SMILES IDX 38 56 47 58 63 59 40 60 29 61 30 62 34 63 31 64 33 65 32 66
REMARK SMILES IDX 51 67 52 68 56 69 53 70 55 71 54 72 41 73 42 74 46 75 43 76
REMARK SMILES IDX 45 77 44 78
REMARK H PARENT 12 6 17 27 61 46 39 57
REMARK Flexibility Score: inf
ROOT
ATOM      1  C   UNL A   1      33.777  29.208  24.540  1.00  0.00     0.023 C 
ENDROOT
BRANCH   1   2
ATOM      2  C   UNL A   1      33.093  28.941  23.202  1.00  0.00     0.116 C 
BRANCH   2   3
ATOM      3  N   UNL A   1      33.597  27.761  22.539  1.00  0.00    -0.356 N 
ATOM      4  C   UNL A   1      33.266  26.454  22.688  1.00  0.00     0.224 C 
ATOM      5  O   UNL A   1      33.726  25.676  21.842  1.00  0.00    -0.275 OA
ATOM      6  H   UNL A   1      34.295  27.933  21.867  1.00  0.00     0.163 HD
BRANCH   4   7
ATOM      7  C   UNL A   1      32.379  25.899  23.807  1.00  0.00     0.098 C 
ATOM      8  N   UNL A   1      32.646  23.482  24.158  1.00  0.00    -0.356 N 
ATOM      9  C   UNL A   1      31.234  23.160  24.106  1.00  0.00     0.118 C 
ATOM     10  C   UNL A   1      33.049  24.798  24.621  1.00  0.00     0.131 C 
ATOM     11  C   UNL A   1      30.507  24.177  23.219  1.00  0.00     0.022 C 
ATOM     12  C   UNL A   1      30.911  25.636  23.451  1.00  0.00     0.017 C 
BRANCH   8  13
ATOM     13  C   UNL A   1      33.597  22.489  24.258  1.00  0.00     0.132 A 
ATOM     14  C   UNL A   1      33.982  18.814  24.856  1.00  0.00     0.067 C 
ATOM     15  C   UNL A   1      34.266  20.266  24.630  1.00  0.00     0.043 A 
ATOM     16  C   UNL A   1      33.248  21.161  24.370  1.00  0.00     0.070 A 
ATOM     17  N   UNL A   1      35.552  20.651  24.753  1.00  0.00    -0.238 NA
ATOM     18  C   UNL A   1      35.807  21.964  24.616  1.00  0.00     0.133 A 
ATOM     19  N   UNL A   1      34.871  22.895  24.375  1.00  0.00    -0.216 NA
BRANCH  18  20
ATOM     20  C   UNL A   1      37.222  22.453  24.821  1.00  0.00     0.051 C 
ATOM     21  C   UNL A   1      37.243  23.677  25.736  1.00  0.00     0.016 C 
ATOM     22  C   UNL A   1      38.124  21.343  25.359  1.00  0.00     0.016 C 
ENDBRANCH  18  20
ENDBRANCH   8  13
ENDBRANCH   4   7
ENDBRANCH   2   3
ENDBRANCH   1   2
BRANCH   1  23
ATOM     23  C   UNL A   1      32.903  28.930  25.759  1.00  0.00     0.023 C 
BRANCH  23  24
ATOM     24  C   UNL A   1      33.628  28.967  27.101  1.00  0.00     0.116 C 
BRANCH  24  25
ATOM     25  N   UNL A   1      33.668  30.278  27.737  1.00  0.00    -0.352 N 
ATOM     26  C   UNL A   1      34.734  30.846  28.406  1.00  0.00     0.251 C 
ATOM     27  H   UNL A   1      32.846  30.817  27.682  1.00  0.00     0.163 HD
ATOM     28  O   UNL A   1      34.646  31.930  28.956  1.00  0.00    -0.269 OA
BRANCH  26  29
ATOM     29  C   UNL A   1      35.990  30.069  28.472  1.00  0.00     0.039 A 
ATOM     30  C   UNL A   1      36.855  30.077  27.377  1.00  0.00     0.014 A 
ATOM     31  C   UNL A   1      36.355  29.453  29.672  1.00  0.00     0.014 A 
ATOM     32  C   UNL A   1      38.136  29.539  27.516  1.00  0.00     0.010 A 
ATOM     33  C   UNL A   1      37.650  28.979  29.827  1.00  0.00     0.010 A 
ATOM     34  C   UNL A   1      38.556  29.029  28.755  1.00  0.00    -0.014 A 
BRANCH  34  35
ATOM     35  C   UNL A   1      39.939  28.543  28.978  1.00  0.00     0.031 A 
ATOM     36  C   UNL A   1      40.984  29.496  29.480  1.00  0.00     0.074 A 
ATOM     37  C   UNL A   1      40.280  27.289  28.620  1.00  0.00     0.049 A 
ATOM     38  N   UNL A   1      42.276  29.325  29.587  1.00  0.00    -0.248 NA
ATOM     39  C   UNL A   1      40.515  30.833  29.882  1.00  0.00     0.031 C 
ATOM     40  C   UNL A   1      39.368  26.278  28.081  1.00  0.00     0.029 A 
ATOM     41  N   UNL A   1      41.500  26.660  28.638  1.00  0.00    -0.354 N 
ATOM     42  C   UNL A   1      42.777  30.542  30.031  1.00  0.00     0.074 A 
ATOM     43  C   UNL A   1      41.658  31.451  30.139  1.00  0.00     0.031 C 
ATOM     44  C   UNL A   1      40.058  25.152  27.834  1.00  0.00     0.029 A 
ATOM     45  C   UNL A   1      41.464  25.373  28.158  1.00  0.00     0.049 A 
ATOM     46  H   UNL A   1      42.324  27.091  28.963  1.00  0.00     0.167 HD
ATOM     47  C   UNL A   1      44.055  30.870  30.336  1.00  0.00     0.031 A 
ATOM     48  C   UNL A   1      42.455  24.477  27.987  1.00  0.00     0.031 A 
ATOM     49  C   UNL A   1      45.163  29.958  30.258  1.00  0.00     0.049 A 
ATOM     50  C   UNL A   1      43.863  24.858  28.354  1.00  0.00     0.074 A 
ATOM     51  C   UNL A   1      46.486  30.178  30.599  1.00  0.00     0.029 A 
ATOM     52  N   UNL A   1      45.073  28.648  29.816  1.00  0.00    -0.354 N 
ATOM     53  N   UNL A   1      44.314  25.997  28.819  1.00  0.00    -0.248 NA
ATOM     54  C   UNL A   1      44.895  23.825  28.179  1.00  0.00     0.031 C 
ATOM     55  C   UNL A   1      47.203  29.006  30.337  1.00  0.00     0.029 A 
ATOM     56  C   UNL A   1      46.317  28.048  29.871  1.00  0.00     0.049 A 
ATOM     57  H   UNL A   1      44.246  28.210  29.508  1.00  0.00     0.167 HD
ATOM     58  C   UNL A   1      45.673  25.807  29.027  1.00  0.00     0.074 A 
ATOM     59  C   UNL A   1      45.974  24.445  28.639  1.00  0.00     0.031 C 
ATOM     60  C   UNL A   1      46.590  26.684  29.502  1.00  0.00     0.031 A 
BRANCH  47  61
ATOM     61  C   UNL A   1      44.315  32.281  30.779  1.00  0.00    -0.014 A 
ATOM     62  C   UNL A   1      44.253  32.638  32.134  1.00  0.00     0.009 A 
ATOM     63  C   UNL A   1      44.639  33.261  29.829  1.00  0.00     0.009 A 
ATOM     64  C   UNL A   1      44.473  33.960  32.526  1.00  0.00     0.001 A 
ATOM     65  C   UNL A   1      44.886  34.576  30.227  1.00  0.00     0.001 A 
ATOM     66  C   UNL A   1      44.792  34.926  31.573  1.00  0.00     0.000 A 
ENDBRANCH  47  61
BRANCH  48  67
ATOM     67  C   UNL A   1      42.151  23.120  27.466  1.00  0.00    -0.014 A 
ATOM     68  C   UNL A   1      42.676  22.704  26.232  1.00  0.00     0.009 A 
ATOM     69  C   UNL A   1      41.334  22.238  28.189  1.00  0.00     0.009 A 
ATOM     70  C   UNL A   1      42.369  21.441  25.722  1.00  0.00     0.001 A 
ATOM     71  C   UNL A   1      41.048  20.966  27.687  1.00  0.00     0.001 A 
ATOM     72  C   UNL A   1      41.558  20.573  26.450  1.00  0.00     0.000 A 
ENDBRANCH  48  67
BRANCH  60  73
ATOM     73  C   UNL A   1      47.993  26.186  29.688  1.00  0.00    -0.014 A 
ATOM     74  C   UNL A   1      48.922  26.215  28.638  1.00  0.00     0.009 A 
ATOM     75  C   UNL A   1      48.406  25.747  30.956  1.00  0.00     0.009 A 
ATOM     76  C   UNL A   1      50.237  25.796  28.852  1.00  0.00     0.001 A 
ATOM     77  C   UNL A   1      49.726  25.350  31.171  1.00  0.00     0.001 A 
ATOM     78  C   UNL A   1      50.639  25.371  30.118  1.00  0.00     0.000 A 
ENDBRANCH  60  73
ENDBRANCH  34  35
ENDBRANCH  26  29
ENDBRANCH  24  25
ENDBRANCH  23  24
ENDBRANCH   1  23
TORSDOF 13
ENDMDL
MODEL 2
REMARK VINA RESULT:     -11.1      1.252      2.083
REMARK SMILES Cc1cc(N2CCC[C@H](C(=O)NCCCCNC(=O)c3ccc(-c4c5nc(c(-c6ccccc6)c6ccc([nH]6)c(-c6ccccc6)c6nc(c(-c7ccccc7)c7ccc4[nH]7)C=C6)C=C5)cc3)C2)nc(C(C)C)n1
REMARK SMILES IDX 14 1 13 2 12 3 10 4 11 5 9 7 5 8 6 9 68 10 7 11 8 12 4 13
REMARK SMILES IDX 1 14 2 15 3 16 74 17 70 18 69 19 71 20 72 21 73 22 15 23
REMARK SMILES IDX 16 24 17 25 18 26 19 28 20 29 21 30 67 31 22 32 66 33 23 34
REMARK SMILES IDX 24 35 25 36 60 37 26 38 65 39 59 40 61 41 27 42 64 43 58 44
REMARK SMILES IDX 57 45 28 47 50 48 35 49 49 50 36 51 39 52 48 53 62 54 37 55
REMARK SMILES IDX 38 56 47 58 63 59 40 60 29 61 30 62 34 63 31 64 33 65 32 66
REMARK SMILES IDX 51 67 52 68 56 69 53 70 55 71 54 72 41 73 42 74 46 75 43 76
REMARK SMILES IDX 45 77 44 78
REMARK H PARENT 12 6 17 27 61 46 39 57
REMARK Flexibility Score: inf
ROOT
ATOM      1  C   UNL A   1      34.006  27.288  25.748  1.00  0.00     0.023 C 
ENDROOT
BRANCH   1   2
ATOM      2  C   UNL A   1      33.385  25.901  25.610  1.00  0.00     0.116 C 
BRANCH   2   3
ATOM      3  N   UNL A   1      32.058  25.819  26.174  1.00  0.00    -0.356 N 
ATOM      4  C   UNL A   1      30.951  25.166  25.740  1.00  0.00     0.224 C 
ATOM      5  O   UNL A   1      30.002  25.116  26.534  1.00  0.00    -0.275 OA
ATOM      6  H   UNL A   1      31.937  26.320  27.013  1.00  0.00     0.163 HD
BRANCH   4   7
ATOM      7  C   UNL A   1      30.809  24.504  24.367  1.00  0.00     0.098 C 
ATOM      8  N   UNL A   1      32.745  23.126  23.741  1.00  0.00    -0.356 N 
ATOM      9  C   UNL A   1      32.944  23.721  22.434  1.00  0.00     0.118 C 
ATOM     10  C   UNL A   1      31.407  23.103  24.305  1.00  0.00     0.131 C 
ATOM     11  C   UNL A   1      32.451  25.172  22.450  1.00  0.00     0.022 C 
ATOM     12  C   UNL A   1      31.104  25.386  23.147  1.00  0.00     0.017 C 
BRANCH   8  13
ATOM     13  C   UNL A   1      33.625  22.188  24.234  1.00  0.00     0.132 A 
ATOM     14  C   UNL A   1      37.207  21.722  25.215  1.00  0.00     0.067 C 
ATOM     15  C   UNL A   1      35.763  21.477  24.908  1.00  0.00     0.043 A 
ATOM     16  C   UNL A   1      34.916  22.518  24.582  1.00  0.00     0.070 A 
ATOM     17  N   UNL A   1      35.360  20.192  24.910  1.00  0.00    -0.238 NA
ATOM     18  C   UNL A   1      34.080  19.959  24.571  1.00  0.00     0.133 A 
ATOM     19  N   UNL A   1      33.200  20.914  24.231  1.00  0.00    -0.216 NA
BRANCH  18  20
ATOM     20  C   UNL A   1      33.602  18.527  24.485  1.00  0.00     0.051 C 
ATOM     21  C   UNL A   1      34.787  17.568  24.381  1.00  0.00     0.016 C 
ATOM     22  C   UNL A   1      32.700  18.167  25.664  1.00  0.00     0.016 C 
ENDBRANCH  18  20
ENDBRANCH   8  13
ENDBRANCH   4   7
ENDBRANCH   2   3
ENDBRANCH   1   2
BRANCH   1  23
ATOM     23  C   UNL A   1      33.028  28.371  26.194  1.00  0.00     0.023 C 
BRANCH  23  24
ATOM     24  C   UNL A   1      33.198  28.848  27.634  1.00  0.00     0.116 C 
BRANCH  24  25
ATOM     25  N   UNL A   1      33.337  30.290  27.786  1.00  0.00    -0.352 N 
ATOM     26  C   UNL A   1      34.485  30.985  28.116  1.00  0.00     0.251 C 
ATOM     27  H   UNL A   1      32.526  30.827  27.638  1.00  0.00     0.163 HD
ATOM     28  O   UNL A   1      34.483  32.192  28.277  1.00  0.00    -0.269 OA
BRANCH  26  29
ATOM     29  C   UNL A   1      35.723  30.202  28.311  1.00  0.00     0.039 A 
ATOM     30  C   UNL A   1      36.645  30.112  27.267  1.00  0.00     0.014 A 
ATOM     31  C   UNL A   1      36.015  29.681  29.574  1.00  0.00     0.014 A 
ATOM     32  C   UNL A   1      37.908  29.572  27.517  1.00  0.00     0.010 A 
ATOM     33  C   UNL A   1      37.293  29.206  29.836  1.00  0.00     0.010 A 
ATOM     34  C   UNL A   1      38.255  29.160  28.813  1.00  0.00    -0.014 A 
BRANCH  34  35
ATOM     35  C   UNL A   1      39.617  28.678  29.148  1.00  0.00     0.031 A 
ATOM     36  C   UNL A   1      40.589  29.613  29.807  1.00  0.00     0.074 A 
ATOM     37  C   UNL A   1      40.014  27.450  28.758  1.00  0.00     0.049 A 
ATOM     38  N   UNL A   1      41.867  29.451  30.035  1.00  0.00    -0.248 NA
ATOM     39  C   UNL A   1      40.058  30.919  30.233  1.00  0.00     0.031 C 
ATOM     40  C   UNL A   1      39.179  26.461  28.073  1.00  0.00     0.029 A 
ATOM     41  N   UNL A   1      41.236  26.836  28.864  1.00  0.00    -0.354 N 
ATOM     42  C   UNL A   1      42.299  30.646  30.594  1.00  0.00     0.074 A 
ATOM     43  C   UNL A   1      41.158  31.534  30.638  1.00  0.00     0.031 C 
ATOM     44  C   UNL A   1      39.909  25.359  27.834  1.00  0.00     0.029 A 
ATOM     45  C   UNL A   1      41.271  25.578  28.312  1.00  0.00     0.049 A 
ATOM     46  H   UNL A   1      42.016  27.256  29.295  1.00  0.00     0.167 HD
ATOM     47  C   UNL A   1      43.534  30.970  31.046  1.00  0.00     0.031 A 
ATOM     48  C   UNL A   1      42.290  24.705  28.193  1.00  0.00     0.031 A 
ATOM     49  C   UNL A   1      44.660  30.078  31.030  1.00  0.00     0.049 A 
ATOM     50  C   UNL A   1      43.647  25.081  28.722  1.00  0.00     0.074 A 
ATOM     51  C   UNL A   1      45.937  30.294  31.516  1.00  0.00     0.029 A 
ATOM     52  N   UNL A   1      44.637  28.794  30.508  1.00  0.00    -0.354 N 
ATOM     53  N   UNL A   1      44.029  26.196  29.294  1.00  0.00    -0.248 NA
ATOM     54  C   UNL A   1      44.709  24.072  28.596  1.00  0.00     0.031 C 
ATOM     55  C   UNL A   1      46.697  29.147  31.263  1.00  0.00     0.029 A 
ATOM     56  C   UNL A   1      45.880  28.207  30.656  1.00  0.00     0.049 A 
ATOM     57  H   UNL A   1      43.853  28.365  30.094  1.00  0.00     0.167 HD
ATOM     58  C   UNL A   1      45.364  26.011  29.628  1.00  0.00     0.074 A 
ATOM     59  C   UNL A   1      45.725  24.676  29.196  1.00  0.00     0.031 C 
ATOM     60  C   UNL A   1      46.213  26.870  30.242  1.00  0.00     0.031 A 
BRANCH  47  61
ATOM     61  C   UNL A   1      43.723  32.357  31.591  1.00  0.00    -0.014 A 
ATOM     62  C   UNL A   1      43.448  32.651  32.935  1.00  0.00     0.009 A 
ATOM     63  C   UNL A   1      44.195  33.378  30.752  1.00  0.00     0.009 A 
ATOM     64  C   UNL A   1      43.606  33.951  33.420  1.00  0.00     0.001 A 
ATOM     65  C   UNL A   1      44.379  34.670  31.246  1.00  0.00     0.001 A 
ATOM     66  C   UNL A   1      44.073  34.958  32.576  1.00  0.00     0.000 A 
ENDBRANCH  47  61
BRANCH  48  67
ATOM     67  C   UNL A   1      42.064  23.377  27.568  1.00  0.00    -0.014 A 
ATOM     68  C   UNL A   1      41.543  22.319  28.330  1.00  0.00     0.009 A 
ATOM     69  C   UNL A   1      42.370  23.155  26.217  1.00  0.00     0.009 A 
ATOM     70  C   UNL A   1      41.358  21.058  27.757  1.00  0.00     0.001 A 
ATOM     71  C   UNL A   1      42.161  21.900  25.641  1.00  0.00     0.001 A 
ATOM     72  C   UNL A   1      41.663  20.852  26.413  1.00  0.00     0.000 A 
ENDBRANCH  48  67
BRANCH  60  73
ATOM     73  C   UNL A   1      47.598  26.378  30.541  1.00  0.00    -0.014 A 
ATOM     74  C   UNL A   1      48.630  26.488  29.598  1.00  0.00     0.009 A 
ATOM     75  C   UNL A   1      47.886  25.861  31.814  1.00  0.00     0.009 A 
ATOM     76  C   UNL A   1      49.924  26.072  29.921  1.00  0.00     0.001 A 
ATOM     77  C   UNL A   1      49.184  25.468  32.141  1.00  0.00     0.001 A 
ATOM     78  C   UNL A   1      50.200  25.570  31.193  1.00  0.00     0.000 A 
ENDBRANCH  60  73
ENDBRANCH  34  35
ENDBRANCH  26  29
ENDBRANCH  24  25
ENDBRANCH  23  24
ENDBRANCH   1  23
TORSDOF 13
ENDMDL
MODEL 3
REMARK VINA RESULT:     -11.0      1.853      7.537
REMARK SMILES Cc1cc(N2CCC[C@H](C(=O)NCCCCNC(=O)c3ccc(-c4c5nc(c(-c6ccccc6)c6ccc([nH]6)c(-c6ccccc6)c6nc(c(-c7ccccc7)c7ccc4[nH]7)C=C6)C=C5)cc3)C2)nc(C(C)C)n1
REMARK SMILES IDX 14 1 13 2 12 3 10 4 11 5 9 7 5 8 6 9 68 10 7 11 8 12 4 13
REMARK SMILES IDX 1 14 2 15 3 16 74 17 70 18 69 19 71 20 72 21 73 22 15 23
REMARK SMILES IDX 16 24 17 25 18 26 19 28 20 29 21 30 67 31 22 32 66 33 23 34
REMARK SMILES IDX 24 35 25 36 60 37 26 38 65 39 59 40 61 41 27 42 64 43 58 44
REMARK SMILES IDX 57 45 28 47 50 48 35 49 49 50 36 51 39 52 48 53 62 54 37 55
REMARK SMILES IDX 38 56 47 58 63 59 40 60 29 61 30 62 34 63 31 64 33 65 32 66
REMARK SMILES IDX 51 67 52 68 56 69 53 70 55 71 54 72 41 73 42 74 46 75 43 76
REMARK SMILES IDX 45 77 44 78
REMARK H PARENT 12 6 17 27 61 46 39 57
REMARK Flexibility Score: inf
ROOT
ATOM      1  C   UNL A   1      36.975  21.942  23.948  1.00  0.00     0.023 C 
ENDROOT
BRANCH   1   2
ATOM      2  C   UNL A   1      36.789  23.456  23.915  1.00  0.00     0.116 C 
BRANCH   2   3
ATOM      3  N   UNL A   1      35.857  23.929  24.913  1.00  0.00    -0.356 N 
ATOM      4  C   UNL A   1      34.508  24.071  24.866  1.00  0.00     0.224 C 
ATOM      5  O   UNL A   1      33.949  24.317  25.943  1.00  0.00    -0.275 OA
ATOM      6  H   UNL A   1      36.268  24.192  25.768  1.00  0.00     0.163 HD
BRANCH   4   7
ATOM      7  C   UNL A   1      33.659  23.945  23.598  1.00  0.00     0.098 C 
ATOM      8  N   UNL A   1      31.717  25.449  23.567  1.00  0.00    -0.356 N 
ATOM      9  C   UNL A   1      30.737  24.431  23.242  1.00  0.00     0.118 C 
ATOM     10  C   UNL A   1      33.087  25.273  23.118  1.00  0.00     0.131 C 
ATOM     11  C   UNL A   1      31.205  23.076  23.783  1.00  0.00     0.022 C 
ATOM     12  C   UNL A   1      32.684  22.762  23.541  1.00  0.00     0.017 C 
BRANCH   8  13
ATOM     13  C   UNL A   1      31.332  26.744  23.838  1.00  0.00     0.132 A 
ATOM     14  C   UNL A   1      29.914  29.807  22.219  1.00  0.00     0.067 C 
ATOM     15  C   UNL A   1      30.509  28.855  23.210  1.00  0.00     0.043 A 
ATOM     16  C   UNL A   1      30.702  27.525  22.894  1.00  0.00     0.070 A 
ATOM     17  N   UNL A   1      30.893  29.380  24.389  1.00  0.00    -0.238 NA
ATOM     18  C   UNL A   1      31.488  28.545  25.259  1.00  0.00     0.133 A 
ATOM     19  N   UNL A   1      31.722  27.246  25.021  1.00  0.00    -0.216 NA
BRANCH  18  20
ATOM     20  C   UNL A   1      32.005  29.106  26.564  1.00  0.00     0.051 C 
ATOM     21  C   UNL A   1      33.393  28.549  26.880  1.00  0.00     0.016 C 
ATOM     22  C   UNL A   1      32.010  30.633  26.553  1.00  0.00     0.016 C 
ENDBRANCH  18  20
ENDBRANCH   8  13
ENDBRANCH   4   7
ENDBRANCH   2   3
ENDBRANCH   1   2
BRANCH   1  23
ATOM     23  C   UNL A   1      37.218  21.369  25.341  1.00  0.00     0.023 C 
BRANCH  23  24
ATOM     24  C   UNL A   1      38.657  21.463  25.841  1.00  0.00     0.116 C 
BRANCH  24  25
ATOM     25  N   UNL A   1      39.434  20.240  25.693  1.00  0.00    -0.352 N 
ATOM     26  C   UNL A   1      40.765  20.056  26.015  1.00  0.00     0.251 C 
ATOM     27  H   UNL A   1      38.960  19.460  25.323  1.00  0.00     0.163 HD
ATOM     28  O   UNL A   1      41.341  19.005  25.797  1.00  0.00    -0.269 OA
BRANCH  26  29
ATOM     29  C   UNL A   1      41.489  21.203  26.602  1.00  0.00     0.039 A 
ATOM     30  C   UNL A   1      42.041  22.166  25.757  1.00  0.00     0.014 A 
ATOM     31  C   UNL A   1      41.492  21.377  27.988  1.00  0.00     0.014 A 
ATOM     32  C   UNL A   1      42.522  23.358  26.303  1.00  0.00     0.010 A 
ATOM     33  C   UNL A   1      41.909  22.589  28.521  1.00  0.00     0.010 A 
ATOM     34  C   UNL A   1      42.416  23.595  27.683  1.00  0.00    -0.014 A 
BRANCH  34  35
ATOM     35  C   UNL A   1      42.817  24.885  28.293  1.00  0.00     0.031 A 
ATOM     36  C   UNL A   1      41.778  25.942  28.533  1.00  0.00     0.074 A 
ATOM     37  C   UNL A   1      44.119  25.150  28.520  1.00  0.00     0.049 A 
ATOM     38  N   UNL A   1      41.935  27.188  28.899  1.00  0.00    -0.248 NA
ATOM     39  C   UNL A   1      40.378  25.554  28.293  1.00  0.00     0.031 C 
ATOM     40  C   UNL A   1      45.230  24.223  28.291  1.00  0.00     0.029 A 
ATOM     41  N   UNL A   1      44.728  26.291  28.976  1.00  0.00    -0.354 N 
ATOM     42  C   UNL A   1      40.662  27.741  28.896  1.00  0.00     0.074 A 
ATOM     43  C   UNL A   1      39.749  26.707  28.458  1.00  0.00     0.031 C 
ATOM     44  C   UNL A   1      46.382  24.829  28.622  1.00  0.00     0.029 A 
ATOM     45  C   UNL A   1      46.097  26.196  29.047  1.00  0.00     0.049 A 
ATOM     46  H   UNL A   1      44.231  27.104  29.229  1.00  0.00     0.167 HD
ATOM     47  C   UNL A   1      40.283  28.994  29.242  1.00  0.00     0.031 A 
ATOM     48  C   UNL A   1      47.018  27.112  29.403  1.00  0.00     0.031 A 
ATOM     49  C   UNL A   1      41.185  30.011  29.706  1.00  0.00     0.049 A 
ATOM     50  C   UNL A   1      46.570  28.490  29.803  1.00  0.00     0.074 A 
ATOM     51  C   UNL A   1      40.891  31.294  30.134  1.00  0.00     0.029 A 
ATOM     52  N   UNL A   1      42.557  29.855  29.812  1.00  0.00    -0.354 N 
ATOM     53  N   UNL A   1      45.357  28.983  29.843  1.00  0.00    -0.248 NA
ATOM     54  C   UNL A   1      47.620  29.434  30.216  1.00  0.00     0.031 C 
ATOM     55  C   UNL A   1      42.092  31.924  30.473  1.00  0.00     0.029 A 
ATOM     56  C   UNL A   1      43.126  31.019  30.294  1.00  0.00     0.049 A 
ATOM     57  H   UNL A   1      43.054  29.037  29.577  1.00  0.00     0.167 HD
ATOM     58  C   UNL A   1      45.492  30.281  30.319  1.00  0.00     0.074 A 
ATOM     59  C   UNL A   1      46.905  30.498  30.555  1.00  0.00     0.031 C 
ATOM     60  C   UNL A   1      44.530  31.208  30.544  1.00  0.00     0.031 A 
BRANCH  47  61
ATOM     61  C   UNL A   1      38.823  29.326  29.123  1.00  0.00    -0.014 A 
ATOM     62  C   UNL A   1      38.275  29.758  27.906  1.00  0.00     0.009 A 
ATOM     63  C   UNL A   1      37.984  29.192  30.240  1.00  0.00     0.009 A 
ATOM     64  C   UNL A   1      36.920  30.086  27.818  1.00  0.00     0.001 A 
ATOM     65  C   UNL A   1      36.624  29.494  30.142  1.00  0.00     0.001 A 
ATOM     66  C   UNL A   1      36.097  29.952  28.935  1.00  0.00     0.000 A 
ENDBRANCH  47  61
BRANCH  48  67
ATOM     67  C   UNL A   1      48.459  26.750  29.422  1.00  0.00    -0.014 A 
ATOM     68  C   UNL A   1      49.027  26.174  30.569  1.00  0.00     0.009 A 
ATOM     69  C   UNL A   1      49.274  26.982  28.304  1.00  0.00     0.009 A 
ATOM     70  C   UNL A   1      50.387  25.861  30.605  1.00  0.00     0.001 A 
ATOM     71  C   UNL A   1      50.629  26.646  28.334  1.00  0.00     0.001 A 
ATOM     72  C   UNL A   1      51.186  26.094  29.487  1.00  0.00     0.000 A 
ENDBRANCH  48  67
BRANCH  60  73
ATOM     73  C   UNL A   1      44.959  32.521  31.129  1.00  0.00    -0.014 A 
ATOM     74  C   UNL A   1      45.051  32.707  32.515  1.00  0.00     0.009 A 
ATOM     75  C   UNL A   1      45.343  33.564  30.271  1.00  0.00     0.009 A 
ATOM     76  C   UNL A   1      45.506  33.922  33.033  1.00  0.00     0.001 A 
ATOM     77  C   UNL A   1      45.817  34.769  30.791  1.00  0.00     0.001 A 
ATOM     78  C   UNL A   1      45.894  34.948  32.170  1.00  0.00     0.000 A 
ENDBRANCH  60  73
ENDBRANCH  34  35
ENDBRANCH  26  29
ENDBRANCH  24  25
ENDBRANCH  23  24
ENDBRANCH   1  23
TORSDOF 13
ENDMDL
