MODEL 1
REMARK VINA RESULT:     -11.4      0.000      0.000
REMARK SMILES NC(=O)C[NH+]1CCC(C(=O)N[C@H](C(=O)NCCCCNC(=O)c2ccc(-c3c4nc(c(-c5ccccc5)c5ccc([nH]5)c(-c5ccccc5)c5nc(c(-c6ccccc6)c6ccc3[nH]6)C=C5)C=C4)cc2)c2ccc(Cl)cc2)CC1
REMARK SMILES IDX 16 1 15 2 13 3 14 4 12 6 11 7 9 8 10 9 8 11 5 12 6 13 79 14
REMARK SMILES IDX 7 16 78 17 4 18 2 19 1 20 3 23 71 24 72 25 77 26 73 27 76 28
REMARK SMILES IDX 74 29 75 30 17 31 18 32 19 33 20 34 21 35 22 37 23 38 24 39
REMARK SMILES IDX 70 40 25 41 69 42 26 43 27 44 28 45 63 46 29 47 68 48 62 49
REMARK SMILES IDX 64 50 30 51 67 52 61 53 60 54 31 56 53 57 38 58 52 59 39 60
REMARK SMILES IDX 42 61 51 62 65 63 40 64 41 65 50 67 66 68 43 69 32 70 33 71
REMARK SMILES IDX 37 72 34 73 36 74 35 75 54 76 55 77 59 78 56 79 58 80 57 81
REMARK SMILES IDX 44 82 45 83 49 84 46 85 48 86 47 87
REMARK H PARENT 15 5 11 10 5 15 1 21 1 22 20 36 64 55 42 66
REMARK Flexibility Score: inf
ROOT
ATOM      1  C   UNL A   1      32.355  28.671  26.235  1.00  0.00     0.116 C 
ENDROOT
BRANCH   1   2
ATOM      2  N   UNL A   1      33.197  27.816  25.419  1.00  0.00    -0.354 N 
ATOM      3  C   UNL A   1      32.848  26.933  24.419  1.00  0.00     0.247 C 
ATOM      4  O   UNL A   1      33.792  26.357  23.868  1.00  0.00    -0.272 OA
ATOM      5  H   UNL A   1      34.161  27.874  25.608  1.00  0.00     0.163 HD
BRANCH   3   6
ATOM      6  C   UNL A   1      31.351  26.559  24.110  1.00  0.00     0.202 C 
BRANCH   6   7
ATOM      7  N   UNL A   1      30.583  25.950  25.204  1.00  0.00    -0.340 N 
ATOM      8  C   UNL A   1      30.613  24.776  25.873  1.00  0.00     0.224 C 
ATOM      9  O   UNL A   1      29.732  24.650  26.734  1.00  0.00    -0.275 OA
ATOM     10  H   UNL A   1      29.870  26.545  25.532  1.00  0.00     0.164 HD
BRANCH   8  11
ATOM     11  C   UNL A   1      31.619  23.641  25.683  1.00  0.00     0.089 C 
ATOM     12  N   UNL A   1      34.228  22.758  24.698  1.00  0.00    -0.327 N 
ATOM     13  C   UNL A   1      33.007  22.150  24.150  1.00  0.00     0.263 C 
ATOM     14  C   UNL A   1      34.042  22.988  26.141  1.00  0.00     0.263 C 
ATOM     15  H   UNL A   1      34.418  23.655  24.250  1.00  0.00     0.348 HD
ATOM     16  C   UNL A   1      31.820  23.098  24.275  1.00  0.00     0.075 C 
ATOM     17  C   UNL A   1      32.923  23.995  26.394  1.00  0.00     0.075 C 
BRANCH  12  18
ATOM     18  C   UNL A   1      35.374  21.853  24.438  1.00  0.00     0.363 C 
BRANCH  18  19
ATOM     19  C   UNL A   1      36.554  22.583  23.794  1.00  0.00     0.272 C 
ATOM     20  N   UNL A   1      37.615  22.838  24.613  1.00  0.00    -0.365 N 
ATOM     21  H   UNL A   1      38.407  23.305  24.260  1.00  0.00     0.159 HD
ATOM     22  H   UNL A   1      37.589  22.556  25.555  1.00  0.00     0.159 HD
ATOM     23  O   UNL A   1      36.572  22.927  22.615  1.00  0.00    -0.269 OA
ENDBRANCH  18  19
ENDBRANCH  12  18
ENDBRANCH   8  11
ENDBRANCH   6   7
BRANCH   6  24
ATOM     24  C   UNL A   1      30.474  27.549  23.335  1.00  0.00    -0.016 A 
ATOM     25  C   UNL A   1      29.072  27.457  23.489  1.00  0.00     0.008 A 
ATOM     26  C   UNL A   1      30.973  28.607  22.561  1.00  0.00     0.008 A 
ATOM     27  C   UNL A   1      28.219  28.450  23.001  1.00  0.00     0.021 A 
ATOM     28  C   UNL A   1      30.118  29.601  22.067  1.00  0.00     0.021 A 
ATOM     29  C   UNL A   1      28.751  29.537  22.318  1.00  0.00     0.041 A 
ATOM     30  Cl  UNL A   1      27.725  30.821  21.813  1.00  0.00    -0.084 Cl
ENDBRANCH   6  24
ENDBRANCH   3   6
ENDBRANCH   1   2
BRANCH   1  31
ATOM     31  C   UNL A   1      32.039  30.049  25.660  1.00  0.00     0.023 C 
BRANCH  31  32
ATOM     32  C   UNL A   1      31.718  31.168  26.652  1.00  0.00     0.023 C 
BRANCH  32  33
ATOM     33  C   UNL A   1      32.890  31.980  27.194  1.00  0.00     0.116 C 
BRANCH  33  34
ATOM     34  N   UNL A   1      32.545  33.323  27.634  1.00  0.00    -0.352 N 
ATOM     35  C   UNL A   1      33.206  34.191  28.475  1.00  0.00     0.251 C 
ATOM     36  H   UNL A   1      31.697  33.669  27.271  1.00  0.00     0.163 HD
ATOM     37  O   UNL A   1      32.693  35.268  28.767  1.00  0.00    -0.269 OA
BRANCH  35  38
ATOM     38  C   UNL A   1      34.505  33.821  29.078  1.00  0.00     0.039 A 
ATOM     39  C   UNL A   1      34.506  33.076  30.262  1.00  0.00     0.014 A 
ATOM     40  C   UNL A   1      35.716  34.186  28.488  1.00  0.00     0.014 A 
ATOM     41  C   UNL A   1      35.711  32.595  30.781  1.00  0.00     0.010 A 
ATOM     42  C   UNL A   1      36.908  33.635  28.957  1.00  0.00     0.010 A 
ATOM     43  C   UNL A   1      36.917  32.815  30.095  1.00  0.00    -0.014 A 
BRANCH  43  44
ATOM     44  C   UNL A   1      38.178  32.148  30.515  1.00  0.00     0.031 A 
ATOM     45  C   UNL A   1      39.127  32.816  31.469  1.00  0.00     0.074 A 
ATOM     46  C   UNL A   1      38.521  30.972  29.950  1.00  0.00     0.049 A 
ATOM     47  N   UNL A   1      40.303  32.414  31.882  1.00  0.00    -0.248 NA
ATOM     48  C   UNL A   1      38.716  34.123  32.004  1.00  0.00     0.031 C 
ATOM     49  C   UNL A   1      37.728  30.244  28.957  1.00  0.00     0.029 A 
ATOM     50  N   UNL A   1      39.638  30.190  30.118  1.00  0.00    -0.354 N 
ATOM     51  C   UNL A   1      40.783  33.427  32.701  1.00  0.00     0.074 A 
ATOM     52  C   UNL A   1      39.791  34.481  32.690  1.00  0.00     0.031 C 
ATOM     53  C   UNL A   1      38.373  29.118  28.618  1.00  0.00     0.029 A 
ATOM     54  C   UNL A   1      39.641  29.060  29.337  1.00  0.00     0.049 A 
ATOM     55  H   UNL A   1      40.368  30.419  30.739  1.00  0.00     0.167 HD
ATOM     56  C   UNL A   1      41.936  33.471  33.411  1.00  0.00     0.031 A 
ATOM     57  C   UNL A   1      40.562  28.088  29.202  1.00  0.00     0.031 A 
ATOM     58  C   UNL A   1      42.919  32.420  33.433  1.00  0.00     0.049 A 
ATOM     59  C   UNL A   1      41.826  28.147  30.010  1.00  0.00     0.074 A 
ATOM     60  C   UNL A   1      44.074  32.335  34.191  1.00  0.00     0.029 A 
ATOM     61  N   UNL A   1      42.869  31.274  32.653  1.00  0.00    -0.354 N 
ATOM     62  N   UNL A   1      42.219  29.066  30.857  1.00  0.00    -0.248 NA
ATOM     63  C   UNL A   1      42.766  27.028  29.853  1.00  0.00     0.031 C 
ATOM     64  C   UNL A   1      44.752  31.166  33.827  1.00  0.00     0.029 A 
ATOM     65  C   UNL A   1      43.990  30.494  32.885  1.00  0.00     0.049 A 
ATOM     66  H   UNL A   1      42.143  31.049  32.027  1.00  0.00     0.167 HD
ATOM     67  C   UNL A   1      43.443  28.632  31.346  1.00  0.00     0.074 A 
ATOM     68  C   UNL A   1      43.718  27.356  30.715  1.00  0.00     0.031 C 
ATOM     69  C   UNL A   1      44.264  29.236  32.239  1.00  0.00     0.031 A 
BRANCH  56  70
ATOM     70  C   UNL A   1      42.203  34.719  34.209  1.00  0.00    -0.014 A 
ATOM     71  C   UNL A   1      42.814  35.842  33.629  1.00  0.00     0.009 A 
ATOM     72  C   UNL A   1      41.825  34.775  35.560  1.00  0.00     0.009 A 
ATOM     73  C   UNL A   1      43.090  36.975  34.399  1.00  0.00     0.001 A 
ATOM     74  C   UNL A   1      42.073  35.920  36.319  1.00  0.00     0.001 A 
ATOM     75  C   UNL A   1      42.717  37.013  35.742  1.00  0.00     0.000 A 
ENDBRANCH  56  70
BRANCH  57  76
ATOM     76  C   UNL A   1      40.309  26.965  28.261  1.00  0.00    -0.014 A 
ATOM     77  C   UNL A   1      40.843  26.988  26.964  1.00  0.00     0.009 A 
ATOM     78  C   UNL A   1      39.558  25.851  28.668  1.00  0.00     0.009 A 
ATOM     79  C   UNL A   1      40.621  25.921  26.090  1.00  0.00     0.001 A 
ATOM     80  C   UNL A   1      39.360  24.775  27.801  1.00  0.00     0.001 A 
ATOM     81  C   UNL A   1      39.885  24.814  26.510  1.00  0.00     0.000 A 
ENDBRANCH  57  76
BRANCH  69  82
ATOM     82  C   UNL A   1      45.536  28.521  32.596  1.00  0.00    -0.014 A 
ATOM     83  C   UNL A   1      45.576  27.587  33.644  1.00  0.00     0.009 A 
ATOM     84  C   UNL A   1      46.702  28.753  31.850  1.00  0.00     0.009 A 
ATOM     85  C   UNL A   1      46.766  26.923  33.955  1.00  0.00     0.001 A 
ATOM     86  C   UNL A   1      47.882  28.069  32.145  1.00  0.00     0.001 A 
ATOM     87  C   UNL A   1      47.915  27.161  33.202  1.00  0.00     0.000 A 
ENDBRANCH  69  82
ENDBRANCH  43  44
ENDBRANCH  35  38
ENDBRANCH  33  34
ENDBRANCH  32  33
ENDBRANCH  31  32
ENDBRANCH   1  31
TORSDOF 16
ENDMDL
MODEL 2
REMARK VINA RESULT:     -11.4      4.214      9.633
REMARK SMILES NC(=O)C[NH+]1CCC(C(=O)N[C@H](C(=O)NCCCCNC(=O)c2ccc(-c3c4nc(c(-c5ccccc5)c5ccc([nH]5)c(-c5ccccc5)c5nc(c(-c6ccccc6)c6ccc3[nH]6)C=C5)C=C4)cc2)c2ccc(Cl)cc2)CC1
REMARK SMILES IDX 16 1 15 2 13 3 14 4 12 6 11 7 9 8 10 9 8 11 5 12 6 13 79 14
REMARK SMILES IDX 7 16 78 17 4 18 2 19 1 20 3 23 71 24 72 25 77 26 73 27 76 28
REMARK SMILES IDX 74 29 75 30 17 31 18 32 19 33 20 34 21 35 22 37 23 38 24 39
REMARK SMILES IDX 70 40 25 41 69 42 26 43 27 44 28 45 63 46 29 47 68 48 62 49
REMARK SMILES IDX 64 50 30 51 67 52 61 53 60 54 31 56 53 57 38 58 52 59 39 60
REMARK SMILES IDX 42 61 51 62 65 63 40 64 41 65 50 67 66 68 43 69 32 70 33 71
REMARK SMILES IDX 37 72 34 73 36 74 35 75 54 76 55 77 59 78 56 79 58 80 57 81
REMARK SMILES IDX 44 82 45 83 49 84 46 85 48 86 47 87
REMARK H PARENT 15 5 11 10 5 15 1 21 1 22 20 36 64 55 42 66
REMARK Flexibility Score: inf
ROOT
ATOM      1  C   UNL A   1      36.122  22.151  24.799  1.00  0.00     0.116 C 
ENDROOT
BRANCH   1   2
ATOM      2  N   UNL A   1      35.233  22.892  25.674  1.00  0.00    -0.354 N 
ATOM      3  C   UNL A   1      33.855  22.929  25.704  1.00  0.00     0.247 C 
ATOM      4  O   UNL A   1      33.363  23.633  26.592  1.00  0.00    -0.272 OA
ATOM      5  H   UNL A   1      35.680  23.452  26.348  1.00  0.00     0.163 HD
BRANCH   3   6
ATOM      6  C   UNL A   1      32.970  22.258  24.588  1.00  0.00     0.202 C 
BRANCH   6   7
ATOM      7  N   UNL A   1      33.178  22.727  23.211  1.00  0.00    -0.340 N 
ATOM      8  C   UNL A   1      32.997  23.888  22.544  1.00  0.00     0.224 C 
ATOM      9  O   UNL A   1      33.278  23.840  21.339  1.00  0.00    -0.275 OA
ATOM     10  H   UNL A   1      33.540  22.019  22.630  1.00  0.00     0.164 HD
BRANCH   8  11
ATOM     11  C   UNL A   1      32.515  25.214  23.132  1.00  0.00     0.089 C 
ATOM     12  N   UNL A   1      30.783  27.560  22.907  1.00  0.00    -0.327 N 
ATOM     13  C   UNL A   1      32.240  27.742  22.953  1.00  0.00     0.263 C 
ATOM     14  C   UNL A   1      30.408  26.471  23.826  1.00  0.00     0.263 C 
ATOM     15  H   UNL A   1      30.479  27.307  21.967  1.00  0.00     0.348 HD
ATOM     16  C   UNL A   1      32.964  26.499  22.449  1.00  0.00     0.075 C 
ATOM     17  C   UNL A   1      31.010  25.143  23.374  1.00  0.00     0.075 C 
BRANCH  12  18
ATOM     18  C   UNL A   1      30.127  28.836  23.284  1.00  0.00     0.363 C 
BRANCH  18  19
ATOM     19  C   UNL A   1      29.501  29.542  22.080  1.00  0.00     0.272 C 
ATOM     20  N   UNL A   1      30.295  30.451  21.443  1.00  0.00    -0.365 N 
ATOM     21  H   UNL A   1      29.952  30.941  20.661  1.00  0.00     0.159 HD
ATOM     22  H   UNL A   1      31.210  30.617  21.767  1.00  0.00     0.159 HD
ATOM     23  O   UNL A   1      28.357  29.323  21.689  1.00  0.00    -0.269 OA
ENDBRANCH  18  19
ENDBRANCH  12  18
ENDBRANCH   8  11
ENDBRANCH   6   7
BRANCH   6  24
ATOM     24  C   UNL A   1      32.763  20.740  24.605  1.00  0.00    -0.016 A 
ATOM     25  C   UNL A   1      32.519  20.088  23.375  1.00  0.00     0.008 A 
ATOM     26  C   UNL A   1      32.901  19.937  25.747  1.00  0.00     0.008 A 
ATOM     27  C   UNL A   1      32.542  18.695  23.272  1.00  0.00     0.021 A 
ATOM     28  C   UNL A   1      32.918  18.541  25.646  1.00  0.00     0.021 A 
ATOM     29  C   UNL A   1      32.773  17.926  24.406  1.00  0.00     0.041 A 
ATOM     30  Cl  UNL A   1      32.917  16.218  24.272  1.00  0.00    -0.084 Cl
ENDBRANCH   6  24
ENDBRANCH   3   6
ENDBRANCH   1   2
BRANCH   1  31
ATOM     31  C   UNL A   1      36.398  20.702  25.192  1.00  0.00     0.023 C 
BRANCH  31  32
ATOM     32  C   UNL A   1      37.748  20.108  24.787  1.00  0.00     0.023 C 
BRANCH  32  33
ATOM     33  C   UNL A   1      38.920  20.325  25.738  1.00  0.00     0.116 C 
BRANCH  33  34
ATOM     34  N   UNL A   1      39.894  19.245  25.755  1.00  0.00    -0.352 N 
ATOM     35  C   UNL A   1      41.244  19.256  26.029  1.00  0.00     0.251 C 
ATOM     36  H   UNL A   1      39.528  18.358  25.534  1.00  0.00     0.163 HD
ATOM     37  O   UNL A   1      41.899  18.223  25.919  1.00  0.00    -0.269 OA
BRANCH  35  38
ATOM     38  C   UNL A   1      41.932  20.512  26.402  1.00  0.00     0.039 A 
ATOM     39  C   UNL A   1      42.571  21.249  25.400  1.00  0.00     0.014 A 
ATOM     40  C   UNL A   1      41.945  20.976  27.718  1.00  0.00     0.014 A 
ATOM     41  C   UNL A   1      43.110  22.505  25.695  1.00  0.00     0.010 A 
ATOM     42  C   UNL A   1      42.404  22.263  27.994  1.00  0.00     0.010 A 
ATOM     43  C   UNL A   1      42.972  23.051  26.982  1.00  0.00    -0.014 A 
BRANCH  43  44
ATOM     44  C   UNL A   1      43.355  24.459  27.268  1.00  0.00     0.031 A 
ATOM     45  C   UNL A   1      44.792  24.896  27.217  1.00  0.00     0.074 A 
ATOM     46  C   UNL A   1      42.410  25.328  27.681  1.00  0.00     0.049 A 
ATOM     47  N   UNL A   1      45.312  26.061  27.511  1.00  0.00    -0.248 NA
ATOM     48  C   UNL A   1      45.778  23.882  26.814  1.00  0.00     0.031 C 
ATOM     49  C   UNL A   1      40.987  25.020  27.844  1.00  0.00     0.029 A 
ATOM     50  N   UNL A   1      42.508  26.646  28.057  1.00  0.00    -0.354 N 
ATOM     51  C   UNL A   1      46.684  25.914  27.355  1.00  0.00     0.074 A 
ATOM     52  C   UNL A   1      46.918  24.534  26.984  1.00  0.00     0.031 C 
ATOM     53  C   UNL A   1      40.345  26.119  28.269  1.00  0.00     0.029 A 
ATOM     54  C   UNL A   1      41.312  27.198  28.446  1.00  0.00     0.049 A 
ATOM     55  H   UNL A   1      43.357  27.147  28.049  1.00  0.00     0.167 HD
ATOM     56  C   UNL A   1      47.659  26.843  27.492  1.00  0.00     0.031 A 
ATOM     57  C   UNL A   1      41.020  28.429  28.905  1.00  0.00     0.031 A 
ATOM     58  C   UNL A   1      47.429  28.218  27.849  1.00  0.00     0.049 A 
ATOM     59  C   UNL A   1      42.113  29.450  29.034  1.00  0.00     0.074 A 
ATOM     60  C   UNL A   1      48.343  29.255  27.924  1.00  0.00     0.029 A 
ATOM     61  N   UNL A   1      46.197  28.747  28.203  1.00  0.00    -0.354 N 
ATOM     62  N   UNL A   1      43.394  29.321  28.786  1.00  0.00    -0.248 NA
ATOM     63  C   UNL A   1      41.719  30.789  29.492  1.00  0.00     0.031 C 
ATOM     64  C   UNL A   1      47.674  30.398  28.378  1.00  0.00     0.029 A 
ATOM     65  C   UNL A   1      46.333  30.087  28.532  1.00  0.00     0.049 A 
ATOM     66  H   UNL A   1      45.350  28.245  28.218  1.00  0.00     0.167 HD
ATOM     67  C   UNL A   1      43.956  30.563  29.043  1.00  0.00     0.074 A 
ATOM     68  C   UNL A   1      42.874  31.439  29.447  1.00  0.00     0.031 C 
ATOM     69  C   UNL A   1      45.254  30.944  28.951  1.00  0.00     0.031 A 
BRANCH  56  70
ATOM     70  C   UNL A   1      49.077  26.388  27.272  1.00  0.00    -0.014 A 
ATOM     71  C   UNL A   1      49.886  25.971  28.341  1.00  0.00     0.009 A 
ATOM     72  C   UNL A   1      49.606  26.364  25.972  1.00  0.00     0.009 A 
ATOM     73  C   UNL A   1      51.212  25.592  28.120  1.00  0.00     0.001 A 
ATOM     74  C   UNL A   1      50.922  25.954  25.750  1.00  0.00     0.001 A 
ATOM     75  C   UNL A   1      51.728  25.582  26.825  1.00  0.00     0.000 A 
ENDBRANCH  56  70
BRANCH  57  76
ATOM     76  C   UNL A   1      39.618  28.761  29.269  1.00  0.00    -0.014 A 
ATOM     77  C   UNL A   1      38.727  29.249  28.302  1.00  0.00     0.009 A 
ATOM     78  C   UNL A   1      39.156  28.559  30.580  1.00  0.00     0.009 A 
ATOM     79  C   UNL A   1      37.404  29.540  28.644  1.00  0.00     0.001 A 
ATOM     80  C   UNL A   1      37.827  28.826  30.911  1.00  0.00     0.001 A 
ATOM     81  C   UNL A   1      36.954  29.323  29.945  1.00  0.00     0.000 A 
ENDBRANCH  57  76
BRANCH  69  82
ATOM     82  C   UNL A   1      45.576  32.374  29.283  1.00  0.00    -0.014 A 
ATOM     83  C   UNL A   1      45.513  33.380  28.306  1.00  0.00     0.009 A 
ATOM     84  C   UNL A   1      45.908  32.727  30.600  1.00  0.00     0.009 A 
ATOM     85  C   UNL A   1      45.805  34.705  28.636  1.00  0.00     0.001 A 
ATOM     86  C   UNL A   1      46.172  34.055  30.934  1.00  0.00     0.001 A 
ATOM     87  C   UNL A   1      46.129  35.042  29.950  1.00  0.00     0.000 A 
ENDBRANCH  69  82
ENDBRANCH  43  44
ENDBRANCH  35  38
ENDBRANCH  33  34
ENDBRANCH  32  33
ENDBRANCH  31  32
ENDBRANCH   1  31
TORSDOF 16
ENDMDL
MODEL 3
REMARK VINA RESULT:     -11.4      1.945      6.079
REMARK SMILES NC(=O)C[NH+]1CCC(C(=O)N[C@H](C(=O)NCCCCNC(=O)c2ccc(-c3c4nc(c(-c5ccccc5)c5ccc([nH]5)c(-c5ccccc5)c5nc(c(-c6ccccc6)c6ccc3[nH]6)C=C5)C=C4)cc2)c2ccc(Cl)cc2)CC1
REMARK SMILES IDX 16 1 15 2 13 3 14 4 12 6 11 7 9 8 10 9 8 11 5 12 6 13 79 14
REMARK SMILES IDX 7 16 78 17 4 18 2 19 1 20 3 23 71 24 72 25 77 26 73 27 76 28
REMARK SMILES IDX 74 29 75 30 17 31 18 32 19 33 20 34 21 35 22 37 23 38 24 39
REMARK SMILES IDX 70 40 25 41 69 42 26 43 27 44 28 45 63 46 29 47 68 48 62 49
REMARK SMILES IDX 64 50 30 51 67 52 61 53 60 54 31 56 53 57 38 58 52 59 39 60
REMARK SMILES IDX 42 61 51 62 65 63 40 64 41 65 50 67 66 68 43 69 32 70 33 71
REMARK SMILES IDX 37 72 34 73 36 74 35 75 54 76 55 77 59 78 56 79 58 80 57 81
REMARK SMILES IDX 44 82 45 83 49 84 46 85 48 86 47 87
REMARK H PARENT 15 5 11 10 5 15 1 21 1 22 20 36 64 55 42 66
REMARK Flexibility Score: inf
ROOT
ATOM      1  C   UNL A   1      32.513  28.757  26.134  1.00  0.00     0.116 C 
ENDROOT
BRANCH   1   2
ATOM      2  N   UNL A   1      33.362  27.989  25.243  1.00  0.00    -0.354 N 
ATOM      3  C   UNL A   1      33.018  27.143  24.210  1.00  0.00     0.247 C 
ATOM      4  O   UNL A   1      33.967  26.645  23.594  1.00  0.00    -0.272 OA
ATOM      5  H   UNL A   1      34.329  28.087  25.398  1.00  0.00     0.163 HD
BRANCH   3   6
ATOM      6  C   UNL A   1      31.530  26.709  23.936  1.00  0.00     0.202 C 
BRANCH   6   7
ATOM      7  N   UNL A   1      30.835  26.013  25.027  1.00  0.00    -0.340 N 
ATOM      8  C   UNL A   1      30.971  24.829  25.663  1.00  0.00     0.224 C 
ATOM      9  O   UNL A   1      30.119  24.610  26.536  1.00  0.00    -0.275 OA
ATOM     10  H   UNL A   1      30.083  26.540  25.384  1.00  0.00     0.164 HD
BRANCH   8  11
ATOM     11  C   UNL A   1      32.060  23.783  25.425  1.00  0.00     0.089 C 
ATOM     12  N   UNL A   1      32.802  20.964  25.184  1.00  0.00    -0.327 N 
ATOM     13  C   UNL A   1      33.422  21.785  26.232  1.00  0.00     0.263 C 
ATOM     14  C   UNL A   1      32.653  21.778  23.965  1.00  0.00     0.263 C 
ATOM     15  H   UNL A   1      31.877  20.644  25.473  1.00  0.00     0.348 HD
ATOM     16  C   UNL A   1      32.523  22.955  26.616  1.00  0.00     0.075 C 
ATOM     17  C   UNL A   1      31.699  22.945  24.201  1.00  0.00     0.075 C 
BRANCH  12  18
ATOM     18  C   UNL A   1      33.653  19.774  24.938  1.00  0.00     0.363 C 
BRANCH  18  19
ATOM     19  C   UNL A   1      32.903  18.464  25.190  1.00  0.00     0.272 C 
ATOM     20  N   UNL A   1      32.697  18.137  26.499  1.00  0.00    -0.365 N 
ATOM     21  H   UNL A   1      32.221  17.308  26.730  1.00  0.00     0.159 HD
ATOM     22  H   UNL A   1      33.025  18.732  27.212  1.00  0.00     0.159 HD
ATOM     23  O   UNL A   1      32.500  17.734  24.289  1.00  0.00    -0.269 OA
ENDBRANCH  18  19
ENDBRANCH  12  18
ENDBRANCH   8  11
ENDBRANCH   6   7
BRANCH   6  24
ATOM     24  C   UNL A   1      30.578  27.690  23.242  1.00  0.00    -0.016 A 
ATOM     25  C   UNL A   1      29.195  27.576  23.510  1.00  0.00     0.008 A 
ATOM     26  C   UNL A   1      30.995  28.758  22.436  1.00  0.00     0.008 A 
ATOM     27  C   UNL A   1      28.290  28.559  23.100  1.00  0.00     0.021 A 
ATOM     28  C   UNL A   1      30.089  29.741  22.020  1.00  0.00     0.021 A 
ATOM     29  C   UNL A   1      28.748  29.656  22.382  1.00  0.00     0.041 A 
ATOM     30  Cl  UNL A   1      27.665  30.927  21.970  1.00  0.00    -0.084 Cl
ENDBRANCH   6  24
ENDBRANCH   3   6
ENDBRANCH   1   2
BRANCH   1  31
ATOM     31  C   UNL A   1      32.074  30.128  25.628  1.00  0.00     0.023 C 
BRANCH  31  32
ATOM     32  C   UNL A   1      31.725  31.186  26.676  1.00  0.00     0.023 C 
BRANCH  32  33
ATOM     33  C   UNL A   1      32.862  32.059  27.193  1.00  0.00     0.116 C 
BRANCH  33  34
ATOM     34  N   UNL A   1      32.494  33.443  27.452  1.00  0.00    -0.352 N 
ATOM     35  C   UNL A   1      33.047  34.376  28.301  1.00  0.00     0.251 C 
ATOM     36  H   UNL A   1      31.720  33.766  26.936  1.00  0.00     0.163 HD
ATOM     37  O   UNL A   1      32.528  35.484  28.413  1.00  0.00    -0.269 OA
BRANCH  35  38
ATOM     38  C   UNL A   1      34.231  34.046  29.125  1.00  0.00     0.039 A 
ATOM     39  C   UNL A   1      34.042  33.340  30.317  1.00  0.00     0.014 A 
ATOM     40  C   UNL A   1      35.521  34.409  28.732  1.00  0.00     0.014 A 
ATOM     41  C   UNL A   1      35.148  32.894  31.046  1.00  0.00     0.010 A 
ATOM     42  C   UNL A   1      36.622  33.891  29.411  1.00  0.00     0.010 A 
ATOM     43  C   UNL A   1      36.449  33.110  30.563  1.00  0.00    -0.014 A 
BRANCH  43  44
ATOM     44  C   UNL A   1      37.628  32.475  31.210  1.00  0.00     0.031 A 
ATOM     45  C   UNL A   1      38.299  31.281  30.592  1.00  0.00     0.074 A 
ATOM     46  C   UNL A   1      38.033  32.915  32.419  1.00  0.00     0.049 A 
ATOM     47  N   UNL A   1      39.288  30.557  31.057  1.00  0.00    -0.248 NA
ATOM     48  C   UNL A   1      37.771  30.819  29.301  1.00  0.00     0.031 C 
ATOM     49  C   UNL A   1      37.428  34.020  33.166  1.00  0.00     0.029 A 
ATOM     50  N   UNL A   1      39.041  32.472  33.241  1.00  0.00    -0.354 N 
ATOM     51  C   UNL A   1      39.481  29.542  30.130  1.00  0.00     0.074 A 
ATOM     52  C   UNL A   1      38.478  29.717  29.100  1.00  0.00     0.031 C 
ATOM     53  C   UNL A   1      38.085  34.179  34.325  1.00  0.00     0.029 A 
ATOM     54  C   UNL A   1      39.132  33.167  34.423  1.00  0.00     0.049 A 
ATOM     55  H   UNL A   1      39.641  31.727  33.005  1.00  0.00     0.167 HD
ATOM     56  C   UNL A   1      40.416  28.562  30.125  1.00  0.00     0.031 A 
ATOM     57  C   UNL A   1      39.954  33.006  35.476  1.00  0.00     0.031 A 
ATOM     58  C   UNL A   1      41.422  28.392  31.141  1.00  0.00     0.049 A 
ATOM     59  C   UNL A   1      40.995  31.924  35.444  1.00  0.00     0.074 A 
ATOM     60  C   UNL A   1      42.467  27.485  31.177  1.00  0.00     0.029 A 
ATOM     61  N   UNL A   1      41.501  29.139  32.307  1.00  0.00    -0.354 N 
ATOM     62  N   UNL A   1      41.228  31.033  34.512  1.00  0.00    -0.248 NA
ATOM     63  C   UNL A   1      41.894  31.835  36.603  1.00  0.00     0.031 C 
ATOM     64  C   UNL A   1      43.144  27.645  32.391  1.00  0.00     0.029 A 
ATOM     65  C   UNL A   1      42.556  28.689  33.086  1.00  0.00     0.049 A 
ATOM     66  H   UNL A   1      40.898  29.878  32.546  1.00  0.00     0.167 HD
ATOM     67  C   UNL A   1      42.308  30.287  34.963  1.00  0.00     0.074 A 
ATOM     68  C   UNL A   1      42.697  30.844  36.243  1.00  0.00     0.031 C 
ATOM     69  C   UNL A   1      42.923  29.236  34.367  1.00  0.00     0.031 A 
BRANCH  56  70
ATOM     70  C   UNL A   1      40.376  27.580  28.985  1.00  0.00    -0.014 A 
ATOM     71  C   UNL A   1      39.617  26.401  29.062  1.00  0.00     0.009 A 
ATOM     72  C   UNL A   1      41.099  27.846  27.812  1.00  0.00     0.009 A 
ATOM     73  C   UNL A   1      39.626  25.484  28.008  1.00  0.00     0.001 A 
ATOM     74  C   UNL A   1      41.082  26.942  26.748  1.00  0.00     0.001 A 
ATOM     75  C   UNL A   1      40.357  25.756  26.852  1.00  0.00     0.000 A 
ENDBRANCH  56  70
BRANCH  57  76
ATOM     76  C   UNL A   1      39.825  33.908  36.650  1.00  0.00    -0.014 A 
ATOM     77  C   UNL A   1      40.439  35.169  36.651  1.00  0.00     0.009 A 
ATOM     78  C   UNL A   1      39.060  33.523  37.762  1.00  0.00     0.009 A 
ATOM     79  C   UNL A   1      40.298  36.022  37.748  1.00  0.00     0.001 A 
ATOM     80  C   UNL A   1      38.899  34.389  38.846  1.00  0.00     0.001 A 
ATOM     81  C   UNL A   1      39.524  35.634  38.840  1.00  0.00     0.000 A 
ENDBRANCH  57  76
BRANCH  69  82
ATOM     82  C   UNL A   1      44.090  28.623  35.089  1.00  0.00    -0.014 A 
ATOM     83  C   UNL A   1      45.396  29.103  34.900  1.00  0.00     0.009 A 
ATOM     84  C   UNL A   1      43.875  27.578  36.001  1.00  0.00     0.009 A 
ATOM     85  C   UNL A   1      46.466  28.527  35.589  1.00  0.00     0.001 A 
ATOM     86  C   UNL A   1      44.942  27.023  36.708  1.00  0.00     0.001 A 
ATOM     87  C   UNL A   1      46.238  27.492  36.495  1.00  0.00     0.000 A 
ENDBRANCH  69  82
ENDBRANCH  43  44
ENDBRANCH  35  38
ENDBRANCH  33  34
ENDBRANCH  32  33
ENDBRANCH  31  32
ENDBRANCH   1  31
TORSDOF 16
ENDMDL
