MODEL 1
REMARK VINA RESULT:     -12.3      0.000      0.000
REMARK SMILES CCn1ncc(-c2cc(C(F)(F)F)nc(-n3ccc(C(=O)NCCCCNC(=O)c4ccc(-c5c6nc(c(-c7ccccc7)c7ccc([nH]7)c(-c7ccccc7)c7nc(c(-c8ccccc8)c8ccc5[nH]8)C=C7)C=C6)cc4)n3)n2)c1C
REMARK SMILES IDX 24 1 23 2 22 3 20 4 21 5 19 7 16 8 17 9 78 10 18 11 15 12
REMARK SMILES IDX 7 13 8 14 79 15 9 16 14 17 6 18 3 19 4 20 80 21 5 22 81 23
REMARK SMILES IDX 2 24 1 25 10 26 11 27 12 28 13 29 25 30 26 31 27 32 28 33
REMARK SMILES IDX 29 35 30 36 31 37 77 38 32 39 76 40 33 41 34 42 35 43 70 44
REMARK SMILES IDX 36 45 75 46 69 47 71 48 37 49 74 50 68 51 67 52 38 54 60 55
REMARK SMILES IDX 45 56 59 57 46 58 49 59 58 60 72 61 47 62 48 63 57 65 73 66
REMARK SMILES IDX 50 67 39 68 40 69 44 70 41 71 43 72 42 73 61 74 62 75 66 76
REMARK SMILES IDX 63 77 65 78 64 79 51 80 52 81 56 82 53 83 55 84 54 85
REMARK H PARENT 22 6 27 34 71 53 49 64
REMARK Flexibility Score: inf
ROOT
ATOM      1  C   UNL A   1      31.729  29.552  26.020  1.00  0.00     0.023 C 
ENDROOT
BRANCH   1   2
ATOM      2  C   UNL A   1      31.396  29.333  24.539  1.00  0.00     0.116 C 
BRANCH   2   3
ATOM      3  N   UNL A   1      32.563  29.401  23.671  1.00  0.00    -0.351 N 
ATOM      4  C   UNL A   1      33.276  28.404  23.032  1.00  0.00     0.271 C 
ATOM      5  O   UNL A   1      34.291  28.742  22.418  1.00  0.00    -0.267 OA
ATOM      6  H   UNL A   1      32.901  30.312  23.512  1.00  0.00     0.163 HD
BRANCH   4   7
ATOM      7  C   UNL A   1      32.887  26.988  23.143  1.00  0.00     0.150 A 
ATOM      8  N   UNL A   1      33.002  24.898  23.601  1.00  0.00    -0.205 N 
ATOM      9  C   UNL A   1      32.009  25.005  22.652  1.00  0.00     0.119 A 
ATOM     10  N   UNL A   1      33.424  26.120  24.018  1.00  0.00    -0.160 NA
ATOM     11  C   UNL A   1      31.874  26.345  22.379  1.00  0.00     0.056 A 
BRANCH   8  12
ATOM     12  C   UNL A   1      33.632  23.691  24.049  1.00  0.00     0.251 A 
ATOM     13  C   UNL A   1      35.493  22.599  24.813  1.00  0.00     0.080 A 
ATOM     14  C   UNL A   1      34.876  21.373  24.691  1.00  0.00     0.062 A 
ATOM     15  N   UNL A   1      34.915  23.753  24.443  1.00  0.00    -0.211 NA
ATOM     16  C   UNL A   1      33.564  21.384  24.252  1.00  0.00     0.150 A 
ATOM     17  N   UNL A   1      32.912  22.548  23.983  1.00  0.00    -0.207 NA
BRANCH  13  18
ATOM     18  C   UNL A   1      36.782  22.703  25.462  1.00  0.00     0.041 A 
ATOM     19  N   UNL A   1      38.841  22.239  26.081  1.00  0.00    -0.269 N 
ATOM     20  N   UNL A   1      38.661  23.529  26.441  1.00  0.00    -0.181 NA
ATOM     21  C   UNL A   1      37.733  21.690  25.475  1.00  0.00     0.045 A 
ATOM     22  C   UNL A   1      37.408  23.799  26.079  1.00  0.00     0.145 A 
ATOM     23  C   UNL A   1      37.645  20.308  24.928  1.00  0.00     0.067 C 
BRANCH  19  24
ATOM     24  C   UNL A   1      40.160  21.660  26.275  1.00  0.00     0.141 C 
ATOM     25  C   UNL A   1      40.734  21.935  27.654  1.00  0.00     0.029 C 
ENDBRANCH  19  24
ENDBRANCH  13  18
BRANCH  16  26
ATOM     26  C   UNL A   1      32.843  20.065  24.018  1.00  0.00     0.433 C 
ATOM     27  F   UNL A   1      32.214  20.003  22.812  1.00  0.00    -0.165 F 
ATOM     28  F   UNL A   1      33.686  18.995  24.064  1.00  0.00    -0.165 F 
ATOM     29  F   UNL A   1      31.877  19.808  24.949  1.00  0.00    -0.165 F 
ENDBRANCH  16  26
ENDBRANCH   8  12
ENDBRANCH   4   7
ENDBRANCH   2   3
ENDBRANCH   1   2
BRANCH   1  30
ATOM     30  C   UNL A   1      33.210  29.467  26.421  1.00  0.00     0.023 C 
BRANCH  30  31
ATOM     31  C   UNL A   1      33.594  30.279  27.648  1.00  0.00     0.116 C 
BRANCH  31  32
ATOM     32  N   UNL A   1      34.080  31.630  27.345  1.00  0.00    -0.352 N 
ATOM     33  C   UNL A   1      35.270  32.208  27.753  1.00  0.00     0.251 C 
ATOM     34  H   UNL A   1      33.493  32.189  26.786  1.00  0.00     0.163 HD
ATOM     35  O   UNL A   1      35.411  33.432  27.782  1.00  0.00    -0.269 OA
BRANCH  33  36
ATOM     36  C   UNL A   1      36.382  31.325  28.133  1.00  0.00     0.039 A 
ATOM     37  C   UNL A   1      36.619  30.085  27.531  1.00  0.00     0.014 A 
ATOM     38  C   UNL A   1      37.242  31.814  29.110  1.00  0.00     0.014 A 
ATOM     39  C   UNL A   1      37.774  29.384  27.878  1.00  0.00     0.010 A 
ATOM     40  C   UNL A   1      38.469  31.244  29.274  1.00  0.00     0.010 A 
ATOM     41  C   UNL A   1      38.701  29.985  28.744  1.00  0.00    -0.014 A 
BRANCH  41  42
ATOM     42  C   UNL A   1      39.988  29.383  29.060  1.00  0.00     0.031 A 
ATOM     43  C   UNL A   1      40.146  29.015  30.488  1.00  0.00     0.074 A 
ATOM     44  C   UNL A   1      40.835  28.956  28.095  1.00  0.00     0.049 A 
ATOM     45  N   UNL A   1      40.926  29.566  31.354  1.00  0.00    -0.248 NA
ATOM     46  C   UNL A   1      39.221  28.023  31.063  1.00  0.00     0.031 C 
ATOM     47  C   UNL A   1      40.630  28.962  26.637  1.00  0.00     0.029 A 
ATOM     48  N   UNL A   1      42.021  28.302  28.216  1.00  0.00    -0.354 N 
ATOM     49  C   UNL A   1      40.757  28.844  32.531  1.00  0.00     0.074 A 
ATOM     50  C   UNL A   1      39.562  28.060  32.353  1.00  0.00     0.031 C 
ATOM     51  C   UNL A   1      41.528  28.143  26.044  1.00  0.00     0.029 A 
ATOM     52  C   UNL A   1      42.478  27.702  27.047  1.00  0.00     0.049 A 
ATOM     53  H   UNL A   1      42.518  28.259  29.065  1.00  0.00     0.167 HD
ATOM     54  C   UNL A   1      41.771  28.735  33.434  1.00  0.00     0.031 A 
ATOM     55  C   UNL A   1      43.558  26.894  26.911  1.00  0.00     0.031 A 
ATOM     56  C   UNL A   1      42.830  29.670  33.141  1.00  0.00     0.049 A 
ATOM     57  C   UNL A   1      44.422  27.125  28.088  1.00  0.00     0.074 A 
ATOM     58  C   UNL A   1      42.943  31.044  33.092  1.00  0.00     0.029 A 
ATOM     59  N   UNL A   1      43.888  29.167  32.423  1.00  0.00    -0.354 N 
ATOM     60  N   UNL A   1      45.033  28.252  28.312  1.00  0.00    -0.248 NA
ATOM     61  C   UNL A   1      44.241  26.271  29.249  1.00  0.00     0.031 C 
ATOM     62  C   UNL A   1      43.806  31.301  31.985  1.00  0.00     0.029 A 
ATOM     63  C   UNL A   1      44.244  30.080  31.467  1.00  0.00     0.049 A 
ATOM     64  H   UNL A   1      44.320  28.294  32.571  1.00  0.00     0.167 HD
ATOM     65  C   UNL A   1      44.895  28.458  29.676  1.00  0.00     0.074 A 
ATOM     66  C   UNL A   1      44.515  27.153  30.216  1.00  0.00     0.031 C 
ATOM     67  C   UNL A   1      44.817  29.724  30.186  1.00  0.00     0.031 A 
BRANCH  54  68
ATOM     68  C   UNL A   1      42.030  27.497  34.264  1.00  0.00    -0.014 A 
ATOM     69  C   UNL A   1      41.797  27.564  35.650  1.00  0.00     0.009 A 
ATOM     70  C   UNL A   1      42.759  26.385  33.802  1.00  0.00     0.009 A 
ATOM     71  C   UNL A   1      42.338  26.618  36.530  1.00  0.00     0.001 A 
ATOM     72  C   UNL A   1      43.267  25.416  34.673  1.00  0.00     0.001 A 
ATOM     73  C   UNL A   1      43.082  25.550  36.040  1.00  0.00     0.000 A 
ENDBRANCH  54  68
BRANCH  55  74
ATOM     74  C   UNL A   1      43.789  25.767  25.982  1.00  0.00    -0.014 A 
ATOM     75  C   UNL A   1      45.067  25.499  25.464  1.00  0.00     0.009 A 
ATOM     76  C   UNL A   1      42.802  24.776  25.834  1.00  0.00     0.009 A 
ATOM     77  C   UNL A   1      45.353  24.269  24.851  1.00  0.00     0.001 A 
ATOM     78  C   UNL A   1      43.089  23.548  25.226  1.00  0.00     0.001 A 
ATOM     79  C   UNL A   1      44.369  23.289  24.746  1.00  0.00     0.000 A 
ENDBRANCH  55  74
BRANCH  67  80
ATOM     80  C   UNL A   1      45.153  30.869  29.258  1.00  0.00    -0.014 A 
ATOM     81  C   UNL A   1      46.435  31.439  29.153  1.00  0.00     0.009 A 
ATOM     82  C   UNL A   1      44.163  31.296  28.360  1.00  0.00     0.009 A 
ATOM     83  C   UNL A   1      46.705  32.427  28.198  1.00  0.00     0.001 A 
ATOM     84  C   UNL A   1      44.439  32.264  27.393  1.00  0.00     0.001 A 
ATOM     85  C   UNL A   1      45.707  32.835  27.315  1.00  0.00     0.000 A 
ENDBRANCH  67  80
ENDBRANCH  41  42
ENDBRANCH  33  36
ENDBRANCH  31  32
ENDBRANCH  30  31
ENDBRANCH   1  30
TORSDOF 15
ENDMDL
MODEL 2
REMARK VINA RESULT:     -12.3      2.101      5.438
REMARK SMILES CCn1ncc(-c2cc(C(F)(F)F)nc(-n3ccc(C(=O)NCCCCNC(=O)c4ccc(-c5c6nc(c(-c7ccccc7)c7ccc([nH]7)c(-c7ccccc7)c7nc(c(-c8ccccc8)c8ccc5[nH]8)C=C7)C=C6)cc4)n3)n2)c1C
REMARK SMILES IDX 24 1 23 2 22 3 20 4 21 5 19 7 16 8 17 9 78 10 18 11 15 12
REMARK SMILES IDX 7 13 8 14 79 15 9 16 14 17 6 18 3 19 4 20 80 21 5 22 81 23
REMARK SMILES IDX 2 24 1 25 10 26 11 27 12 28 13 29 25 30 26 31 27 32 28 33
REMARK SMILES IDX 29 35 30 36 31 37 77 38 32 39 76 40 33 41 34 42 35 43 70 44
REMARK SMILES IDX 36 45 75 46 69 47 71 48 37 49 74 50 68 51 67 52 38 54 60 55
REMARK SMILES IDX 45 56 59 57 46 58 49 59 58 60 72 61 47 62 48 63 57 65 73 66
REMARK SMILES IDX 50 67 39 68 40 69 44 70 41 71 43 72 42 73 61 74 62 75 66 76
REMARK SMILES IDX 63 77 65 78 64 79 51 80 52 81 56 82 53 83 55 84 54 85
REMARK H PARENT 22 6 27 34 71 53 49 64
REMARK Flexibility Score: inf
ROOT
ATOM      1  C   UNL A   1      33.772  29.013  25.653  1.00  0.00     0.023 C 
ENDROOT
BRANCH   1   2
ATOM      2  C   UNL A   1      33.343  27.701  24.984  1.00  0.00     0.116 C 
BRANCH   2   3
ATOM      3  N   UNL A   1      31.969  27.723  24.502  1.00  0.00    -0.351 N 
ATOM      4  C   UNL A   1      31.262  26.814  23.738  1.00  0.00     0.271 C 
ATOM      5  O   UNL A   1      30.120  27.130  23.396  1.00  0.00    -0.267 OA
ATOM      6  H   UNL A   1      31.457  28.522  24.765  1.00  0.00     0.163 HD
BRANCH   4   7
ATOM      7  C   UNL A   1      31.872  25.552  23.283  1.00  0.00     0.150 A 
ATOM      8  N   UNL A   1      32.892  23.670  23.351  1.00  0.00    -0.205 N 
ATOM      9  C   UNL A   1      32.996  24.088  22.043  1.00  0.00     0.119 A 
ATOM     10  N   UNL A   1      32.070  24.479  24.068  1.00  0.00    -0.160 NA
ATOM     11  C   UNL A   1      32.301  25.271  21.957  1.00  0.00     0.056 A 
BRANCH   8  12
ATOM     12  C   UNL A   1      33.617  22.598  23.967  1.00  0.00     0.251 A 
ATOM     13  C   UNL A   1      35.565  21.778  24.847  1.00  0.00     0.080 A 
ATOM     14  C   UNL A   1      35.042  20.507  24.934  1.00  0.00     0.062 A 
ATOM     15  N   UNL A   1      34.897  22.814  24.315  1.00  0.00    -0.211 NA
ATOM     16  C   UNL A   1      33.726  20.353  24.532  1.00  0.00     0.150 A 
ATOM     17  N   UNL A   1      32.985  21.409  24.099  1.00  0.00    -0.207 NA
BRANCH  13  18
ATOM     18  C   UNL A   1      36.851  22.077  25.439  1.00  0.00     0.041 A 
ATOM     19  N   UNL A   1      38.980  21.926  25.972  1.00  0.00    -0.269 N 
ATOM     20  N   UNL A   1      38.629  23.181  26.329  1.00  0.00    -0.181 NA
ATOM     21  C   UNL A   1      37.940  21.214  25.419  1.00  0.00     0.045 A 
ATOM     22  C   UNL A   1      37.336  23.261  26.020  1.00  0.00     0.145 A 
ATOM     23  C   UNL A   1      38.031  19.825  24.888  1.00  0.00     0.067 C 
BRANCH  19  24
ATOM     24  C   UNL A   1      40.375  21.547  26.114  1.00  0.00     0.141 C 
ATOM     25  C   UNL A   1      40.761  21.220  27.547  1.00  0.00     0.029 C 
ENDBRANCH  19  24
ENDBRANCH  13  18
BRANCH  16  26
ATOM     26  C   UNL A   1      33.104  18.965  24.526  1.00  0.00     0.433 C 
ATOM     27  F   UNL A   1      32.110  18.825  23.606  1.00  0.00    -0.165 F 
ATOM     28  F   UNL A   1      34.015  17.988  24.253  1.00  0.00    -0.165 F 
ATOM     29  F   UNL A   1      32.548  18.621  25.724  1.00  0.00    -0.165 F 
ENDBRANCH  16  26
ENDBRANCH   8  12
ENDBRANCH   4   7
ENDBRANCH   2   3
ENDBRANCH   1   2
BRANCH   1  30
ATOM     30  C   UNL A   1      34.049  28.966  27.163  1.00  0.00     0.023 C 
BRANCH  30  31
ATOM     31  C   UNL A   1      35.434  29.438  27.580  1.00  0.00     0.116 C 
BRANCH  31  32
ATOM     32  N   UNL A   1      35.527  29.858  28.983  1.00  0.00    -0.352 N 
ATOM     33  C   UNL A   1      36.499  29.509  29.904  1.00  0.00     0.251 C 
ATOM     34  H   UNL A   1      34.815  30.457  29.306  1.00  0.00     0.163 HD
ATOM     35  O   UNL A   1      36.291  29.583  31.117  1.00  0.00    -0.269 OA
BRANCH  33  36
ATOM     36  C   UNL A   1      37.808  29.063  29.404  1.00  0.00     0.039 A 
ATOM     37  C   UNL A   1      38.456  29.656  28.315  1.00  0.00     0.014 A 
ATOM     38  C   UNL A   1      38.413  28.031  30.112  1.00  0.00     0.014 A 
ATOM     39  C   UNL A   1      39.750  29.240  28.002  1.00  0.00     0.010 A 
ATOM     40  C   UNL A   1      39.745  27.793  29.951  1.00  0.00     0.010 A 
ATOM     41  C   UNL A   1      40.390  28.314  28.841  1.00  0.00    -0.014 A 
BRANCH  41  42
ATOM     42  C   UNL A   1      41.780  27.921  28.663  1.00  0.00     0.031 A 
ATOM     43  C   UNL A   1      41.956  26.653  27.914  1.00  0.00     0.074 A 
ATOM     44  C   UNL A   1      42.803  28.769  28.917  1.00  0.00     0.049 A 
ATOM     45  N   UNL A   1      42.375  25.524  28.376  1.00  0.00    -0.248 NA
ATOM     46  C   UNL A   1      41.463  26.583  26.527  1.00  0.00     0.031 C 
ATOM     47  C   UNL A   1      42.732  30.176  29.344  1.00  0.00     0.029 A 
ATOM     48  N   UNL A   1      44.137  28.593  28.725  1.00  0.00    -0.354 N 
ATOM     49  C   UNL A   1      42.416  24.659  27.288  1.00  0.00     0.074 A 
ATOM     50  C   UNL A   1      41.655  25.293  26.242  1.00  0.00     0.031 C 
ATOM     51  C   UNL A   1      43.928  30.777  29.149  1.00  0.00     0.029 A 
ATOM     52  C   UNL A   1      44.890  29.763  28.760  1.00  0.00     0.049 A 
ATOM     53  H   UNL A   1      44.539  27.707  28.575  1.00  0.00     0.167 HD
ATOM     54  C   UNL A   1      43.311  23.633  27.244  1.00  0.00     0.031 A 
ATOM     55  C   UNL A   1      46.211  29.894  28.483  1.00  0.00     0.031 A 
ATOM     56  C   UNL A   1      43.926  23.426  28.533  1.00  0.00     0.049 A 
ATOM     57  C   UNL A   1      46.811  28.547  28.590  1.00  0.00     0.074 A 
ATOM     58  C   UNL A   1      43.482  23.064  29.787  1.00  0.00     0.029 A 
ATOM     59  N   UNL A   1      45.152  24.021  28.712  1.00  0.00    -0.354 N 
ATOM     60  N   UNL A   1      46.898  27.894  29.713  1.00  0.00    -0.248 NA
ATOM     61  C   UNL A   1      46.894  27.736  27.388  1.00  0.00     0.031 C 
ATOM     62  C   UNL A   1      44.256  23.849  30.692  1.00  0.00     0.029 A 
ATOM     63  C   UNL A   1      45.188  24.587  29.957  1.00  0.00     0.049 A 
ATOM     64  H   UNL A   1      45.884  24.038  28.053  1.00  0.00     0.167 HD
ATOM     65  C   UNL A   1      46.578  26.586  29.381  1.00  0.00     0.074 A 
ATOM     66  C   UNL A   1      46.712  26.526  27.926  1.00  0.00     0.031 C 
ATOM     67  C   UNL A   1      45.957  25.770  30.284  1.00  0.00     0.031 A 
BRANCH  54  68
ATOM     68  C   UNL A   1      43.977  23.150  25.976  1.00  0.00    -0.014 A 
ATOM     69  C   UNL A   1      43.946  21.772  25.691  1.00  0.00     0.009 A 
ATOM     70  C   UNL A   1      44.869  23.928  25.215  1.00  0.00     0.009 A 
ATOM     71  C   UNL A   1      44.820  21.196  24.761  1.00  0.00     0.001 A 
ATOM     72  C   UNL A   1      45.716  23.364  24.257  1.00  0.00     0.001 A 
ATOM     73  C   UNL A   1      45.713  21.993  24.052  1.00  0.00     0.000 A 
ENDBRANCH  54  68
BRANCH  55  74
ATOM     74  C   UNL A   1      46.949  31.033  27.897  1.00  0.00    -0.014 A 
ATOM     75  C   UNL A   1      46.394  31.809  26.866  1.00  0.00     0.009 A 
ATOM     76  C   UNL A   1      48.086  31.536  28.555  1.00  0.00     0.009 A 
ATOM     77  C   UNL A   1      46.937  33.059  26.531  1.00  0.00     0.001 A 
ATOM     78  C   UNL A   1      48.625  32.785  28.224  1.00  0.00     0.001 A 
ATOM     79  C   UNL A   1      48.043  33.553  27.220  1.00  0.00     0.000 A 
ENDBRANCH  55  74
BRANCH  67  80
ATOM     80  C   UNL A   1      45.880  26.248  31.717  1.00  0.00    -0.014 A 
ATOM     81  C   UNL A   1      46.853  25.959  32.690  1.00  0.00     0.009 A 
ATOM     82  C   UNL A   1      44.849  27.138  32.054  1.00  0.00     0.009 A 
ATOM     83  C   UNL A   1      46.776  26.520  33.971  1.00  0.00     0.001 A 
ATOM     84  C   UNL A   1      44.785  27.715  33.323  1.00  0.00     0.001 A 
ATOM     85  C   UNL A   1      45.743  27.402  34.284  1.00  0.00     0.000 A 
ENDBRANCH  67  80
ENDBRANCH  41  42
ENDBRANCH  33  36
ENDBRANCH  31  32
ENDBRANCH  30  31
ENDBRANCH   1  30
TORSDOF 15
ENDMDL
MODEL 3
REMARK VINA RESULT:     -12.1      3.969      9.217
REMARK SMILES CCn1ncc(-c2cc(C(F)(F)F)nc(-n3ccc(C(=O)NCCCCNC(=O)c4ccc(-c5c6nc(c(-c7ccccc7)c7ccc([nH]7)c(-c7ccccc7)c7nc(c(-c8ccccc8)c8ccc5[nH]8)C=C7)C=C6)cc4)n3)n2)c1C
REMARK SMILES IDX 24 1 23 2 22 3 20 4 21 5 19 7 16 8 17 9 78 10 18 11 15 12
REMARK SMILES IDX 7 13 8 14 79 15 9 16 14 17 6 18 3 19 4 20 80 21 5 22 81 23
REMARK SMILES IDX 2 24 1 25 10 26 11 27 12 28 13 29 25 30 26 31 27 32 28 33
REMARK SMILES IDX 29 35 30 36 31 37 77 38 32 39 76 40 33 41 34 42 35 43 70 44
REMARK SMILES IDX 36 45 75 46 69 47 71 48 37 49 74 50 68 51 67 52 38 54 60 55
REMARK SMILES IDX 45 56 59 57 46 58 49 59 58 60 72 61 47 62 48 63 57 65 73 66
REMARK SMILES IDX 50 67 39 68 40 69 44 70 41 71 43 72 42 73 61 74 62 75 66 76
REMARK SMILES IDX 63 77 65 78 64 79 51 80 52 81 56 82 53 83 55 84 54 85
REMARK H PARENT 22 6 27 34 71 53 49 64
REMARK Flexibility Score: inf
ROOT
ATOM      1  C   UNL A   1      44.526  22.541  24.963  1.00  0.00     0.023 C 
ENDROOT
BRANCH   1   2
ATOM      2  C   UNL A   1      45.135  21.372  25.750  1.00  0.00     0.116 C 
BRANCH   2   3
ATOM      3  N   UNL A   1      44.886  20.075  25.137  1.00  0.00    -0.351 N 
ATOM      4  C   UNL A   1      43.784  19.244  25.192  1.00  0.00     0.271 C 
ATOM      5  O   UNL A   1      43.877  18.145  24.640  1.00  0.00    -0.267 OA
ATOM      6  H   UNL A   1      45.631  19.732  24.592  1.00  0.00     0.163 HD
BRANCH   4   7
ATOM      7  C   UNL A   1      42.573  19.620  25.942  1.00  0.00     0.150 A 
ATOM      8  N   UNL A   1      40.840  20.725  26.546  1.00  0.00    -0.205 N 
ATOM      9  C   UNL A   1      41.162  19.940  27.631  1.00  0.00     0.119 A 
ATOM     10  N   UNL A   1      41.598  20.412  25.463  1.00  0.00    -0.160 NA
ATOM     11  C   UNL A   1      42.240  19.177  27.252  1.00  0.00     0.056 A 
BRANCH   8  12
ATOM     12  C   UNL A   1      39.917  21.821  26.526  1.00  0.00     0.251 A 
ATOM     13  C   UNL A   1      38.081  22.844  25.617  1.00  0.00     0.080 A 
ATOM     14  C   UNL A   1      38.304  23.990  26.349  1.00  0.00     0.062 A 
ATOM     15  N   UNL A   1      38.903  21.782  25.645  1.00  0.00    -0.211 NA
ATOM     16  C   UNL A   1      39.383  23.968  27.215  1.00  0.00     0.150 A 
ATOM     17  N   UNL A   1      40.164  22.863  27.353  1.00  0.00    -0.207 NA
BRANCH  13  18
ATOM     18  C   UNL A   1      36.863  22.696  24.851  1.00  0.00     0.041 A 
ATOM     19  N   UNL A   1      34.732  22.451  24.361  1.00  0.00    -0.269 N 
ATOM     20  N   UNL A   1      35.308  22.823  23.197  1.00  0.00    -0.181 NA
ATOM     21  C   UNL A   1      35.630  22.365  25.401  1.00  0.00     0.045 A 
ATOM     22  C   UNL A   1      36.599  22.954  23.495  1.00  0.00     0.145 A 
ATOM     23  C   UNL A   1      35.288  22.026  26.811  1.00  0.00     0.067 C 
BRANCH  19  24
ATOM     24  C   UNL A   1      33.287  22.301  24.384  1.00  0.00     0.141 C 
ATOM     25  C   UNL A   1      32.716  21.832  23.057  1.00  0.00     0.029 C 
ENDBRANCH  19  24
ENDBRANCH  13  18
BRANCH  16  26
ATOM     26  C   UNL A   1      39.738  25.223  27.999  1.00  0.00     0.433 C 
ATOM     27  F   UNL A   1      39.689  26.358  27.248  1.00  0.00    -0.165 F 
ATOM     28  F   UNL A   1      38.903  25.430  29.057  1.00  0.00    -0.165 F 
ATOM     29  F   UNL A   1      40.996  25.187  28.528  1.00  0.00    -0.165 F 
ENDBRANCH  16  26
ENDBRANCH   8  12
ENDBRANCH   4   7
ENDBRANCH   2   3
ENDBRANCH   1   2
BRANCH   1  30
ATOM     30  C   UNL A   1      43.343  23.275  25.612  1.00  0.00     0.023 C 
BRANCH  30  31
ATOM     31  C   UNL A   1      43.698  24.582  26.306  1.00  0.00     0.116 C 
BRANCH  31  32
ATOM     32  N   UNL A   1      44.728  24.450  27.342  1.00  0.00    -0.352 N 
ATOM     33  C   UNL A   1      45.076  25.379  28.307  1.00  0.00     0.251 C 
ATOM     34  H   UNL A   1      45.229  23.602  27.353  1.00  0.00     0.163 HD
ATOM     35  O   UNL A   1      46.176  25.346  28.863  1.00  0.00    -0.269 OA
BRANCH  33  36
ATOM     36  C   UNL A   1      44.091  26.405  28.678  1.00  0.00     0.039 A 
ATOM     37  C   UNL A   1      43.748  26.698  30.002  1.00  0.00     0.014 A 
ATOM     38  C   UNL A   1      43.537  27.126  27.626  1.00  0.00     0.014 A 
ATOM     39  C   UNL A   1      42.896  27.775  30.248  1.00  0.00     0.010 A 
ATOM     40  C   UNL A   1      42.899  28.304  27.879  1.00  0.00     0.010 A 
ATOM     41  C   UNL A   1      42.489  28.581  29.173  1.00  0.00    -0.014 A 
BRANCH  41  42
ATOM     42  C   UNL A   1      41.707  29.795  29.352  1.00  0.00     0.031 A 
ATOM     43  C   UNL A   1      42.477  31.044  29.135  1.00  0.00     0.074 A 
ATOM     44  C   UNL A   1      40.357  29.773  29.437  1.00  0.00     0.049 A 
ATOM     45  N   UNL A   1      42.822  31.913  30.024  1.00  0.00    -0.248 NA
ATOM     46  C   UNL A   1      43.068  31.282  27.807  1.00  0.00     0.031 C 
ATOM     47  C   UNL A   1      39.458  28.612  29.322  1.00  0.00     0.029 A 
ATOM     48  N   UNL A   1      39.480  30.809  29.518  1.00  0.00    -0.354 N 
ATOM     49  C   UNL A   1      43.480  32.924  29.331  1.00  0.00     0.074 A 
ATOM     50  C   UNL A   1      43.782  32.388  28.029  1.00  0.00     0.031 C 
ATOM     51  C   UNL A   1      38.191  29.032  29.105  1.00  0.00     0.029 A 
ATOM     52  C   UNL A   1      38.157  30.474  29.246  1.00  0.00     0.049 A 
ATOM     53  H   UNL A   1      39.760  31.723  29.752  1.00  0.00     0.167 HD
ATOM     54  C   UNL A   1      43.461  34.208  29.786  1.00  0.00     0.031 A 
ATOM     55  C   UNL A   1      37.105  31.324  29.138  1.00  0.00     0.031 A 
ATOM     56  C   UNL A   1      42.967  34.272  31.140  1.00  0.00     0.049 A 
ATOM     57  C   UNL A   1      37.498  32.585  29.802  1.00  0.00     0.074 A 
ATOM     58  C   UNL A   1      43.379  33.783  32.361  1.00  0.00     0.029 A 
ATOM     59  N   UNL A   1      41.634  34.578  31.274  1.00  0.00    -0.354 N 
ATOM     60  N   UNL A   1      37.709  32.679  31.083  1.00  0.00    -0.248 NA
ATOM     61  C   UNL A   1      38.102  33.628  28.991  1.00  0.00     0.031 C 
ATOM     62  C   UNL A   1      42.177  33.409  33.032  1.00  0.00     0.029 A 
ATOM     63  C   UNL A   1      41.090  33.763  32.229  1.00  0.00     0.049 A 
ATOM     64  H   UNL A   1      41.149  35.270  30.767  1.00  0.00     0.167 HD
ATOM     65  C   UNL A   1      38.828  33.489  31.193  1.00  0.00     0.074 A 
ATOM     66  C   UNL A   1      38.947  34.143  29.890  1.00  0.00     0.031 C 
ATOM     67  C   UNL A   1      39.709  33.325  32.225  1.00  0.00     0.031 A 
BRANCH  54  68
ATOM     68  C   UNL A   1      43.423  35.421  28.883  1.00  0.00    -0.014 A 
ATOM     69  C   UNL A   1      43.979  36.623  29.359  1.00  0.00     0.009 A 
ATOM     70  C   UNL A   1      42.619  35.513  27.732  1.00  0.00     0.009 A 
ATOM     71  C   UNL A   1      43.676  37.855  28.767  1.00  0.00     0.001 A 
ATOM     72  C   UNL A   1      42.346  36.737  27.113  1.00  0.00     0.001 A 
ATOM     73  C   UNL A   1      42.850  37.911  27.649  1.00  0.00     0.000 A 
ENDBRANCH  54  68
BRANCH  55  74
ATOM     74  C   UNL A   1      35.890  31.227  28.302  1.00  0.00    -0.014 A 
ATOM     75  C   UNL A   1      35.536  30.025  27.665  1.00  0.00     0.009 A 
ATOM     76  C   UNL A   1      34.920  32.243  28.366  1.00  0.00     0.009 A 
ATOM     77  C   UNL A   1      34.247  29.837  27.144  1.00  0.00     0.001 A 
ATOM     78  C   UNL A   1      33.632  32.053  27.850  1.00  0.00     0.001 A 
ATOM     79  C   UNL A   1      33.291  30.845  27.251  1.00  0.00     0.000 A 
ENDBRANCH  55  74
BRANCH  67  80
ATOM     80  C   UNL A   1      39.284  32.430  33.367  1.00  0.00    -0.014 A 
ATOM     81  C   UNL A   1      38.617  32.892  34.516  1.00  0.00     0.009 A 
ATOM     82  C   UNL A   1      39.448  31.045  33.208  1.00  0.00     0.009 A 
ATOM     83  C   UNL A   1      38.156  31.996  35.488  1.00  0.00     0.001 A 
ATOM     84  C   UNL A   1      38.968  30.151  34.167  1.00  0.00     0.001 A 
ATOM     85  C   UNL A   1      38.329  30.625  35.309  1.00  0.00     0.000 A 
ENDBRANCH  67  80
ENDBRANCH  41  42
ENDBRANCH  33  36
ENDBRANCH  31  32
ENDBRANCH  30  31
ENDBRANCH   1  30
TORSDOF 15
ENDMDL
