MODEL 1
REMARK VINA RESULT:     -10.6      0.000      0.000
REMARK SMILES CCCC[C@@H](C(=O)NCCCCNC(=O)c1ccc(-c2c3nc(c(-c4ccccc4)c4ccc([nH]4)c(-c4ccccc4)c4nc(c(-c5ccccc5)c5ccc2[nH]5)C=C4)C=C3)cc1)[C@]1(O)COc2cc(O)ccc21
REMARK SMILES IDX 10 1 9 2 8 3 6 4 7 5 5 7 4 8 3 9 2 10 1 11 64 12 66 13 74 14
REMARK SMILES IDX 67 15 68 16 73 17 69 18 72 19 70 20 65 21 71 23 11 25 12 26
REMARK SMILES IDX 13 27 14 28 15 30 16 31 17 32 63 33 18 34 62 35 19 36 20 37
REMARK SMILES IDX 21 38 56 39 22 40 61 41 55 42 57 43 23 44 60 45 54 46 53 47
REMARK SMILES IDX 24 49 46 50 31 51 45 52 32 53 35 54 44 55 58 56 33 57 34 58
REMARK SMILES IDX 43 60 59 61 36 62 25 63 26 64 30 65 27 66 29 67 28 68 47 69
REMARK SMILES IDX 48 70 52 71 49 72 51 73 50 74 37 75 38 76 42 77 39 78 41 79
REMARK SMILES IDX 40 80
REMARK H PARENT 8 6 65 22 71 24 13 29 57 48 35 59
REMARK Flexibility Score: inf
ROOT
ATOM      1  C   UNL A   1      32.011  28.473  23.727  1.00  0.00     0.023 C 
ENDROOT
BRANCH   1   2
ATOM      2  C   UNL A   1      31.172  27.264  23.294  1.00  0.00     0.116 C 
BRANCH   2   3
ATOM      3  N   UNL A   1      31.871  26.545  22.251  1.00  0.00    -0.356 N 
ATOM      4  C   UNL A   1      33.045  25.858  22.435  1.00  0.00     0.226 C 
ATOM      5  O   UNL A   1      33.952  26.057  21.631  1.00  0.00    -0.275 OA
ATOM      6  H   UNL A   1      31.479  26.548  21.347  1.00  0.00     0.163 HD
BRANCH   4   7
ATOM      7  C   UNL A   1      33.148  24.866  23.595  1.00  0.00     0.118 C 
BRANCH   7   8
ATOM      8  C   UNL A   1      34.023  25.407  24.761  1.00  0.00     0.017 C 
BRANCH   8   9
ATOM      9  C   UNL A   1      33.371  25.750  26.102  1.00  0.00     0.001 C 
BRANCH   9  10
ATOM     10  C   UNL A   1      31.941  25.253  26.311  1.00  0.00    -0.003 C 
ATOM     11  C   UNL A   1      31.898  23.864  26.926  1.00  0.00     0.004 C 
ENDBRANCH   9  10
ENDBRANCH   8   9
ENDBRANCH   7   8
BRANCH   7  12
ATOM     12  C   UNL A   1      33.703  23.483  23.093  1.00  0.00     0.139 C 
ATOM     13  C   UNL A   1      32.863  22.766  21.998  1.00  0.00     0.270 C 
ATOM     14  C   UNL A   1      33.724  22.343  24.072  1.00  0.00     0.030 A 
ATOM     15  O   UNL A   1      32.006  21.784  22.615  1.00  0.00    -0.490 OA
ATOM     16  C   UNL A   1      32.696  21.456  23.753  1.00  0.00     0.129 A 
ATOM     17  C   UNL A   1      34.540  22.087  25.162  1.00  0.00     0.014 A 
ATOM     18  C   UNL A   1      32.393  20.354  24.523  1.00  0.00     0.093 A 
ATOM     19  C   UNL A   1      34.283  20.944  25.934  1.00  0.00     0.047 A 
ATOM     20  C   UNL A   1      33.204  20.104  25.621  1.00  0.00     0.119 A 
BRANCH  12  21
ATOM     21  O   UNL A   1      35.022  23.734  22.575  1.00  0.00    -0.381 OA
ATOM     22  H   UNL A   1      34.957  24.033  21.654  1.00  0.00     0.212 HD
ENDBRANCH  12  21
BRANCH  20  23
ATOM     23  O   UNL A   1      32.912  19.007  26.380  1.00  0.00    -0.508 OA
ATOM     24  H   UNL A   1      33.201  18.963  27.270  1.00  0.00     0.293 HD
ENDBRANCH  20  23
ENDBRANCH   7  12
ENDBRANCH   4   7
ENDBRANCH   2   3
ENDBRANCH   1   2
BRANCH   1  25
ATOM     25  C   UNL A   1      31.833  28.892  25.182  1.00  0.00     0.023 C 
BRANCH  25  26
ATOM     26  C   UNL A   1      32.985  29.698  25.747  1.00  0.00     0.116 C 
BRANCH  26  27
ATOM     27  N   UNL A   1      32.586  31.003  26.250  1.00  0.00    -0.352 N 
ATOM     28  C   UNL A   1      33.232  31.789  27.176  1.00  0.00     0.251 C 
ATOM     29  H   UNL A   1      31.749  31.369  25.884  1.00  0.00     0.163 HD
ATOM     30  O   UNL A   1      32.726  32.823  27.582  1.00  0.00    -0.269 OA
BRANCH  28  31
ATOM     31  C   UNL A   1      34.531  31.327  27.708  1.00  0.00     0.039 A 
ATOM     32  C   UNL A   1      35.539  32.267  27.913  1.00  0.00     0.014 A 
ATOM     33  C   UNL A   1      34.719  29.989  28.062  1.00  0.00     0.014 A 
ATOM     34  C   UNL A   1      36.723  31.871  28.533  1.00  0.00     0.010 A 
ATOM     35  C   UNL A   1      35.858  29.618  28.765  1.00  0.00     0.010 A 
ATOM     36  C   UNL A   1      36.877  30.552  28.994  1.00  0.00    -0.014 A 
BRANCH  36  37
ATOM     37  C   UNL A   1      38.109  30.143  29.707  1.00  0.00     0.031 A 
ATOM     38  C   UNL A   1      38.315  30.527  31.145  1.00  0.00     0.074 A 
ATOM     39  C   UNL A   1      39.056  29.449  29.046  1.00  0.00     0.049 A 
ATOM     40  N   UNL A   1      39.296  30.207  31.950  1.00  0.00    -0.248 NA
ATOM     41  C   UNL A   1      37.306  31.410  31.753  1.00  0.00     0.031 C 
ATOM     42  C   UNL A   1      39.007  29.086  27.627  1.00  0.00     0.029 A 
ATOM     43  N   UNL A   1      40.239  28.915  29.485  1.00  0.00    -0.354 N 
ATOM     44  C   UNL A   1      39.026  30.856  33.148  1.00  0.00     0.074 A 
ATOM     45  C   UNL A   1      37.828  31.639  32.947  1.00  0.00     0.031 C 
ATOM     46  C   UNL A   1      40.085  28.343  27.326  1.00  0.00     0.029 A 
ATOM     47  C   UNL A   1      40.908  28.199  28.522  1.00  0.00     0.049 A 
ATOM     48  H   UNL A   1      40.577  29.033  30.402  1.00  0.00     0.167 HD
ATOM     49  C   UNL A   1      39.698  30.784  34.321  1.00  0.00     0.031 A 
ATOM     50  C   UNL A   1      42.046  27.485  28.603  1.00  0.00     0.031 A 
ATOM     51  C   UNL A   1      40.881  29.992  34.522  1.00  0.00     0.049 A 
ATOM     52  C   UNL A   1      42.748  27.381  29.927  1.00  0.00     0.074 A 
ATOM     53  C   UNL A   1      41.603  29.799  35.686  1.00  0.00     0.029 A 
ATOM     54  N   UNL A   1      41.512  29.259  33.530  1.00  0.00    -0.354 N 
ATOM     55  N   UNL A   1      42.429  27.924  31.077  1.00  0.00    -0.248 NA
ATOM     56  C   UNL A   1      43.954  26.543  29.968  1.00  0.00     0.031 C 
ATOM     57  C   UNL A   1      42.697  28.979  35.388  1.00  0.00     0.029 A 
ATOM     58  C   UNL A   1      42.626  28.622  34.051  1.00  0.00     0.049 A 
ATOM     59  H   UNL A   1      41.214  29.200  32.594  1.00  0.00     0.167 HD
ATOM     60  C   UNL A   1      43.378  27.473  31.984  1.00  0.00     0.074 A 
ATOM     61  C   UNL A   1      44.270  26.595  31.254  1.00  0.00     0.031 C 
ATOM     62  C   UNL A   1      43.503  27.759  33.304  1.00  0.00     0.031 A 
BRANCH  49  63
ATOM     63  C   UNL A   1      39.159  31.587  35.472  1.00  0.00    -0.014 A 
ATOM     64  C   UNL A   1      39.575  32.910  35.694  1.00  0.00     0.009 A 
ATOM     65  C   UNL A   1      38.212  31.020  36.338  1.00  0.00     0.009 A 
ATOM     66  C   UNL A   1      39.087  33.634  36.783  1.00  0.00     0.001 A 
ATOM     67  C   UNL A   1      37.702  31.756  37.410  1.00  0.00     0.001 A 
ATOM     68  C   UNL A   1      38.148  33.059  37.637  1.00  0.00     0.000 A 
ENDBRANCH  49  63
BRANCH  50  69
ATOM     69  C   UNL A   1      42.558  26.764  27.408  1.00  0.00    -0.014 A 
ATOM     70  C   UNL A   1      43.477  27.381  26.546  1.00  0.00     0.009 A 
ATOM     71  C   UNL A   1      42.134  25.458  27.125  1.00  0.00     0.009 A 
ATOM     72  C   UNL A   1      43.938  26.716  25.409  1.00  0.00     0.001 A 
ATOM     73  C   UNL A   1      42.618  24.784  26.002  1.00  0.00     0.001 A 
ATOM     74  C   UNL A   1      43.512  25.417  25.139  1.00  0.00     0.000 A 
ENDBRANCH  50  69
BRANCH  62  75
ATOM     75  C   UNL A   1      44.628  27.090  34.039  1.00  0.00    -0.014 A 
ATOM     76  C   UNL A   1      45.889  27.699  34.154  1.00  0.00     0.009 A 
ATOM     77  C   UNL A   1      44.418  25.839  34.640  1.00  0.00     0.009 A 
ATOM     78  C   UNL A   1      46.929  27.045  34.816  1.00  0.00     0.001 A 
ATOM     79  C   UNL A   1      45.451  25.203  35.327  1.00  0.00     0.001 A 
ATOM     80  C   UNL A   1      46.709  25.800  35.404  1.00  0.00     0.000 A 
ENDBRANCH  62  75
ENDBRANCH  36  37
ENDBRANCH  28  31
ENDBRANCH  26  27
ENDBRANCH  25  26
ENDBRANCH   1  25
TORSDOF 17
ENDMDL
MODEL 2
REMARK VINA RESULT:     -10.6      1.993      3.061
REMARK SMILES CCCC[C@@H](C(=O)NCCCCNC(=O)c1ccc(-c2c3nc(c(-c4ccccc4)c4ccc([nH]4)c(-c4ccccc4)c4nc(c(-c5ccccc5)c5ccc2[nH]5)C=C4)C=C3)cc1)[C@]1(O)COc2cc(O)ccc21
REMARK SMILES IDX 10 1 9 2 8 3 6 4 7 5 5 7 4 8 3 9 2 10 1 11 64 12 66 13 74 14
REMARK SMILES IDX 67 15 68 16 73 17 69 18 72 19 70 20 65 21 71 23 11 25 12 26
REMARK SMILES IDX 13 27 14 28 15 30 16 31 17 32 63 33 18 34 62 35 19 36 20 37
REMARK SMILES IDX 21 38 56 39 22 40 61 41 55 42 57 43 23 44 60 45 54 46 53 47
REMARK SMILES IDX 24 49 46 50 31 51 45 52 32 53 35 54 44 55 58 56 33 57 34 58
REMARK SMILES IDX 43 60 59 61 36 62 25 63 26 64 30 65 27 66 29 67 28 68 47 69
REMARK SMILES IDX 48 70 52 71 49 72 51 73 50 74 37 75 38 76 42 77 39 78 41 79
REMARK SMILES IDX 40 80
REMARK H PARENT 8 6 65 22 71 24 13 29 57 48 35 59
REMARK Flexibility Score: inf
ROOT
ATOM      1  C   UNL A   1      32.029  30.505  25.993  1.00  0.00     0.023 C 
ENDROOT
BRANCH   1   2
ATOM      2  C   UNL A   1      31.028  29.966  24.963  1.00  0.00     0.116 C 
BRANCH   2   3
ATOM      3  N   UNL A   1      31.716  29.701  23.719  1.00  0.00    -0.356 N 
ATOM      4  C   UNL A   1      32.709  28.765  23.567  1.00  0.00     0.226 C 
ATOM      5  O   UNL A   1      33.737  29.116  22.992  1.00  0.00    -0.275 OA
ATOM      6  H   UNL A   1      31.456  30.225  22.927  1.00  0.00     0.163 HD
BRANCH   4   7
ATOM      7  C   UNL A   1      32.474  27.344  24.081  1.00  0.00     0.118 C 
BRANCH   7   8
ATOM      8  C   UNL A   1      33.802  26.574  24.325  1.00  0.00     0.017 C 
BRANCH   8   9
ATOM      9  C   UNL A   1      34.021  25.839  25.649  1.00  0.00     0.001 C 
BRANCH   9  10
ATOM     10  C   UNL A   1      34.244  24.329  25.561  1.00  0.00    -0.003 C 
ATOM     11  C   UNL A   1      35.504  23.977  24.786  1.00  0.00     0.004 C 
ENDBRANCH   9  10
ENDBRANCH   8   9
ENDBRANCH   7   8
BRANCH   7  12
ATOM     12  C   UNL A   1      31.552  26.543  23.090  1.00  0.00     0.139 C 
ATOM     13  C   UNL A   1      30.098  26.276  23.573  1.00  0.00     0.270 C 
ATOM     14  C   UNL A   1      31.910  25.111  22.810  1.00  0.00     0.030 A 
ATOM     15  O   UNL A   1      30.015  24.953  24.141  1.00  0.00    -0.490 OA
ATOM     16  C   UNL A   1      31.015  24.282  23.486  1.00  0.00     0.129 A 
ATOM     17  C   UNL A   1      32.927  24.551  22.053  1.00  0.00     0.014 A 
ATOM     18  C   UNL A   1      31.135  22.909  23.507  1.00  0.00     0.093 A 
ATOM     19  C   UNL A   1      33.041  23.153  22.017  1.00  0.00     0.047 A 
ATOM     20  C   UNL A   1      32.161  22.350  22.759  1.00  0.00     0.119 A 
BRANCH  12  21
ATOM     21  O   UNL A   1      31.504  27.304  21.869  1.00  0.00    -0.381 OA
ATOM     22  H   UNL A   1      32.401  27.397  21.511  1.00  0.00     0.212 HD
ENDBRANCH  12  21
BRANCH  20  23
ATOM     23  O   UNL A   1      32.276  20.990  22.768  1.00  0.00    -0.508 OA
ATOM     24  H   UNL A   1      31.778  20.473  22.166  1.00  0.00     0.293 HD
ENDBRANCH  20  23
ENDBRANCH   7  12
ENDBRANCH   4   7
ENDBRANCH   2   3
ENDBRANCH   1   2
BRANCH   1  25
ATOM     25  C   UNL A   1      31.605  31.793  26.689  1.00  0.00     0.023 C 
BRANCH  25  26
ATOM     26  C   UNL A   1      32.749  32.583  27.293  1.00  0.00     0.116 C 
BRANCH  26  27
ATOM     27  N   UNL A   1      32.396  33.956  27.617  1.00  0.00    -0.352 N 
ATOM     28  C   UNL A   1      32.999  34.795  28.525  1.00  0.00     0.251 C 
ATOM     29  H   UNL A   1      31.630  34.331  27.126  1.00  0.00     0.163 HD
ATOM     30  O   UNL A   1      32.531  35.896  28.767  1.00  0.00    -0.269 OA
BRANCH  28  31
ATOM     31  C   UNL A   1      34.199  34.314  29.239  1.00  0.00     0.039 A 
ATOM     32  C   UNL A   1      34.029  33.542  30.387  1.00  0.00     0.014 A 
ATOM     33  C   UNL A   1      35.477  34.569  28.734  1.00  0.00     0.014 A 
ATOM     34  C   UNL A   1      35.145  32.974  30.998  1.00  0.00     0.010 A 
ATOM     35  C   UNL A   1      36.576  33.925  29.287  1.00  0.00     0.010 A 
ATOM     36  C   UNL A   1      36.422  33.133  30.433  1.00  0.00    -0.014 A 
BRANCH  36  37
ATOM     37  C   UNL A   1      37.603  32.481  31.044  1.00  0.00     0.031 A 
ATOM     38  C   UNL A   1      38.124  32.951  32.373  1.00  0.00     0.074 A 
ATOM     39  C   UNL A   1      38.223  31.483  30.384  1.00  0.00     0.049 A 
ATOM     40  N   UNL A   1      39.103  32.463  33.092  1.00  0.00    -0.248 NA
ATOM     41  C   UNL A   1      37.485  34.140  32.960  1.00  0.00     0.031 C 
ATOM     42  C   UNL A   1      37.859  30.992  29.053  1.00  0.00     0.029 A 
ATOM     43  N   UNL A   1      39.282  30.694  30.751  1.00  0.00    -0.354 N 
ATOM     44  C   UNL A   1      39.202  33.291  34.203  1.00  0.00     0.074 A 
ATOM     45  C   UNL A   1      38.230  34.348  34.033  1.00  0.00     0.031 C 
ATOM     46  C   UNL A   1      38.648  29.951  28.737  1.00  0.00     0.029 A 
ATOM     47  C   UNL A   1      39.583  29.719  29.833  1.00  0.00     0.049 A 
ATOM     48  H   UNL A   1      39.778  30.816  31.593  1.00  0.00     0.167 HD
ATOM     49  C   UNL A   1      40.009  33.168  35.283  1.00  0.00     0.031 A 
ATOM     50  C   UNL A   1      40.496  28.731  29.881  1.00  0.00     0.031 A 
ATOM     51  C   UNL A   1      40.963  32.107  35.455  1.00  0.00     0.049 A 
ATOM     52  C   UNL A   1      41.347  28.586  31.110  1.00  0.00     0.074 A 
ATOM     53  C   UNL A   1      41.785  31.852  36.538  1.00  0.00     0.029 A 
ATOM     54  N   UNL A   1      41.220  31.122  34.515  1.00  0.00    -0.354 N 
ATOM     55  N   UNL A   1      41.364  29.320  32.197  1.00  0.00    -0.248 NA
ATOM     56  C   UNL A   1      42.287  27.457  31.130  1.00  0.00     0.031 C 
ATOM     57  C   UNL A   1      42.570  30.734  36.236  1.00  0.00     0.029 A 
ATOM     58  C   UNL A   1      42.199  30.264  34.986  1.00  0.00     0.049 A 
ATOM     59  H   UNL A   1      40.774  31.043  33.641  1.00  0.00     0.167 HD
ATOM     60  C   UNL A   1      42.296  28.729  33.039  1.00  0.00     0.074 A 
ATOM     61  C   UNL A   1      42.804  27.562  32.346  1.00  0.00     0.031 C 
ATOM     62  C   UNL A   1      42.696  29.114  34.276  1.00  0.00     0.031 A 
BRANCH  49  63
ATOM     63  C   UNL A   1      39.883  34.211  36.357  1.00  0.00    -0.014 A 
ATOM     64  C   UNL A   1      39.050  34.012  37.470  1.00  0.00     0.009 A 
ATOM     65  C   UNL A   1      40.617  35.403  36.265  1.00  0.00     0.009 A 
ATOM     66  C   UNL A   1      38.922  35.002  38.446  1.00  0.00     0.001 A 
ATOM     67  C   UNL A   1      40.510  36.380  37.258  1.00  0.00     0.001 A 
ATOM     68  C   UNL A   1      39.655  36.182  38.343  1.00  0.00     0.000 A 
ENDBRANCH  49  63
BRANCH  50  69
ATOM     69  C   UNL A   1      40.611  27.769  28.755  1.00  0.00    -0.014 A 
ATOM     70  C   UNL A   1      41.487  28.024  27.688  1.00  0.00     0.009 A 
ATOM     71  C   UNL A   1      39.849  26.592  28.739  1.00  0.00     0.009 A 
ATOM     72  C   UNL A   1      41.576  27.134  26.616  1.00  0.00     0.001 A 
ATOM     73  C   UNL A   1      39.960  25.690  27.680  1.00  0.00     0.001 A 
ATOM     74  C   UNL A   1      40.815  25.966  26.614  1.00  0.00     0.000 A 
ENDBRANCH  50  69
BRANCH  62  75
ATOM     75  C   UNL A   1      43.711  28.246  34.961  1.00  0.00    -0.014 A 
ATOM     76  C   UNL A   1      45.089  28.439  34.763  1.00  0.00     0.009 A 
ATOM     77  C   UNL A   1      43.283  27.231  35.830  1.00  0.00     0.009 A 
ATOM     78  C   UNL A   1      46.014  27.601  35.387  1.00  0.00     0.001 A 
ATOM     79  C   UNL A   1      44.212  26.415  36.476  1.00  0.00     0.001 A 
ATOM     80  C   UNL A   1      45.576  26.592  36.244  1.00  0.00     0.000 A 
ENDBRANCH  62  75
ENDBRANCH  36  37
ENDBRANCH  28  31
ENDBRANCH  26  27
ENDBRANCH  25  26
ENDBRANCH   1  25
TORSDOF 17
ENDMDL
MODEL 3
REMARK VINA RESULT:     -10.5      2.556      7.302
REMARK SMILES CCCC[C@@H](C(=O)NCCCCNC(=O)c1ccc(-c2c3nc(c(-c4ccccc4)c4ccc([nH]4)c(-c4ccccc4)c4nc(c(-c5ccccc5)c5ccc2[nH]5)C=C4)C=C3)cc1)[C@]1(O)COc2cc(O)ccc21
REMARK SMILES IDX 10 1 9 2 8 3 6 4 7 5 5 7 4 8 3 9 2 10 1 11 64 12 66 13 74 14
REMARK SMILES IDX 67 15 68 16 73 17 69 18 72 19 70 20 65 21 71 23 11 25 12 26
REMARK SMILES IDX 13 27 14 28 15 30 16 31 17 32 63 33 18 34 62 35 19 36 20 37
REMARK SMILES IDX 21 38 56 39 22 40 61 41 55 42 57 43 23 44 60 45 54 46 53 47
REMARK SMILES IDX 24 49 46 50 31 51 45 52 32 53 35 54 44 55 58 56 33 57 34 58
REMARK SMILES IDX 43 60 59 61 36 62 25 63 26 64 30 65 27 66 29 67 28 68 47 69
REMARK SMILES IDX 48 70 52 71 49 72 51 73 50 74 37 75 38 76 42 77 39 78 41 79
REMARK SMILES IDX 40 80
REMARK H PARENT 8 6 65 22 71 24 13 29 57 48 35 59
REMARK Flexibility Score: inf
ROOT
ATOM      1  C   UNL A   1      35.201  23.758  24.600  1.00  0.00     0.023 C 
ENDROOT
BRANCH   1   2
ATOM      2  C   UNL A   1      34.643  23.973  26.013  1.00  0.00     0.116 C 
BRANCH   2   3
ATOM      3  N   UNL A   1      33.219  23.720  26.010  1.00  0.00    -0.356 N 
ATOM      4  C   UNL A   1      32.270  24.629  26.406  1.00  0.00     0.226 C 
ATOM      5  O   UNL A   1      31.403  24.242  27.185  1.00  0.00    -0.275 OA
ATOM      6  H   UNL A   1      32.908  22.838  25.702  1.00  0.00     0.163 HD
BRANCH   4   7
ATOM      7  C   UNL A   1      32.318  26.048  25.836  1.00  0.00     0.118 C 
BRANCH   7   8
ATOM      8  C   UNL A   1      31.308  27.001  26.532  1.00  0.00     0.017 C 
BRANCH   8   9
ATOM      9  C   UNL A   1      31.816  28.254  27.248  1.00  0.00     0.001 C 
BRANCH   9  10
ATOM     10  C   UNL A   1      32.875  29.076  26.513  1.00  0.00    -0.003 C 
ATOM     11  C   UNL A   1      34.265  28.875  27.094  1.00  0.00     0.004 C 
ENDBRANCH   9  10
ENDBRANCH   8   9
ENDBRANCH   7   8
BRANCH   7  12
ATOM     12  C   UNL A   1      32.070  26.029  24.283  1.00  0.00     0.139 C 
ATOM     13  C   UNL A   1      33.322  26.250  23.388  1.00  0.00     0.270 C 
ATOM     14  C   UNL A   1      31.238  27.134  23.697  1.00  0.00     0.030 A 
ATOM     15  O   UNL A   1      33.391  27.635  22.991  1.00  0.00    -0.490 OA
ATOM     16  C   UNL A   1      32.077  28.023  23.025  1.00  0.00     0.129 A 
ATOM     17  C   UNL A   1      29.875  27.379  23.745  1.00  0.00     0.014 A 
ATOM     18  C   UNL A   1      31.626  29.196  22.459  1.00  0.00     0.093 A 
ATOM     19  C   UNL A   1      29.383  28.542  23.133  1.00  0.00     0.047 A 
ATOM     20  C   UNL A   1      30.263  29.446  22.518  1.00  0.00     0.119 A 
BRANCH  12  21
ATOM     21  O   UNL A   1      31.500  24.744  23.975  1.00  0.00    -0.381 OA
ATOM     22  H   UNL A   1      31.217  24.311  24.796  1.00  0.00     0.212 HD
ENDBRANCH  12  21
BRANCH  20  23
ATOM     23  O   UNL A   1      29.812  30.602  21.948  1.00  0.00    -0.508 OA
ATOM     24  H   UNL A   1      29.419  31.265  22.481  1.00  0.00     0.293 HD
ENDBRANCH  20  23
ENDBRANCH   7  12
ENDBRANCH   4   7
ENDBRANCH   2   3
ENDBRANCH   1   2
BRANCH   1  25
ATOM     25  C   UNL A   1      36.630  23.229  24.546  1.00  0.00     0.023 C 
BRANCH  25  26
ATOM     26  C   UNL A   1      37.497  23.647  25.717  1.00  0.00     0.116 C 
BRANCH  26  27
ATOM     27  N   UNL A   1      38.814  23.031  25.709  1.00  0.00    -0.352 N 
ATOM     28  C   UNL A   1      39.976  23.508  26.270  1.00  0.00     0.251 C 
ATOM     29  H   UNL A   1      38.883  22.166  25.245  1.00  0.00     0.163 HD
ATOM     30  O   UNL A   1      41.037  22.930  26.098  1.00  0.00    -0.269 OA
BRANCH  28  31
ATOM     31  C   UNL A   1      39.921  24.765  27.044  1.00  0.00     0.039 A 
ATOM     32  C   UNL A   1      39.296  24.754  28.290  1.00  0.00     0.014 A 
ATOM     33  C   UNL A   1      40.543  25.921  26.567  1.00  0.00     0.014 A 
ATOM     34  C   UNL A   1      39.347  25.896  29.087  1.00  0.00     0.010 A 
ATOM     35  C   UNL A   1      40.676  27.024  27.402  1.00  0.00     0.010 A 
ATOM     36  C   UNL A   1      40.067  27.026  28.663  1.00  0.00    -0.014 A 
BRANCH  36  37
ATOM     37  C   UNL A   1      40.175  28.220  29.534  1.00  0.00     0.031 A 
ATOM     38  C   UNL A   1      39.134  29.301  29.470  1.00  0.00     0.074 A 
ATOM     39  C   UNL A   1      41.232  28.341  30.361  1.00  0.00     0.049 A 
ATOM     40  N   UNL A   1      39.027  30.385  30.197  1.00  0.00    -0.248 NA
ATOM     41  C   UNL A   1      38.093  29.168  28.438  1.00  0.00     0.031 C 
ATOM     42  C   UNL A   1      42.348  27.397  30.456  1.00  0.00     0.029 A 
ATOM     43  N   UNL A   1      41.532  29.304  31.290  1.00  0.00    -0.354 N 
ATOM     44  C   UNL A   1      37.919  31.061  29.702  1.00  0.00     0.074 A 
ATOM     45  C   UNL A   1      37.426  30.302  28.574  1.00  0.00     0.031 C 
ATOM     46  C   UNL A   1      43.184  27.800  31.427  1.00  0.00     0.029 A 
ATOM     47  C   UNL A   1      42.674  29.038  32.005  1.00  0.00     0.049 A 
ATOM     48  H   UNL A   1      40.981  30.108  31.430  1.00  0.00     0.167 HD
ATOM     49  C   UNL A   1      37.344  32.197  30.163  1.00  0.00     0.031 A 
ATOM     50  C   UNL A   1      43.233  29.708  33.030  1.00  0.00     0.031 A 
ATOM     51  C   UNL A   1      37.827  32.940  31.294  1.00  0.00     0.049 A 
ATOM     52  C   UNL A   1      42.550  30.939  33.554  1.00  0.00     0.074 A 
ATOM     53  C   UNL A   1      37.283  34.067  31.883  1.00  0.00     0.029 A 
ATOM     54  N   UNL A   1      38.971  32.624  32.010  1.00  0.00    -0.354 N 
ATOM     55  N   UNL A   1      41.448  31.515  33.137  1.00  0.00    -0.248 NA
ATOM     56  C   UNL A   1      43.176  31.596  34.710  1.00  0.00     0.031 C 
ATOM     57  C   UNL A   1      38.122  34.458  32.932  1.00  0.00     0.029 A 
ATOM     58  C   UNL A   1      39.160  33.544  33.027  1.00  0.00     0.049 A 
ATOM     59  H   UNL A   1      39.562  31.860  31.823  1.00  0.00     0.167 HD
ATOM     60  C   UNL A   1      41.235  32.587  33.994  1.00  0.00     0.074 A 
ATOM     61  C   UNL A   1      42.308  32.565  34.966  1.00  0.00     0.031 C 
ATOM     62  C   UNL A   1      40.239  33.508  33.979  1.00  0.00     0.031 A 
BRANCH  49  63
ATOM     63  C   UNL A   1      36.126  32.694  29.435  1.00  0.00    -0.014 A 
ATOM     64  C   UNL A   1      34.960  31.915  29.353  1.00  0.00     0.009 A 
ATOM     65  C   UNL A   1      36.137  33.963  28.837  1.00  0.00     0.009 A 
ATOM     66  C   UNL A   1      33.846  32.378  28.650  1.00  0.00     0.001 A 
ATOM     67  C   UNL A   1      35.011  34.437  28.160  1.00  0.00     0.001 A 
ATOM     68  C   UNL A   1      33.870  33.640  28.059  1.00  0.00     0.000 A 
ENDBRANCH  49  63
BRANCH  50  69
ATOM     69  C   UNL A   1      44.474  29.194  33.665  1.00  0.00    -0.014 A 
ATOM     70  C   UNL A   1      44.404  28.385  34.811  1.00  0.00     0.009 A 
ATOM     71  C   UNL A   1      45.733  29.507  33.132  1.00  0.00     0.009 A 
ATOM     72  C   UNL A   1      45.570  27.924  35.424  1.00  0.00     0.001 A 
ATOM     73  C   UNL A   1      46.897  29.021  33.731  1.00  0.00     0.001 A 
ATOM     74  C   UNL A   1      46.816  28.239  34.882  1.00  0.00     0.000 A 
ENDBRANCH  50  69
BRANCH  62  75
ATOM     75  C   UNL A   1      40.258  34.544  35.065  1.00  0.00    -0.014 A 
ATOM     76  C   UNL A   1      40.976  35.742  34.918  1.00  0.00     0.009 A 
ATOM     77  C   UNL A   1      39.532  34.325  36.246  1.00  0.00     0.009 A 
ATOM     78  C   UNL A   1      41.004  36.678  35.952  1.00  0.00     0.001 A 
ATOM     79  C   UNL A   1      39.538  35.276  37.266  1.00  0.00     0.001 A 
ATOM     80  C   UNL A   1      40.283  36.446  37.124  1.00  0.00     0.000 A 
ENDBRANCH  62  75
ENDBRANCH  36  37
ENDBRANCH  28  31
ENDBRANCH  26  27
ENDBRANCH  25  26
ENDBRANCH   1  25
TORSDOF 17
ENDMDL
