MODEL 1
REMARK VINA RESULT:     -10.9      0.000      0.000
REMARK SMILES CC[C@@H](CNC(=O)NCc1c(C)noc1C)C(=O)NCCCCNC(=O)c1ccc(-c2c3nc(c(-c4ccccc4)c4ccc([nH]4)c(-c4ccccc4)c4nc(c(-c5ccccc5)c5ccc2[nH]5)C=C4)C=C3)cc1
REMARK SMILES IDX 20 1 19 2 17 3 18 4 3 6 2 7 1 8 4 9 5 10 6 11 7 13 8 14 9 16
REMARK SMILES IDX 10 17 11 18 15 19 12 20 13 21 14 22 16 23 21 24 22 25 23 26
REMARK SMILES IDX 24 27 25 28 26 30 27 31 28 32 74 33 29 34 73 35 30 36 31 37
REMARK SMILES IDX 32 38 67 39 33 40 72 41 66 42 68 43 34 44 71 45 65 46 64 47
REMARK SMILES IDX 35 49 57 50 42 51 56 52 43 53 46 54 55 55 69 56 44 57 45 58
REMARK SMILES IDX 54 60 70 61 47 62 36 63 37 64 41 65 38 66 40 67 39 68 58 69
REMARK SMILES IDX 59 70 63 71 60 72 62 73 61 74 48 75 49 76 53 77 50 78 52 79
REMARK SMILES IDX 51 80
REMARK H PARENT 19 5 5 12 8 15 24 29 68 48 46 59
REMARK Flexibility Score: inf
ROOT
ATOM      1  C   UNL A   1      36.246  21.627  25.209  1.00  0.00     0.116 C 
ENDROOT
BRANCH   1   2
ATOM      2  N   UNL A   1      35.352  21.802  26.338  1.00  0.00    -0.356 N 
ATOM      3  C   UNL A   1      34.060  21.410  26.508  1.00  0.00     0.224 C 
ATOM      4  O   UNL A   1      33.600  21.459  27.654  1.00  0.00    -0.275 OA
ATOM      5  H   UNL A   1      35.741  22.282  27.104  1.00  0.00     0.163 HD
BRANCH   3   6
ATOM      6  C   UNL A   1      33.188  20.902  25.363  1.00  0.00     0.097 C 
BRANCH   6   7
ATOM      7  C   UNL A   1      32.920  19.387  25.409  1.00  0.00     0.012 C 
ATOM      8  C   UNL A   1      32.978  18.704  24.049  1.00  0.00     0.005 C 
ENDBRANCH   6   7
BRANCH   6   9
ATOM      9  C   UNL A   1      32.007  21.831  25.042  1.00  0.00     0.131 C 
BRANCH   9  10
ATOM     10  N   UNL A   1      31.025  22.043  26.083  1.00  0.00    -0.337 N 
ATOM     11  C   UNL A   1      30.363  23.113  26.537  1.00  0.00     0.315 C 
ATOM     12  H   UNL A   1      30.793  21.216  26.565  1.00  0.00     0.165 HD
ATOM     13  O   UNL A   1      29.793  23.007  27.625  1.00  0.00    -0.249 OA
ATOM     14  N   UNL A   1      30.303  24.294  25.922  1.00  0.00    -0.334 N 
ATOM     15  H   UNL A   1      30.030  25.020  26.528  1.00  0.00     0.165 HD
BRANCH  14  16
ATOM     16  C   UNL A   1      30.544  24.760  24.573  1.00  0.00     0.159 C 
BRANCH  16  17
ATOM     17  C   UNL A   1      30.953  26.188  24.636  1.00  0.00     0.037 A 
ATOM     18  C   UNL A   1      32.142  26.773  25.161  1.00  0.00     0.086 A 
ATOM     19  C   UNL A   1      30.242  27.280  24.176  1.00  0.00     0.138 A 
ATOM     20  C   UNL A   1      33.313  26.126  25.792  1.00  0.00     0.071 C 
ATOM     21  N   UNL A   1      32.135  28.105  25.024  1.00  0.00    -0.085 NA
ATOM     22  O   UNL A   1      30.946  28.416  24.404  1.00  0.00    -0.361 OA
ATOM     23  C   UNL A   1      28.938  27.447  23.506  1.00  0.00     0.091 C 
ENDBRANCH  16  17
ENDBRANCH  14  16
ENDBRANCH   9  10
ENDBRANCH   6   9
ENDBRANCH   3   6
ENDBRANCH   1   2
BRANCH   1  24
ATOM     24  C   UNL A   1      36.662  20.177  25.001  1.00  0.00     0.023 C 
BRANCH  24  25
ATOM     25  C   UNL A   1      38.130  19.988  24.624  1.00  0.00     0.023 C 
BRANCH  25  26
ATOM     26  C   UNL A   1      39.131  20.151  25.766  1.00  0.00     0.116 C 
BRANCH  26  27
ATOM     27  N   UNL A   1      40.118  19.083  25.833  1.00  0.00    -0.352 N 
ATOM     28  C   UNL A   1      41.469  19.166  26.083  1.00  0.00     0.251 C 
ATOM     29  H   UNL A   1      39.771  18.175  25.679  1.00  0.00     0.163 HD
ATOM     30  O   UNL A   1      42.182  18.177  25.999  1.00  0.00    -0.269 OA
BRANCH  28  31
ATOM     31  C   UNL A   1      42.060  20.478  26.416  1.00  0.00     0.039 A 
ATOM     32  C   UNL A   1      42.459  21.319  25.374  1.00  0.00     0.014 A 
ATOM     33  C   UNL A   1      42.178  20.892  27.745  1.00  0.00     0.014 A 
ATOM     34  C   UNL A   1      42.899  22.611  25.664  1.00  0.00     0.010 A 
ATOM     35  C   UNL A   1      42.546  22.202  28.027  1.00  0.00     0.010 A 
ATOM     36  C   UNL A   1      42.903  23.077  26.990  1.00  0.00    -0.014 A 
BRANCH  36  37
ATOM     37  C   UNL A   1      43.257  24.481  27.309  1.00  0.00     0.031 A 
ATOM     38  C   UNL A   1      44.688  24.935  27.240  1.00  0.00     0.074 A 
ATOM     39  C   UNL A   1      42.301  25.329  27.738  1.00  0.00     0.049 A 
ATOM     40  N   UNL A   1      45.199  26.100  27.548  1.00  0.00    -0.248 NA
ATOM     41  C   UNL A   1      45.678  23.941  26.794  1.00  0.00     0.031 C 
ATOM     42  C   UNL A   1      40.882  24.998  27.900  1.00  0.00     0.029 A 
ATOM     43  N   UNL A   1      42.381  26.643  28.126  1.00  0.00    -0.354 N 
ATOM     44  C   UNL A   1      46.569  25.971  27.356  1.00  0.00     0.074 A 
ATOM     45  C   UNL A   1      46.814  24.606  26.948  1.00  0.00     0.031 C 
ATOM     46  C   UNL A   1      40.224  26.087  28.329  1.00  0.00     0.029 A 
ATOM     47  C   UNL A   1      41.175  27.179  28.506  1.00  0.00     0.049 A 
ATOM     48  H   UNL A   1      43.224  27.153  28.131  1.00  0.00     0.167 HD
ATOM     49  C   UNL A   1      47.535  26.911  27.490  1.00  0.00     0.031 A 
ATOM     50  C   UNL A   1      40.869  28.412  28.951  1.00  0.00     0.031 A 
ATOM     51  C   UNL A   1      47.291  28.275  27.874  1.00  0.00     0.049 A 
ATOM     52  C   UNL A   1      41.956  29.442  29.074  1.00  0.00     0.074 A 
ATOM     53  C   UNL A   1      48.196  29.318  27.970  1.00  0.00     0.029 A 
ATOM     54  N   UNL A   1      46.051  28.785  28.224  1.00  0.00    -0.354 N 
ATOM     55  N   UNL A   1      43.237  29.324  28.820  1.00  0.00    -0.248 NA
ATOM     56  C   UNL A   1      41.552  30.778  29.534  1.00  0.00     0.031 C 
ATOM     57  C   UNL A   1      47.509  30.451  28.419  1.00  0.00     0.029 A 
ATOM     58  C   UNL A   1      46.170  30.125  28.556  1.00  0.00     0.049 A 
ATOM     59  H   UNL A   1      45.211  28.273  28.235  1.00  0.00     0.167 HD
ATOM     60  C   UNL A   1      43.787  30.575  29.066  1.00  0.00     0.074 A 
ATOM     61  C   UNL A   1      42.699  31.440  29.473  1.00  0.00     0.031 C 
ATOM     62  C   UNL A   1      45.079  30.971  28.961  1.00  0.00     0.031 A 
BRANCH  49  63
ATOM     63  C   UNL A   1      48.950  26.488  27.217  1.00  0.00    -0.014 A 
ATOM     64  C   UNL A   1      49.491  26.549  25.923  1.00  0.00     0.009 A 
ATOM     65  C   UNL A   1      49.764  26.051  28.274  1.00  0.00     0.009 A 
ATOM     66  C   UNL A   1      50.806  26.146  25.686  1.00  0.00     0.001 A 
ATOM     67  C   UNL A   1      51.088  25.676  28.039  1.00  0.00     0.001 A 
ATOM     68  C   UNL A   1      51.605  25.714  26.744  1.00  0.00     0.000 A 
ENDBRANCH  49  63
BRANCH  50  69
ATOM     69  C   UNL A   1      39.464  28.751  29.293  1.00  0.00    -0.014 A 
ATOM     70  C   UNL A   1      38.998  28.605  30.609  1.00  0.00     0.009 A 
ATOM     71  C   UNL A   1      38.582  29.221  28.308  1.00  0.00     0.009 A 
ATOM     72  C   UNL A   1      37.670  28.899  30.926  1.00  0.00     0.001 A 
ATOM     73  C   UNL A   1      37.261  29.539  28.633  1.00  0.00     0.001 A 
ATOM     74  C   UNL A   1      36.805  29.368  29.940  1.00  0.00     0.000 A 
ENDBRANCH  50  69
BRANCH  62  75
ATOM     75  C   UNL A   1      45.380  32.410  29.262  1.00  0.00    -0.014 A 
ATOM     76  C   UNL A   1      45.759  32.819  30.550  1.00  0.00     0.009 A 
ATOM     77  C   UNL A   1      45.325  33.362  28.233  1.00  0.00     0.009 A 
ATOM     78  C   UNL A   1      46.047  34.161  30.807  1.00  0.00     0.001 A 
ATOM     79  C   UNL A   1      45.638  34.697  28.486  1.00  0.00     0.001 A 
ATOM     80  C   UNL A   1      45.991  35.098  29.774  1.00  0.00     0.000 A 
ENDBRANCH  62  75
ENDBRANCH  36  37
ENDBRANCH  28  31
ENDBRANCH  26  27
ENDBRANCH  25  26
ENDBRANCH  24  25
ENDBRANCH   1  24
TORSDOF 16
ENDMDL
MODEL 2
REMARK VINA RESULT:     -10.9      2.613      8.192
REMARK SMILES CC[C@@H](CNC(=O)NCc1c(C)noc1C)C(=O)NCCCCNC(=O)c1ccc(-c2c3nc(c(-c4ccccc4)c4ccc([nH]4)c(-c4ccccc4)c4nc(c(-c5ccccc5)c5ccc2[nH]5)C=C4)C=C3)cc1
REMARK SMILES IDX 20 1 19 2 17 3 18 4 3 6 2 7 1 8 4 9 5 10 6 11 7 13 8 14 9 16
REMARK SMILES IDX 10 17 11 18 15 19 12 20 13 21 14 22 16 23 21 24 22 25 23 26
REMARK SMILES IDX 24 27 25 28 26 30 27 31 28 32 74 33 29 34 73 35 30 36 31 37
REMARK SMILES IDX 32 38 67 39 33 40 72 41 66 42 68 43 34 44 71 45 65 46 64 47
REMARK SMILES IDX 35 49 57 50 42 51 56 52 43 53 46 54 55 55 69 56 44 57 45 58
REMARK SMILES IDX 54 60 70 61 47 62 36 63 37 64 41 65 38 66 40 67 39 68 58 69
REMARK SMILES IDX 59 70 63 71 60 72 62 73 61 74 48 75 49 76 53 77 50 78 52 79
REMARK SMILES IDX 51 80
REMARK H PARENT 19 5 5 12 8 15 24 29 68 48 46 59
REMARK Flexibility Score: inf
ROOT
ATOM      1  C   UNL A   1      31.146  26.872  26.197  1.00  0.00     0.116 C 
ENDROOT
BRANCH   1   2
ATOM      2  N   UNL A   1      31.007  25.574  26.831  1.00  0.00    -0.356 N 
ATOM      3  C   UNL A   1      31.706  24.421  26.643  1.00  0.00     0.224 C 
ATOM      4  O   UNL A   1      31.559  23.527  27.482  1.00  0.00    -0.275 OA
ATOM      5  H   UNL A   1      30.293  25.518  27.506  1.00  0.00     0.163 HD
BRANCH   3   6
ATOM      6  C   UNL A   1      32.659  24.210  25.469  1.00  0.00     0.097 C 
BRANCH   6   7
ATOM      7  C   UNL A   1      33.899  25.121  25.503  1.00  0.00     0.012 C 
ATOM      8  C   UNL A   1      34.100  25.944  24.238  1.00  0.00     0.005 C 
ENDBRANCH   6   7
BRANCH   6   9
ATOM      9  C   UNL A   1      32.864  22.729  25.114  1.00  0.00     0.131 C 
BRANCH   9  10
ATOM     10  N   UNL A   1      34.225  22.241  25.056  1.00  0.00    -0.337 N 
ATOM     11  C   UNL A   1      34.818  21.090  25.392  1.00  0.00     0.315 C 
ATOM     12  H   UNL A   1      34.854  22.903  24.689  1.00  0.00     0.165 HD
ATOM     13  O   UNL A   1      36.048  21.089  25.472  1.00  0.00    -0.249 OA
ATOM     14  N   UNL A   1      34.180  19.956  25.682  1.00  0.00    -0.334 N 
ATOM     15  H   UNL A   1      34.747  19.321  26.176  1.00  0.00     0.165 HD
BRANCH  14  16
ATOM     16  C   UNL A   1      32.850  19.438  25.441  1.00  0.00     0.159 C 
BRANCH  16  17
ATOM     17  C   UNL A   1      32.874  18.648  24.183  1.00  0.00     0.037 A 
ATOM     18  C   UNL A   1      33.271  17.296  23.963  1.00  0.00     0.086 A 
ATOM     19  C   UNL A   1      32.500  19.073  22.922  1.00  0.00     0.138 A 
ATOM     20  C   UNL A   1      33.769  16.290  24.926  1.00  0.00     0.071 C 
ATOM     21  N   UNL A   1      33.142  16.950  22.676  1.00  0.00    -0.085 NA
ATOM     22  O   UNL A   1      32.655  18.064  22.031  1.00  0.00    -0.361 OA
ATOM     23  C   UNL A   1      31.976  20.343  22.383  1.00  0.00     0.091 C 
ENDBRANCH  16  17
ENDBRANCH  14  16
ENDBRANCH   9  10
ENDBRANCH   6   9
ENDBRANCH   3   6
ENDBRANCH   1   2
BRANCH   1  24
ATOM     24  C   UNL A   1      31.563  27.966  27.171  1.00  0.00     0.023 C 
BRANCH  24  25
ATOM     25  C   UNL A   1      33.073  28.135  27.324  1.00  0.00     0.023 C 
BRANCH  25  26
ATOM     26  C   UNL A   1      33.689  29.298  26.550  1.00  0.00     0.116 C 
BRANCH  26  27
ATOM     27  N   UNL A   1      33.635  30.567  27.261  1.00  0.00    -0.352 N 
ATOM     28  C   UNL A   1      34.546  31.110  28.138  1.00  0.00     0.251 C 
ATOM     29  H   UNL A   1      32.834  31.113  27.092  1.00  0.00     0.163 HD
ATOM     30  O   UNL A   1      34.298  32.147  28.736  1.00  0.00    -0.269 OA
BRANCH  28  31
ATOM     31  C   UNL A   1      35.819  30.402  28.381  1.00  0.00     0.039 A 
ATOM     32  C   UNL A   1      36.818  30.459  27.406  1.00  0.00     0.014 A 
ATOM     33  C   UNL A   1      36.040  29.722  29.582  1.00  0.00     0.014 A 
ATOM     34  C   UNL A   1      38.071  29.906  27.673  1.00  0.00     0.010 A 
ATOM     35  C   UNL A   1      37.309  29.237  29.874  1.00  0.00     0.010 A 
ATOM     36  C   UNL A   1      38.339  29.331  28.926  1.00  0.00    -0.014 A 
BRANCH  36  37
ATOM     37  C   UNL A   1      39.695  28.839  29.271  1.00  0.00     0.031 A 
ATOM     38  C   UNL A   1      40.655  29.724  30.016  1.00  0.00     0.074 A 
ATOM     39  C   UNL A   1      40.091  27.623  28.845  1.00  0.00     0.049 A 
ATOM     40  N   UNL A   1      41.900  29.496  30.345  1.00  0.00    -0.248 NA
ATOM     41  C   UNL A   1      40.158  31.050  30.418  1.00  0.00     0.031 C 
ATOM     42  C   UNL A   1      39.274  26.687  28.068  1.00  0.00     0.029 A 
ATOM     43  N   UNL A   1      41.288  26.969  28.999  1.00  0.00    -0.354 N 
ATOM     44  C   UNL A   1      42.342  30.656  30.969  1.00  0.00     0.074 A 
ATOM     45  C   UNL A   1      41.247  31.599  30.935  1.00  0.00     0.031 C 
ATOM     46  C   UNL A   1      39.986  25.572  27.836  1.00  0.00     0.029 A 
ATOM     47  C   UNL A   1      41.316  25.727  28.414  1.00  0.00     0.049 A 
ATOM     48  H   UNL A   1      42.054  27.355  29.483  1.00  0.00     0.167 HD
ATOM     49  C   UNL A   1      43.545  30.906  31.537  1.00  0.00     0.031 A 
ATOM     50  C   UNL A   1      42.303  24.814  28.349  1.00  0.00     0.031 A 
ATOM     51  C   UNL A   1      44.628  29.962  31.592  1.00  0.00     0.049 A 
ATOM     52  C   UNL A   1      43.624  25.110  29.001  1.00  0.00     0.074 A 
ATOM     53  C   UNL A   1      45.861  30.098  32.206  1.00  0.00     0.029 A 
ATOM     54  N   UNL A   1      44.606  28.703  31.013  1.00  0.00    -0.354 N 
ATOM     55  N   UNL A   1      44.001  26.184  29.651  1.00  0.00    -0.248 NA
ATOM     56  C   UNL A   1      44.650  24.060  28.922  1.00  0.00     0.031 C 
ATOM     57  C   UNL A   1      46.601  28.937  31.962  1.00  0.00     0.029 A 
ATOM     58  C   UNL A   1      45.812  28.060  31.238  1.00  0.00     0.049 A 
ATOM     59  H   UNL A   1      43.846  28.322  30.515  1.00  0.00     0.167 HD
ATOM     60  C   UNL A   1      45.298  25.931  30.078  1.00  0.00     0.074 A 
ATOM     61  C   UNL A   1      45.636  24.596  29.628  1.00  0.00     0.031 C 
ATOM     62  C   UNL A   1      46.133  26.733  30.782  1.00  0.00     0.031 A 
BRANCH  49  63
ATOM     63  C   UNL A   1      43.751  32.264  32.146  1.00  0.00    -0.014 A 
ATOM     64  C   UNL A   1      44.262  33.331  31.389  1.00  0.00     0.009 A 
ATOM     65  C   UNL A   1      43.399  32.488  33.486  1.00  0.00     0.009 A 
ATOM     66  C   UNL A   1      44.452  34.584  31.972  1.00  0.00     0.001 A 
ATOM     67  C   UNL A   1      43.564  33.751  34.059  1.00  0.00     0.001 A 
ATOM     68  C   UNL A   1      44.099  34.795  33.305  1.00  0.00     0.000 A 
ENDBRANCH  49  63
BRANCH  50  69
ATOM     69  C   UNL A   1      42.075  23.521  27.655  1.00  0.00    -0.014 A 
ATOM     70  C   UNL A   1      41.521  22.432  28.346  1.00  0.00     0.009 A 
ATOM     71  C   UNL A   1      42.408  23.367  26.301  1.00  0.00     0.009 A 
ATOM     72  C   UNL A   1      41.330  21.208  27.702  1.00  0.00     0.001 A 
ATOM     73  C   UNL A   1      42.192  22.149  25.652  1.00  0.00     0.001 A 
ATOM     74  C   UNL A   1      41.662  21.068  26.356  1.00  0.00     0.000 A 
ENDBRANCH  50  69
BRANCH  62  75
ATOM     75  C   UNL A   1      47.481  26.176  31.135  1.00  0.00    -0.014 A 
ATOM     76  C   UNL A   1      48.545  26.212  30.221  1.00  0.00     0.009 A 
ATOM     77  C   UNL A   1      47.701  25.646  32.416  1.00  0.00     0.009 A 
ATOM     78  C   UNL A   1      49.795  25.699  30.573  1.00  0.00     0.001 A 
ATOM     79  C   UNL A   1      48.957  25.159  32.775  1.00  0.00     0.001 A 
ATOM     80  C   UNL A   1      50.001  25.178  31.851  1.00  0.00     0.000 A 
ENDBRANCH  62  75
ENDBRANCH  36  37
ENDBRANCH  28  31
ENDBRANCH  26  27
ENDBRANCH  25  26
ENDBRANCH  24  25
ENDBRANCH   1  24
TORSDOF 16
ENDMDL
MODEL 3
REMARK VINA RESULT:     -10.8      1.356      6.112
REMARK SMILES CC[C@@H](CNC(=O)NCc1c(C)noc1C)C(=O)NCCCCNC(=O)c1ccc(-c2c3nc(c(-c4ccccc4)c4ccc([nH]4)c(-c4ccccc4)c4nc(c(-c5ccccc5)c5ccc2[nH]5)C=C4)C=C3)cc1
REMARK SMILES IDX 20 1 19 2 17 3 18 4 3 6 2 7 1 8 4 9 5 10 6 11 7 13 8 14 9 16
REMARK SMILES IDX 10 17 11 18 15 19 12 20 13 21 14 22 16 23 21 24 22 25 23 26
REMARK SMILES IDX 24 27 25 28 26 30 27 31 28 32 74 33 29 34 73 35 30 36 31 37
REMARK SMILES IDX 32 38 67 39 33 40 72 41 66 42 68 43 34 44 71 45 65 46 64 47
REMARK SMILES IDX 35 49 57 50 42 51 56 52 43 53 46 54 55 55 69 56 44 57 45 58
REMARK SMILES IDX 54 60 70 61 47 62 36 63 37 64 41 65 38 66 40 67 39 68 58 69
REMARK SMILES IDX 59 70 63 71 60 72 62 73 61 74 48 75 49 76 53 77 50 78 52 79
REMARK SMILES IDX 51 80
REMARK H PARENT 19 5 5 12 8 15 24 29 68 48 46 59
REMARK Flexibility Score: inf
ROOT
ATOM      1  C   UNL A   1      35.560  22.647  24.273  1.00  0.00     0.116 C 
ENDROOT
BRANCH   1   2
ATOM      2  N   UNL A   1      35.106  22.324  25.613  1.00  0.00    -0.356 N 
ATOM      3  C   UNL A   1      34.092  21.517  26.029  1.00  0.00     0.224 C 
ATOM      4  O   UNL A   1      34.067  21.211  27.227  1.00  0.00    -0.275 OA
ATOM      5  H   UNL A   1      35.611  22.758  26.337  1.00  0.00     0.163 HD
BRANCH   3   6
ATOM      6  C   UNL A   1      33.024  20.971  25.085  1.00  0.00     0.097 C 
BRANCH   6   7
ATOM      7  C   UNL A   1      32.594  19.526  25.400  1.00  0.00     0.012 C 
ATOM      8  C   UNL A   1      32.590  18.602  24.191  1.00  0.00     0.005 C 
ENDBRANCH   6   7
BRANCH   6   9
ATOM      9  C   UNL A   1      31.924  21.993  24.759  1.00  0.00     0.131 C 
BRANCH   9  10
ATOM     10  N   UNL A   1      30.955  22.282  25.794  1.00  0.00    -0.337 N 
ATOM     11  C   UNL A   1      30.902  23.156  26.804  1.00  0.00     0.315 C 
ATOM     12  H   UNL A   1      30.157  21.706  25.743  1.00  0.00     0.165 HD
ATOM     13  O   UNL A   1      30.053  22.962  27.677  1.00  0.00    -0.249 OA
ATOM     14  N   UNL A   1      31.720  24.197  26.960  1.00  0.00    -0.334 N 
ATOM     15  H   UNL A   1      31.721  24.540  27.883  1.00  0.00     0.165 HD
BRANCH  14  16
ATOM     16  C   UNL A   1      32.607  24.942  26.092  1.00  0.00     0.159 C 
BRANCH  16  17
ATOM     17  C   UNL A   1      31.889  26.150  25.612  1.00  0.00     0.037 A 
ATOM     18  C   UNL A   1      31.993  27.505  26.045  1.00  0.00     0.086 A 
ATOM     19  C   UNL A   1      30.942  26.215  24.608  1.00  0.00     0.138 A 
ATOM     20  C   UNL A   1      32.850  28.096  27.095  1.00  0.00     0.071 C 
ATOM     21  N   UNL A   1      31.174  28.306  25.353  1.00  0.00    -0.085 NA
ATOM     22  O   UNL A   1      30.521  27.494  24.453  1.00  0.00    -0.361 OA
ATOM     23  C   UNL A   1      30.337  25.217  23.704  1.00  0.00     0.091 C 
ENDBRANCH  16  17
ENDBRANCH  14  16
ENDBRANCH   9  10
ENDBRANCH   6   9
ENDBRANCH   3   6
ENDBRANCH   1   2
BRANCH   1  24
ATOM     24  C   UNL A   1      37.011  22.255  24.028  1.00  0.00     0.023 C 
BRANCH  24  25
ATOM     25  C   UNL A   1      37.410  20.906  24.624  1.00  0.00     0.023 C 
BRANCH  25  26
ATOM     26  C   UNL A   1      38.479  20.957  25.713  1.00  0.00     0.116 C 
BRANCH  26  27
ATOM     27  N   UNL A   1      39.422  19.849  25.658  1.00  0.00    -0.352 N 
ATOM     28  C   UNL A   1      40.754  19.827  26.004  1.00  0.00     0.251 C 
ATOM     29  H   UNL A   1      39.056  18.998  25.327  1.00  0.00     0.163 HD
ATOM     30  O   UNL A   1      41.437  18.834  25.795  1.00  0.00    -0.269 OA
BRANCH  28  31
ATOM     31  C   UNL A   1      41.364  21.035  26.595  1.00  0.00     0.039 A 
ATOM     32  C   UNL A   1      41.946  21.978  25.745  1.00  0.00     0.014 A 
ATOM     33  C   UNL A   1      41.323  21.253  27.974  1.00  0.00     0.014 A 
ATOM     34  C   UNL A   1      42.411  23.184  26.272  1.00  0.00     0.010 A 
ATOM     35  C   UNL A   1      41.720  22.483  28.487  1.00  0.00     0.010 A 
ATOM     36  C   UNL A   1      42.260  23.463  27.640  1.00  0.00    -0.014 A 
BRANCH  36  37
ATOM     37  C   UNL A   1      42.644  24.781  28.202  1.00  0.00     0.031 A 
ATOM     38  C   UNL A   1      41.605  25.846  28.412  1.00  0.00     0.074 A 
ATOM     39  C   UNL A   1      43.942  25.047  28.450  1.00  0.00     0.049 A 
ATOM     40  N   UNL A   1      41.759  27.078  28.826  1.00  0.00    -0.248 NA
ATOM     41  C   UNL A   1      40.214  25.489  28.087  1.00  0.00     0.031 C 
ATOM     42  C   UNL A   1      45.056  24.118  28.240  1.00  0.00     0.029 A 
ATOM     43  N   UNL A   1      44.545  26.184  28.926  1.00  0.00    -0.354 N 
ATOM     44  C   UNL A   1      40.492  27.648  28.788  1.00  0.00     0.074 A 
ATOM     45  C   UNL A   1      39.590  26.643  28.271  1.00  0.00     0.031 C 
ATOM     46  C   UNL A   1      46.201  24.715  28.608  1.00  0.00     0.029 A 
ATOM     47  C   UNL A   1      45.909  26.075  29.046  1.00  0.00     0.049 A 
ATOM     48  H   UNL A   1      44.046  27.001  29.160  1.00  0.00     0.167 HD
ATOM     49  C   UNL A   1      40.111  28.890  29.167  1.00  0.00     0.031 A 
ATOM     50  C   UNL A   1      46.823  26.971  29.460  1.00  0.00     0.031 A 
ATOM     51  C   UNL A   1      41.003  29.884  29.703  1.00  0.00     0.049 A 
ATOM     52  C   UNL A   1      46.373  28.338  29.891  1.00  0.00     0.074 A 
ATOM     53  C   UNL A   1      40.699  31.147  30.180  1.00  0.00     0.029 A 
ATOM     54  N   UNL A   1      42.373  29.723  29.834  1.00  0.00    -0.354 N 
ATOM     55  N   UNL A   1      45.161  28.838  29.917  1.00  0.00    -0.248 NA
ATOM     56  C   UNL A   1      47.416  29.260  30.363  1.00  0.00     0.031 C 
ATOM     57  C   UNL A   1      41.893  31.768  30.561  1.00  0.00     0.029 A 
ATOM     58  C   UNL A   1      42.932  30.874  30.367  1.00  0.00     0.049 A 
ATOM     59  H   UNL A   1      42.874  28.913  29.587  1.00  0.00     0.167 HD
ATOM     60  C   UNL A   1      45.292  30.122  30.429  1.00  0.00     0.074 A 
ATOM     61  C   UNL A   1      46.699  30.318  30.716  1.00  0.00     0.031 C 
ATOM     62  C   UNL A   1      44.332  31.053  30.644  1.00  0.00     0.031 A 
BRANCH  49  63
ATOM     63  C   UNL A   1      38.659  29.243  29.013  1.00  0.00    -0.014 A 
ATOM     64  C   UNL A   1      37.768  29.146  30.093  1.00  0.00     0.009 A 
ATOM     65  C   UNL A   1      38.182  29.708  27.778  1.00  0.00     0.009 A 
ATOM     66  C   UNL A   1      36.421  29.472  29.930  1.00  0.00     0.001 A 
ATOM     67  C   UNL A   1      36.839  30.061  27.625  1.00  0.00     0.001 A 
ATOM     68  C   UNL A   1      35.958  29.933  28.698  1.00  0.00     0.000 A 
ENDBRANCH  49  63
BRANCH  50  69
ATOM     69  C   UNL A   1      48.260  26.599  29.508  1.00  0.00    -0.014 A 
ATOM     70  C   UNL A   1      49.102  26.873  28.420  1.00  0.00     0.009 A 
ATOM     71  C   UNL A   1      48.798  25.968  30.640  1.00  0.00     0.009 A 
ATOM     72  C   UNL A   1      50.448  26.500  28.453  1.00  0.00     0.001 A 
ATOM     73  C   UNL A   1      50.149  25.618  30.682  1.00  0.00     0.001 A 
ATOM     74  C   UNL A   1      50.971  25.876  29.585  1.00  0.00     0.000 A 
ENDBRANCH  50  69
BRANCH  62  75
ATOM     75  C   UNL A   1      44.767  32.358  31.246  1.00  0.00    -0.014 A 
ATOM     76  C   UNL A   1      45.139  33.443  30.437  1.00  0.00     0.009 A 
ATOM     77  C   UNL A   1      44.765  32.516  32.640  1.00  0.00     0.009 A 
ATOM     78  C   UNL A   1      45.529  34.653  31.016  1.00  0.00     0.001 A 
ATOM     79  C   UNL A   1      45.130  33.733  33.215  1.00  0.00     0.001 A 
ATOM     80  C   UNL A   1      45.519  34.798  32.404  1.00  0.00     0.000 A 
ENDBRANCH  62  75
ENDBRANCH  36  37
ENDBRANCH  28  31
ENDBRANCH  26  27
ENDBRANCH  25  26
ENDBRANCH  24  25
ENDBRANCH   1  24
TORSDOF 16
ENDMDL
