MODEL 1
REMARK VINA RESULT:     -10.4      0.000      0.000
REMARK SMILES CC(C)[NH2+][C@]1(C(=O)NCCCCNC(=O)c2ccc(-c3c4nc(c(-c5ccccc5)c5ccc([nH]5)c(-c5ccccc5)c5nc(c(-c6ccccc6)c6ccc3[nH]6)C=C5)C=C4)cc2)CCC[C@@H]([N@@H+](C)C2CC2)C1
REMARK SMILES IDX 10 1 9 2 8 3 6 4 7 5 5 7 64 8 73 9 65 10 67 11 66 12 4 13
REMARK SMILES IDX 2 16 1 17 3 18 68 19 69 20 70 22 71 23 72 24 11 25 12 26
REMARK SMILES IDX 13 27 14 28 15 30 16 31 17 32 63 33 18 34 62 35 19 36 20 37
REMARK SMILES IDX 21 38 56 39 22 40 61 41 55 42 57 43 23 44 60 45 54 46 53 47
REMARK SMILES IDX 24 49 46 50 31 51 45 52 32 53 35 54 44 55 58 56 33 57 34 58
REMARK SMILES IDX 43 60 59 61 36 62 25 63 26 64 30 65 27 66 29 67 28 68 47 69
REMARK SMILES IDX 48 70 52 71 49 72 51 73 50 74 37 75 38 76 42 77 39 78 41 79
REMARK SMILES IDX 40 80
REMARK H PARENT 8 6 4 14 4 15 68 21 13 29 57 48 35 59
REMARK Flexibility Score: inf
ROOT
ATOM      1  C   UNL A   1      36.874  21.399  24.340  1.00  0.00     0.023 C 
ENDROOT
BRANCH   1   2
ATOM      2  C   UNL A   1      36.458  22.483  25.333  1.00  0.00     0.116 C 
BRANCH   2   3
ATOM      3  N   UNL A   1      35.651  21.917  26.390  1.00  0.00    -0.351 N 
ATOM      4  C   UNL A   1      34.374  22.188  26.790  1.00  0.00     0.281 C 
ATOM      5  O   UNL A   1      34.079  21.723  27.898  1.00  0.00    -0.268 OA
ATOM      6  H   UNL A   1      36.100  21.212  26.911  1.00  0.00     0.163 HD
BRANCH   4   7
ATOM      7  C   UNL A   1      33.313  22.937  25.865  1.00  0.00     0.181 C 
ATOM      8  C   UNL A   1      31.951  22.756  26.581  1.00  0.00     0.079 C 
ATOM      9  C   UNL A   1      33.690  24.440  25.923  1.00  0.00     0.144 C 
ATOM     10  C   UNL A   1      30.827  23.649  26.080  1.00  0.00     0.013 C 
ATOM     11  C   UNL A   1      32.599  25.432  25.491  1.00  0.00     0.190 C 
ATOM     12  C   UNL A   1      31.188  25.130  26.025  1.00  0.00     0.065 C 
BRANCH   7  13
ATOM     13  N   UNL A   1      33.344  22.288  24.532  1.00  0.00    -0.331 N 
ATOM     14  H   UNL A   1      33.152  23.032  23.861  1.00  0.00     0.347 HD
ATOM     15  H   UNL A   1      34.253  21.827  24.570  1.00  0.00     0.347 HD
BRANCH  13  16
ATOM     16  C   UNL A   1      32.495  21.173  24.132  1.00  0.00     0.176 C 
ATOM     17  C   UNL A   1      32.138  21.393  22.654  1.00  0.00     0.075 C 
ATOM     18  C   UNL A   1      33.223  19.828  24.231  1.00  0.00     0.075 C 
ENDBRANCH  13  16
ENDBRANCH   7  13
BRANCH  11  19
ATOM     19  N   UNL A   1      33.063  26.824  25.704  1.00  0.00    -0.332 N 
ATOM     20  C   UNL A   1      33.776  27.334  24.529  1.00  0.00     0.333 C 
ATOM     21  H   UNL A   1      33.692  26.698  26.497  1.00  0.00     0.348 HD
BRANCH  19  22
ATOM     22  C   UNL A   1      32.127  27.837  26.252  1.00  0.00     0.184 C 
ATOM     23  C   UNL A   1      31.743  28.031  27.694  1.00  0.00     0.071 C 
ATOM     24  C   UNL A   1      32.718  28.969  27.061  1.00  0.00     0.071 C 
ENDBRANCH  19  22
ENDBRANCH  11  19
ENDBRANCH   4   7
ENDBRANCH   2   3
ENDBRANCH   1   2
BRANCH   1  25
ATOM     25  C   UNL A   1      37.562  20.195  24.991  1.00  0.00     0.023 C 
BRANCH  25  26
ATOM     26  C   UNL A   1      38.784  20.535  25.837  1.00  0.00     0.116 C 
BRANCH  26  27
ATOM     27  N   UNL A   1      39.831  19.526  25.766  1.00  0.00    -0.352 N 
ATOM     28  C   UNL A   1      41.164  19.663  26.061  1.00  0.00     0.251 C 
ATOM     29  H   UNL A   1      39.546  18.632  25.468  1.00  0.00     0.163 HD
ATOM     30  O   UNL A   1      41.950  18.746  25.851  1.00  0.00    -0.269 OA
BRANCH  28  31
ATOM     31  C   UNL A   1      41.647  20.948  26.599  1.00  0.00     0.039 A 
ATOM     32  C   UNL A   1      42.120  21.915  25.710  1.00  0.00     0.014 A 
ATOM     33  C   UNL A   1      41.583  21.210  27.970  1.00  0.00     0.014 A 
ATOM     34  C   UNL A   1      42.471  23.175  26.191  1.00  0.00     0.010 A 
ATOM     35  C   UNL A   1      41.871  22.487  28.438  1.00  0.00     0.010 A 
ATOM     36  C   UNL A   1      42.315  23.481  27.553  1.00  0.00    -0.014 A 
BRANCH  36  37
ATOM     37  C   UNL A   1      42.611  24.836  28.075  1.00  0.00     0.031 A 
ATOM     38  C   UNL A   1      44.004  25.183  28.516  1.00  0.00     0.074 A 
ATOM     39  C   UNL A   1      41.611  25.727  28.220  1.00  0.00     0.049 A 
ATOM     40  N   UNL A   1      44.444  26.285  29.069  1.00  0.00    -0.248 NA
ATOM     41  C   UNL A   1      45.034  24.147  28.332  1.00  0.00     0.031 C 
ATOM     42  C   UNL A   1      40.209  25.496  27.863  1.00  0.00     0.029 A 
ATOM     43  N   UNL A   1      41.622  27.006  28.715  1.00  0.00    -0.354 N 
ATOM     44  C   UNL A   1      45.794  26.067  29.317  1.00  0.00     0.074 A 
ATOM     45  C   UNL A   1      46.089  24.714  28.897  1.00  0.00     0.031 C 
ATOM     46  C   UNL A   1      39.501  26.606  28.131  1.00  0.00     0.029 A 
ATOM     47  C   UNL A   1      40.387  27.608  28.713  1.00  0.00     0.049 A 
ATOM     48  H   UNL A   1      42.438  27.450  29.043  1.00  0.00     0.167 HD
ATOM     49  C   UNL A   1      46.709  26.923  29.829  1.00  0.00     0.031 A 
ATOM     50  C   UNL A   1      40.011  28.827  29.140  1.00  0.00     0.031 A 
ATOM     51  C   UNL A   1      46.416  28.270  30.235  1.00  0.00     0.049 A 
ATOM     52  C   UNL A   1      41.043  29.753  29.720  1.00  0.00     0.074 A 
ATOM     53  C   UNL A   1      47.286  29.233  30.718  1.00  0.00     0.029 A 
ATOM     54  N   UNL A   1      45.155  28.845  30.207  1.00  0.00    -0.354 N 
ATOM     55  N   UNL A   1      42.329  29.556  29.889  1.00  0.00    -0.248 NA
ATOM     56  C   UNL A   1      40.573  31.075  30.159  1.00  0.00     0.031 C 
ATOM     57  C   UNL A   1      46.542  30.377  31.025  1.00  0.00     0.029 A 
ATOM     58  C   UNL A   1      45.219  30.143  30.683  1.00  0.00     0.049 A 
ATOM     59  H   UNL A   1      44.336  28.397  29.895  1.00  0.00     0.167 HD
ATOM     60  C   UNL A   1      42.825  30.735  30.426  1.00  0.00     0.074 A 
ATOM     61  C   UNL A   1      41.706  31.647  30.542  1.00  0.00     0.031 C 
ATOM     62  C   UNL A   1      44.095  31.038  30.788  1.00  0.00     0.031 A 
BRANCH  49  63
ATOM     63  C   UNL A   1      48.116  26.416  29.980  1.00  0.00    -0.014 A 
ATOM     64  C   UNL A   1      48.536  25.780  31.159  1.00  0.00     0.009 A 
ATOM     65  C   UNL A   1      49.026  26.551  28.921  1.00  0.00     0.009 A 
ATOM     66  C   UNL A   1      49.849  25.325  31.289  1.00  0.00     0.001 A 
ATOM     67  C   UNL A   1      50.331  26.071  29.043  1.00  0.00     0.001 A 
ATOM     68  C   UNL A   1      50.744  25.466  30.230  1.00  0.00     0.000 A 
ENDBRANCH  49  63
BRANCH  50  69
ATOM     69  C   UNL A   1      38.593  29.255  29.021  1.00  0.00    -0.014 A 
ATOM     70  C   UNL A   1      38.102  29.757  27.806  1.00  0.00     0.009 A 
ATOM     71  C   UNL A   1      37.725  29.169  30.120  1.00  0.00     0.009 A 
ATOM     72  C   UNL A   1      36.779  30.193  27.703  1.00  0.00     0.001 A 
ATOM     73  C   UNL A   1      36.395  29.580  30.006  1.00  0.00     0.001 A 
ATOM     74  C   UNL A   1      35.926  30.100  28.801  1.00  0.00     0.000 A 
ENDBRANCH  50  69
BRANCH  62  75
ATOM     75  C   UNL A   1      44.351  32.423  31.308  1.00  0.00    -0.014 A 
ATOM     76  C   UNL A   1      44.663  33.481  30.442  1.00  0.00     0.009 A 
ATOM     77  C   UNL A   1      44.231  32.681  32.683  1.00  0.00     0.009 A 
ATOM     78  C   UNL A   1      44.881  34.764  30.947  1.00  0.00     0.001 A 
ATOM     79  C   UNL A   1      44.421  33.969  33.181  1.00  0.00     0.001 A 
ATOM     80  C   UNL A   1      44.754  35.008  32.314  1.00  0.00     0.000 A 
ENDBRANCH  62  75
ENDBRANCH  36  37
ENDBRANCH  28  31
ENDBRANCH  26  27
ENDBRANCH  25  26
ENDBRANCH   1  25
TORSDOF 15
ENDMDL
MODEL 2
REMARK VINA RESULT:     -10.4      1.395      3.538
REMARK SMILES CC(C)[NH2+][C@]1(C(=O)NCCCCNC(=O)c2ccc(-c3c4nc(c(-c5ccccc5)c5ccc([nH]5)c(-c5ccccc5)c5nc(c(-c6ccccc6)c6ccc3[nH]6)C=C5)C=C4)cc2)CCC[C@@H]([N@@H+](C)C2CC2)C1
REMARK SMILES IDX 10 1 9 2 8 3 6 4 7 5 5 7 64 8 73 9 65 10 67 11 66 12 4 13
REMARK SMILES IDX 2 16 1 17 3 18 68 19 69 20 70 22 71 23 72 24 11 25 12 26
REMARK SMILES IDX 13 27 14 28 15 30 16 31 17 32 63 33 18 34 62 35 19 36 20 37
REMARK SMILES IDX 21 38 56 39 22 40 61 41 55 42 57 43 23 44 60 45 54 46 53 47
REMARK SMILES IDX 24 49 46 50 31 51 45 52 32 53 35 54 44 55 58 56 33 57 34 58
REMARK SMILES IDX 43 60 59 61 36 62 25 63 26 64 30 65 27 66 29 67 28 68 47 69
REMARK SMILES IDX 48 70 52 71 49 72 51 73 50 74 37 75 38 76 42 77 39 78 41 79
REMARK SMILES IDX 40 80
REMARK H PARENT 8 6 4 14 4 15 68 21 13 29 57 48 35 59
REMARK Flexibility Score: inf
ROOT
ATOM      1  C   UNL A   1      39.013  21.898  25.912  1.00  0.00     0.023 C 
ENDROOT
BRANCH   1   2
ATOM      2  C   UNL A   1      37.569  22.394  25.844  1.00  0.00     0.116 C 
BRANCH   2   3
ATOM      3  N   UNL A   1      37.263  22.879  24.517  1.00  0.00    -0.351 N 
ATOM      4  C   UNL A   1      36.146  22.741  23.744  1.00  0.00     0.281 C 
ATOM      5  O   UNL A   1      36.311  23.039  22.555  1.00  0.00    -0.268 OA
ATOM      6  H   UNL A   1      37.986  23.400  24.098  1.00  0.00     0.163 HD
BRANCH   4   7
ATOM      7  C   UNL A   1      34.721  22.345  24.339  1.00  0.00     0.181 C 
ATOM      8  C   UNL A   1      33.745  22.417  23.137  1.00  0.00     0.079 C 
ATOM      9  C   UNL A   1      34.841  20.861  24.771  1.00  0.00     0.144 C 
ATOM     10  C   UNL A   1      32.386  21.772  23.360  1.00  0.00     0.013 C 
ATOM     11  C   UNL A   1      33.521  20.099  24.967  1.00  0.00     0.190 C 
ATOM     12  C   UNL A   1      32.457  20.340  23.882  1.00  0.00     0.065 C 
BRANCH   7  13
ATOM     13  N   UNL A   1      34.389  23.328  25.399  1.00  0.00    -0.331 N 
ATOM     14  H   UNL A   1      34.021  22.778  26.176  1.00  0.00     0.347 HD
ATOM     15  H   UNL A   1      35.274  23.828  25.473  1.00  0.00     0.347 HD
BRANCH  13  16
ATOM     16  C   UNL A   1      33.464  24.442  25.237  1.00  0.00     0.176 C 
ATOM     17  C   UNL A   1      32.427  24.327  26.365  1.00  0.00     0.075 C 
ATOM     18  C   UNL A   1      34.160  25.799  25.392  1.00  0.00     0.075 C 
ENDBRANCH  13  16
ENDBRANCH   7  13
BRANCH  11  19
ATOM     19  N   UNL A   1      33.795  18.674  25.267  1.00  0.00    -0.332 N 
ATOM     20  C   UNL A   1      32.587  17.985  25.730  1.00  0.00     0.333 C 
ATOM     21  H   UNL A   1      34.483  18.763  26.015  1.00  0.00     0.348 HD
BRANCH  19  22
ATOM     22  C   UNL A   1      34.551  17.848  24.293  1.00  0.00     0.184 C 
ATOM     23  C   UNL A   1      34.488  16.353  24.131  1.00  0.00     0.071 C 
ATOM     24  C   UNL A   1      33.775  17.228  23.152  1.00  0.00     0.071 C 
ENDBRANCH  19  22
ENDBRANCH  11  19
ENDBRANCH   4   7
ENDBRANCH   2   3
ENDBRANCH   1   2
BRANCH   1  25
ATOM     25  C   UNL A   1      39.202  20.471  25.390  1.00  0.00     0.023 C 
BRANCH  25  26
ATOM     26  C   UNL A   1      39.865  19.512  26.373  1.00  0.00     0.116 C 
BRANCH  26  27
ATOM     27  N   UNL A   1      41.166  19.037  25.923  1.00  0.00    -0.352 N 
ATOM     28  C   UNL A   1      42.352  19.726  25.874  1.00  0.00     0.251 C 
ATOM     29  H   UNL A   1      41.199  18.102  25.615  1.00  0.00     0.163 HD
ATOM     30  O   UNL A   1      43.349  19.224  25.369  1.00  0.00    -0.269 OA
BRANCH  28  31
ATOM     31  C   UNL A   1      42.398  21.102  26.403  1.00  0.00     0.039 A 
ATOM     32  C   UNL A   1      42.242  21.299  27.777  1.00  0.00     0.014 A 
ATOM     33  C   UNL A   1      42.645  22.181  25.550  1.00  0.00     0.014 A 
ATOM     34  C   UNL A   1      42.399  22.579  28.307  1.00  0.00     0.010 A 
ATOM     35  C   UNL A   1      42.864  23.443  26.089  1.00  0.00     0.010 A 
ATOM     36  C   UNL A   1      42.745  23.653  27.471  1.00  0.00    -0.014 A 
BRANCH  36  37
ATOM     37  C   UNL A   1      42.990  25.007  28.022  1.00  0.00     0.031 A 
ATOM     38  C   UNL A   1      44.369  25.399  28.467  1.00  0.00     0.074 A 
ATOM     39  C   UNL A   1      41.956  25.856  28.187  1.00  0.00     0.049 A 
ATOM     40  N   UNL A   1      44.768  26.505  29.044  1.00  0.00    -0.248 NA
ATOM     41  C   UNL A   1      45.438  24.408  28.261  1.00  0.00     0.031 C 
ATOM     42  C   UNL A   1      40.563  25.579  27.828  1.00  0.00     0.029 A 
ATOM     43  N   UNL A   1      41.918  27.123  28.710  1.00  0.00    -0.354 N 
ATOM     44  C   UNL A   1      46.125  26.334  29.285  1.00  0.00     0.074 A 
ATOM     45  C   UNL A   1      46.472  25.003  28.836  1.00  0.00     0.031 C 
ATOM     46  C   UNL A   1      39.813  26.654  28.120  1.00  0.00     0.029 A 
ATOM     47  C   UNL A   1      40.661  27.677  28.722  1.00  0.00     0.049 A 
ATOM     48  H   UNL A   1      42.718  27.592  29.046  1.00  0.00     0.167 HD
ATOM     49  C   UNL A   1      47.007  27.214  29.813  1.00  0.00     0.031 A 
ATOM     50  C   UNL A   1      40.239  28.872  29.176  1.00  0.00     0.031 A 
ATOM     51  C   UNL A   1      46.664  28.541  30.249  1.00  0.00     0.049 A 
ATOM     52  C   UNL A   1      41.236  29.824  29.773  1.00  0.00     0.074 A 
ATOM     53  C   UNL A   1      47.496  29.525  30.751  1.00  0.00     0.029 A 
ATOM     54  N   UNL A   1      45.382  29.066  30.234  1.00  0.00    -0.354 N 
ATOM     55  N   UNL A   1      42.529  29.673  29.936  1.00  0.00    -0.248 NA
ATOM     56  C   UNL A   1      40.716  31.117  30.241  1.00  0.00     0.031 C 
ATOM     57  C   UNL A   1      46.709  30.633  31.083  1.00  0.00     0.029 A 
ATOM     58  C   UNL A   1      45.396  30.355  30.738  1.00  0.00     0.049 A 
ATOM     59  H   UNL A   1      44.580  28.593  29.915  1.00  0.00     0.167 HD
ATOM     60  C   UNL A   1      42.980  30.859  30.497  1.00  0.00     0.074 A 
ATOM     61  C   UNL A   1      41.827  31.725  30.635  1.00  0.00     0.031 C 
ATOM     62  C   UNL A   1      44.239  31.203  30.864  1.00  0.00     0.031 A 
BRANCH  49  63
ATOM     63  C   UNL A   1      48.434  26.760  29.952  1.00  0.00    -0.014 A 
ATOM     64  C   UNL A   1      49.377  27.010  28.942  1.00  0.00     0.009 A 
ATOM     65  C   UNL A   1      48.847  26.097  31.117  1.00  0.00     0.009 A 
ATOM     66  C   UNL A   1      50.695  26.572  29.081  1.00  0.00     0.001 A 
ATOM     67  C   UNL A   1      50.172  25.685  31.266  1.00  0.00     0.001 A 
ATOM     68  C   UNL A   1      51.093  25.915  30.244  1.00  0.00     0.000 A 
ENDBRANCH  49  63
BRANCH  50  69
ATOM     69  C   UNL A   1      38.805  29.246  29.068  1.00  0.00    -0.014 A 
ATOM     70  C   UNL A   1      37.946  29.090  30.166  1.00  0.00     0.009 A 
ATOM     71  C   UNL A   1      38.286  29.753  27.866  1.00  0.00     0.009 A 
ATOM     72  C   UNL A   1      36.591  29.408  30.055  1.00  0.00     0.001 A 
ATOM     73  C   UNL A   1      36.936  30.095  27.767  1.00  0.00     0.001 A 
ATOM     74  C   UNL A   1      36.088  29.914  28.859  1.00  0.00     0.000 A 
ENDBRANCH  50  69
BRANCH  62  75
ATOM     75  C   UNL A   1      44.441  32.586  31.413  1.00  0.00    -0.014 A 
ATOM     76  C   UNL A   1      44.706  33.675  30.568  1.00  0.00     0.009 A 
ATOM     77  C   UNL A   1      44.320  32.809  32.794  1.00  0.00     0.009 A 
ATOM     78  C   UNL A   1      44.874  34.954  31.100  1.00  0.00     0.001 A 
ATOM     79  C   UNL A   1      44.462  34.093  33.319  1.00  0.00     0.001 A 
ATOM     80  C   UNL A   1      44.747  35.163  32.473  1.00  0.00     0.000 A 
ENDBRANCH  62  75
ENDBRANCH  36  37
ENDBRANCH  28  31
ENDBRANCH  26  27
ENDBRANCH  25  26
ENDBRANCH   1  25
TORSDOF 15
ENDMDL
MODEL 3
REMARK VINA RESULT:     -10.4      3.577      8.904
REMARK SMILES CC(C)[NH2+][C@]1(C(=O)NCCCCNC(=O)c2ccc(-c3c4nc(c(-c5ccccc5)c5ccc([nH]5)c(-c5ccccc5)c5nc(c(-c6ccccc6)c6ccc3[nH]6)C=C5)C=C4)cc2)CCC[C@@H]([N@@H+](C)C2CC2)C1
REMARK SMILES IDX 10 1 9 2 8 3 6 4 7 5 5 7 64 8 73 9 65 10 67 11 66 12 4 13
REMARK SMILES IDX 2 16 1 17 3 18 68 19 69 20 70 22 71 23 72 24 11 25 12 26
REMARK SMILES IDX 13 27 14 28 15 30 16 31 17 32 63 33 18 34 62 35 19 36 20 37
REMARK SMILES IDX 21 38 56 39 22 40 61 41 55 42 57 43 23 44 60 45 54 46 53 47
REMARK SMILES IDX 24 49 46 50 31 51 45 52 32 53 35 54 44 55 58 56 33 57 34 58
REMARK SMILES IDX 43 60 59 61 36 62 25 63 26 64 30 65 27 66 29 67 28 68 47 69
REMARK SMILES IDX 48 70 52 71 49 72 51 73 50 74 37 75 38 76 42 77 39 78 41 79
REMARK SMILES IDX 40 80
REMARK H PARENT 8 6 4 14 4 15 68 21 13 29 57 48 35 59
REMARK Flexibility Score: inf
ROOT
ATOM      1  C   UNL A   1      31.648  30.491  25.760  1.00  0.00     0.023 C 
ENDROOT
BRANCH   1   2
ATOM      2  C   UNL A   1      32.900  29.614  25.744  1.00  0.00     0.116 C 
BRANCH   2   3
ATOM      3  N   UNL A   1      33.438  29.526  24.406  1.00  0.00    -0.351 N 
ATOM      4  C   UNL A   1      33.569  28.465  23.556  1.00  0.00     0.281 C 
ATOM      5  O   UNL A   1      34.321  28.673  22.596  1.00  0.00    -0.268 OA
ATOM      6  H   UNL A   1      33.767  30.381  24.043  1.00  0.00     0.163 HD
BRANCH   4   7
ATOM      7  C   UNL A   1      32.737  27.115  23.717  1.00  0.00     0.181 C 
ATOM      8  C   UNL A   1      32.829  26.415  22.338  1.00  0.00     0.079 C 
ATOM      9  C   UNL A   1      33.519  26.257  24.745  1.00  0.00     0.144 C 
ATOM     10  C   UNL A   1      32.397  24.957  22.316  1.00  0.00     0.013 C 
ATOM     11  C   UNL A   1      33.197  24.754  24.763  1.00  0.00     0.190 C 
ATOM     12  C   UNL A   1      33.069  24.094  23.380  1.00  0.00     0.065 C 
BRANCH   7  13
ATOM     13  N   UNL A   1      31.345  27.485  24.073  1.00  0.00    -0.331 N 
ATOM     14  H   UNL A   1      31.085  26.865  24.840  1.00  0.00     0.347 HD
ATOM     15  H   UNL A   1      31.450  28.490  24.214  1.00  0.00     0.347 HD
BRANCH  13  16
ATOM     16  C   UNL A   1      30.218  27.460  23.150  1.00  0.00     0.176 C 
ATOM     17  C   UNL A   1      29.156  26.539  23.770  1.00  0.00     0.075 C 
ATOM     18  C   UNL A   1      29.580  28.843  22.979  1.00  0.00     0.075 C 
ENDBRANCH  13  16
ENDBRANCH   7  13
BRANCH  11  19
ATOM     19  N   UNL A   1      34.095  24.052  25.710  1.00  0.00    -0.332 N 
ATOM     20  C   UNL A   1      33.333  23.293  26.706  1.00  0.00     0.333 C 
ATOM     21  H   UNL A   1      34.582  24.842  26.136  1.00  0.00     0.348 HD
BRANCH  19  22
ATOM     22  C   UNL A   1      35.243  23.267  25.192  1.00  0.00     0.184 C 
ATOM     23  C   UNL A   1      36.336  23.754  24.279  1.00  0.00     0.071 C 
ATOM     24  C   UNL A   1      36.616  23.593  25.738  1.00  0.00     0.071 C 
ENDBRANCH  19  22
ENDBRANCH  11  19
ENDBRANCH   4   7
ENDBRANCH   2   3
ENDBRANCH   1   2
BRANCH   1  25
ATOM     25  C   UNL A   1      31.603  31.482  26.928  1.00  0.00     0.023 C 
BRANCH  25  26
ATOM     26  C   UNL A   1      32.825  32.387  27.047  1.00  0.00     0.116 C 
BRANCH  26  27
ATOM     27  N   UNL A   1      32.500  33.734  27.494  1.00  0.00    -0.352 N 
ATOM     28  C   UNL A   1      33.155  34.501  28.425  1.00  0.00     0.251 C 
ATOM     29  H   UNL A   1      31.710  34.146  27.076  1.00  0.00     0.163 HD
ATOM     30  O   UNL A   1      32.700  35.584  28.777  1.00  0.00    -0.269 OA
BRANCH  28  31
ATOM     31  C   UNL A   1      34.398  33.985  29.027  1.00  0.00     0.039 A 
ATOM     32  C   UNL A   1      34.312  33.197  30.175  1.00  0.00     0.014 A 
ATOM     33  C   UNL A   1      35.634  34.241  28.427  1.00  0.00     0.014 A 
ATOM     34  C   UNL A   1      35.466  32.606  30.689  1.00  0.00     0.010 A 
ATOM     35  C   UNL A   1      36.772  33.599  28.902  1.00  0.00     0.010 A 
ATOM     36  C   UNL A   1      36.698  32.775  30.036  1.00  0.00    -0.014 A 
BRANCH  36  37
ATOM     37  C   UNL A   1      37.924  32.098  30.520  1.00  0.00     0.031 A 
ATOM     38  C   UNL A   1      38.749  32.727  31.606  1.00  0.00     0.074 A 
ATOM     39  C   UNL A   1      38.332  30.957  29.932  1.00  0.00     0.049 A 
ATOM     40  N   UNL A   1      39.891  32.330  32.110  1.00  0.00    -0.248 NA
ATOM     41  C   UNL A   1      38.237  33.979  32.186  1.00  0.00     0.031 C 
ATOM     42  C   UNL A   1      37.636  30.267  28.842  1.00  0.00     0.029 A 
ATOM     43  N   UNL A   1      39.437  30.180  30.165  1.00  0.00    -0.354 N 
ATOM     44  C   UNL A   1      40.241  33.291  33.049  1.00  0.00     0.074 A 
ATOM     45  C   UNL A   1      39.217  34.313  33.012  1.00  0.00     0.031 C 
ATOM     46  C   UNL A   1      38.321  29.158  28.518  1.00  0.00     0.029 A 
ATOM     47  C   UNL A   1      39.520  29.080  29.346  1.00  0.00     0.049 A 
ATOM     48  H   UNL A   1      40.109  30.391  30.853  1.00  0.00     0.167 HD
ATOM     49  C   UNL A   1      41.308  33.312  33.881  1.00  0.00     0.031 A 
ATOM     50  C   UNL A   1      40.461  28.121  29.267  1.00  0.00     0.031 A 
ATOM     51  C   UNL A   1      42.319  32.290  33.924  1.00  0.00     0.049 A 
ATOM     52  C   UNL A   1      41.644  28.175  30.191  1.00  0.00     0.074 A 
ATOM     53  C   UNL A   1      43.412  32.195  34.768  1.00  0.00     0.029 A 
ATOM     54  N   UNL A   1      42.360  31.188  33.086  1.00  0.00    -0.354 N 
ATOM     55  N   UNL A   1      41.929  29.057  31.118  1.00  0.00    -0.248 NA
ATOM     56  C   UNL A   1      42.632  27.094  30.063  1.00  0.00     0.031 C 
ATOM     57  C   UNL A   1      44.141  31.056  34.409  1.00  0.00     0.029 A 
ATOM     58  C   UNL A   1      43.472  30.416  33.378  1.00  0.00     0.049 A 
ATOM     59  H   UNL A   1      41.698  30.984  32.386  1.00  0.00     0.167 HD
ATOM     60  C   UNL A   1      43.111  28.624  31.703  1.00  0.00     0.074 A 
ATOM     61  C   UNL A   1      43.483  27.394  31.035  1.00  0.00     0.031 C 
ATOM     62  C   UNL A   1      43.824  29.192  32.705  1.00  0.00     0.031 A 
BRANCH  49  63
ATOM     63  C   UNL A   1      41.433  34.486  34.811  1.00  0.00    -0.014 A 
ATOM     64  C   UNL A   1      42.169  35.625  34.448  1.00  0.00     0.009 A 
ATOM     65  C   UNL A   1      40.785  34.466  36.056  1.00  0.00     0.009 A 
ATOM     66  C   UNL A   1      42.285  36.703  35.327  1.00  0.00     0.001 A 
ATOM     67  C   UNL A   1      40.879  35.556  36.921  1.00  0.00     0.001 A 
ATOM     68  C   UNL A   1      41.637  36.670  36.560  1.00  0.00     0.000 A 
ENDBRANCH  49  63
BRANCH  50  69
ATOM     69  C   UNL A   1      40.316  27.014  28.286  1.00  0.00    -0.014 A 
ATOM     70  C   UNL A   1      40.842  27.138  26.991  1.00  0.00     0.009 A 
ATOM     71  C   UNL A   1      39.646  25.831  28.635  1.00  0.00     0.009 A 
ATOM     72  C   UNL A   1      40.676  26.113  26.058  1.00  0.00     0.001 A 
ATOM     73  C   UNL A   1      39.505  24.797  27.708  1.00  0.00     0.001 A 
ATOM     74  C   UNL A   1      40.012  24.942  26.417  1.00  0.00     0.000 A 
ENDBRANCH  50  69
BRANCH  62  75
ATOM     75  C   UNL A   1      45.057  28.470  33.167  1.00  0.00    -0.014 A 
ATOM     76  C   UNL A   1      46.320  28.768  32.633  1.00  0.00     0.009 A 
ATOM     77  C   UNL A   1      44.957  27.509  34.185  1.00  0.00     0.009 A 
ATOM     78  C   UNL A   1      47.454  28.095  33.091  1.00  0.00     0.001 A 
ATOM     79  C   UNL A   1      46.095  26.859  34.659  1.00  0.00     0.001 A 
ATOM     80  C   UNL A   1      47.342  27.146  34.106  1.00  0.00     0.000 A 
ENDBRANCH  62  75
ENDBRANCH  36  37
ENDBRANCH  28  31
ENDBRANCH  26  27
ENDBRANCH  25  26
ENDBRANCH   1  25
TORSDOF 15
ENDMDL
