MODEL 1
REMARK VINA RESULT:      -8.3      0.000      0.000
REMARK SMILES COCCS(=O)(=O)Cc1ccc(C(=O)NCCCCNC(=O)c2ccc(-c3c4nc(c(-c5ccccc5)c5ccc([nH]5)c(-c5ccccc5)c5nc(c(-c6ccccc6)c6ccc3[nH]6)C=C5)C=C4)cc2)cn1
REMARK SMILES IDX 16 1 15 2 13 3 14 4 12 6 9 7 10 8 72 9 11 10 71 11 8 12 5 13
REMARK SMILES IDX 6 14 7 15 4 16 3 17 2 18 1 19 17 20 18 21 19 22 20 23 21 24
REMARK SMILES IDX 22 26 23 27 24 28 70 29 25 30 69 31 26 32 27 33 28 34 63 35
REMARK SMILES IDX 29 36 68 37 62 38 64 39 30 40 67 41 61 42 60 43 31 45 53 46
REMARK SMILES IDX 38 47 52 48 39 49 42 50 51 51 65 52 40 53 41 54 50 56 66 57
REMARK SMILES IDX 43 58 32 59 33 60 37 61 34 62 36 63 35 64 54 65 55 66 59 67
REMARK SMILES IDX 56 68 58 69 57 70 44 71 45 72 49 73 46 74 48 75 47 76
REMARK H PARENT 15 5 20 25 64 44 42 55
REMARK Flexibility Score: inf
ROOT
ATOM      1  C   UNL A   1      35.210  34.053  33.280  1.00  0.00     0.116 C 
ENDROOT
BRANCH   1   2
ATOM      2  N   UNL A   1      35.561  34.097  34.684  1.00  0.00    -0.352 N 
ATOM      3  C   UNL A   1      36.505  33.451  35.437  1.00  0.00     0.252 C 
ATOM      4  O   UNL A   1      36.547  33.743  36.634  1.00  0.00    -0.269 OA
ATOM      5  H   UNL A   1      35.004  34.719  35.206  1.00  0.00     0.163 HD
BRANCH   3   6
ATOM      6  C   UNL A   1      37.482  32.461  34.913  1.00  0.00     0.058 A 
ATOM      7  C   UNL A   1      39.559  30.777  34.114  1.00  0.00     0.055 A 
ATOM      8  C   UNL A   1      38.279  30.596  33.594  1.00  0.00     0.026 A 
ATOM      9  N   UNL A   1      39.806  31.722  35.042  1.00  0.00    -0.259 NA
ATOM     10  C   UNL A   1      37.238  31.434  34.007  1.00  0.00     0.017 A 
ATOM     11  C   UNL A   1      38.781  32.540  35.409  1.00  0.00     0.125 A 
BRANCH   7  12
ATOM     12  C   UNL A   1      40.654  29.827  33.740  1.00  0.00     0.193 C 
BRANCH  12  13
ATOM     13  S   UNL A   1      41.405  29.020  35.143  1.00  0.00     0.158 S 
ATOM     14  O   UNL A   1      40.402  29.038  36.199  1.00  0.00    -0.228 OA
ATOM     15  O   UNL A   1      42.679  29.672  35.402  1.00  0.00    -0.228 OA
BRANCH  13  16
ATOM     16  C   UNL A   1      41.756  27.305  34.757  1.00  0.00     0.165 C 
BRANCH  16  17
ATOM     17  C   UNL A   1      42.223  26.483  35.943  1.00  0.00     0.176 C 
BRANCH  17  18
ATOM     18  O   UNL A   1      43.535  25.955  35.734  1.00  0.00    -0.384 OA
ATOM     19  C   UNL A   1      44.535  26.580  36.522  1.00  0.00     0.194 C 
ENDBRANCH  17  18
ENDBRANCH  16  17
ENDBRANCH  13  16
ENDBRANCH  12  13
ENDBRANCH   7  12
ENDBRANCH   3   6
ENDBRANCH   1   2
BRANCH   1  20
ATOM     20  C   UNL A   1      34.967  35.461  32.733  1.00  0.00     0.023 C 
BRANCH  20  21
ATOM     21  C   UNL A   1      33.620  35.642  32.023  1.00  0.00     0.023 C 
BRANCH  21  22
ATOM     22  C   UNL A   1      33.685  36.327  30.660  1.00  0.00     0.116 C 
BRANCH  22  23
ATOM     23  N   UNL A   1      32.859  35.686  29.650  1.00  0.00    -0.352 N 
ATOM     24  C   UNL A   1      33.140  34.575  28.890  1.00  0.00     0.251 C 
ATOM     25  H   UNL A   1      31.983  36.103  29.488  1.00  0.00     0.163 HD
ATOM     26  O   UNL A   1      32.371  34.215  28.009  1.00  0.00    -0.269 OA
BRANCH  24  27
ATOM     27  C   UNL A   1      34.404  33.843  29.119  1.00  0.00     0.039 A 
ATOM     28  C   UNL A   1      35.551  34.258  28.438  1.00  0.00     0.014 A 
ATOM     29  C   UNL A   1      34.462  32.776  30.019  1.00  0.00     0.014 A 
ATOM     30  C   UNL A   1      36.775  33.647  28.714  1.00  0.00     0.010 A 
ATOM     31  C   UNL A   1      35.692  32.211  30.339  1.00  0.00     0.010 A 
ATOM     32  C   UNL A   1      36.861  32.645  29.693  1.00  0.00    -0.014 A 
BRANCH  32  33
ATOM     33  C   UNL A   1      38.166  32.048  30.069  1.00  0.00     0.031 A 
ATOM     34  C   UNL A   1      39.113  32.801  30.960  1.00  0.00     0.074 A 
ATOM     35  C   UNL A   1      38.527  30.859  29.549  1.00  0.00     0.049 A 
ATOM     36  N   UNL A   1      40.319  32.472  31.346  1.00  0.00    -0.248 NA
ATOM     37  C   UNL A   1      38.655  34.107  31.462  1.00  0.00     0.031 C 
ATOM     38  C   UNL A   1      37.716  30.048  28.638  1.00  0.00     0.029 A 
ATOM     39  N   UNL A   1      39.678  30.129  29.708  1.00  0.00    -0.354 N 
ATOM     40  C   UNL A   1      40.771  33.535  32.117  1.00  0.00     0.074 A 
ATOM     41  C   UNL A   1      39.728  34.538  32.109  1.00  0.00     0.031 C 
ATOM     42  C   UNL A   1      38.383  28.922  28.341  1.00  0.00     0.029 A 
ATOM     43  C   UNL A   1      39.680  28.948  29.007  1.00  0.00     0.049 A 
ATOM     44  H   UNL A   1      40.430  30.424  30.271  1.00  0.00     0.167 HD
ATOM     45  C   UNL A   1      41.941  33.659  32.786  1.00  0.00     0.031 A 
ATOM     46  C   UNL A   1      40.625  27.994  28.909  1.00  0.00     0.031 A 
ATOM     47  C   UNL A   1      42.972  32.657  32.809  1.00  0.00     0.049 A 
ATOM     48  C   UNL A   1      41.916  28.156  29.661  1.00  0.00     0.074 A 
ATOM     49  C   UNL A   1      44.166  32.663  33.508  1.00  0.00     0.029 A 
ATOM     50  N   UNL A   1      42.931  31.468  32.097  1.00  0.00    -0.354 N 
ATOM     51  N   UNL A   1      42.299  29.136  30.442  1.00  0.00    -0.248 NA
ATOM     52  C   UNL A   1      42.901  27.074  29.524  1.00  0.00     0.031 C 
ATOM     53  C   UNL A   1      44.868  31.497  33.185  1.00  0.00     0.029 A 
ATOM     54  C   UNL A   1      44.088  30.742  32.323  1.00  0.00     0.049 A 
ATOM     55  H   UNL A   1      42.189  31.183  31.516  1.00  0.00     0.167 HD
ATOM     56  C   UNL A   1      43.555  28.776  30.912  1.00  0.00     0.074 A 
ATOM     57  C   UNL A   1      43.863  27.483  30.338  1.00  0.00     0.031 C 
ATOM     58  C   UNL A   1      44.378  29.456  31.746  1.00  0.00     0.031 A 
BRANCH  45  59
ATOM     59  C   UNL A   1      42.168  34.934  33.549  1.00  0.00    -0.014 A 
ATOM     60  C   UNL A   1      42.906  35.992  32.993  1.00  0.00     0.009 A 
ATOM     61  C   UNL A   1      41.613  35.091  34.829  1.00  0.00     0.009 A 
ATOM     62  C   UNL A   1      43.114  37.167  33.719  1.00  0.00     0.001 A 
ATOM     63  C   UNL A   1      41.799  36.277  35.540  1.00  0.00     0.001 A 
ATOM     64  C   UNL A   1      42.557  37.310  34.989  1.00  0.00     0.000 A 
ENDBRANCH  45  59
BRANCH  46  65
ATOM     65  C   UNL A   1      40.378  26.783  28.084  1.00  0.00    -0.014 A 
ATOM     66  C   UNL A   1      40.871  26.708  26.772  1.00  0.00     0.009 A 
ATOM     67  C   UNL A   1      39.645  25.702  28.597  1.00  0.00     0.009 A 
ATOM     68  C   UNL A   1      40.613  25.585  25.982  1.00  0.00     0.001 A 
ATOM     69  C   UNL A   1      39.411  24.570  27.814  1.00  0.00     0.001 A 
ATOM     70  C   UNL A   1      39.887  24.516  26.504  1.00  0.00     0.000 A 
ENDBRANCH  46  65
BRANCH  58  71
ATOM     71  C   UNL A   1      45.677  28.798  32.114  1.00  0.00    -0.014 A 
ATOM     72  C   UNL A   1      45.783  27.982  33.251  1.00  0.00     0.009 A 
ATOM     73  C   UNL A   1      46.798  28.964  31.287  1.00  0.00     0.009 A 
ATOM     74  C   UNL A   1      46.998  27.371  33.568  1.00  0.00     0.001 A 
ATOM     75  C   UNL A   1      48.003  28.331  31.591  1.00  0.00     0.001 A 
ATOM     76  C   UNL A   1      48.104  27.542  32.736  1.00  0.00     0.000 A 
ENDBRANCH  58  71
ENDBRANCH  32  33
ENDBRANCH  24  27
ENDBRANCH  22  23
ENDBRANCH  21  22
ENDBRANCH  20  21
ENDBRANCH   1  20
TORSDOF 16
ENDMDL
MODEL 2
REMARK VINA RESULT:      -8.1      5.494      8.224
REMARK SMILES COCCS(=O)(=O)Cc1ccc(C(=O)NCCCCNC(=O)c2ccc(-c3c4nc(c(-c5ccccc5)c5ccc([nH]5)c(-c5ccccc5)c5nc(c(-c6ccccc6)c6ccc3[nH]6)C=C5)C=C4)cc2)cn1
REMARK SMILES IDX 16 1 15 2 13 3 14 4 12 6 9 7 10 8 72 9 11 10 71 11 8 12 5 13
REMARK SMILES IDX 6 14 7 15 4 16 3 17 2 18 1 19 17 20 18 21 19 22 20 23 21 24
REMARK SMILES IDX 22 26 23 27 24 28 70 29 25 30 69 31 26 32 27 33 28 34 63 35
REMARK SMILES IDX 29 36 68 37 62 38 64 39 30 40 67 41 61 42 60 43 31 45 53 46
REMARK SMILES IDX 38 47 52 48 39 49 42 50 51 51 65 52 40 53 41 54 50 56 66 57
REMARK SMILES IDX 43 58 32 59 33 60 37 61 34 62 36 63 35 64 54 65 55 66 59 67
REMARK SMILES IDX 56 68 58 69 57 70 44 71 45 72 49 73 46 74 48 75 47 76
REMARK H PARENT 15 5 20 25 64 44 42 55
REMARK Flexibility Score: inf
ROOT
ATOM      1  C   UNL A   1      32.542  28.889  23.484  1.00  0.00     0.116 C 
ENDROOT
BRANCH   1   2
ATOM      2  N   UNL A   1      31.463  27.955  23.241  1.00  0.00    -0.352 N 
ATOM      3  C   UNL A   1      31.340  26.600  23.399  1.00  0.00     0.252 C 
ATOM      4  O   UNL A   1      30.247  26.110  23.106  1.00  0.00    -0.269 OA
ATOM      5  H   UNL A   1      30.650  28.383  22.888  1.00  0.00     0.163 HD
BRANCH   3   6
ATOM      6  C   UNL A   1      32.406  25.702  23.914  1.00  0.00     0.058 A 
ATOM      7  C   UNL A   1      34.477  23.942  24.547  1.00  0.00     0.055 A 
ATOM      8  C   UNL A   1      33.729  24.528  25.565  1.00  0.00     0.026 A 
ATOM      9  N   UNL A   1      34.255  24.251  23.254  1.00  0.00    -0.259 NA
ATOM     10  C   UNL A   1      32.700  25.420  25.245  1.00  0.00     0.017 A 
ATOM     11  C   UNL A   1      33.233  25.103  22.967  1.00  0.00     0.125 A 
BRANCH   7  12
ATOM     12  C   UNL A   1      35.634  23.057  24.890  1.00  0.00     0.193 C 
BRANCH  12  13
ATOM     13  S   UNL A   1      35.150  21.413  25.384  1.00  0.00     0.158 S 
ATOM     14  O   UNL A   1      34.805  21.504  26.796  1.00  0.00    -0.228 OA
ATOM     15  O   UNL A   1      36.214  20.500  25.000  1.00  0.00    -0.228 OA
BRANCH  13  16
ATOM     16  C   UNL A   1      33.676  20.908  24.497  1.00  0.00     0.165 C 
BRANCH  16  17
ATOM     17  C   UNL A   1      32.590  20.320  25.378  1.00  0.00     0.176 C 
BRANCH  17  18
ATOM     18  O   UNL A   1      32.153  19.047  24.895  1.00  0.00    -0.384 OA
ATOM     19  C   UNL A   1      33.036  18.458  23.954  1.00  0.00     0.194 C 
ENDBRANCH  17  18
ENDBRANCH  16  17
ENDBRANCH  13  16
ENDBRANCH  12  13
ENDBRANCH   7  12
ENDBRANCH   3   6
ENDBRANCH   1   2
BRANCH   1  20
ATOM     20  C   UNL A   1      32.565  29.330  24.949  1.00  0.00     0.023 C 
BRANCH  20  21
ATOM     21  C   UNL A   1      33.767  28.813  25.748  1.00  0.00     0.023 C 
BRANCH  21  22
ATOM     22  C   UNL A   1      33.609  28.853  27.266  1.00  0.00     0.116 C 
BRANCH  22  23
ATOM     23  N   UNL A   1      33.606  30.201  27.812  1.00  0.00    -0.352 N 
ATOM     24  C   UNL A   1      34.623  30.870  28.452  1.00  0.00     0.251 C 
ATOM     25  H   UNL A   1      32.765  30.700  27.711  1.00  0.00     0.163 HD
ATOM     26  O   UNL A   1      34.429  31.975  28.939  1.00  0.00    -0.269 OA
BRANCH  24  27
ATOM     27  C   UNL A   1      35.945  30.222  28.583  1.00  0.00     0.039 A 
ATOM     28  C   UNL A   1      36.805  30.224  27.481  1.00  0.00     0.014 A 
ATOM     29  C   UNL A   1      36.344  29.645  29.791  1.00  0.00     0.014 A 
ATOM     30  C   UNL A   1      38.095  29.708  27.613  1.00  0.00     0.010 A 
ATOM     31  C   UNL A   1      37.650  29.188  29.938  1.00  0.00     0.010 A 
ATOM     32  C   UNL A   1      38.539  29.220  28.852  1.00  0.00    -0.014 A 
BRANCH  32  33
ATOM     33  C   UNL A   1      39.935  28.755  29.038  1.00  0.00     0.031 A 
ATOM     34  C   UNL A   1      40.982  29.694  29.566  1.00  0.00     0.074 A 
ATOM     35  C   UNL A   1      40.274  27.506  28.664  1.00  0.00     0.049 A 
ATOM     36  N   UNL A   1      42.263  29.489  29.738  1.00  0.00    -0.248 NA
ATOM     37  C   UNL A   1      40.536  31.051  29.924  1.00  0.00     0.031 C 
ATOM     38  C   UNL A   1      39.360  26.511  28.098  1.00  0.00     0.029 A 
ATOM     39  N   UNL A   1      41.486  26.863  28.697  1.00  0.00    -0.354 N 
ATOM     40  C   UNL A   1      42.778  30.692  30.202  1.00  0.00     0.074 A 
ATOM     41  C   UNL A   1      41.681  31.634  30.245  1.00  0.00     0.031 C 
ATOM     42  C   UNL A   1      40.038  25.377  27.862  1.00  0.00     0.029 A 
ATOM     43  C   UNL A   1      41.438  25.575  28.223  1.00  0.00     0.049 A 
ATOM     44  H   UNL A   1      42.311  27.286  29.029  1.00  0.00     0.167 HD
ATOM     45  C   UNL A   1      44.046  30.982  30.577  1.00  0.00     0.031 A 
ATOM     46  C   UNL A   1      42.413  24.657  28.091  1.00  0.00     0.031 A 
ATOM     47  C   UNL A   1      45.135  30.043  30.550  1.00  0.00     0.049 A 
ATOM     48  C   UNL A   1      43.813  25.005  28.512  1.00  0.00     0.074 A 
ATOM     49  C   UNL A   1      46.441  30.224  30.969  1.00  0.00     0.029 A 
ATOM     50  N   UNL A   1      45.042  28.743  30.076  1.00  0.00    -0.354 N 
ATOM     51  N   UNL A   1      44.269  26.126  29.016  1.00  0.00    -0.248 NA
ATOM     52  C   UNL A   1      44.830  23.955  28.355  1.00  0.00     0.031 C 
ATOM     53  C   UNL A   1      47.151  29.047  30.707  1.00  0.00     0.029 A 
ATOM     54  C   UNL A   1      46.273  28.117  30.172  1.00  0.00     0.049 A 
ATOM     55  H   UNL A   1      44.222  28.327  29.723  1.00  0.00     0.167 HD
ATOM     56  C   UNL A   1      45.618  25.907  29.263  1.00  0.00     0.074 A 
ATOM     57  C   UNL A   1      45.903  24.544  28.865  1.00  0.00     0.031 C 
ATOM     58  C   UNL A   1      46.538  26.760  29.774  1.00  0.00     0.031 A 
BRANCH  45  59
ATOM     59  C   UNL A   1      44.324  32.384  31.045  1.00  0.00    -0.014 A 
ATOM     60  C   UNL A   1      44.116  32.757  32.383  1.00  0.00     0.009 A 
ATOM     61  C   UNL A   1      44.829  33.334  30.144  1.00  0.00     0.009 A 
ATOM     62  C   UNL A   1      44.372  34.065  32.800  1.00  0.00     0.001 A 
ATOM     63  C   UNL A   1      45.110  34.634  30.570  1.00  0.00     0.001 A 
ATOM     64  C   UNL A   1      44.872  35.000  31.895  1.00  0.00     0.000 A 
ENDBRANCH  45  59
BRANCH  46  65
ATOM     65  C   UNL A   1      42.099  23.307  27.555  1.00  0.00    -0.014 A 
ATOM     66  C   UNL A   1      42.377  22.994  26.216  1.00  0.00     0.009 A 
ATOM     67  C   UNL A   1      41.514  22.328  28.375  1.00  0.00     0.009 A 
ATOM     68  C   UNL A   1      42.052  21.737  25.700  1.00  0.00     0.001 A 
ATOM     69  C   UNL A   1      41.215  21.065  27.863  1.00  0.00     0.001 A 
ATOM     70  C   UNL A   1      41.475  20.773  26.524  1.00  0.00     0.000 A 
ENDBRANCH  46  65
BRANCH  58  71
ATOM     71  C   UNL A   1      47.931  26.232  29.965  1.00  0.00    -0.014 A 
ATOM     72  C   UNL A   1      48.359  25.739  31.207  1.00  0.00     0.009 A 
ATOM     73  C   UNL A   1      48.813  26.189  28.873  1.00  0.00     0.009 A 
ATOM     74  C   UNL A   1      49.656  25.243  31.359  1.00  0.00     0.001 A 
ATOM     75  C   UNL A   1      50.098  25.667  29.021  1.00  0.00     0.001 A 
ATOM     76  C   UNL A   1      50.521  25.203  30.265  1.00  0.00     0.000 A 
ENDBRANCH  58  71
ENDBRANCH  32  33
ENDBRANCH  24  27
ENDBRANCH  22  23
ENDBRANCH  21  22
ENDBRANCH  20  21
ENDBRANCH   1  20
TORSDOF 16
ENDMDL
MODEL 3
REMARK VINA RESULT:      -8.1      6.103     12.010
REMARK SMILES COCCS(=O)(=O)Cc1ccc(C(=O)NCCCCNC(=O)c2ccc(-c3c4nc(c(-c5ccccc5)c5ccc([nH]5)c(-c5ccccc5)c5nc(c(-c6ccccc6)c6ccc3[nH]6)C=C5)C=C4)cc2)cn1
REMARK SMILES IDX 16 1 15 2 13 3 14 4 12 6 9 7 10 8 72 9 11 10 71 11 8 12 5 13
REMARK SMILES IDX 6 14 7 15 4 16 3 17 2 18 1 19 17 20 18 21 19 22 20 23 21 24
REMARK SMILES IDX 22 26 23 27 24 28 70 29 25 30 69 31 26 32 27 33 28 34 63 35
REMARK SMILES IDX 29 36 68 37 62 38 64 39 30 40 67 41 61 42 60 43 31 45 53 46
REMARK SMILES IDX 38 47 52 48 39 49 42 50 51 51 65 52 40 53 41 54 50 56 66 57
REMARK SMILES IDX 43 58 32 59 33 60 37 61 34 62 36 63 35 64 54 65 55 66 59 67
REMARK SMILES IDX 56 68 58 69 57 70 44 71 45 72 49 73 46 74 48 75 47 76
REMARK H PARENT 15 5 20 25 64 44 42 55
REMARK Flexibility Score: inf
ROOT
ATOM      1  C   UNL A   1      35.475  20.678  25.216  1.00  0.00     0.116 C 
ENDROOT
BRANCH   1   2
ATOM      2  N   UNL A   1      34.330  19.800  25.341  1.00  0.00    -0.352 N 
ATOM      3  C   UNL A   1      32.993  19.960  25.094  1.00  0.00     0.252 C 
ATOM      4  O   UNL A   1      32.276  18.976  25.294  1.00  0.00    -0.269 OA
ATOM      5  H   UNL A   1      34.562  18.903  25.673  1.00  0.00     0.163 HD
BRANCH   3   6
ATOM      6  C   UNL A   1      32.363  21.205  24.585  1.00  0.00     0.058 A 
ATOM      7  C   UNL A   1      31.041  23.580  23.949  1.00  0.00     0.055 A 
ATOM      8  C   UNL A   1      31.754  22.898  22.966  1.00  0.00     0.026 A 
ATOM      9  N   UNL A   1      31.020  23.142  25.224  1.00  0.00    -0.259 NA
ATOM     10  C   UNL A   1      32.427  21.715  23.291  1.00  0.00     0.017 A 
ATOM     11  C   UNL A   1      31.662  21.976  25.509  1.00  0.00     0.125 A 
BRANCH   7  12
ATOM     12  C   UNL A   1      30.394  24.890  23.624  1.00  0.00     0.193 C 
BRANCH  12  13
ATOM     13  S   UNL A   1      31.371  26.304  24.106  1.00  0.00     0.158 S 
ATOM     14  O   UNL A   1      32.510  26.331  23.199  1.00  0.00    -0.228 OA
ATOM     15  O   UNL A   1      31.636  26.196  25.531  1.00  0.00    -0.228 OA
BRANCH  13  16
ATOM     16  C   UNL A   1      30.440  27.815  23.854  1.00  0.00     0.165 C 
BRANCH  16  17
ATOM     17  C   UNL A   1      30.564  28.397  22.459  1.00  0.00     0.176 C 
BRANCH  17  18
ATOM     18  O   UNL A   1      29.341  28.999  22.030  1.00  0.00    -0.384 OA
ATOM     19  C   UNL A   1      28.235  28.711  22.871  1.00  0.00     0.194 C 
ENDBRANCH  17  18
ENDBRANCH  16  17
ENDBRANCH  13  16
ENDBRANCH  12  13
ENDBRANCH   7  12
ENDBRANCH   3   6
ENDBRANCH   1   2
BRANCH   1  20
ATOM     20  C   UNL A   1      36.757  19.877  24.980  1.00  0.00     0.023 C 
BRANCH  20  21
ATOM     21  C   UNL A   1      38.030  20.727  24.897  1.00  0.00     0.023 C 
BRANCH  21  22
ATOM     22  C   UNL A   1      38.976  20.605  26.089  1.00  0.00     0.116 C 
BRANCH  22  23
ATOM     23  N   UNL A   1      39.980  19.566  25.927  1.00  0.00    -0.352 N 
ATOM     24  C   UNL A   1      41.342  19.654  26.097  1.00  0.00     0.251 C 
ATOM     25  H   UNL A   1      39.640  18.683  25.658  1.00  0.00     0.163 HD
ATOM     26  O   UNL A   1      42.063  18.704  25.827  1.00  0.00    -0.269 OA
BRANCH  24  27
ATOM     27  C   UNL A   1      41.931  20.924  26.570  1.00  0.00     0.039 A 
ATOM     28  C   UNL A   1      42.256  21.903  25.627  1.00  0.00     0.014 A 
ATOM     29  C   UNL A   1      42.133  21.159  27.931  1.00  0.00     0.014 A 
ATOM     30  C   UNL A   1      42.718  23.148  26.057  1.00  0.00     0.010 A 
ATOM     31  C   UNL A   1      42.534  22.419  28.362  1.00  0.00     0.010 A 
ATOM     32  C   UNL A   1      42.825  23.427  27.429  1.00  0.00    -0.014 A 
BRANCH  32  33
ATOM     33  C   UNL A   1      43.225  24.773  27.910  1.00  0.00     0.031 A 
ATOM     34  C   UNL A   1      42.179  25.810  28.207  1.00  0.00     0.074 A 
ATOM     35  C   UNL A   1      44.532  25.081  28.010  1.00  0.00     0.049 A 
ATOM     36  N   UNL A   1      42.336  27.057  28.575  1.00  0.00    -0.248 NA
ATOM     37  C   UNL A   1      40.774  25.403  28.043  1.00  0.00     0.031 C 
ATOM     38  C   UNL A   1      45.644  24.176  27.710  1.00  0.00     0.029 A 
ATOM     39  N   UNL A   1      45.146  26.250  28.386  1.00  0.00    -0.354 N 
ATOM     40  C   UNL A   1      41.056  27.586  28.667  1.00  0.00     0.074 A 
ATOM     41  C   UNL A   1      40.136  26.540  28.276  1.00  0.00     0.031 C 
ATOM     42  C   UNL A   1      46.803  24.814  27.938  1.00  0.00     0.029 A 
ATOM     43  C   UNL A   1      46.518  26.181  28.363  1.00  0.00     0.049 A 
ATOM     44  H   UNL A   1      44.650  27.059  28.646  1.00  0.00     0.167 HD
ATOM     45  C   UNL A   1      40.678  28.825  29.060  1.00  0.00     0.031 A 
ATOM     46  C   UNL A   1      47.443  27.115  28.650  1.00  0.00     0.031 A 
ATOM     47  C   UNL A   1      41.590  29.860  29.465  1.00  0.00     0.049 A 
ATOM     48  C   UNL A   1      46.997  28.484  29.082  1.00  0.00     0.074 A 
ATOM     49  C   UNL A   1      41.300  31.128  29.939  1.00  0.00     0.029 A 
ATOM     50  N   UNL A   1      42.971  29.747  29.442  1.00  0.00    -0.354 N 
ATOM     51  N   UNL A   1      45.780  28.947  29.232  1.00  0.00    -0.248 NA
ATOM     52  C   UNL A   1      48.055  29.456  29.393  1.00  0.00     0.031 C 
ATOM     53  C   UNL A   1      42.508  31.798  30.161  1.00  0.00     0.029 A 
ATOM     54  C   UNL A   1      43.548  30.929  29.873  1.00  0.00     0.049 A 
ATOM     55  H   UNL A   1      43.467  28.944  29.160  1.00  0.00     0.167 HD
ATOM     56  C   UNL A   1      45.925  30.252  29.682  1.00  0.00     0.074 A 
ATOM     57  C   UNL A   1      47.347  30.503  29.792  1.00  0.00     0.031 C 
ATOM     58  C   UNL A   1      44.965  31.161  29.979  1.00  0.00     0.031 A 
BRANCH  45  59
ATOM     59  C   UNL A   1      39.205  29.128  29.065  1.00  0.00    -0.014 A 
ATOM     60  C   UNL A   1      38.563  29.629  27.921  1.00  0.00     0.009 A 
ATOM     61  C   UNL A   1      38.445  28.882  30.219  1.00  0.00     0.009 A 
ATOM     62  C   UNL A   1      37.196  29.912  27.945  1.00  0.00     0.001 A 
ATOM     63  C   UNL A   1      37.073  29.140  30.232  1.00  0.00     0.001 A 
ATOM     64  C   UNL A   1      36.452  29.664  29.098  1.00  0.00     0.000 A 
ENDBRANCH  45  59
BRANCH  46  65
ATOM     65  C   UNL A   1      48.889  26.785  28.561  1.00  0.00    -0.014 A 
ATOM     66  C   UNL A   1      49.580  26.947  27.350  1.00  0.00     0.009 A 
ATOM     67  C   UNL A   1      49.584  26.301  29.680  1.00  0.00     0.009 A 
ATOM     68  C   UNL A   1      50.931  26.607  27.255  1.00  0.00     0.001 A 
ATOM     69  C   UNL A   1      50.941  25.985  29.588  1.00  0.00     0.001 A 
ATOM     70  C   UNL A   1      51.611  26.129  28.374  1.00  0.00     0.000 A 
ENDBRANCH  46  65
BRANCH  58  71
ATOM     71  C   UNL A   1      45.421  32.500  30.484  1.00  0.00    -0.014 A 
ATOM     72  C   UNL A   1      45.649  32.723  31.851  1.00  0.00     0.009 A 
ATOM     73  C   UNL A   1      45.667  33.539  29.572  1.00  0.00     0.009 A 
ATOM     74  C   UNL A   1      46.083  33.973  32.297  1.00  0.00     0.001 A 
ATOM     75  C   UNL A   1      46.127  34.777  30.019  1.00  0.00     0.001 A 
ATOM     76  C   UNL A   1      46.326  34.997  31.381  1.00  0.00     0.000 A 
ENDBRANCH  58  71
ENDBRANCH  32  33
ENDBRANCH  24  27
ENDBRANCH  22  23
ENDBRANCH  21  22
ENDBRANCH  20  21
ENDBRANCH   1  20
TORSDOF 16
ENDMDL
