MODEL 1
REMARK VINA RESULT:     -15.4      0.000      0.000
REMARK SMILES Cc1ccn2c([C@@H]3CCCC[C@@H]3C(=O)NCCCCNC(=O)c3ccc(-c4c5nc(c(-c6ccccc6)c6ccc([nH]6)c(-c6ccccc6)c6nc(c(-c7ccccc7)c7ccc4[nH]7)C=C6)C=C5)cc3)nnc2c1
REMARK SMILES IDX 18 1 17 2 16 3 15 4 13 5 14 6 12 8 7 9 8 10 9 11 11 12 10 13
REMARK SMILES IDX 6 14 1 15 2 16 3 17 74 18 4 19 73 20 5 21 72 22 71 23 19 24
REMARK SMILES IDX 20 25 21 26 22 28 23 29 24 30 70 31 25 32 69 33 26 34 27 35
REMARK SMILES IDX 28 36 63 37 29 38 68 39 62 40 64 41 30 42 67 43 61 44 60 45
REMARK SMILES IDX 31 47 53 48 38 49 52 50 39 51 42 52 51 53 65 54 40 55 41 56
REMARK SMILES IDX 50 58 66 59 43 60 32 61 33 62 37 63 34 64 36 65 35 66 54 67
REMARK SMILES IDX 55 68 59 69 56 70 58 71 57 72 44 73 45 74 49 75 46 76 48 77
REMARK SMILES IDX 47 78
REMARK H PARENT 15 7 20 27 64 46 42 57
REMARK Flexibility Score: inf
ROOT
ATOM      1  C   UNL A   1      33.986  23.738  25.908  1.00  0.00     0.023 C 
ENDROOT
BRANCH   1   2
ATOM      2  C   UNL A   1      34.666  24.786  25.725  1.00  0.00     0.023 C 
BRANCH   2   3
ATOM      3  C   UNL A   1      33.702  25.563  23.862  1.00  0.00     0.116 C 
BRANCH   3   4
ATOM      4  N   UNL A   1      33.710  27.206  23.438  1.00  0.00    -0.356 N 
ATOM      5  C   UNL A   1      32.779  28.239  23.419  1.00  0.00     0.223 C 
ATOM      6  O   UNL A   1      32.980  29.073  22.523  1.00  0.00    -0.275 OA
ATOM      7  H   UNL A   1      34.597  27.503  23.130  1.00  0.00     0.163 HD
BRANCH   5   8
ATOM      8  C   UNL A   1      31.578  28.469  24.425  1.00  0.00     0.089 C 
ATOM      9  C   UNL A   1      31.686  28.289  25.968  1.00  0.00     0.071 C 
ATOM     10  C   UNL A   1      31.550  26.823  26.448  1.00  0.00     0.012 C 
ATOM     11  C   UNL A   1      30.285  26.153  25.958  1.00  0.00     0.001 C 
ATOM     12  C   UNL A   1      30.298  27.699  23.953  1.00  0.00     0.014 C 
ATOM     13  C   UNL A   1      30.201  26.246  24.443  1.00  0.00     0.001 C 
BRANCH   9  14
ATOM     14  C   UNL A   1      32.957  28.820  26.476  1.00  0.00     0.141 A 
ATOM     15  C   UNL A   1      34.508  35.282  28.005  1.00  0.00     0.044 C 
ATOM     16  C   UNL A   1      34.424  33.789  28.049  1.00  0.00    -0.046 A 
ATOM     17  C   UNL A   1      32.442  33.340  27.586  1.00  0.00     0.022 A 
ATOM     18  C   UNL A   1      35.333  32.195  28.069  1.00  0.00     0.053 A 
ATOM     19  C   UNL A   1      31.905  31.779  26.980  1.00  0.00     0.095 A 
ATOM     20  C   UNL A   1      34.711  30.404  27.596  1.00  0.00     0.161 A 
ATOM     21  N   UNL A   1      32.939  30.124  26.817  1.00  0.00    -0.286 N 
ATOM     22  N   UNL A   1      35.180  29.175  27.356  1.00  0.00    -0.130 NA
ATOM     23  N   UNL A   1      34.143  28.281  26.765  1.00  0.00    -0.134 NA
ENDBRANCH   9  14
ENDBRANCH   5   8
ENDBRANCH   3   4
ENDBRANCH   2   3
ENDBRANCH   1   2
BRANCH   1  24
ATOM     24  C   UNL A   1      34.929  22.435  24.346  1.00  0.00     0.116 C 
BRANCH  24  25
ATOM     25  N   UNL A   1      36.118  21.178  24.594  1.00  0.00    -0.352 N 
ATOM     26  C   UNL A   1      37.388  20.882  25.136  1.00  0.00     0.251 C 
ATOM     27  H   UNL A   1      35.761  20.350  24.199  1.00  0.00     0.163 HD
ATOM     28  O   UNL A   1      37.775  19.712  25.016  1.00  0.00    -0.269 OA
BRANCH  26  29
ATOM     29  C   UNL A   1      38.399  21.812  25.761  1.00  0.00     0.039 A 
ATOM     30  C   UNL A   1      39.681  21.428  26.097  1.00  0.00     0.014 A 
ATOM     31  C   UNL A   1      38.148  23.194  25.858  1.00  0.00     0.014 A 
ATOM     32  C   UNL A   1      40.495  22.262  26.897  1.00  0.00     0.010 A 
ATOM     33  C   UNL A   1      39.034  24.079  26.527  1.00  0.00     0.010 A 
ATOM     34  C   UNL A   1      40.154  23.596  27.194  1.00  0.00    -0.014 A 
BRANCH  34  35
ATOM     35  C   UNL A   1      41.060  24.422  28.067  1.00  0.00     0.031 A 
ATOM     36  C   UNL A   1      40.569  25.829  28.298  1.00  0.00     0.074 A 
ATOM     37  C   UNL A   1      42.199  24.034  28.710  1.00  0.00     0.049 A 
ATOM     38  N   UNL A   1      41.143  26.944  27.965  1.00  0.00    -0.248 NA
ATOM     39  C   UNL A   1      39.195  26.002  28.807  1.00  0.00     0.031 C 
ATOM     40  C   UNL A   1      42.798  22.698  28.800  1.00  0.00     0.029 A 
ATOM     41  N   UNL A   1      43.057  24.763  29.506  1.00  0.00    -0.354 N 
ATOM     42  C   UNL A   1      40.270  27.963  28.349  1.00  0.00     0.074 A 
ATOM     43  C   UNL A   1      39.033  27.322  28.712  1.00  0.00     0.031 C 
ATOM     44  C   UNL A   1      43.712  22.661  29.803  1.00  0.00     0.029 A 
ATOM     45  C   UNL A   1      43.890  24.000  30.334  1.00  0.00     0.049 A 
ATOM     46  H   UNL A   1      43.083  25.747  29.493  1.00  0.00     0.167 HD
ATOM     47  C   UNL A   1      40.668  29.257  28.517  1.00  0.00     0.031 A 
ATOM     48  C   UNL A   1      44.663  24.413  31.383  1.00  0.00     0.031 A 
ATOM     49  C   UNL A   1      41.916  29.528  27.865  1.00  0.00     0.049 A 
ATOM     50  C   UNL A   1      44.885  25.866  31.227  1.00  0.00     0.074 A 
ATOM     51  C   UNL A   1      42.339  29.529  26.551  1.00  0.00     0.029 A 
ATOM     52  N   UNL A   1      43.057  29.487  28.627  1.00  0.00    -0.354 N 
ATOM     53  N   UNL A   1      45.616  26.377  30.281  1.00  0.00    -0.248 NA
ATOM     54  C   UNL A   1      43.894  26.746  31.824  1.00  0.00     0.031 C 
ATOM     55  C   UNL A   1      43.639  28.950  26.593  1.00  0.00     0.029 A 
ATOM     56  C   UNL A   1      43.977  28.746  27.930  1.00  0.00     0.049 A 
ATOM     57  H   UNL A   1      43.189  29.908  29.508  1.00  0.00     0.167 HD
ATOM     58  C   UNL A   1      44.876  27.458  29.837  1.00  0.00     0.074 A 
ATOM     59  C   UNL A   1      43.834  27.653  30.848  1.00  0.00     0.031 C 
ATOM     60  C   UNL A   1      44.976  27.915  28.557  1.00  0.00     0.031 A 
BRANCH  47  61
ATOM     61  C   UNL A   1      40.085  30.169  29.569  1.00  0.00    -0.014 A 
ATOM     62  C   UNL A   1      38.948  30.966  29.337  1.00  0.00     0.009 A 
ATOM     63  C   UNL A   1      40.504  30.050  30.906  1.00  0.00     0.009 A 
ATOM     64  C   UNL A   1      38.266  31.616  30.368  1.00  0.00     0.001 A 
ATOM     65  C   UNL A   1      39.802  30.669  31.950  1.00  0.00     0.001 A 
ATOM     66  C   UNL A   1      38.682  31.452  31.679  1.00  0.00     0.000 A 
ENDBRANCH  47  61
BRANCH  48  67
ATOM     67  C   UNL A   1      44.778  23.799  32.744  1.00  0.00    -0.014 A 
ATOM     68  C   UNL A   1      43.659  23.184  33.328  1.00  0.00     0.009 A 
ATOM     69  C   UNL A   1      45.853  24.121  33.602  1.00  0.00     0.009 A 
ATOM     70  C   UNL A   1      43.580  22.964  34.711  1.00  0.00     0.001 A 
ATOM     71  C   UNL A   1      45.775  23.897  34.989  1.00  0.00     0.001 A 
ATOM     72  C   UNL A   1      44.628  23.340  35.545  1.00  0.00     0.000 A 
ENDBRANCH  48  67
BRANCH  60  73
ATOM     73  C   UNL A   1      46.050  27.357  27.654  1.00  0.00    -0.014 A 
ATOM     74  C   UNL A   1      47.183  28.156  27.432  1.00  0.00     0.009 A 
ATOM     75  C   UNL A   1      45.899  26.193  26.877  1.00  0.00     0.009 A 
ATOM     76  C   UNL A   1      48.119  27.830  26.450  1.00  0.00     0.001 A 
ATOM     77  C   UNL A   1      46.856  25.850  25.910  1.00  0.00     0.001 A 
ATOM     78  C   UNL A   1      47.956  26.677  25.689  1.00  0.00     0.000 A 
ENDBRANCH  60  73
ENDBRANCH  34  35
ENDBRANCH  26  29
ENDBRANCH  24  25
ENDBRANCH   1  24
TORSDOF 12
ENDMDL
MODEL 2
REMARK VINA RESULT:     -15.3      2.480      7.019
REMARK SMILES Cc1ccn2c([C@@H]3CCCC[C@@H]3C(=O)NCCCCNC(=O)c3ccc(-c4c5nc(c(-c6ccccc6)c6ccc([nH]6)c(-c6ccccc6)c6nc(c(-c7ccccc7)c7ccc4[nH]7)C=C6)C=C5)cc3)nnc2c1
REMARK SMILES IDX 18 1 17 2 16 3 15 4 13 5 14 6 12 8 7 9 8 10 9 11 11 12 10 13
REMARK SMILES IDX 6 14 1 15 2 16 3 17 74 18 4 19 73 20 5 21 72 22 71 23 19 24
REMARK SMILES IDX 20 25 21 26 22 28 23 29 24 30 70 31 25 32 69 33 26 34 27 35
REMARK SMILES IDX 28 36 63 37 29 38 68 39 62 40 64 41 30 42 67 43 61 44 60 45
REMARK SMILES IDX 31 47 53 48 38 49 52 50 39 51 42 52 51 53 65 54 40 55 41 56
REMARK SMILES IDX 50 58 66 59 43 60 32 61 33 62 37 63 34 64 36 65 35 66 54 67
REMARK SMILES IDX 55 68 59 69 56 70 58 71 57 72 44 73 45 74 49 75 46 76 48 77
REMARK SMILES IDX 47 78
REMARK H PARENT 15 7 20 27 64 46 42 57
REMARK Flexibility Score: inf
ROOT
ATOM      1  C   UNL A   1      34.160  29.692  26.499  1.00  0.00     0.023 C 
ENDROOT
BRANCH   1   2
ATOM      2  C   UNL A   1      33.985  28.863  27.436  1.00  0.00     0.023 C 
BRANCH   2   3
ATOM      3  C   UNL A   1      31.785  28.508  27.245  1.00  0.00     0.116 C 
BRANCH   3   4
ATOM      4  N   UNL A   1      31.111  26.957  27.112  1.00  0.00    -0.356 N 
ATOM      5  C   UNL A   1      30.530  26.202  26.099  1.00  0.00     0.223 C 
ATOM      6  O   UNL A   1      29.658  25.417  26.501  1.00  0.00    -0.275 OA
ATOM      7  H   UNL A   1      31.141  26.468  27.966  1.00  0.00     0.163 HD
BRANCH   5   8
ATOM      8  C   UNL A   1      30.904  26.209  24.560  1.00  0.00     0.089 C 
ATOM      9  C   UNL A   1      32.347  26.007  24.011  1.00  0.00     0.071 C 
ATOM     10  C   UNL A   1      33.219  27.286  24.029  1.00  0.00     0.012 C 
ATOM     11  C   UNL A   1      32.575  28.452  23.311  1.00  0.00     0.001 C 
ATOM     12  C   UNL A   1      30.304  27.468  23.846  1.00  0.00     0.014 C 
ATOM     13  C   UNL A   1      31.194  28.719  23.889  1.00  0.00     0.001 C 
BRANCH   9  14
ATOM     14  C   UNL A   1      33.056  24.961  24.759  1.00  0.00     0.141 A 
ATOM     15  C   UNL A   1      32.565  18.198  24.030  1.00  0.00     0.044 C 
ATOM     16  C   UNL A   1      33.119  19.570  24.250  1.00  0.00    -0.046 A 
ATOM     17  C   UNL A   1      32.155  20.780  22.853  1.00  0.00     0.022 A 
ATOM     18  C   UNL A   1      34.057  20.693  25.358  1.00  0.00     0.053 A 
ATOM     19  C   UNL A   1      32.011  22.526  22.999  1.00  0.00     0.095 A 
ATOM     20  C   UNL A   1      34.080  22.645  25.417  1.00  0.00     0.161 A 
ATOM     21  N   UNL A   1      32.862  23.703  24.312  1.00  0.00    -0.286 N 
ATOM     22  N   UNL A   1      34.500  23.653  26.191  1.00  0.00    -0.130 NA
ATOM     23  N   UNL A   1      33.939  24.966  25.759  1.00  0.00    -0.134 NA
ENDBRANCH   9  14
ENDBRANCH   5   8
ENDBRANCH   3   4
ENDBRANCH   2   3
ENDBRANCH   1   2
BRANCH   1  24
ATOM     24  C   UNL A   1      33.920  31.591  27.665  1.00  0.00     0.116 C 
BRANCH  24  25
ATOM     25  N   UNL A   1      35.186  32.665  28.210  1.00  0.00    -0.352 N 
ATOM     26  C   UNL A   1      36.512  32.734  28.694  1.00  0.00     0.251 C 
ATOM     27  H   UNL A   1      34.837  33.584  28.161  1.00  0.00     0.163 HD
ATOM     28  O   UNL A   1      36.945  33.867  28.943  1.00  0.00    -0.269 OA
BRANCH  26  29
ATOM     29  C   UNL A   1      37.457  31.614  29.051  1.00  0.00     0.039 A 
ATOM     30  C   UNL A   1      38.601  31.793  29.800  1.00  0.00     0.014 A 
ATOM     31  C   UNL A   1      37.116  30.271  28.799  1.00  0.00     0.014 A 
ATOM     32  C   UNL A   1      39.568  30.765  29.893  1.00  0.00     0.010 A 
ATOM     33  C   UNL A   1      38.022  29.203  29.031  1.00  0.00     0.010 A 
ATOM     34  C   UNL A   1      39.326  29.453  29.443  1.00  0.00    -0.014 A 
BRANCH  34  35
ATOM     35  C   UNL A   1      40.407  28.413  29.558  1.00  0.00     0.031 A 
ATOM     36  C   UNL A   1      40.907  28.205  30.966  1.00  0.00     0.074 A 
ATOM     37  C   UNL A   1      40.919  27.613  28.578  1.00  0.00     0.049 A 
ATOM     38  N   UNL A   1      42.105  28.395  31.428  1.00  0.00    -0.248 NA
ATOM     39  C   UNL A   1      39.909  27.916  32.013  1.00  0.00     0.031 C 
ATOM     40  C   UNL A   1      40.499  27.483  27.179  1.00  0.00     0.029 A 
ATOM     41  N   UNL A   1      41.915  26.660  28.645  1.00  0.00    -0.354 N 
ATOM     42  C   UNL A   1      42.046  28.114  32.794  1.00  0.00     0.074 A 
ATOM     43  C   UNL A   1      40.649  27.980  33.121  1.00  0.00     0.031 C 
ATOM     44  C   UNL A   1      41.012  26.349  26.638  1.00  0.00     0.029 A 
ATOM     45  C   UNL A   1      41.927  25.742  27.587  1.00  0.00     0.049 A 
ATOM     46  H   UNL A   1      42.568  26.628  29.380  1.00  0.00     0.167 HD
ATOM     47  C   UNL A   1      43.150  27.830  33.542  1.00  0.00     0.031 A 
ATOM     48  C   UNL A   1      42.618  24.566  27.484  1.00  0.00     0.031 A 
ATOM     49  C   UNL A   1      44.360  28.262  32.905  1.00  0.00     0.049 A 
ATOM     50  C   UNL A   1      43.741  24.625  28.443  1.00  0.00     0.074 A 
ATOM     51  C   UNL A   1      44.874  29.491  32.541  1.00  0.00     0.029 A 
ATOM     52  N   UNL A   1      45.078  27.330  32.198  1.00  0.00    -0.354 N 
ATOM     53  N   UNL A   1      44.759  25.420  28.299  1.00  0.00    -0.248 NA
ATOM     54  C   UNL A   1      43.472  24.158  29.793  1.00  0.00     0.031 C 
ATOM     55  C   UNL A   1      45.474  29.266  31.270  1.00  0.00     0.029 A 
ATOM     56  C   UNL A   1      45.398  27.902  30.994  1.00  0.00     0.049 A 
ATOM     57  H   UNL A   1      45.316  26.424  32.499  1.00  0.00     0.167 HD
ATOM     58  C   UNL A   1      44.963  25.931  29.569  1.00  0.00     0.074 A 
ATOM     59  C   UNL A   1      44.154  25.092  30.457  1.00  0.00     0.031 C 
ATOM     60  C   UNL A   1      45.522  27.158  29.762  1.00  0.00     0.031 A 
BRANCH  47  61
ATOM     61  C   UNL A   1      43.140  26.848  34.688  1.00  0.00    -0.014 A 
ATOM     62  C   UNL A   1      42.876  27.234  36.016  1.00  0.00     0.009 A 
ATOM     63  C   UNL A   1      43.133  25.467  34.424  1.00  0.00     0.009 A 
ATOM     64  C   UNL A   1      42.625  26.306  37.029  1.00  0.00     0.001 A 
ATOM     65  C   UNL A   1      42.844  24.532  35.428  1.00  0.00     0.001 A 
ATOM     66  C   UNL A   1      42.590  24.954  36.731  1.00  0.00     0.000 A 
ENDBRANCH  47  61
BRANCH  48  67
ATOM     67  C   UNL A   1      42.107  23.232  27.038  1.00  0.00    -0.014 A 
ATOM     68  C   UNL A   1      41.031  22.635  27.714  1.00  0.00     0.009 A 
ATOM     69  C   UNL A   1      42.881  22.396  26.201  1.00  0.00     0.009 A 
ATOM     70  C   UNL A   1      40.777  21.259  27.622  1.00  0.00     0.001 A 
ATOM     71  C   UNL A   1      42.624  21.015  26.107  1.00  0.00     0.001 A 
ATOM     72  C   UNL A   1      41.587  20.444  26.836  1.00  0.00     0.000 A 
ENDBRANCH  48  67
BRANCH  60  73
ATOM     73  C   UNL A   1      46.107  27.901  28.584  1.00  0.00    -0.014 A 
ATOM     74  C   UNL A   1      45.209  28.571  27.738  1.00  0.00     0.009 A 
ATOM     75  C   UNL A   1      47.450  27.799  28.177  1.00  0.00     0.009 A 
ATOM     76  C   UNL A   1      45.623  29.095  26.513  1.00  0.00     0.001 A 
ATOM     77  C   UNL A   1      47.871  28.352  26.959  1.00  0.00     0.001 A 
ATOM     78  C   UNL A   1      46.954  28.986  26.123  1.00  0.00     0.000 A 
ENDBRANCH  60  73
ENDBRANCH  34  35
ENDBRANCH  26  29
ENDBRANCH  24  25
ENDBRANCH   1  24
TORSDOF 12
ENDMDL
MODEL 3
REMARK VINA RESULT:     -15.1      2.601      8.181
REMARK SMILES Cc1ccn2c([C@@H]3CCCC[C@@H]3C(=O)NCCCCNC(=O)c3ccc(-c4c5nc(c(-c6ccccc6)c6ccc([nH]6)c(-c6ccccc6)c6nc(c(-c7ccccc7)c7ccc4[nH]7)C=C6)C=C5)cc3)nnc2c1
REMARK SMILES IDX 18 1 17 2 16 3 15 4 13 5 14 6 12 8 7 9 8 10 9 11 11 12 10 13
REMARK SMILES IDX 6 14 1 15 2 16 3 17 74 18 4 19 73 20 5 21 72 22 71 23 19 24
REMARK SMILES IDX 20 25 21 26 22 28 23 29 24 30 70 31 25 32 69 33 26 34 27 35
REMARK SMILES IDX 28 36 63 37 29 38 68 39 62 40 64 41 30 42 67 43 61 44 60 45
REMARK SMILES IDX 31 47 53 48 38 49 52 50 39 51 42 52 51 53 65 54 40 55 41 56
REMARK SMILES IDX 50 58 66 59 43 60 32 61 33 62 37 63 34 64 36 65 35 66 54 67
REMARK SMILES IDX 55 68 59 69 56 70 58 71 57 72 44 73 45 74 49 75 46 76 48 77
REMARK SMILES IDX 47 78
REMARK H PARENT 15 7 20 27 64 46 42 57
REMARK Flexibility Score: inf
ROOT
ATOM      1  C   UNL A   1      32.970  27.249  26.462  1.00  0.00     0.023 C 
ENDROOT
BRANCH   1   2
ATOM      2  C   UNL A   1      33.680  26.471  25.766  1.00  0.00     0.023 C 
BRANCH   2   3
ATOM      3  C   UNL A   1      32.613  24.537  26.123  1.00  0.00     0.116 C 
BRANCH   3   4
ATOM      4  N   UNL A   1      33.352  23.201  26.861  1.00  0.00    -0.356 N 
ATOM      5  C   UNL A   1      33.725  21.920  26.468  1.00  0.00     0.223 C 
ATOM      6  O   UNL A   1      33.669  21.083  27.382  1.00  0.00    -0.275 OA
ATOM      7  H   UNL A   1      33.574  23.377  27.804  1.00  0.00     0.163 HD
BRANCH   5   8
ATOM      8  C   UNL A   1      34.249  21.467  25.044  1.00  0.00     0.089 C 
ATOM      9  C   UNL A   1      35.293  22.260  24.204  1.00  0.00     0.071 C 
ATOM     10  C   UNL A   1      34.695  23.436  23.393  1.00  0.00     0.012 C 
ATOM     11  C   UNL A   1      33.553  23.016  22.494  1.00  0.00     0.001 C 
ATOM     12  C   UNL A   1      33.053  21.118  24.094  1.00  0.00     0.014 C 
ATOM     13  C   UNL A   1      32.482  22.309  23.311  1.00  0.00     0.001 C 
BRANCH   9  14
ATOM     14  C   UNL A   1      36.364  22.791  25.056  1.00  0.00     0.141 A 
ATOM     15  C   UNL A   1      41.746  19.473  27.612  1.00  0.00     0.044 C 
ATOM     16  C   UNL A   1      40.885  20.533  27.003  1.00  0.00    -0.046 A 
ATOM     17  C   UNL A   1      39.683  19.536  25.623  1.00  0.00     0.022 A 
ATOM     18  C   UNL A   1      40.242  22.248  27.117  1.00  0.00     0.053 A 
ATOM     19  C   UNL A   1      38.156  20.163  25.017  1.00  0.00     0.095 A 
ATOM     20  C   UNL A   1      38.656  23.038  26.292  1.00  0.00     0.161 A 
ATOM     21  N   UNL A   1      37.377  21.936  25.306  1.00  0.00    -0.286 N 
ATOM     22  N   UNL A   1      37.898  24.139  26.350  1.00  0.00    -0.130 NA
ATOM     23  N   UNL A   1      36.623  23.984  25.594  1.00  0.00    -0.134 NA
ENDBRANCH   9  14
ENDBRANCH   5   8
ENDBRANCH   3   4
ENDBRANCH   2   3
ENDBRANCH   1   2
BRANCH   1  24
ATOM     24  C   UNL A   1      34.429  28.935  26.693  1.00  0.00     0.116 C 
BRANCH  24  25
ATOM     25  N   UNL A   1      35.025  29.622  28.185  1.00  0.00    -0.352 N 
ATOM     26  C   UNL A   1      36.167  29.806  28.997  1.00  0.00     0.251 C 
ATOM     27  H   UNL A   1      34.264  30.050  28.639  1.00  0.00     0.163 HD
ATOM     28  O   UNL A   1      35.994  30.431  30.051  1.00  0.00    -0.269 OA
BRANCH  26  29
ATOM     29  C   UNL A   1      37.563  29.262  28.816  1.00  0.00     0.039 A 
ATOM     30  C   UNL A   1      38.120  28.307  29.642  1.00  0.00     0.014 A 
ATOM     31  C   UNL A   1      38.313  29.562  27.664  1.00  0.00     0.014 A 
ATOM     32  C   UNL A   1      39.503  28.019  29.576  1.00  0.00     0.010 A 
ATOM     33  C   UNL A   1      39.662  29.148  27.509  1.00  0.00     0.010 A 
ATOM     34  C   UNL A   1      40.329  28.495  28.539  1.00  0.00    -0.014 A 
BRANCH  34  35
ATOM     35  C   UNL A   1      41.796  28.162  28.541  1.00  0.00     0.031 A 
ATOM     36  C   UNL A   1      42.133  26.876  27.828  1.00  0.00     0.074 A 
ATOM     37  C   UNL A   1      42.830  28.903  29.035  1.00  0.00     0.049 A 
ATOM     38  N   UNL A   1      42.673  25.804  28.320  1.00  0.00    -0.248 NA
ATOM     39  C   UNL A   1      41.649  26.712  26.444  1.00  0.00     0.031 C 
ATOM     40  C   UNL A   1      42.807  30.251  29.612  1.00  0.00     0.029 A 
ATOM     41  N   UNL A   1      44.181  28.626  29.065  1.00  0.00    -0.354 N 
ATOM     42  C   UNL A   1      42.728  24.880  27.276  1.00  0.00     0.074 A 
ATOM     43  C   UNL A   1      41.947  25.435  26.201  1.00  0.00     0.031 C 
ATOM     44  C   UNL A   1      44.063  30.765  29.656  1.00  0.00     0.029 A 
ATOM     45  C   UNL A   1      45.010  29.738  29.262  1.00  0.00     0.049 A 
ATOM     46  H   UNL A   1      44.537  27.715  28.957  1.00  0.00     0.167 HD
ATOM     47  C   UNL A   1      43.556  23.796  27.286  1.00  0.00     0.031 A 
ATOM     48  C   UNL A   1      46.366  29.832  29.108  1.00  0.00     0.031 A 
ATOM     49  C   UNL A   1      44.018  23.482  28.608  1.00  0.00     0.049 A 
ATOM     50  C   UNL A   1      46.916  28.462  29.174  1.00  0.00     0.074 A 
ATOM     51  C   UNL A   1      43.403  23.072  29.773  1.00  0.00     0.029 A 
ATOM     52  N   UNL A   1      45.256  23.944  28.978  1.00  0.00    -0.354 N 
ATOM     53  N   UNL A   1      46.929  27.752  30.263  1.00  0.00    -0.248 NA
ATOM     54  C   UNL A   1      46.991  27.726  27.923  1.00  0.00     0.031 C 
ATOM     55  C   UNL A   1      44.067  23.797  30.803  1.00  0.00     0.029 A 
ATOM     56  C   UNL A   1      45.117  24.505  30.221  1.00  0.00     0.049 A 
ATOM     57  H   UNL A   1      46.085  23.885  28.450  1.00  0.00     0.167 HD
ATOM     58  C   UNL A   1      46.533  26.495  29.844  1.00  0.00     0.074 A 
ATOM     59  C   UNL A   1      46.612  26.533  28.382  1.00  0.00     0.031 C 
ATOM     60  C   UNL A   1      45.894  25.632  30.683  1.00  0.00     0.031 A 
BRANCH  47  61
ATOM     61  C   UNL A   1      44.213  23.247  26.044  1.00  0.00    -0.014 A 
ATOM     62  C   UNL A   1      45.239  23.930  25.362  1.00  0.00     0.009 A 
ATOM     63  C   UNL A   1      44.002  21.906  25.677  1.00  0.00     0.009 A 
ATOM     64  C   UNL A   1      46.010  23.323  24.369  1.00  0.00     0.001 A 
ATOM     65  C   UNL A   1      44.799  21.280  24.708  1.00  0.00     0.001 A 
ATOM     66  C   UNL A   1      45.803  21.990  24.054  1.00  0.00     0.000 A 
ENDBRANCH  47  61
BRANCH  48  67
ATOM     67  C   UNL A   1      47.142  30.898  28.400  1.00  0.00    -0.014 A 
ATOM     68  C   UNL A   1      48.050  31.693  29.118  1.00  0.00     0.009 A 
ATOM     69  C   UNL A   1      46.744  31.370  27.129  1.00  0.00     0.009 A 
ATOM     70  C   UNL A   1      48.488  32.933  28.630  1.00  0.00     0.001 A 
ATOM     71  C   UNL A   1      47.186  32.613  26.638  1.00  0.00     0.001 A 
ATOM     72  C   UNL A   1      48.039  33.403  27.400  1.00  0.00     0.000 A 
ENDBRANCH  48  67
BRANCH  60  73
ATOM     73  C   UNL A   1      45.780  25.972  32.150  1.00  0.00    -0.014 A 
ATOM     74  C   UNL A   1      46.650  25.311  33.032  1.00  0.00     0.009 A 
ATOM     75  C   UNL A   1      44.742  26.746  32.700  1.00  0.00     0.009 A 
ATOM     76  C   UNL A   1      46.477  25.390  34.414  1.00  0.00     0.001 A 
ATOM     77  C   UNL A   1      44.587  26.849  34.090  1.00  0.00     0.001 A 
ATOM     78  C   UNL A   1      45.446  26.159  34.944  1.00  0.00     0.000 A 
ENDBRANCH  60  73
ENDBRANCH  34  35
ENDBRANCH  26  29
ENDBRANCH  24  25
ENDBRANCH   1  24
TORSDOF 12
ENDMDL
