MODEL 1
REMARK VINA RESULT:     -10.9      0.000      0.000
REMARK SMILES COC1CCN(c2nc(C(C)C)c(C(=O)NCCCCNC(=O)c3ccc(-c4c5nc(c(-c6ccccc6)c6ccc([nH]6)c(-c6ccccc6)c6nc(c(-c7ccccc7)c7ccc4[nH]7)C=C6)C=C5)cc3)s2)CC1
REMARK SMILES IDX 18 1 17 2 16 3 14 4 15 5 13 7 7 8 8 9 72 10 9 11 6 12 3 13
REMARK SMILES IDX 4 14 74 15 5 16 73 17 2 18 1 19 10 20 11 21 12 22 19 23
REMARK SMILES IDX 20 24 21 25 22 26 23 28 24 29 25 30 71 31 26 32 70 33 27 34
REMARK SMILES IDX 28 35 29 36 64 37 30 38 69 39 63 40 65 41 31 42 68 43 62 44
REMARK SMILES IDX 61 45 32 47 54 48 39 49 53 50 40 51 43 52 52 53 66 54 41 55
REMARK SMILES IDX 42 56 51 58 67 59 44 60 33 61 34 62 38 63 35 64 37 65 36 66
REMARK SMILES IDX 55 67 56 68 60 69 57 70 59 71 58 72 45 73 46 74 50 75 47 76
REMARK SMILES IDX 49 77 48 78
REMARK H PARENT 16 6 21 27 65 46 43 57
REMARK Flexibility Score: inf
ROOT
ATOM      1  C   UNL A   1      37.581  22.550  24.718  1.00  0.00     0.023 C 
ENDROOT
BRANCH   1   2
ATOM      2  C   UNL A   1      36.880  23.330  25.827  1.00  0.00     0.116 C 
BRANCH   2   3
ATOM      3  N   UNL A   1      35.968  22.507  26.564  1.00  0.00    -0.351 N 
ATOM      4  C   UNL A   1      34.629  22.237  26.508  1.00  0.00     0.263 C 
ATOM      5  O   UNL A   1      34.321  21.436  27.407  1.00  0.00    -0.268 OA
ATOM      6  H   UNL A   1      36.415  22.016  27.289  1.00  0.00     0.163 HD
BRANCH   4   7
ATOM      7  C   UNL A   1      33.641  22.751  25.553  1.00  0.00     0.117 A 
ATOM      8  C   UNL A   1      32.111  24.480  24.625  1.00  0.00     0.186 A 
ATOM      9  N   UNL A   1      31.971  23.342  24.008  1.00  0.00    -0.224 NA
ATOM     10  S   UNL A   1      33.291  24.454  25.845  1.00  0.00    -0.091 S 
ATOM     11  C   UNL A   1      32.871  22.370  24.446  1.00  0.00     0.069 A 
BRANCH   8  12
ATOM     12  N   UNL A   1      31.342  25.566  24.365  1.00  0.00    -0.348 N 
ATOM     13  C   UNL A   1      29.707  27.819  23.670  1.00  0.00     0.121 C 
ATOM     14  C   UNL A   1      30.975  27.979  24.516  1.00  0.00     0.053 C 
ATOM     15  C   UNL A   1      29.127  26.415  23.865  1.00  0.00     0.053 C 
ATOM     16  C   UNL A   1      31.985  26.872  24.218  1.00  0.00     0.121 C 
ATOM     17  C   UNL A   1      30.162  25.349  23.533  1.00  0.00     0.121 C 
BRANCH  13  18
ATOM     18  O   UNL A   1      30.061  28.106  22.311  1.00  0.00    -0.381 OA
ATOM     19  C   UNL A   1      29.861  29.459  21.924  1.00  0.00     0.195 C 
ENDBRANCH  13  18
ENDBRANCH   8  12
BRANCH  11  20
ATOM     20  C   UNL A   1      32.773  21.147  23.569  1.00  0.00     0.034 C 
ATOM     21  C   UNL A   1      32.658  19.853  24.373  1.00  0.00     0.014 C 
ATOM     22  C   UNL A   1      31.847  21.317  22.360  1.00  0.00     0.014 C 
ENDBRANCH  11  20
ENDBRANCH   4   7
ENDBRANCH   2   3
ENDBRANCH   1   2
BRANCH   1  23
ATOM     23  C   UNL A   1      37.902  21.106  25.076  1.00  0.00     0.023 C 
BRANCH  23  24
ATOM     24  C   UNL A   1      39.016  20.929  26.101  1.00  0.00     0.116 C 
BRANCH  24  25
ATOM     25  N   UNL A   1      39.910  19.806  25.844  1.00  0.00    -0.352 N 
ATOM     26  C   UNL A   1      41.272  19.759  26.047  1.00  0.00     0.251 C 
ATOM     27  H   UNL A   1      39.494  18.991  25.485  1.00  0.00     0.163 HD
ATOM     28  O   UNL A   1      41.928  18.765  25.754  1.00  0.00    -0.269 OA
BRANCH  26  29
ATOM     29  C   UNL A   1      41.932  20.966  26.576  1.00  0.00     0.039 A 
ATOM     30  C   UNL A   1      42.382  21.935  25.680  1.00  0.00     0.014 A 
ATOM     31  C   UNL A   1      41.945  21.199  27.954  1.00  0.00     0.014 A 
ATOM     32  C   UNL A   1      42.754  23.189  26.163  1.00  0.00     0.010 A 
ATOM     33  C   UNL A   1      42.228  22.476  28.421  1.00  0.00     0.010 A 
ATOM     34  C   UNL A   1      42.624  23.486  27.530  1.00  0.00    -0.014 A 
BRANCH  34  35
ATOM     35  C   UNL A   1      42.876  24.852  28.052  1.00  0.00     0.031 A 
ATOM     36  C   UNL A   1      44.260  25.243  28.486  1.00  0.00     0.074 A 
ATOM     37  C   UNL A   1      41.848  25.706  28.224  1.00  0.00     0.049 A 
ATOM     38  N   UNL A   1      44.666  26.349  29.055  1.00  0.00    -0.248 NA
ATOM     39  C   UNL A   1      45.321  24.241  28.292  1.00  0.00     0.031 C 
ATOM     40  C   UNL A   1      40.444  25.429  27.908  1.00  0.00     0.029 A 
ATOM     41  N   UNL A   1      41.828  26.986  28.719  1.00  0.00    -0.354 N 
ATOM     42  C   UNL A   1      46.017  26.163  29.312  1.00  0.00     0.074 A 
ATOM     43  C   UNL A   1      46.351  24.821  28.888  1.00  0.00     0.031 C 
ATOM     44  C   UNL A   1      39.707  26.515  28.189  1.00  0.00     0.029 A 
ATOM     45  C   UNL A   1      40.575  27.552  28.735  1.00  0.00     0.049 A 
ATOM     46  H   UNL A   1      42.634  27.454  29.034  1.00  0.00     0.167 HD
ATOM     47  C   UNL A   1      46.910  27.038  29.830  1.00  0.00     0.031 A 
ATOM     48  C   UNL A   1      40.172  28.770  29.142  1.00  0.00     0.031 A 
ATOM     49  C   UNL A   1      46.590  28.382  30.223  1.00  0.00     0.049 A 
ATOM     50  C   UNL A   1      41.189  29.741  29.675  1.00  0.00     0.074 A 
ATOM     51  C   UNL A   1      47.437  29.367  30.700  1.00  0.00     0.029 A 
ATOM     52  N   UNL A   1      45.319  28.933  30.174  1.00  0.00    -0.354 N 
ATOM     53  N   UNL A   1      42.477  29.573  29.849  1.00  0.00    -0.248 NA
ATOM     54  C   UNL A   1      40.697  31.073  30.051  1.00  0.00     0.031 C 
ATOM     55  C   UNL A   1      46.672  30.508  30.966  1.00  0.00     0.029 A 
ATOM     56  C   UNL A   1      45.357  30.242  30.619  1.00  0.00     0.049 A 
ATOM     57  H   UNL A   1      44.510  28.462  29.869  1.00  0.00     0.167 HD
ATOM     58  C   UNL A   1      42.954  30.783  30.334  1.00  0.00     0.074 A 
ATOM     59  C   UNL A   1      41.819  31.681  30.412  1.00  0.00     0.031 C 
ATOM     60  C   UNL A   1      44.218  31.120  30.686  1.00  0.00     0.031 A 
BRANCH  47  61
ATOM     61  C   UNL A   1      48.323  26.553  29.992  1.00  0.00    -0.014 A 
ATOM     62  C   UNL A   1      49.278  26.757  28.982  1.00  0.00     0.009 A 
ATOM     63  C   UNL A   1      48.705  25.887  31.166  1.00  0.00     0.009 A 
ATOM     64  C   UNL A   1      50.575  26.260  29.124  1.00  0.00     0.001 A 
ATOM     65  C   UNL A   1      50.011  25.417  31.318  1.00  0.00     0.001 A 
ATOM     66  C   UNL A   1      50.940  25.593  30.293  1.00  0.00     0.000 A 
ENDBRANCH  47  61
BRANCH  48  67
ATOM     67  C   UNL A   1      38.743  29.155  29.032  1.00  0.00    -0.014 A 
ATOM     68  C   UNL A   1      38.236  29.666  27.827  1.00  0.00     0.009 A 
ATOM     69  C   UNL A   1      37.877  29.015  30.128  1.00  0.00     0.009 A 
ATOM     70  C   UNL A   1      36.898  30.052  27.728  1.00  0.00     0.001 A 
ATOM     71  C   UNL A   1      36.533  29.380  30.019  1.00  0.00     0.001 A 
ATOM     72  C   UNL A   1      36.047  29.904  28.822  1.00  0.00     0.000 A 
ENDBRANCH  48  67
BRANCH  60  73
ATOM     73  C   UNL A   1      44.445  32.527  31.157  1.00  0.00    -0.014 A 
ATOM     74  C   UNL A   1      44.357  32.860  32.517  1.00  0.00     0.009 A 
ATOM     75  C   UNL A   1      44.795  33.521  30.231  1.00  0.00     0.009 A 
ATOM     76  C   UNL A   1      44.590  34.171  32.936  1.00  0.00     0.001 A 
ATOM     77  C   UNL A   1      45.050  34.825  30.656  1.00  0.00     0.001 A 
ATOM     78  C   UNL A   1      44.941  35.151  32.006  1.00  0.00     0.000 A 
ENDBRANCH  60  73
ENDBRANCH  34  35
ENDBRANCH  26  29
ENDBRANCH  24  25
ENDBRANCH  23  24
ENDBRANCH   1  23
TORSDOF 14
ENDMDL
MODEL 2
REMARK VINA RESULT:     -10.7      1.975      7.795
REMARK SMILES COC1CCN(c2nc(C(C)C)c(C(=O)NCCCCNC(=O)c3ccc(-c4c5nc(c(-c6ccccc6)c6ccc([nH]6)c(-c6ccccc6)c6nc(c(-c7ccccc7)c7ccc4[nH]7)C=C6)C=C5)cc3)s2)CC1
REMARK SMILES IDX 18 1 17 2 16 3 14 4 15 5 13 7 7 8 8 9 72 10 9 11 6 12 3 13
REMARK SMILES IDX 4 14 74 15 5 16 73 17 2 18 1 19 10 20 11 21 12 22 19 23
REMARK SMILES IDX 20 24 21 25 22 26 23 28 24 29 25 30 71 31 26 32 70 33 27 34
REMARK SMILES IDX 28 35 29 36 64 37 30 38 69 39 63 40 65 41 31 42 68 43 62 44
REMARK SMILES IDX 61 45 32 47 54 48 39 49 53 50 40 51 43 52 52 53 66 54 41 55
REMARK SMILES IDX 42 56 51 58 67 59 44 60 33 61 34 62 38 63 35 64 37 65 36 66
REMARK SMILES IDX 55 67 56 68 60 69 57 70 59 71 58 72 45 73 46 74 50 75 47 76
REMARK SMILES IDX 49 77 48 78
REMARK H PARENT 16 6 21 27 65 46 43 57
REMARK Flexibility Score: inf
ROOT
ATOM      1  C   UNL A   1      33.561  28.617  24.813  1.00  0.00     0.023 C 
ENDROOT
BRANCH   1   2
ATOM      2  C   UNL A   1      32.466  28.310  23.796  1.00  0.00     0.116 C 
BRANCH   2   3
ATOM      3  N   UNL A   1      32.971  27.583  22.670  1.00  0.00    -0.351 N 
ATOM      4  C   UNL A   1      33.110  26.265  22.336  1.00  0.00     0.263 C 
ATOM      5  O   UNL A   1      33.629  26.165  21.212  1.00  0.00    -0.268 OA
ATOM      6  H   UNL A   1      33.298  28.181  21.960  1.00  0.00     0.163 HD
BRANCH   4   7
ATOM      7  C   UNL A   1      32.714  25.087  23.116  1.00  0.00     0.117 A 
ATOM      8  C   UNL A   1      32.900  22.715  23.843  1.00  0.00     0.186 A 
ATOM      9  N   UNL A   1      31.845  23.286  24.351  1.00  0.00    -0.224 NA
ATOM     10  S   UNL A   1      33.832  23.747  22.870  1.00  0.00    -0.091 S 
ATOM     11  C   UNL A   1      31.752  24.641  24.032  1.00  0.00     0.069 A 
BRANCH   8  12
ATOM     12  N   UNL A   1      33.192  21.402  24.019  1.00  0.00    -0.348 N 
ATOM     13  C   UNL A   1      33.670  18.606  24.447  1.00  0.00     0.121 C 
ATOM     14  C   UNL A   1      34.680  19.669  24.891  1.00  0.00     0.053 C 
ATOM     15  C   UNL A   1      32.860  19.126  23.255  1.00  0.00     0.053 C 
ATOM     16  C   UNL A   1      33.992  21.004  25.177  1.00  0.00     0.121 C 
ATOM     17  C   UNL A   1      32.176  20.442  23.597  1.00  0.00     0.121 C 
BRANCH  13  18
ATOM     18  O   UNL A   1      32.863  18.280  25.586  1.00  0.00    -0.381 OA
ATOM     19  C   UNL A   1      32.606  16.892  25.747  1.00  0.00     0.195 C 
ENDBRANCH  13  18
ENDBRANCH   8  12
BRANCH  11  20
ATOM     20  C   UNL A   1      30.616  25.271  24.798  1.00  0.00     0.034 C 
ATOM     21  C   UNL A   1      31.069  25.895  26.117  1.00  0.00     0.014 C 
ATOM     22  C   UNL A   1      29.646  26.076  23.927  1.00  0.00     0.014 C 
ENDBRANCH  11  20
ENDBRANCH   4   7
ENDBRANCH   2   3
ENDBRANCH   1   2
BRANCH   1  23
ATOM     23  C   UNL A   1      33.238  29.771  25.751  1.00  0.00     0.023 C 
BRANCH  23  24
ATOM     24  C   UNL A   1      33.597  29.532  27.213  1.00  0.00     0.116 C 
BRANCH  24  25
ATOM     25  N   UNL A   1      33.688  30.740  28.025  1.00  0.00    -0.352 N 
ATOM     26  C   UNL A   1      34.767  31.169  28.766  1.00  0.00     0.251 C 
ATOM     27  H   UNL A   1      32.888  31.312  28.046  1.00  0.00     0.163 HD
ATOM     28  O   UNL A   1      34.711  32.187  29.446  1.00  0.00    -0.269 OA
BRANCH  26  29
ATOM     29  C   UNL A   1      35.980  30.331  28.765  1.00  0.00     0.039 A 
ATOM     30  C   UNL A   1      36.825  30.371  27.657  1.00  0.00     0.014 A 
ATOM     31  C   UNL A   1      36.350  29.649  29.928  1.00  0.00     0.014 A 
ATOM     32  C   UNL A   1      38.097  29.805  27.749  1.00  0.00     0.010 A 
ATOM     33  C   UNL A   1      37.647  29.169  30.047  1.00  0.00     0.010 A 
ATOM     34  C   UNL A   1      38.537  29.253  28.964  1.00  0.00    -0.014 A 
BRANCH  34  35
ATOM     35  C   UNL A   1      39.931  28.775  29.136  1.00  0.00     0.031 A 
ATOM     36  C   UNL A   1      40.980  29.705  29.675  1.00  0.00     0.074 A 
ATOM     37  C   UNL A   1      40.273  27.539  28.721  1.00  0.00     0.049 A 
ATOM     38  N   UNL A   1      42.266  29.510  29.810  1.00  0.00    -0.248 NA
ATOM     39  C   UNL A   1      40.528  31.048  30.077  1.00  0.00     0.031 C 
ATOM     40  C   UNL A   1      39.368  26.559  28.116  1.00  0.00     0.029 A 
ATOM     41  N   UNL A   1      41.487  26.899  28.739  1.00  0.00    -0.354 N 
ATOM     42  C   UNL A   1      42.779  30.710  30.283  1.00  0.00     0.074 A 
ATOM     43  C   UNL A   1      41.676  31.644  30.360  1.00  0.00     0.031 C 
ATOM     44  C   UNL A   1      40.050  25.434  27.850  1.00  0.00     0.029 A 
ATOM     45  C   UNL A   1      41.446  25.622  28.231  1.00  0.00     0.049 A 
ATOM     46  H   UNL A   1      42.310  27.315  29.083  1.00  0.00     0.167 HD
ATOM     47  C   UNL A   1      44.048  31.006  30.647  1.00  0.00     0.031 A 
ATOM     48  C   UNL A   1      42.422  24.706  28.090  1.00  0.00     0.031 A 
ATOM     49  C   UNL A   1      45.140  30.073  30.603  1.00  0.00     0.049 A 
ATOM     50  C   UNL A   1      43.815  25.042  28.541  1.00  0.00     0.074 A 
ATOM     51  C   UNL A   1      46.450  30.257  31.010  1.00  0.00     0.029 A 
ATOM     52  N   UNL A   1      45.043  28.774  30.130  1.00  0.00    -0.354 N 
ATOM     53  N   UNL A   1      44.270  26.161  29.049  1.00  0.00    -0.248 NA
ATOM     54  C   UNL A   1      44.826  23.982  28.412  1.00  0.00     0.031 C 
ATOM     55  C   UNL A   1      47.154  29.075  30.757  1.00  0.00     0.029 A 
ATOM     56  C   UNL A   1      46.272  28.146  30.228  1.00  0.00     0.049 A 
ATOM     57  H   UNL A   1      44.223  28.360  29.777  1.00  0.00     0.167 HD
ATOM     58  C   UNL A   1      45.613  25.934  29.322  1.00  0.00     0.074 A 
ATOM     59  C   UNL A   1      45.894  24.566  28.937  1.00  0.00     0.031 C 
ATOM     60  C   UNL A   1      46.531  26.783  29.842  1.00  0.00     0.031 A 
BRANCH  47  61
ATOM     61  C   UNL A   1      44.310  32.405  31.131  1.00  0.00    -0.014 A 
ATOM     62  C   UNL A   1      44.197  32.732  32.492  1.00  0.00     0.009 A 
ATOM     63  C   UNL A   1      44.674  33.405  30.217  1.00  0.00     0.009 A 
ATOM     64  C   UNL A   1      44.396  34.045  32.922  1.00  0.00     0.001 A 
ATOM     65  C   UNL A   1      44.902  34.712  30.654  1.00  0.00     0.001 A 
ATOM     66  C   UNL A   1      44.751  35.033  32.003  1.00  0.00     0.000 A 
ENDBRANCH  47  61
BRANCH  48  67
ATOM     67  C   UNL A   1      42.110  23.369  27.525  1.00  0.00    -0.014 A 
ATOM     68  C   UNL A   1      42.348  23.099  26.169  1.00  0.00     0.009 A 
ATOM     69  C   UNL A   1      41.573  22.357  28.335  1.00  0.00     0.009 A 
ATOM     70  C   UNL A   1      42.034  21.851  25.629  1.00  0.00     0.001 A 
ATOM     71  C   UNL A   1      41.282  21.101  27.797  1.00  0.00     0.001 A 
ATOM     72  C   UNL A   1      41.505  20.851  26.444  1.00  0.00     0.000 A 
ENDBRANCH  48  67
BRANCH  60  73
ATOM     73  C   UNL A   1      47.917  26.247  30.055  1.00  0.00    -0.014 A 
ATOM     74  C   UNL A   1      48.852  26.221  29.009  1.00  0.00     0.009 A 
ATOM     75  C   UNL A   1      48.302  25.804  31.329  1.00  0.00     0.009 A 
ATOM     76  C   UNL A   1      50.142  25.735  29.233  1.00  0.00     0.001 A 
ATOM     77  C   UNL A   1      49.599  25.341  31.554  1.00  0.00     0.001 A 
ATOM     78  C   UNL A   1      50.515  25.300  30.504  1.00  0.00     0.000 A 
ENDBRANCH  60  73
ENDBRANCH  34  35
ENDBRANCH  26  29
ENDBRANCH  24  25
ENDBRANCH  23  24
ENDBRANCH   1  23
TORSDOF 14
ENDMDL
MODEL 3
REMARK VINA RESULT:     -10.7      0.768      6.019
REMARK SMILES COC1CCN(c2nc(C(C)C)c(C(=O)NCCCCNC(=O)c3ccc(-c4c5nc(c(-c6ccccc6)c6ccc([nH]6)c(-c6ccccc6)c6nc(c(-c7ccccc7)c7ccc4[nH]7)C=C6)C=C5)cc3)s2)CC1
REMARK SMILES IDX 18 1 17 2 16 3 14 4 15 5 13 7 7 8 8 9 72 10 9 11 6 12 3 13
REMARK SMILES IDX 4 14 74 15 5 16 73 17 2 18 1 19 10 20 11 21 12 22 19 23
REMARK SMILES IDX 20 24 21 25 22 26 23 28 24 29 25 30 71 31 26 32 70 33 27 34
REMARK SMILES IDX 28 35 29 36 64 37 30 38 69 39 63 40 65 41 31 42 68 43 62 44
REMARK SMILES IDX 61 45 32 47 54 48 39 49 53 50 40 51 43 52 52 53 66 54 41 55
REMARK SMILES IDX 42 56 51 58 67 59 44 60 33 61 34 62 38 63 35 64 37 65 36 66
REMARK SMILES IDX 55 67 56 68 60 69 57 70 59 71 58 72 45 73 46 74 50 75 47 76
REMARK SMILES IDX 49 77 48 78
REMARK H PARENT 16 6 21 27 65 46 43 57
REMARK Flexibility Score: inf
ROOT
ATOM      1  C   UNL A   1      36.216  21.528  25.709  1.00  0.00     0.023 C 
ENDROOT
BRANCH   1   2
ATOM      2  C   UNL A   1      35.872  22.802  26.472  1.00  0.00     0.116 C 
BRANCH   2   3
ATOM      3  N   UNL A   1      34.726  22.629  27.315  1.00  0.00    -0.351 N 
ATOM      4  C   UNL A   1      33.375  22.777  27.174  1.00  0.00     0.263 C 
ATOM      5  O   UNL A   1      32.804  22.498  28.242  1.00  0.00    -0.268 OA
ATOM      6  H   UNL A   1      34.974  22.328  28.219  1.00  0.00     0.163 HD
BRANCH   4   7
ATOM      7  C   UNL A   1      32.628  23.177  25.976  1.00  0.00     0.117 A 
ATOM      8  C   UNL A   1      31.455  24.809  24.509  1.00  0.00     0.186 A 
ATOM      9  N   UNL A   1      31.330  23.592  24.062  1.00  0.00    -0.224 NA
ATOM     10  S   UNL A   1      32.384  24.923  25.925  1.00  0.00    -0.091 S 
ATOM     11  C   UNL A   1      32.045  22.659  24.813  1.00  0.00     0.069 A 
BRANCH   8  12
ATOM     12  N   UNL A   1      30.846  25.877  23.937  1.00  0.00    -0.348 N 
ATOM     13  C   UNL A   1      29.665  28.226  22.788  1.00  0.00     0.121 C 
ATOM     14  C   UNL A   1      28.820  27.185  23.531  1.00  0.00     0.053 C 
ATOM     15  C   UNL A   1      30.905  27.555  22.189  1.00  0.00     0.053 C 
ATOM     16  C   UNL A   1      29.651  26.435  24.571  1.00  0.00     0.121 C 
ATOM     17  C   UNL A   1      31.711  26.843  23.267  1.00  0.00     0.121 C 
BRANCH  13  18
ATOM     18  O   UNL A   1      29.975  29.269  23.721  1.00  0.00    -0.381 OA
ATOM     19  C   UNL A   1      29.274  30.485  23.498  1.00  0.00     0.195 C 
ENDBRANCH  13  18
ENDBRANCH   8  12
BRANCH  11  20
ATOM     20  C   UNL A   1      32.001  21.313  24.134  1.00  0.00     0.034 C 
ATOM     21  C   UNL A   1      32.193  21.409  22.621  1.00  0.00     0.014 C 
ATOM     22  C   UNL A   1      32.765  20.212  24.879  1.00  0.00     0.014 C 
ENDBRANCH  11  20
ENDBRANCH   4   7
ENDBRANCH   2   3
ENDBRANCH   1   2
BRANCH   1  23
ATOM     23  C   UNL A   1      37.553  21.576  24.982  1.00  0.00     0.023 C 
BRANCH  23  24
ATOM     24  C   UNL A   1      38.778  21.452  25.881  1.00  0.00     0.116 C 
BRANCH  24  25
ATOM     25  N   UNL A   1      39.547  20.225  25.699  1.00  0.00    -0.352 N 
ATOM     26  C   UNL A   1      40.871  20.015  26.014  1.00  0.00     0.251 C 
ATOM     27  H   UNL A   1      39.064  19.463  25.308  1.00  0.00     0.163 HD
ATOM     28  O   UNL A   1      41.422  18.946  25.776  1.00  0.00    -0.269 OA
BRANCH  26  29
ATOM     29  C   UNL A   1      41.629  21.139  26.594  1.00  0.00     0.039 A 
ATOM     30  C   UNL A   1      42.168  22.100  25.739  1.00  0.00     0.014 A 
ATOM     31  C   UNL A   1      41.650  21.316  27.980  1.00  0.00     0.014 A 
ATOM     32  C   UNL A   1      42.643  23.297  26.274  1.00  0.00     0.010 A 
ATOM     33  C   UNL A   1      42.038  22.543  28.499  1.00  0.00     0.010 A 
ATOM     34  C   UNL A   1      42.527  23.550  27.651  1.00  0.00    -0.014 A 
BRANCH  34  35
ATOM     35  C   UNL A   1      42.891  24.867  28.228  1.00  0.00     0.031 A 
ATOM     36  C   UNL A   1      41.830  25.908  28.443  1.00  0.00     0.074 A 
ATOM     37  C   UNL A   1      44.183  25.161  28.472  1.00  0.00     0.049 A 
ATOM     38  N   UNL A   1      41.956  27.147  28.844  1.00  0.00    -0.248 NA
ATOM     39  C   UNL A   1      40.447  25.517  28.123  1.00  0.00     0.031 C 
ATOM     40  C   UNL A   1      45.321  24.265  28.244  1.00  0.00     0.029 A 
ATOM     41  N   UNL A   1      44.759  26.307  28.960  1.00  0.00    -0.354 N 
ATOM     42  C   UNL A   1      40.680  27.689  28.797  1.00  0.00     0.074 A 
ATOM     43  C   UNL A   1      39.801  26.663  28.278  1.00  0.00     0.031 C 
ATOM     44  C   UNL A   1      46.451  24.885  28.619  1.00  0.00     0.029 A 
ATOM     45  C   UNL A   1      46.126  26.230  29.082  1.00  0.00     0.049 A 
ATOM     46  H   UNL A   1      44.242  27.110  29.199  1.00  0.00     0.167 HD
ATOM     47  C   UNL A   1      40.265  28.920  29.177  1.00  0.00     0.031 A 
ATOM     48  C   UNL A   1      47.017  27.139  29.518  1.00  0.00     0.031 A 
ATOM     49  C   UNL A   1      41.128  29.930  29.723  1.00  0.00     0.049 A 
ATOM     50  C   UNL A   1      46.529  28.486  29.974  1.00  0.00     0.074 A 
ATOM     51  C   UNL A   1      40.794  31.187  30.197  1.00  0.00     0.029 A 
ATOM     52  N   UNL A   1      42.498  29.792  29.878  1.00  0.00    -0.354 N 
ATOM     53  N   UNL A   1      45.307  28.959  29.987  1.00  0.00    -0.248 NA
ATOM     54  C   UNL A   1      47.543  29.416  30.491  1.00  0.00     0.031 C 
ATOM     55  C   UNL A   1      41.970  31.821  30.612  1.00  0.00     0.029 A 
ATOM     56  C   UNL A   1      43.027  30.944  30.433  1.00  0.00     0.049 A 
ATOM     57  H   UNL A   1      43.018  28.994  29.629  1.00  0.00     0.167 HD
ATOM     58  C   UNL A   1      45.401  30.233  30.531  1.00  0.00     0.074 A 
ATOM     59  C   UNL A   1      46.796  30.451  30.852  1.00  0.00     0.031 C 
ATOM     60  C   UNL A   1      44.419  31.141  30.746  1.00  0.00     0.031 A 
BRANCH  47  61
ATOM     61  C   UNL A   1      38.804  29.228  29.012  1.00  0.00    -0.014 A 
ATOM     62  C   UNL A   1      38.290  29.659  27.778  1.00  0.00     0.009 A 
ATOM     63  C   UNL A   1      37.931  29.085  30.101  1.00  0.00     0.009 A 
ATOM     64  C   UNL A   1      36.939  29.987  27.650  1.00  0.00     0.001 A 
ATOM     65  C   UNL A   1      36.574  29.385  29.963  1.00  0.00     0.001 A 
ATOM     66  C   UNL A   1      36.082  29.848  28.742  1.00  0.00     0.000 A 
ENDBRANCH  47  61
BRANCH  48  67
ATOM     67  C   UNL A   1      48.460  26.798  29.576  1.00  0.00    -0.014 A 
ATOM     68  C   UNL A   1      48.993  26.155  30.704  1.00  0.00     0.009 A 
ATOM     69  C   UNL A   1      49.314  27.110  28.507  1.00  0.00     0.009 A 
ATOM     70  C   UNL A   1      50.354  25.854  30.772  1.00  0.00     0.001 A 
ATOM     71  C   UNL A   1      50.671  26.786  28.567  1.00  0.00     0.001 A 
ATOM     72  C   UNL A   1      51.192  26.166  29.702  1.00  0.00     0.000 A 
ENDBRANCH  48  67
BRANCH  60  73
ATOM     73  C   UNL A   1      44.815  32.440  31.384  1.00  0.00    -0.014 A 
ATOM     74  C   UNL A   1      44.837  32.586  32.779  1.00  0.00     0.009 A 
ATOM     75  C   UNL A   1      45.212  33.517  30.577  1.00  0.00     0.009 A 
ATOM     76  C   UNL A   1      45.227  33.798  33.353  1.00  0.00     0.001 A 
ATOM     77  C   UNL A   1      45.622  34.719  31.154  1.00  0.00     0.001 A 
ATOM     78  C   UNL A   1      45.623  34.861  32.541  1.00  0.00     0.000 A 
ENDBRANCH  60  73
ENDBRANCH  34  35
ENDBRANCH  26  29
ENDBRANCH  24  25
ENDBRANCH  23  24
ENDBRANCH   1  23
TORSDOF 14
ENDMDL
