MODEL 1
REMARK VINA RESULT:      -8.7      0.000      0.000
REMARK SMILES C[NH2+]CCCC(=O)N[C@H]1C=C[C@@H](C(=O)NCCCCNC(=O)c2ccc(-c3c4nc(c(-c5ccccc5)c5ccc([nH]5)c(-c5ccccc5)c5nc(c(-c6ccccc6)c6ccc3[nH]6)C=C5)C=C4)cc2)C1
REMARK SMILES IDX 16 1 15 2 13 3 14 4 12 6 9 7 10 8 71 9 11 10 8 11 6 12 7 13
REMARK SMILES IDX 5 15 4 16 3 17 2 18 1 19 17 22 18 23 19 24 20 25 21 26 22 28
REMARK SMILES IDX 23 29 24 30 70 31 25 32 69 33 26 34 27 35 28 36 63 37 29 38
REMARK SMILES IDX 68 39 62 40 64 41 30 42 67 43 61 44 60 45 31 47 53 48 38 49
REMARK SMILES IDX 52 50 39 51 42 52 51 53 65 54 40 55 41 56 50 58 66 59 43 60
REMARK SMILES IDX 32 61 33 62 37 63 34 64 36 65 35 66 54 67 55 68 59 69 56 70
REMARK SMILES IDX 58 71 57 72 44 73 45 74 49 75 46 76 48 77 47 78
REMARK H PARENT 15 5 8 14 2 20 2 21 20 27 64 46 42 57
REMARK Flexibility Score: inf
ROOT
ATOM      1  C   UNL A   1      45.575  21.747  24.576  1.00  0.00     0.116 C 
ENDROOT
BRANCH   1   2
ATOM      2  N   UNL A   1      46.448  22.712  23.938  1.00  0.00    -0.356 N 
ATOM      3  C   UNL A   1      46.692  24.018  24.241  1.00  0.00     0.227 C 
ATOM      4  O   UNL A   1      47.522  24.616  23.552  1.00  0.00    -0.274 OA
ATOM      5  H   UNL A   1      46.945  22.368  23.161  1.00  0.00     0.163 HD
BRANCH   3   6
ATOM      6  C   UNL A   1      45.977  24.735  25.384  1.00  0.00     0.103 C 
ATOM      7  C   UNL A   1      45.556  27.049  26.021  1.00  0.00     0.106 C 
ATOM      8  C   UNL A   1      44.370  26.444  25.352  1.00  0.00    -0.006 C 
ATOM      9  C   UNL A   1      46.672  26.021  25.847  1.00  0.00     0.047 C 
ATOM     10  C   UNL A   1      44.584  25.166  25.028  1.00  0.00    -0.016 C 
BRANCH   7  11
ATOM     11  N   UNL A   1      45.815  28.343  25.449  1.00  0.00    -0.350 N 
ATOM     12  C   UNL A   1      46.279  29.460  26.079  1.00  0.00     0.220 C 
ATOM     13  O   UNL A   1      46.309  30.520  25.451  1.00  0.00    -0.275 OA
ATOM     14  H   UNL A   1      45.636  28.433  24.485  1.00  0.00     0.164 HD
BRANCH  12  15
ATOM     15  C   UNL A   1      46.775  29.382  27.512  1.00  0.00     0.106 C 
BRANCH  15  16
ATOM     16  C   UNL A   1      48.293  29.527  27.672  1.00  0.00     0.071 C 
BRANCH  16  17
ATOM     17  C   UNL A   1      48.830  30.906  28.079  1.00  0.00     0.260 C 
BRANCH  17  18
ATOM     18  N   UNL A   1      48.883  31.901  27.004  1.00  0.00    -0.349 N 
ATOM     19  C   UNL A   1      49.623  33.099  27.353  1.00  0.00     0.330 C 
ATOM     20  H   UNL A   1      49.326  31.473  26.191  1.00  0.00     0.346 HD
ATOM     21  H   UNL A   1      47.922  32.188  26.816  1.00  0.00     0.346 HD
ENDBRANCH  17  18
ENDBRANCH  16  17
ENDBRANCH  15  16
ENDBRANCH  12  15
ENDBRANCH   7  11
ENDBRANCH   3   6
ENDBRANCH   1   2
BRANCH   1  22
ATOM     22  C   UNL A   1      46.179  20.346  24.603  1.00  0.00     0.023 C 
BRANCH  22  23
ATOM     23  C   UNL A   1      45.158  19.229  24.769  1.00  0.00     0.023 C 
BRANCH  23  24
ATOM     24  C   UNL A   1      44.186  19.433  25.921  1.00  0.00     0.116 C 
BRANCH  24  25
ATOM     25  N   UNL A   1      42.844  18.941  25.640  1.00  0.00    -0.352 N 
ATOM     26  C   UNL A   1      41.646  19.564  25.902  1.00  0.00     0.251 C 
ATOM     27  H   UNL A   1      42.788  18.057  25.211  1.00  0.00     0.163 HD
ATOM     28  O   UNL A   1      40.581  18.999  25.705  1.00  0.00    -0.269 OA
BRANCH  26  29
ATOM     29  C   UNL A   1      41.683  20.922  26.475  1.00  0.00     0.039 A 
ATOM     30  C   UNL A   1      41.522  21.077  27.850  1.00  0.00     0.014 A 
ATOM     31  C   UNL A   1      41.977  22.015  25.656  1.00  0.00     0.014 A 
ATOM     32  C   UNL A   1      41.726  22.331  28.422  1.00  0.00     0.010 A 
ATOM     33  C   UNL A   1      42.263  23.242  26.237  1.00  0.00     0.010 A 
ATOM     34  C   UNL A   1      42.136  23.413  27.624  1.00  0.00    -0.014 A 
BRANCH  34  35
ATOM     35  C   UNL A   1      42.427  24.739  28.218  1.00  0.00     0.031 A 
ATOM     36  C   UNL A   1      43.806  25.037  28.734  1.00  0.00     0.074 A 
ATOM     37  C   UNL A   1      41.439  25.644  28.352  1.00  0.00     0.049 A 
ATOM     38  N   UNL A   1      44.247  26.111  29.336  1.00  0.00    -0.248 NA
ATOM     39  C   UNL A   1      44.816  23.975  28.582  1.00  0.00     0.031 C 
ATOM     40  C   UNL A   1      40.047  25.453  27.936  1.00  0.00     0.029 A 
ATOM     41  N   UNL A   1      41.456  26.907  28.885  1.00  0.00    -0.354 N 
ATOM     42  C   UNL A   1      45.574  25.847  29.650  1.00  0.00     0.074 A 
ATOM     43  C   UNL A   1      45.851  24.494  29.224  1.00  0.00     0.031 C 
ATOM     44  C   UNL A   1      39.353  26.572  28.200  1.00  0.00     0.029 A 
ATOM     45  C   UNL A   1      40.239  27.542  28.836  1.00  0.00     0.049 A 
ATOM     46  H   UNL A   1      42.263  27.320  29.267  1.00  0.00     0.167 HD
ATOM     47  C   UNL A   1      46.488  26.666  30.221  1.00  0.00     0.031 A 
ATOM     48  C   UNL A   1      39.879  28.769  29.256  1.00  0.00     0.031 A 
ATOM     49  C   UNL A   1      46.217  28.018  30.626  1.00  0.00     0.049 A 
ATOM     50  C   UNL A   1      40.913  29.661  29.884  1.00  0.00     0.074 A 
ATOM     51  C   UNL A   1      47.090  28.950  31.157  1.00  0.00     0.029 A 
ATOM     52  N   UNL A   1      44.975  28.629  30.544  1.00  0.00    -0.354 N 
ATOM     53  N   UNL A   1      42.183  29.423  30.108  1.00  0.00    -0.248 NA
ATOM     54  C   UNL A   1      40.466  30.996  30.304  1.00  0.00     0.031 C 
ATOM     55  C   UNL A   1      46.365  30.113  31.438  1.00  0.00     0.029 A 
ATOM     56  C   UNL A   1      45.054  29.921  31.034  1.00  0.00     0.049 A 
ATOM     57  H   UNL A   1      44.158  28.207  30.190  1.00  0.00     0.167 HD
ATOM     58  C   UNL A   1      42.692  30.586  30.669  1.00  0.00     0.074 A 
ATOM     59  C   UNL A   1      41.599  31.533  30.737  1.00  0.00     0.031 C 
ATOM     60  C   UNL A   1      43.954  30.848  31.091  1.00  0.00     0.031 A 
BRANCH  47  61
ATOM     61  C   UNL A   1      47.868  26.112  30.437  1.00  0.00    -0.014 A 
ATOM     62  C   UNL A   1      48.783  26.006  29.377  1.00  0.00     0.009 A 
ATOM     63  C   UNL A   1      48.266  25.708  31.720  1.00  0.00     0.009 A 
ATOM     64  C   UNL A   1      50.055  25.471  29.591  1.00  0.00     0.001 A 
ATOM     65  C   UNL A   1      49.548  25.202  31.937  1.00  0.00     0.001 A 
ATOM     66  C   UNL A   1      50.438  25.073  30.871  1.00  0.00     0.000 A 
ENDBRANCH  47  61
BRANCH  48  67
ATOM     67  C   UNL A   1      38.481  29.239  29.074  1.00  0.00    -0.014 A 
ATOM     68  C   UNL A   1      38.063  29.764  27.841  1.00  0.00     0.009 A 
ATOM     69  C   UNL A   1      37.560  29.175  30.130  1.00  0.00     0.009 A 
ATOM     70  C   UNL A   1      36.760  30.238  27.678  1.00  0.00     0.001 A 
ATOM     71  C   UNL A   1      36.249  29.624  29.956  1.00  0.00     0.001 A 
ATOM     72  C   UNL A   1      35.853  30.164  28.734  1.00  0.00     0.000 A 
ENDBRANCH  48  67
BRANCH  60  73
ATOM     73  C   UNL A   1      44.224  32.224  31.629  1.00  0.00    -0.014 A 
ATOM     74  C   UNL A   1      44.103  32.508  32.998  1.00  0.00     0.009 A 
ATOM     75  C   UNL A   1      44.647  33.238  30.756  1.00  0.00     0.009 A 
ATOM     76  C   UNL A   1      44.369  33.792  33.476  1.00  0.00     0.001 A 
ATOM     77  C   UNL A   1      44.939  34.513  31.241  1.00  0.00     0.001 A 
ATOM     78  C   UNL A   1      44.791  34.791  32.599  1.00  0.00     0.000 A 
ENDBRANCH  60  73
ENDBRANCH  34  35
ENDBRANCH  26  29
ENDBRANCH  24  25
ENDBRANCH  23  24
ENDBRANCH  22  23
ENDBRANCH   1  22
TORSDOF 16
ENDMDL
MODEL 2
REMARK VINA RESULT:      -8.2      5.627     11.966
REMARK SMILES C[NH2+]CCCC(=O)N[C@H]1C=C[C@@H](C(=O)NCCCCNC(=O)c2ccc(-c3c4nc(c(-c5ccccc5)c5ccc([nH]5)c(-c5ccccc5)c5nc(c(-c6ccccc6)c6ccc3[nH]6)C=C5)C=C4)cc2)C1
REMARK SMILES IDX 16 1 15 2 13 3 14 4 12 6 9 7 10 8 71 9 11 10 8 11 6 12 7 13
REMARK SMILES IDX 5 15 4 16 3 17 2 18 1 19 17 22 18 23 19 24 20 25 21 26 22 28
REMARK SMILES IDX 23 29 24 30 70 31 25 32 69 33 26 34 27 35 28 36 63 37 29 38
REMARK SMILES IDX 68 39 62 40 64 41 30 42 67 43 61 44 60 45 31 47 53 48 38 49
REMARK SMILES IDX 52 50 39 51 42 52 51 53 65 54 40 55 41 56 50 58 66 59 43 60
REMARK SMILES IDX 32 61 33 62 37 63 34 64 36 65 35 66 54 67 55 68 59 69 56 70
REMARK SMILES IDX 58 71 57 72 44 73 45 74 49 75 46 76 48 77 47 78
REMARK H PARENT 15 5 8 14 2 20 2 21 20 27 64 46 42 57
REMARK Flexibility Score: inf
ROOT
ATOM      1  C   UNL A   1      32.415  29.727  27.275  1.00  0.00     0.116 C 
ENDROOT
BRANCH   1   2
ATOM      2  N   UNL A   1      31.662  28.489  27.293  1.00  0.00    -0.356 N 
ATOM      3  C   UNL A   1      31.945  27.275  26.743  1.00  0.00     0.227 C 
ATOM      4  O   UNL A   1      31.141  26.359  26.939  1.00  0.00    -0.274 OA
ATOM      5  H   UNL A   1      30.807  28.533  27.781  1.00  0.00     0.163 HD
BRANCH   3   6
ATOM      6  C   UNL A   1      33.203  27.032  25.911  1.00  0.00     0.103 C 
ATOM      7  C   UNL A   1      33.914  25.426  24.223  1.00  0.00     0.106 C 
ATOM      8  C   UNL A   1      33.473  26.707  23.603  1.00  0.00    -0.006 C 
ATOM      9  C   UNL A   1      33.535  25.551  25.697  1.00  0.00     0.047 C 
ATOM     10  C   UNL A   1      33.110  27.603  24.526  1.00  0.00    -0.016 C 
BRANCH   7  11
ATOM     11  N   UNL A   1      33.308  24.326  23.521  1.00  0.00    -0.350 N 
ATOM     12  C   UNL A   1      33.899  23.168  23.110  1.00  0.00     0.220 C 
ATOM     13  O   UNL A   1      33.251  22.397  22.399  1.00  0.00    -0.275 OA
ATOM     14  H   UNL A   1      32.351  24.421  23.313  1.00  0.00     0.164 HD
BRANCH  12  15
ATOM     15  C   UNL A   1      35.313  22.830  23.550  1.00  0.00     0.106 C 
BRANCH  15  16
ATOM     16  C   UNL A   1      35.406  22.095  24.893  1.00  0.00     0.071 C 
BRANCH  16  17
ATOM     17  C   UNL A   1      34.970  20.623  24.922  1.00  0.00     0.260 C 
BRANCH  17  18
ATOM     18  N   UNL A   1      33.856  20.317  25.823  1.00  0.00    -0.349 N 
ATOM     19  C   UNL A   1      32.605  20.055  25.137  1.00  0.00     0.330 C 
ATOM     20  H   UNL A   1      34.102  19.493  26.371  1.00  0.00     0.346 HD
ATOM     21  H   UNL A   1      33.709  21.141  26.407  1.00  0.00     0.346 HD
ENDBRANCH  17  18
ENDBRANCH  16  17
ENDBRANCH  15  16
ENDBRANCH  12  15
ENDBRANCH   7  11
ENDBRANCH   3   6
ENDBRANCH   1   2
BRANCH   1  22
ATOM     22  C   UNL A   1      31.881  30.716  26.243  1.00  0.00     0.023 C 
BRANCH  22  23
ATOM     23  C   UNL A   1      31.502  32.074  26.818  1.00  0.00     0.023 C 
BRANCH  23  24
ATOM     24  C   UNL A   1      32.672  32.872  27.368  1.00  0.00     0.116 C 
BRANCH  24  25
ATOM     25  N   UNL A   1      32.337  34.257  27.672  1.00  0.00    -0.352 N 
ATOM     26  C   UNL A   1      32.957  35.097  28.567  1.00  0.00     0.251 C 
ATOM     27  H   UNL A   1      31.574  34.636  27.178  1.00  0.00     0.163 HD
ATOM     28  O   UNL A   1      32.515  36.212  28.801  1.00  0.00    -0.269 OA
BRANCH  26  29
ATOM     29  C   UNL A   1      34.150  34.597  29.273  1.00  0.00     0.039 A 
ATOM     30  C   UNL A   1      33.986  33.958  30.501  1.00  0.00     0.014 A 
ATOM     31  C   UNL A   1      35.405  34.676  28.665  1.00  0.00     0.014 A 
ATOM     32  C   UNL A   1      35.081  33.332  31.094  1.00  0.00     0.010 A 
ATOM     33  C   UNL A   1      36.472  33.981  29.213  1.00  0.00     0.010 A 
ATOM     34  C   UNL A   1      36.322  33.306  30.434  1.00  0.00    -0.014 A 
BRANCH  34  35
ATOM     35  C   UNL A   1      37.482  32.586  31.010  1.00  0.00     0.031 A 
ATOM     36  C   UNL A   1      38.083  33.054  32.304  1.00  0.00     0.074 A 
ATOM     37  C   UNL A   1      38.033  31.558  30.336  1.00  0.00     0.049 A 
ATOM     38  N   UNL A   1      39.129  32.597  32.941  1.00  0.00    -0.248 NA
ATOM     39  C   UNL A   1      37.442  34.211  32.954  1.00  0.00     0.031 C 
ATOM     40  C   UNL A   1      37.571  31.041  29.045  1.00  0.00     0.029 A 
ATOM     41  N   UNL A   1      39.108  30.765  30.645  1.00  0.00    -0.354 N 
ATOM     42  C   UNL A   1      39.282  33.417  34.051  1.00  0.00     0.074 A 
ATOM     43  C   UNL A   1      38.258  34.435  33.972  1.00  0.00     0.031 C 
ATOM     44  C   UNL A   1      38.339  29.999  28.689  1.00  0.00     0.029 A 
ATOM     45  C   UNL A   1      39.366  29.797  29.706  1.00  0.00     0.049 A 
ATOM     46  H   UNL A   1      39.644  30.879  31.462  1.00  0.00     0.167 HD
ATOM     47  C   UNL A   1      40.180  33.321  35.059  1.00  0.00     0.031 A 
ATOM     48  C   UNL A   1      40.324  28.851  29.670  1.00  0.00     0.031 A 
ATOM     49  C   UNL A   1      41.185  32.297  35.147  1.00  0.00     0.049 A 
ATOM     50  C   UNL A   1      41.307  28.763  30.803  1.00  0.00     0.074 A 
ATOM     51  C   UNL A   1      42.102  32.075  36.158  1.00  0.00     0.029 A 
ATOM     52  N   UNL A   1      41.403  31.325  34.183  1.00  0.00    -0.354 N 
ATOM     53  N   UNL A   1      41.393  29.502  31.882  1.00  0.00    -0.248 NA
ATOM     54  C   UNL A   1      42.317  27.698  30.718  1.00  0.00     0.031 C 
ATOM     55  C   UNL A   1      42.907  30.992  35.784  1.00  0.00     0.029 A 
ATOM     56  C   UNL A   1      42.455  30.511  34.566  1.00  0.00     0.049 A 
ATOM     57  H   UNL A   1      40.886  31.227  33.350  1.00  0.00     0.167 HD
ATOM     58  C   UNL A   1      42.447  28.977  32.617  1.00  0.00     0.074 A 
ATOM     59  C   UNL A   1      42.959  27.847  31.869  1.00  0.00     0.031 C 
ATOM     60  C   UNL A   1      42.947  29.391  33.807  1.00  0.00     0.031 A 
BRANCH  47  61
ATOM     61  C   UNL A   1      40.107  34.354  36.147  1.00  0.00    -0.014 A 
ATOM     62  C   UNL A   1      39.320  34.152  37.292  1.00  0.00     0.009 A 
ATOM     63  C   UNL A   1      40.850  35.539  36.035  1.00  0.00     0.009 A 
ATOM     64  C   UNL A   1      39.248  35.131  38.285  1.00  0.00     0.001 A 
ATOM     65  C   UNL A   1      40.800  36.504  37.043  1.00  0.00     0.001 A 
ATOM     66  C   UNL A   1      39.991  36.304  38.161  1.00  0.00     0.000 A 
ENDBRANCH  47  61
BRANCH  48  67
ATOM     67  C   UNL A   1      40.386  27.896  28.534  1.00  0.00    -0.014 A 
ATOM     68  C   UNL A   1      39.729  26.657  28.611  1.00  0.00     0.009 A 
ATOM     69  C   UNL A   1      41.106  28.209  27.371  1.00  0.00     0.009 A 
ATOM     70  C   UNL A   1      39.815  25.744  27.560  1.00  0.00     0.001 A 
ATOM     71  C   UNL A   1      41.167  27.305  26.309  1.00  0.00     0.001 A 
ATOM     72  C   UNL A   1      40.530  26.069  26.407  1.00  0.00     0.000 A 
ENDBRANCH  48  67
BRANCH  60  73
ATOM     73  C   UNL A   1      44.083  28.597  34.387  1.00  0.00    -0.014 A 
ATOM     74  C   UNL A   1      43.848  27.480  35.204  1.00  0.00     0.009 A 
ATOM     75  C   UNL A   1      45.405  28.949  34.076  1.00  0.00     0.009 A 
ATOM     76  C   UNL A   1      44.919  26.751  35.724  1.00  0.00     0.001 A 
ATOM     77  C   UNL A   1      46.472  28.202  34.573  1.00  0.00     0.001 A 
ATOM     78  C   UNL A   1      46.229  27.110  35.405  1.00  0.00     0.000 A 
ENDBRANCH  60  73
ENDBRANCH  34  35
ENDBRANCH  26  29
ENDBRANCH  24  25
ENDBRANCH  23  24
ENDBRANCH  22  23
ENDBRANCH   1  22
TORSDOF 16
ENDMDL
MODEL 3
REMARK VINA RESULT:      -8.2      4.286      9.670
REMARK SMILES C[NH2+]CCCC(=O)N[C@H]1C=C[C@@H](C(=O)NCCCCNC(=O)c2ccc(-c3c4nc(c(-c5ccccc5)c5ccc([nH]5)c(-c5ccccc5)c5nc(c(-c6ccccc6)c6ccc3[nH]6)C=C5)C=C4)cc2)C1
REMARK SMILES IDX 16 1 15 2 13 3 14 4 12 6 9 7 10 8 71 9 11 10 8 11 6 12 7 13
REMARK SMILES IDX 5 15 4 16 3 17 2 18 1 19 17 22 18 23 19 24 20 25 21 26 22 28
REMARK SMILES IDX 23 29 24 30 70 31 25 32 69 33 26 34 27 35 28 36 63 37 29 38
REMARK SMILES IDX 68 39 62 40 64 41 30 42 67 43 61 44 60 45 31 47 53 48 38 49
REMARK SMILES IDX 52 50 39 51 42 52 51 53 65 54 40 55 41 56 50 58 66 59 43 60
REMARK SMILES IDX 32 61 33 62 37 63 34 64 36 65 35 66 54 67 55 68 59 69 56 70
REMARK SMILES IDX 58 71 57 72 44 73 45 74 49 75 46 76 48 77 47 78
REMARK H PARENT 15 5 8 14 2 20 2 21 20 27 64 46 42 57
REMARK Flexibility Score: inf
ROOT
ATOM      1  C   UNL A   1      35.210  20.340  25.069  1.00  0.00     0.116 C 
ENDROOT
BRANCH   1   2
ATOM      2  N   UNL A   1      34.976  21.152  26.245  1.00  0.00    -0.356 N 
ATOM      3  C   UNL A   1      34.324  22.341  26.382  1.00  0.00     0.227 C 
ATOM      4  O   UNL A   1      34.232  22.812  27.519  1.00  0.00    -0.274 OA
ATOM      5  H   UNL A   1      35.349  20.787  27.081  1.00  0.00     0.163 HD
BRANCH   3   6
ATOM      6  C   UNL A   1      33.722  23.081  25.190  1.00  0.00     0.103 C 
ATOM      7  C   UNL A   1      32.682  25.250  24.807  1.00  0.00     0.106 C 
ATOM      8  C   UNL A   1      34.109  25.248  24.378  1.00  0.00    -0.006 C 
ATOM      9  C   UNL A   1      32.487  23.922  25.534  1.00  0.00     0.047 C 
ATOM     10  C   UNL A   1      34.676  24.052  24.558  1.00  0.00    -0.016 C 
BRANCH   7  11
ATOM     11  N   UNL A   1      32.424  26.428  25.592  1.00  0.00    -0.350 N 
ATOM     12  C   UNL A   1      31.515  27.414  25.349  1.00  0.00     0.220 C 
ATOM     13  O   UNL A   1      31.532  28.419  26.063  1.00  0.00    -0.275 OA
ATOM     14  H   UNL A   1      32.970  26.533  26.405  1.00  0.00     0.164 HD
BRANCH  12  15
ATOM     15  C   UNL A   1      30.489  27.256  24.241  1.00  0.00     0.106 C 
BRANCH  15  16
ATOM     16  C   UNL A   1      30.117  28.559  23.523  1.00  0.00     0.071 C 
BRANCH  16  17
ATOM     17  C   UNL A   1      31.114  29.105  22.491  1.00  0.00     0.260 C 
BRANCH  17  18
ATOM     18  N   UNL A   1      30.605  30.181  21.637  1.00  0.00    -0.349 N 
ATOM     19  C   UNL A   1      29.164  30.336  21.689  1.00  0.00     0.330 C 
ATOM     20  H   UNL A   1      31.035  31.058  21.932  1.00  0.00     0.346 HD
ATOM     21  H   UNL A   1      30.844  29.937  20.675  1.00  0.00     0.346 HD
ENDBRANCH  17  18
ENDBRANCH  16  17
ENDBRANCH  15  16
ENDBRANCH  12  15
ENDBRANCH   7  11
ENDBRANCH   3   6
ENDBRANCH   1   2
BRANCH   1  22
ATOM     22  C   UNL A   1      36.664  19.894  24.951  1.00  0.00     0.023 C 
BRANCH  22  23
ATOM     23  C   UNL A   1      37.650  21.033  24.726  1.00  0.00     0.023 C 
BRANCH  23  24
ATOM     24  C   UNL A   1      38.781  21.093  25.739  1.00  0.00     0.116 C 
BRANCH  24  25
ATOM     25  N   UNL A   1      39.674  19.944  25.679  1.00  0.00    -0.352 N 
ATOM     26  C   UNL A   1      41.003  19.891  26.029  1.00  0.00     0.251 C 
ATOM     27  H   UNL A   1      39.279  19.106  25.349  1.00  0.00     0.163 HD
ATOM     28  O   UNL A   1      41.669  18.884  25.839  1.00  0.00    -0.269 OA
BRANCH  26  29
ATOM     29  C   UNL A   1      41.618  21.102  26.600  1.00  0.00     0.039 A 
ATOM     30  C   UNL A   1      42.145  22.061  25.736  1.00  0.00     0.014 A 
ATOM     31  C   UNL A   1      41.574  21.322  27.979  1.00  0.00     0.014 A 
ATOM     32  C   UNL A   1      42.571  23.283  26.254  1.00  0.00     0.010 A 
ATOM     33  C   UNL A   1      41.919  22.569  28.480  1.00  0.00     0.010 A 
ATOM     34  C   UNL A   1      42.425  23.559  27.624  1.00  0.00    -0.014 A 
BRANCH  34  35
ATOM     35  C   UNL A   1      42.804  24.876  28.187  1.00  0.00     0.031 A 
ATOM     36  C   UNL A   1      41.752  25.928  28.397  1.00  0.00     0.074 A 
ATOM     37  C   UNL A   1      44.098  25.145  28.445  1.00  0.00     0.049 A 
ATOM     38  N   UNL A   1      41.889  27.156  28.823  1.00  0.00    -0.248 NA
ATOM     39  C   UNL A   1      40.368  25.561  28.051  1.00  0.00     0.031 C 
ATOM     40  C   UNL A   1      45.218  24.224  28.236  1.00  0.00     0.029 A 
ATOM     41  N   UNL A   1      44.690  26.281  28.936  1.00  0.00    -0.354 N 
ATOM     42  C   UNL A   1      40.617  27.712  28.779  1.00  0.00     0.074 A 
ATOM     43  C   UNL A   1      39.732  26.707  28.232  1.00  0.00     0.031 C 
ATOM     44  C   UNL A   1      46.356  24.820  28.626  1.00  0.00     0.029 A 
ATOM     45  C   UNL A   1      46.052  26.175  29.077  1.00  0.00     0.049 A 
ATOM     46  H   UNL A   1      44.187  27.095  29.164  1.00  0.00     0.167 HD
ATOM     47  C   UNL A   1      40.214  28.940  29.180  1.00  0.00     0.031 A 
ATOM     48  C   UNL A   1      46.954  27.070  29.521  1.00  0.00     0.031 A 
ATOM     49  C   UNL A   1      41.091  29.931  29.742  1.00  0.00     0.049 A 
ATOM     50  C   UNL A   1      46.482  28.427  29.963  1.00  0.00     0.074 A 
ATOM     51  C   UNL A   1      40.772  31.183  30.236  1.00  0.00     0.029 A 
ATOM     52  N   UNL A   1      42.461  29.779  29.884  1.00  0.00    -0.354 N 
ATOM     53  N   UNL A   1      45.264  28.912  29.984  1.00  0.00    -0.248 NA
ATOM     54  C   UNL A   1      47.510  29.354  30.458  1.00  0.00     0.031 C 
ATOM     55  C   UNL A   1      41.959  31.807  30.636  1.00  0.00     0.029 A 
ATOM     56  C   UNL A   1      43.006  30.923  30.439  1.00  0.00     0.049 A 
ATOM     57  H   UNL A   1      42.971  28.976  29.627  1.00  0.00     0.167 HD
ATOM     58  C   UNL A   1      45.375  30.189  30.516  1.00  0.00     0.074 A 
ATOM     59  C   UNL A   1      46.775  30.397  30.821  1.00  0.00     0.031 C 
ATOM     60  C   UNL A   1      44.403  31.109  30.735  1.00  0.00     0.031 A 
BRANCH  47  61
ATOM     61  C   UNL A   1      38.758  29.273  29.021  1.00  0.00    -0.014 A 
ATOM     62  C   UNL A   1      37.855  29.111  30.084  1.00  0.00     0.009 A 
ATOM     63  C   UNL A   1      38.285  29.774  27.799  1.00  0.00     0.009 A 
ATOM     64  C   UNL A   1      36.500  29.407  29.914  1.00  0.00     0.001 A 
ATOM     65  C   UNL A   1      36.936  30.098  27.641  1.00  0.00     0.001 A 
ATOM     66  C   UNL A   1      36.044  29.904  28.694  1.00  0.00     0.000 A 
ENDBRANCH  47  61
BRANCH  48  67
ATOM     67  C   UNL A   1      48.392  26.705  29.595  1.00  0.00    -0.014 A 
ATOM     68  C   UNL A   1      49.260  27.019  28.537  1.00  0.00     0.009 A 
ATOM     69  C   UNL A   1      48.906  26.036  30.716  1.00  0.00     0.009 A 
ATOM     70  C   UNL A   1      50.604  26.647  28.589  1.00  0.00     0.001 A 
ATOM     71  C   UNL A   1      50.257  25.689  30.778  1.00  0.00     0.001 A 
ATOM     72  C   UNL A   1      51.103  25.986  29.711  1.00  0.00     0.000 A 
ENDBRANCH  48  67
BRANCH  60  73
ATOM     73  C   UNL A   1      44.819  32.407  31.365  1.00  0.00    -0.014 A 
ATOM     74  C   UNL A   1      45.180  33.514  30.582  1.00  0.00     0.009 A 
ATOM     75  C   UNL A   1      44.807  32.535  32.763  1.00  0.00     0.009 A 
ATOM     76  C   UNL A   1      45.554  34.714  31.190  1.00  0.00     0.001 A 
ATOM     77  C   UNL A   1      45.153  33.744  33.367  1.00  0.00     0.001 A 
ATOM     78  C   UNL A   1      45.536  34.829  32.580  1.00  0.00     0.000 A 
ENDBRANCH  60  73
ENDBRANCH  34  35
ENDBRANCH  26  29
ENDBRANCH  24  25
ENDBRANCH  23  24
ENDBRANCH  22  23
ENDBRANCH   1  22
TORSDOF 16
ENDMDL
