MODEL 1
REMARK VINA RESULT:     -10.8      0.000      0.000
REMARK SMILES Cc1cc(C(=O)N[C@@H](Cc2ccccc2)C(=O)NCCCCNC(=O)c2ccc(-c3c4nc(c(-c5ccccc5)c5ccc([nH]5)c(-c5ccccc5)c5nc(c(-c6ccccc6)c6ccc3[nH]6)C=C5)C=C4)cc2)c(C)o1
REMARK SMILES IDX 20 1 19 2 18 3 16 4 17 5 8 7 7 8 5 9 6 10 4 12 1 13 2 14
REMARK SMILES IDX 3 15 76 16 74 17 75 18 9 19 10 20 11 21 15 22 12 23 14 24
REMARK SMILES IDX 13 25 21 26 22 27 23 28 24 29 25 31 26 32 27 33 73 34 28 35
REMARK SMILES IDX 72 36 29 37 30 38 31 39 66 40 32 41 71 42 65 43 67 44 33 45
REMARK SMILES IDX 70 46 64 47 63 48 34 50 56 51 41 52 55 53 42 54 45 55 54 56
REMARK SMILES IDX 68 57 43 58 44 59 53 61 69 62 46 63 35 64 36 65 40 66 37 67
REMARK SMILES IDX 39 68 38 69 57 70 58 71 62 72 59 73 61 74 60 75 47 76 48 77
REMARK SMILES IDX 52 78 49 79 51 80 50 81
REMARK H PARENT 18 6 7 11 23 30 67 49 45 60
REMARK Flexibility Score: inf
ROOT
ATOM      1  C   UNL A   1      35.610  21.701  26.223  1.00  0.00     0.023 C 
ENDROOT
BRANCH   1   2
ATOM      2  C   UNL A   1      34.413  21.489  27.135  1.00  0.00     0.116 C 
BRANCH   2   3
ATOM      3  N   UNL A   1      33.337  20.700  26.573  1.00  0.00    -0.354 N 
ATOM      4  C   UNL A   1      32.546  20.967  25.488  1.00  0.00     0.242 C 
ATOM      5  O   UNL A   1      31.984  20.001  24.956  1.00  0.00    -0.273 OA
ATOM      6  H   UNL A   1      33.146  19.853  27.038  1.00  0.00     0.163 HD
BRANCH   4   7
ATOM      7  C   UNL A   1      32.389  22.382  24.872  1.00  0.00     0.176 C 
BRANCH   7   8
ATOM      8  N   UNL A   1      33.289  22.589  23.738  1.00  0.00    -0.340 N 
ATOM      9  C   UNL A   1      34.081  23.634  23.343  1.00  0.00     0.255 C 
ATOM     10  O   UNL A   1      34.853  23.372  22.416  1.00  0.00    -0.269 OA
ATOM     11  H   UNL A   1      33.335  21.815  23.132  1.00  0.00     0.164 HD
BRANCH   9  12
ATOM     12  C   UNL A   1      33.984  24.981  23.902  1.00  0.00     0.081 A 
ATOM     13  C   UNL A   1      33.862  27.921  26.195  1.00  0.00     0.087 C 
ATOM     14  C   UNL A   1      33.895  26.853  25.176  1.00  0.00     0.101 A 
ATOM     15  C   UNL A   1      34.251  25.522  25.198  1.00  0.00     0.059 A 
ATOM     16  O   UNL A   1      33.513  27.205  23.926  1.00  0.00    -0.466 OA
ATOM     17  C   UNL A   1      33.592  26.090  23.149  1.00  0.00     0.113 A 
ATOM     18  C   UNL A   1      33.243  26.322  21.729  1.00  0.00     0.088 C 
ENDBRANCH   9  12
ENDBRANCH   7   8
BRANCH   7  19
ATOM     19  C   UNL A   1      30.938  22.858  24.646  1.00  0.00     0.070 C 
BRANCH  19  20
ATOM     20  C   UNL A   1      30.641  24.336  24.651  1.00  0.00    -0.045 A 
ATOM     21  C   UNL A   1      30.737  25.069  25.844  1.00  0.00     0.004 A 
ATOM     22  C   UNL A   1      30.270  25.006  23.476  1.00  0.00     0.004 A 
ATOM     23  C   UNL A   1      30.418  26.427  25.873  1.00  0.00     0.000 A 
ATOM     24  C   UNL A   1      29.928  26.360  23.511  1.00  0.00     0.000 A 
ATOM     25  C   UNL A   1      29.995  27.069  24.710  1.00  0.00     0.000 A 
ENDBRANCH  19  20
ENDBRANCH   7  19
ENDBRANCH   4   7
ENDBRANCH   2   3
ENDBRANCH   1   2
BRANCH   1  26
ATOM     26  C   UNL A   1      36.264  23.076  26.293  1.00  0.00     0.023 C 
BRANCH  26  27
ATOM     27  C   UNL A   1      37.348  23.374  25.259  1.00  0.00     0.116 C 
BRANCH  27  28
ATOM     28  N   UNL A   1      38.566  22.591  25.407  1.00  0.00    -0.352 N 
ATOM     29  C   UNL A   1      39.726  22.905  26.080  1.00  0.00     0.251 C 
ATOM     30  H   UNL A   1      38.560  21.712  24.962  1.00  0.00     0.163 HD
ATOM     31  O   UNL A   1      40.669  22.125  26.084  1.00  0.00    -0.269 OA
BRANCH  29  32
ATOM     32  C   UNL A   1      39.846  24.212  26.767  1.00  0.00     0.039 A 
ATOM     33  C   UNL A   1      39.304  24.353  28.048  1.00  0.00     0.014 A 
ATOM     34  C   UNL A   1      40.512  25.284  26.168  1.00  0.00     0.014 A 
ATOM     35  C   UNL A   1      39.499  25.542  28.756  1.00  0.00     0.010 A 
ATOM     36  C   UNL A   1      40.775  26.436  26.905  1.00  0.00     0.010 A 
ATOM     37  C   UNL A   1      40.270  26.580  28.206  1.00  0.00    -0.014 A 
BRANCH  37  38
ATOM     38  C   UNL A   1      40.549  27.821  28.973  1.00  0.00     0.031 A 
ATOM     39  C   UNL A   1      41.853  27.981  29.708  1.00  0.00     0.074 A 
ATOM     40  C   UNL A   1      39.607  28.781  29.061  1.00  0.00     0.049 A 
ATOM     41  N   UNL A   1      42.266  28.980  30.448  1.00  0.00    -0.248 NA
ATOM     42  C   UNL A   1      42.804  26.862  29.627  1.00  0.00     0.031 C 
ATOM     43  C   UNL A   1      38.275  28.726  28.456  1.00  0.00     0.029 A 
ATOM     44  N   UNL A   1      39.629  29.996  29.702  1.00  0.00    -0.354 N 
ATOM     45  C   UNL A   1      43.509  28.598  30.938  1.00  0.00     0.074 A 
ATOM     46  C   UNL A   1      43.762  27.259  30.452  1.00  0.00     0.031 C 
ATOM     47  C   UNL A   1      37.620  29.867  28.727  1.00  0.00     0.029 A 
ATOM     48  C   UNL A   1      38.475  30.724  29.544  1.00  0.00     0.049 A 
ATOM     49  H   UNL A   1      40.399  30.315  30.226  1.00  0.00     0.167 HD
ATOM     50  C   UNL A   1      44.375  29.303  31.703  1.00  0.00     0.031 A 
ATOM     51  C   UNL A   1      38.145  31.948  29.994  1.00  0.00     0.031 A 
ATOM     52  C   UNL A   1      44.144  30.646  32.162  1.00  0.00     0.049 A 
ATOM     53  C   UNL A   1      39.147  32.734  30.794  1.00  0.00     0.074 A 
ATOM     54  C   UNL A   1      44.990  31.466  32.888  1.00  0.00     0.029 A 
ATOM     55  N   UNL A   1      42.985  31.368  31.931  1.00  0.00    -0.354 N 
ATOM     56  N   UNL A   1      40.351  32.387  31.179  1.00  0.00    -0.248 NA
ATOM     57  C   UNL A   1      38.752  34.091  31.198  1.00  0.00     0.031 C 
ATOM     58  C   UNL A   1      44.329  32.678  33.122  1.00  0.00     0.029 A 
ATOM     59  C   UNL A   1      43.090  32.624  32.504  1.00  0.00     0.049 A 
ATOM     60  H   UNL A   1      42.202  31.037  31.433  1.00  0.00     0.167 HD
ATOM     61  C   UNL A   1      40.868  33.493  31.841  1.00  0.00     0.074 A 
ATOM     62  C   UNL A   1      39.854  34.526  31.791  1.00  0.00     0.031 C 
ATOM     63  C   UNL A   1      42.077  33.642  32.437  1.00  0.00     0.031 A 
BRANCH  50  64
ATOM     64  C   UNL A   1      45.662  28.628  32.084  1.00  0.00    -0.014 A 
ATOM     65  C   UNL A   1      45.757  27.854  33.252  1.00  0.00     0.009 A 
ATOM     66  C   UNL A   1      46.786  28.744  31.252  1.00  0.00     0.009 A 
ATOM     67  C   UNL A   1      46.963  27.242  33.599  1.00  0.00     0.001 A 
ATOM     68  C   UNL A   1      47.983  28.108  31.587  1.00  0.00     0.001 A 
ATOM     69  C   UNL A   1      48.073  27.365  32.763  1.00  0.00     0.000 A 
ENDBRANCH  50  64
BRANCH  51  70
ATOM     70  C   UNL A   1      36.821  32.537  29.665  1.00  0.00    -0.014 A 
ATOM     71  C   UNL A   1      36.623  33.200  28.444  1.00  0.00     0.009 A 
ATOM     72  C   UNL A   1      35.758  32.460  30.576  1.00  0.00     0.009 A 
ATOM     73  C   UNL A   1      35.397  33.805  28.157  1.00  0.00     0.001 A 
ATOM     74  C   UNL A   1      34.525  33.042  30.275  1.00  0.00     0.001 A 
ATOM     75  C   UNL A   1      34.349  33.724  29.071  1.00  0.00     0.000 A 
ENDBRANCH  51  70
BRANCH  63  76
ATOM     76  C   UNL A   1      42.381  34.983  33.040  1.00  0.00    -0.014 A 
ATOM     77  C   UNL A   1      41.881  35.348  34.299  1.00  0.00     0.009 A 
ATOM     78  C   UNL A   1      43.202  35.883  32.344  1.00  0.00     0.009 A 
ATOM     79  C   UNL A   1      42.164  36.607  34.831  1.00  0.00     0.001 A 
ATOM     80  C   UNL A   1      43.506  37.131  32.890  1.00  0.00     0.001 A 
ATOM     81  C   UNL A   1      42.979  37.496  34.128  1.00  0.00     0.000 A 
ENDBRANCH  63  76
ENDBRANCH  37  38
ENDBRANCH  29  32
ENDBRANCH  27  28
ENDBRANCH  26  27
ENDBRANCH   1  26
TORSDOF 15
ENDMDL
MODEL 2
REMARK VINA RESULT:     -10.7      2.499      7.581
REMARK SMILES Cc1cc(C(=O)N[C@@H](Cc2ccccc2)C(=O)NCCCCNC(=O)c2ccc(-c3c4nc(c(-c5ccccc5)c5ccc([nH]5)c(-c5ccccc5)c5nc(c(-c6ccccc6)c6ccc3[nH]6)C=C5)C=C4)cc2)c(C)o1
REMARK SMILES IDX 20 1 19 2 18 3 16 4 17 5 8 7 7 8 5 9 6 10 4 12 1 13 2 14
REMARK SMILES IDX 3 15 76 16 74 17 75 18 9 19 10 20 11 21 15 22 12 23 14 24
REMARK SMILES IDX 13 25 21 26 22 27 23 28 24 29 25 31 26 32 27 33 73 34 28 35
REMARK SMILES IDX 72 36 29 37 30 38 31 39 66 40 32 41 71 42 65 43 67 44 33 45
REMARK SMILES IDX 70 46 64 47 63 48 34 50 56 51 41 52 55 53 42 54 45 55 54 56
REMARK SMILES IDX 68 57 43 58 44 59 53 61 69 62 46 63 35 64 36 65 40 66 37 67
REMARK SMILES IDX 39 68 38 69 57 70 58 71 62 72 59 73 61 74 60 75 47 76 48 77
REMARK SMILES IDX 52 78 49 79 51 80 50 81
REMARK H PARENT 18 6 7 11 23 30 67 49 45 60
REMARK Flexibility Score: inf
ROOT
ATOM      1  C   UNL A   1      33.312  28.753  24.244  1.00  0.00     0.023 C 
ENDROOT
BRANCH   1   2
ATOM      2  C   UNL A   1      32.362  28.199  23.194  1.00  0.00     0.116 C 
BRANCH   2   3
ATOM      3  N   UNL A   1      32.988  27.459  22.119  1.00  0.00    -0.354 N 
ATOM      4  C   UNL A   1      32.993  26.110  21.888  1.00  0.00     0.242 C 
ATOM      5  O   UNL A   1      33.232  25.743  20.730  1.00  0.00    -0.273 OA
ATOM      6  H   UNL A   1      33.482  28.003  21.463  1.00  0.00     0.163 HD
BRANCH   4   7
ATOM      7  C   UNL A   1      32.648  25.055  22.972  1.00  0.00     0.176 C 
BRANCH   7   8
ATOM      8  N   UNL A   1      31.451  25.417  23.729  1.00  0.00    -0.340 N 
ATOM      9  C   UNL A   1      31.079  25.254  25.036  1.00  0.00     0.255 C 
ATOM     10  O   UNL A   1      30.054  25.862  25.358  1.00  0.00    -0.269 OA
ATOM     11  H   UNL A   1      30.771  25.874  23.184  1.00  0.00     0.164 HD
BRANCH   9  12
ATOM     12  C   UNL A   1      31.775  24.375  25.974  1.00  0.00     0.081 A 
ATOM     13  C   UNL A   1      34.363  22.536  27.931  1.00  0.00     0.087 C 
ATOM     14  C   UNL A   1      33.238  23.193  27.238  1.00  0.00     0.101 A 
ATOM     15  C   UNL A   1      33.139  24.274  26.390  1.00  0.00     0.059 A 
ATOM     16  O   UNL A   1      32.010  22.668  27.456  1.00  0.00    -0.466 OA
ATOM     17  C   UNL A   1      31.122  23.392  26.722  1.00  0.00     0.113 A 
ATOM     18  C   UNL A   1      29.714  22.963  26.887  1.00  0.00     0.088 C 
ENDBRANCH   9  12
ENDBRANCH   7   8
BRANCH   7  19
ATOM     19  C   UNL A   1      32.708  23.581  22.516  1.00  0.00     0.070 C 
BRANCH  19  20
ATOM     20  C   UNL A   1      33.464  22.583  23.357  1.00  0.00    -0.045 A 
ATOM     21  C   UNL A   1      34.832  22.772  23.613  1.00  0.00     0.004 A 
ATOM     22  C   UNL A   1      32.825  21.458  23.898  1.00  0.00     0.004 A 
ATOM     23  C   UNL A   1      35.554  21.831  24.348  1.00  0.00     0.000 A 
ATOM     24  C   UNL A   1      33.556  20.506  24.613  1.00  0.00     0.000 A 
ATOM     25  C   UNL A   1      34.921  20.688  24.832  1.00  0.00     0.000 A 
ENDBRANCH  19  20
ENDBRANCH   7  19
ENDBRANCH   4   7
ENDBRANCH   2   3
ENDBRANCH   1   2
BRANCH   1  26
ATOM     26  C   UNL A   1      33.892  27.734  25.219  1.00  0.00     0.023 C 
BRANCH  26  27
ATOM     27  C   UNL A   1      33.852  28.103  26.700  1.00  0.00     0.116 C 
BRANCH  27  28
ATOM     28  N   UNL A   1      33.506  29.489  26.976  1.00  0.00    -0.352 N 
ATOM     29  C   UNL A   1      34.260  30.470  27.582  1.00  0.00     0.251 C 
ATOM     30  H   UNL A   1      32.605  29.765  26.688  1.00  0.00     0.163 HD
ATOM     31  O   UNL A   1      33.796  31.591  27.750  1.00  0.00    -0.269 OA
BRANCH  29  32
ATOM     32  C   UNL A   1      35.623  30.155  28.069  1.00  0.00     0.039 A 
ATOM     33  C   UNL A   1      35.781  29.693  29.379  1.00  0.00     0.014 A 
ATOM     34  C   UNL A   1      36.736  30.286  27.235  1.00  0.00     0.014 A 
ATOM     35  C   UNL A   1      37.042  29.289  29.824  1.00  0.00     0.010 A 
ATOM     36  C   UNL A   1      37.975  29.807  27.652  1.00  0.00     0.010 A 
ATOM     37  C   UNL A   1      38.143  29.306  28.952  1.00  0.00    -0.014 A 
BRANCH  37  38
ATOM     38  C   UNL A   1      39.476  28.811  29.386  1.00  0.00     0.031 A 
ATOM     39  C   UNL A   1      40.331  29.642  30.303  1.00  0.00     0.074 A 
ATOM     40  C   UNL A   1      39.945  27.641  28.908  1.00  0.00     0.049 A 
ATOM     41  N   UNL A   1      41.529  29.389  30.771  1.00  0.00    -0.248 NA
ATOM     42  C   UNL A   1      39.785  30.942  30.727  1.00  0.00     0.031 C 
ATOM     43  C   UNL A   1      39.250  26.768  27.959  1.00  0.00     0.029 A 
ATOM     44  N   UNL A   1      41.126  26.986  29.156  1.00  0.00    -0.354 N 
ATOM     45  C   UNL A   1      41.886  30.504  31.519  1.00  0.00     0.074 A 
ATOM     46  C   UNL A   1      40.802  31.455  31.404  1.00  0.00     0.031 C 
ATOM     47  C   UNL A   1      40.002  25.679  27.731  1.00  0.00     0.029 A 
ATOM     48  C   UNL A   1      41.241  25.787  28.496  1.00  0.00     0.049 A 
ATOM     49  H   UNL A   1      41.826  27.342  29.750  1.00  0.00     0.167 HD
ATOM     50  C   UNL A   1      43.003  30.712  32.255  1.00  0.00     0.031 A 
ATOM     51  C   UNL A   1      42.226  24.870  28.514  1.00  0.00     0.031 A 
ATOM     52  C   UNL A   1      44.069  29.759  32.399  1.00  0.00     0.049 A 
ATOM     53  C   UNL A   1      43.430  25.099  29.384  1.00  0.00     0.074 A 
ATOM     54  C   UNL A   1      45.212  29.853  33.175  1.00  0.00     0.029 A 
ATOM     55  N   UNL A   1      44.119  28.532  31.758  1.00  0.00    -0.354 N 
ATOM     56  N   UNL A   1      43.713  26.125  30.150  1.00  0.00    -0.248 NA
ATOM     57  C   UNL A   1      44.439  24.030  29.413  1.00  0.00     0.031 C 
ATOM     58  C   UNL A   1      45.968  28.692  32.980  1.00  0.00     0.029 A 
ATOM     59  C   UNL A   1      45.275  27.860  32.116  1.00  0.00     0.049 A 
ATOM     60  H   UNL A   1      43.434  28.189  31.139  1.00  0.00     0.167 HD
ATOM     61  C   UNL A   1      44.913  25.810  30.774  1.00  0.00     0.074 A 
ATOM     62  C   UNL A   1      45.296  24.493  30.310  1.00  0.00     0.031 C 
ATOM     63  C   UNL A   1      45.635  26.546  31.654  1.00  0.00     0.031 A 
BRANCH  50  64
ATOM     64  C   UNL A   1      43.119  32.029  32.970  1.00  0.00    -0.014 A 
ATOM     65  C   UNL A   1      43.613  33.169  32.314  1.00  0.00     0.009 A 
ATOM     66  C   UNL A   1      42.705  32.139  34.306  1.00  0.00     0.009 A 
ATOM     67  C   UNL A   1      43.725  34.383  32.995  1.00  0.00     0.001 A 
ATOM     68  C   UNL A   1      42.793  33.361  34.975  1.00  0.00     0.001 A 
ATOM     69  C   UNL A   1      43.311  34.478  34.323  1.00  0.00     0.000 A 
ENDBRANCH  50  64
BRANCH  51  70
ATOM     70  C   UNL A   1      42.104  23.622  27.716  1.00  0.00    -0.014 A 
ATOM     71  C   UNL A   1      41.482  22.489  28.263  1.00  0.00     0.009 A 
ATOM     72  C   UNL A   1      42.628  23.549  26.418  1.00  0.00     0.009 A 
ATOM     73  C   UNL A   1      41.416  21.298  27.538  1.00  0.00     0.001 A 
ATOM     74  C   UNL A   1      42.537  22.364  25.684  1.00  0.00     0.001 A 
ATOM     75  C   UNL A   1      41.942  21.236  26.250  1.00  0.00     0.000 A 
ENDBRANCH  51  70
BRANCH  63  76
ATOM     76  C   UNL A   1      46.884  25.921  32.205  1.00  0.00    -0.014 A 
ATOM     77  C   UNL A   1      48.121  26.072  31.561  1.00  0.00     0.009 A 
ATOM     78  C   UNL A   1      46.822  25.191  33.402  1.00  0.00     0.009 A 
ATOM     79  C   UNL A   1      49.266  25.467  32.084  1.00  0.00     0.001 A 
ATOM     80  C   UNL A   1      47.972  24.610  33.936  1.00  0.00     0.001 A 
ATOM     81  C   UNL A   1      49.191  24.740  33.272  1.00  0.00     0.000 A 
ENDBRANCH  63  76
ENDBRANCH  37  38
ENDBRANCH  29  32
ENDBRANCH  27  28
ENDBRANCH  26  27
ENDBRANCH   1  26
TORSDOF 15
ENDMDL
MODEL 3
REMARK VINA RESULT:     -10.7      2.294      7.300
REMARK SMILES Cc1cc(C(=O)N[C@@H](Cc2ccccc2)C(=O)NCCCCNC(=O)c2ccc(-c3c4nc(c(-c5ccccc5)c5ccc([nH]5)c(-c5ccccc5)c5nc(c(-c6ccccc6)c6ccc3[nH]6)C=C5)C=C4)cc2)c(C)o1
REMARK SMILES IDX 20 1 19 2 18 3 16 4 17 5 8 7 7 8 5 9 6 10 4 12 1 13 2 14
REMARK SMILES IDX 3 15 76 16 74 17 75 18 9 19 10 20 11 21 15 22 12 23 14 24
REMARK SMILES IDX 13 25 21 26 22 27 23 28 24 29 25 31 26 32 27 33 73 34 28 35
REMARK SMILES IDX 72 36 29 37 30 38 31 39 66 40 32 41 71 42 65 43 67 44 33 45
REMARK SMILES IDX 70 46 64 47 63 48 34 50 56 51 41 52 55 53 42 54 45 55 54 56
REMARK SMILES IDX 68 57 43 58 44 59 53 61 69 62 46 63 35 64 36 65 40 66 37 67
REMARK SMILES IDX 39 68 38 69 57 70 58 71 62 72 59 73 61 74 60 75 47 76 48 77
REMARK SMILES IDX 52 78 49 79 51 80 50 81
REMARK H PARENT 18 6 7 11 23 30 67 49 45 60
REMARK Flexibility Score: inf
ROOT
ATOM      1  C   UNL A   1      32.364  29.977  27.072  1.00  0.00     0.023 C 
ENDROOT
BRANCH   1   2
ATOM      2  C   UNL A   1      31.912  29.030  25.971  1.00  0.00     0.116 C 
BRANCH   2   3
ATOM      3  N   UNL A   1      32.151  29.492  24.620  1.00  0.00    -0.354 N 
ATOM      4  C   UNL A   1      32.405  28.763  23.490  1.00  0.00     0.242 C 
ATOM      5  O   UNL A   1      32.178  29.314  22.406  1.00  0.00    -0.273 OA
ATOM      6  H   UNL A   1      32.129  30.469  24.497  1.00  0.00     0.163 HD
BRANCH   4   7
ATOM      7  C   UNL A   1      32.883  27.287  23.515  1.00  0.00     0.176 C 
BRANCH   7   8
ATOM      8  N   UNL A   1      33.129  26.768  22.171  1.00  0.00    -0.340 N 
ATOM      9  C   UNL A   1      32.936  25.546  21.583  1.00  0.00     0.255 C 
ATOM     10  O   UNL A   1      33.094  25.534  20.359  1.00  0.00    -0.269 OA
ATOM     11  H   UNL A   1      33.515  27.436  21.560  1.00  0.00     0.164 HD
BRANCH   9  12
ATOM     12  C   UNL A   1      32.643  24.324  22.330  1.00  0.00     0.081 A 
ATOM     13  C   UNL A   1      32.731  20.886  23.775  1.00  0.00     0.087 C 
ATOM     14  C   UNL A   1      32.575  22.270  23.285  1.00  0.00     0.101 A 
ATOM     15  C   UNL A   1      33.393  23.135  22.592  1.00  0.00     0.059 A 
ATOM     16  O   UNL A   1      31.396  22.874  23.558  1.00  0.00    -0.466 OA
ATOM     17  C   UNL A   1      31.441  24.119  23.011  1.00  0.00     0.113 A 
ATOM     18  C   UNL A   1      30.227  24.930  23.262  1.00  0.00     0.088 C 
ENDBRANCH   9  12
ENDBRANCH   7   8
BRANCH   7  19
ATOM     19  C   UNL A   1      33.978  26.954  24.551  1.00  0.00     0.070 C 
BRANCH  19  20
ATOM     20  C   UNL A   1      33.889  25.662  25.325  1.00  0.00    -0.045 A 
ATOM     21  C   UNL A   1      34.982  24.782  25.352  1.00  0.00     0.004 A 
ATOM     22  C   UNL A   1      32.726  25.317  26.029  1.00  0.00     0.004 A 
ATOM     23  C   UNL A   1      34.896  23.561  26.023  1.00  0.00     0.000 A 
ATOM     24  C   UNL A   1      32.634  24.084  26.680  1.00  0.00     0.000 A 
ATOM     25  C   UNL A   1      33.715  23.203  26.671  1.00  0.00     0.000 A 
ENDBRANCH  19  20
ENDBRANCH   7  19
ENDBRANCH   4   7
ENDBRANCH   2   3
ENDBRANCH   1   2
BRANCH   1  26
ATOM     26  C   UNL A   1      31.633  31.313  27.142  1.00  0.00     0.023 C 
BRANCH  26  27
ATOM     27  C   UNL A   1      32.355  32.520  26.548  1.00  0.00     0.116 C 
BRANCH  27  28
ATOM     28  N   UNL A   1      32.171  33.764  27.281  1.00  0.00    -0.352 N 
ATOM     29  C   UNL A   1      32.976  34.335  28.242  1.00  0.00     0.251 C 
ATOM     30  H   UNL A   1      31.355  34.270  27.057  1.00  0.00     0.163 HD
ATOM     31  O   UNL A   1      32.652  35.390  28.773  1.00  0.00    -0.269 OA
BRANCH  29  32
ATOM     32  C   UNL A   1      34.217  33.647  28.665  1.00  0.00     0.039 A 
ATOM     33  C   UNL A   1      35.419  33.972  28.031  1.00  0.00     0.014 A 
ATOM     34  C   UNL A   1      34.204  32.707  29.699  1.00  0.00     0.014 A 
ATOM     35  C   UNL A   1      36.617  33.414  28.485  1.00  0.00     0.010 A 
ATOM     36  C   UNL A   1      35.406  32.215  30.203  1.00  0.00     0.010 A 
ATOM     37  C   UNL A   1      36.625  32.561  29.601  1.00  0.00    -0.014 A 
BRANCH  37  38
ATOM     38  C   UNL A   1      37.897  32.016  30.144  1.00  0.00     0.031 A 
ATOM     39  C   UNL A   1      38.463  30.731  29.603  1.00  0.00     0.074 A 
ATOM     40  C   UNL A   1      38.514  32.645  31.164  1.00  0.00     0.049 A 
ATOM     41  N   UNL A   1      39.546  30.089  29.965  1.00  0.00    -0.248 NA
ATOM     42  C   UNL A   1      37.698  30.062  28.540  1.00  0.00     0.031 C 
ATOM     43  C   UNL A   1      38.039  33.861  31.828  1.00  0.00     0.029 A 
ATOM     44  N   UNL A   1      39.678  32.341  31.825  1.00  0.00    -0.354 N 
ATOM     45  C   UNL A   1      39.576  28.934  29.194  1.00  0.00     0.074 A 
ATOM     46  C   UNL A   1      38.381  28.938  28.380  1.00  0.00     0.031 C 
ATOM     47  C   UNL A   1      38.919  34.216  32.779  1.00  0.00     0.029 A 
ATOM     48  C   UNL A   1      40.006  33.242  32.809  1.00  0.00     0.049 A 
ATOM     49  H   UNL A   1      40.227  31.550  31.615  1.00  0.00     0.167 HD
ATOM     50  C   UNL A   1      40.523  27.967  29.147  1.00  0.00     0.031 A 
ATOM     51  C   UNL A   1      41.069  33.288  33.633  1.00  0.00     0.031 A 
ATOM     52  C   UNL A   1      41.729  27.974  29.929  1.00  0.00     0.049 A 
ATOM     53  C   UNL A   1      42.135  32.233  33.521  1.00  0.00     0.074 A 
ATOM     54  C   UNL A   1      42.779  27.072  29.904  1.00  0.00     0.029 A 
ATOM     55  N   UNL A   1      42.050  28.937  30.872  1.00  0.00    -0.354 N 
ATOM     56  N   UNL A   1      42.186  31.191  32.727  1.00  0.00    -0.248 NA
ATOM     57  C   UNL A   1      43.303  32.378  34.402  1.00  0.00     0.031 C 
ATOM     58  C   UNL A   1      43.723  27.474  30.855  1.00  0.00     0.029 A 
ATOM     59  C   UNL A   1      43.279  28.649  31.441  1.00  0.00     0.049 A 
ATOM     60  H   UNL A   1      41.486  29.710  31.105  1.00  0.00     0.167 HD
ATOM     61  C   UNL A   1      43.403  30.576  32.990  1.00  0.00     0.074 A 
ATOM     62  C   UNL A   1      44.065  31.370  34.005  1.00  0.00     0.031 C 
ATOM     63  C   UNL A   1      43.928  29.454  32.440  1.00  0.00     0.031 A 
BRANCH  50  64
ATOM     64  C   UNL A   1      40.289  26.821  28.204  1.00  0.00    -0.014 A 
ATOM     65  C   UNL A   1      39.546  25.697  28.600  1.00  0.00     0.009 A 
ATOM     66  C   UNL A   1      40.792  26.877  26.896  1.00  0.00     0.009 A 
ATOM     67  C   UNL A   1      39.346  24.635  27.716  1.00  0.00     0.001 A 
ATOM     68  C   UNL A   1      40.566  25.826  26.005  1.00  0.00     0.001 A 
ATOM     69  C   UNL A   1      39.852  24.702  26.418  1.00  0.00     0.000 A 
ENDBRANCH  50  64
BRANCH  51  70
ATOM     70  C   UNL A   1      41.211  34.396  34.613  1.00  0.00    -0.014 A 
ATOM     71  C   UNL A   1      40.672  34.274  35.904  1.00  0.00     0.009 A 
ATOM     72  C   UNL A   1      41.861  35.586  34.258  1.00  0.00     0.009 A 
ATOM     73  C   UNL A   1      40.752  35.335  36.808  1.00  0.00     0.001 A 
ATOM     74  C   UNL A   1      41.964  36.636  35.174  1.00  0.00     0.001 A 
ATOM     75  C   UNL A   1      41.399  36.514  36.443  1.00  0.00     0.000 A 
ENDBRANCH  51  70
BRANCH  63  76
ATOM     76  C   UNL A   1      45.301  29.048  32.892  1.00  0.00    -0.014 A 
ATOM     77  C   UNL A   1      45.485  28.178  33.977  1.00  0.00     0.009 A 
ATOM     78  C   UNL A   1      46.425  29.528  32.204  1.00  0.00     0.009 A 
ATOM     79  C   UNL A   1      46.772  27.829  34.389  1.00  0.00     0.001 A 
ATOM     80  C   UNL A   1      47.710  29.156  32.601  1.00  0.00     0.001 A 
ATOM     81  C   UNL A   1      47.883  28.315  33.699  1.00  0.00     0.000 A 
ENDBRANCH  63  76
ENDBRANCH  37  38
ENDBRANCH  29  32
ENDBRANCH  27  28
ENDBRANCH  26  27
ENDBRANCH   1  26
TORSDOF 15
ENDMDL
