MODEL 1
REMARK VINA RESULT:     -10.7      0.000      0.000
REMARK SMILES CCOc1cccc(OCC)c1-c1ccc([C@@H](C)C(=O)NCCCCNC(=O)c2ccc(-c3c4nc(c(-c5ccccc5)c5ccc([nH]5)c(-c5ccccc5)c5nc(c(-c6ccccc6)c6ccc3[nH]6)C=C5)C=C4)cc2)cc1F
REMARK SMILES IDX 22 1 21 2 19 3 20 4 17 6 18 7 16 8 13 9 14 10 78 11 15 12
REMARK SMILES IDX 77 13 79 14 12 15 4 16 5 17 6 18 8 19 7 20 3 21 2 22 1 23
REMARK SMILES IDX 9 24 10 25 11 26 23 27 24 28 25 29 26 30 27 31 28 33 29 34
REMARK SMILES IDX 30 35 76 36 31 37 75 38 32 39 33 40 34 41 69 42 35 43 74 44
REMARK SMILES IDX 68 45 70 46 36 47 73 48 67 49 66 50 37 52 59 53 44 54 58 55
REMARK SMILES IDX 45 56 48 57 57 58 71 59 46 60 47 61 56 63 72 64 49 65 38 66
REMARK SMILES IDX 39 67 43 68 40 69 42 70 41 71 60 72 61 73 65 74 62 75 64 76
REMARK SMILES IDX 63 77 50 78 51 79 55 80 52 81 54 82 53 83
REMARK H PARENT 21 5 26 32 70 51 48 62
REMARK Flexibility Score: inf
ROOT
ATOM      1  C   UNL A   1      35.174  32.559  27.739  1.00  0.00     0.116 C 
ENDROOT
BRANCH   1   2
ATOM      2  N   UNL A   1      35.524  31.149  27.784  1.00  0.00    -0.356 N 
ATOM      3  C   UNL A   1      34.928  30.011  27.327  1.00  0.00     0.227 C 
ATOM      4  O   UNL A   1      35.510  28.957  27.620  1.00  0.00    -0.274 OA
ATOM      5  H   UNL A   1      36.378  30.978  28.244  1.00  0.00     0.163 HD
BRANCH   3   6
ATOM      6  C   UNL A   1      33.622  29.948  26.501  1.00  0.00     0.105 C 
ATOM      7  C   UNL A   1      32.408  30.574  27.179  1.00  0.00     0.023 C 
BRANCH   6   8
ATOM      8  C   UNL A   1      33.359  28.581  25.895  1.00  0.00    -0.033 A 
ATOM      9  C   UNL A   1      33.176  25.895  24.965  1.00  0.00     0.025 A 
ATOM     10  C   UNL A   1      32.792  26.254  26.256  1.00  0.00     0.012 A 
ATOM     11  C   UNL A   1      33.628  26.928  24.129  1.00  0.00     0.131 A 
ATOM     12  C   UNL A   1      32.757  27.584  26.652  1.00  0.00     0.005 A 
ATOM     13  C   UNL A   1      33.767  28.243  24.599  1.00  0.00     0.044 A 
ATOM     14  F   UNL A   1      33.989  26.667  22.864  1.00  0.00    -0.206 F 
BRANCH   9  15
ATOM     15  C   UNL A   1      33.176  24.466  24.603  1.00  0.00     0.069 A 
ATOM     16  C   UNL A   1      34.403  23.756  24.746  1.00  0.00     0.130 A 
ATOM     17  C   UNL A   1      34.498  22.372  24.573  1.00  0.00     0.047 A 
ATOM     18  C   UNL A   1      33.359  21.644  24.280  1.00  0.00     0.008 A 
ATOM     19  C   UNL A   1      32.026  23.708  24.280  1.00  0.00     0.130 A 
ATOM     20  C   UNL A   1      32.144  22.309  24.131  1.00  0.00     0.047 A 
BRANCH  16  21
ATOM     21  O   UNL A   1      35.562  24.448  25.014  1.00  0.00    -0.493 OA
BRANCH  21  22
ATOM     22  C   UNL A   1      36.736  23.643  24.867  1.00  0.00     0.226 C 
ATOM     23  C   UNL A   1      37.567  23.777  26.134  1.00  0.00     0.049 C 
ENDBRANCH  21  22
ENDBRANCH  16  21
BRANCH  19  24
ATOM     24  O   UNL A   1      30.718  24.065  24.094  1.00  0.00    -0.493 OA
BRANCH  24  25
ATOM     25  C   UNL A   1      30.261  25.169  23.328  1.00  0.00     0.226 C 
ATOM     26  C   UNL A   1      29.645  26.200  24.267  1.00  0.00     0.049 C 
ENDBRANCH  24  25
ENDBRANCH  19  24
ENDBRANCH   9  15
ENDBRANCH   6   8
ENDBRANCH   3   6
ENDBRANCH   1   2
BRANCH   1  27
ATOM     27  C   UNL A   1      34.410  33.002  28.996  1.00  0.00     0.023 C 
BRANCH  27  28
ATOM     28  C   UNL A   1      33.399  34.122  28.809  1.00  0.00     0.023 C 
BRANCH  28  29
ATOM     29  C   UNL A   1      33.791  35.442  29.454  1.00  0.00     0.116 C 
BRANCH  29  30
ATOM     30  N   UNL A   1      32.767  36.027  30.312  1.00  0.00    -0.352 N 
ATOM     31  C   UNL A   1      32.685  35.951  31.687  1.00  0.00     0.251 C 
ATOM     32  H   UNL A   1      32.054  36.534  29.860  1.00  0.00     0.163 HD
ATOM     33  O   UNL A   1      31.750  36.452  32.300  1.00  0.00    -0.269 OA
BRANCH  31  34
ATOM     34  C   UNL A   1      33.732  35.192  32.400  1.00  0.00     0.039 A 
ATOM     35  C   UNL A   1      33.454  33.895  32.835  1.00  0.00     0.014 A 
ATOM     36  C   UNL A   1      35.023  35.715  32.486  1.00  0.00     0.014 A 
ATOM     37  C   UNL A   1      34.502  33.077  33.261  1.00  0.00     0.010 A 
ATOM     38  C   UNL A   1      36.072  34.875  32.827  1.00  0.00     0.010 A 
ATOM     39  C   UNL A   1      35.826  33.543  33.204  1.00  0.00    -0.014 A 
BRANCH  39  40
ATOM     40  C   UNL A   1      36.988  32.679  33.526  1.00  0.00     0.031 A 
ATOM     41  C   UNL A   1      37.737  32.908  34.809  1.00  0.00     0.074 A 
ATOM     42  C   UNL A   1      37.452  31.794  32.620  1.00  0.00     0.049 A 
ATOM     43  N   UNL A   1      38.898  32.440  35.184  1.00  0.00    -0.248 NA
ATOM     44  C   UNL A   1      37.115  33.827  35.777  1.00  0.00     0.031 C 
ATOM     45  C   UNL A   1      36.846  31.505  31.318  1.00  0.00     0.029 A 
ATOM     46  N   UNL A   1      38.567  30.992  32.650  1.00  0.00    -0.354 N 
ATOM     47  C   UNL A   1      39.171  33.051  36.401  1.00  0.00     0.074 A 
ATOM     48  C   UNL A   1      38.068  33.942  36.690  1.00  0.00     0.031 C 
ATOM     49  C   UNL A   1      37.590  30.586  30.680  1.00  0.00     0.029 A 
ATOM     50  C   UNL A   1      38.748  30.255  31.504  1.00  0.00     0.049 A 
ATOM     51  H   UNL A   1      39.179  30.949  33.420  1.00  0.00     0.167 HD
ATOM     52  C   UNL A   1      40.241  32.879  37.210  1.00  0.00     0.031 A 
ATOM     53  C   UNL A   1      39.746  29.423  31.149  1.00  0.00     0.031 A 
ATOM     54  C   UNL A   1      41.304  31.949  36.956  1.00  0.00     0.049 A 
ATOM     55  C   UNL A   1      40.896  29.207  32.095  1.00  0.00     0.074 A 
ATOM     56  C   UNL A   1      42.389  31.641  37.757  1.00  0.00     0.029 A 
ATOM     57  N   UNL A   1      41.405  31.164  35.818  1.00  0.00    -0.354 N 
ATOM     58  N   UNL A   1      41.114  29.755  33.266  1.00  0.00    -0.248 NA
ATOM     59  C   UNL A   1      41.934  28.255  31.673  1.00  0.00     0.031 C 
ATOM     60  C   UNL A   1      43.162  30.684  37.093  1.00  0.00     0.029 A 
ATOM     61  C   UNL A   1      42.538  30.374  35.895  1.00  0.00     0.049 A 
ATOM     62  H   UNL A   1      40.767  31.168  35.069  1.00  0.00     0.167 HD
ATOM     63  C   UNL A   1      42.294  29.190  33.732  1.00  0.00     0.074 A 
ATOM     64  C   UNL A   1      42.742  28.255  32.723  1.00  0.00     0.031 C 
ATOM     65  C   UNL A   1      42.948  29.428  34.893  1.00  0.00     0.031 A 
BRANCH  52  66
ATOM     66  C   UNL A   1      40.312  33.718  38.453  1.00  0.00    -0.014 A 
ATOM     67  C   UNL A   1      40.960  34.961  38.454  1.00  0.00     0.009 A 
ATOM     68  C   UNL A   1      39.686  33.272  39.627  1.00  0.00     0.009 A 
ATOM     69  C   UNL A   1      41.008  35.730  39.619  1.00  0.00     0.001 A 
ATOM     70  C   UNL A   1      39.713  34.054  40.783  1.00  0.00     0.001 A 
ATOM     71  C   UNL A   1      40.381  35.278  40.780  1.00  0.00     0.000 A 
ENDBRANCH  52  66
BRANCH  53  72
ATOM     72  C   UNL A   1      39.713  28.725  29.838  1.00  0.00    -0.014 A 
ATOM     73  C   UNL A   1      39.251  27.402  29.753  1.00  0.00     0.009 A 
ATOM     74  C   UNL A   1      40.167  29.362  28.674  1.00  0.00     0.009 A 
ATOM     75  C   UNL A   1      39.277  26.721  28.533  1.00  0.00     0.001 A 
ATOM     76  C   UNL A   1      40.166  28.687  27.451  1.00  0.00     0.001 A 
ATOM     77  C   UNL A   1      39.731  27.365  27.383  1.00  0.00     0.000 A 
ENDBRANCH  53  72
BRANCH  65  78
ATOM     78  C   UNL A   1      44.187  28.627  35.167  1.00  0.00    -0.014 A 
ATOM     79  C   UNL A   1      44.118  27.376  35.796  1.00  0.00     0.009 A 
ATOM     80  C   UNL A   1      45.428  29.103  34.718  1.00  0.00     0.009 A 
ATOM     81  C   UNL A   1      45.278  26.623  35.985  1.00  0.00     0.001 A 
ATOM     82  C   UNL A   1      46.582  28.338  34.889  1.00  0.00     0.001 A 
ATOM     83  C   UNL A   1      46.506  27.101  35.527  1.00  0.00     0.000 A 
ENDBRANCH  65  78
ENDBRANCH  39  40
ENDBRANCH  31  34
ENDBRANCH  29  30
ENDBRANCH  28  29
ENDBRANCH  27  28
ENDBRANCH   1  27
TORSDOF 17
ENDMDL
MODEL 2
REMARK VINA RESULT:     -10.5      5.081     10.097
REMARK SMILES CCOc1cccc(OCC)c1-c1ccc([C@@H](C)C(=O)NCCCCNC(=O)c2ccc(-c3c4nc(c(-c5ccccc5)c5ccc([nH]5)c(-c5ccccc5)c5nc(c(-c6ccccc6)c6ccc3[nH]6)C=C5)C=C4)cc2)cc1F
REMARK SMILES IDX 22 1 21 2 19 3 20 4 17 6 18 7 16 8 13 9 14 10 78 11 15 12
REMARK SMILES IDX 77 13 79 14 12 15 4 16 5 17 6 18 8 19 7 20 3 21 2 22 1 23
REMARK SMILES IDX 9 24 10 25 11 26 23 27 24 28 25 29 26 30 27 31 28 33 29 34
REMARK SMILES IDX 30 35 76 36 31 37 75 38 32 39 33 40 34 41 69 42 35 43 74 44
REMARK SMILES IDX 68 45 70 46 36 47 73 48 67 49 66 50 37 52 59 53 44 54 58 55
REMARK SMILES IDX 45 56 48 57 57 58 71 59 46 60 47 61 56 63 72 64 49 65 38 66
REMARK SMILES IDX 39 67 43 68 40 69 42 70 41 71 60 72 61 73 65 74 62 75 64 76
REMARK SMILES IDX 63 77 50 78 51 79 55 80 52 81 54 82 53 83
REMARK H PARENT 21 5 26 32 70 51 48 62
REMARK Flexibility Score: inf
ROOT
ATOM      1  C   UNL A   1      37.914  23.745  26.112  1.00  0.00     0.116 C 
ENDROOT
BRANCH   1   2
ATOM      2  N   UNL A   1      37.049  22.725  25.543  1.00  0.00    -0.356 N 
ATOM      3  C   UNL A   1      35.752  22.361  25.750  1.00  0.00     0.227 C 
ATOM      4  O   UNL A   1      35.373  21.373  25.106  1.00  0.00    -0.274 OA
ATOM      5  H   UNL A   1      37.498  22.177  24.859  1.00  0.00     0.163 HD
BRANCH   3   6
ATOM      6  C   UNL A   1      34.759  23.071  26.699  1.00  0.00     0.105 C 
ATOM      7  C   UNL A   1      33.985  22.138  27.625  1.00  0.00     0.023 C 
BRANCH   6   8
ATOM      8  C   UNL A   1      33.897  24.109  26.002  1.00  0.00    -0.033 A 
ATOM      9  C   UNL A   1      32.437  26.315  24.945  1.00  0.00     0.025 A 
ATOM     10  C   UNL A   1      33.796  26.143  24.691  1.00  0.00     0.012 A 
ATOM     11  C   UNL A   1      31.809  25.328  25.722  1.00  0.00     0.131 A 
ATOM     12  C   UNL A   1      34.465  24.996  25.096  1.00  0.00     0.005 A 
ATOM     13  C   UNL A   1      32.535  24.267  26.285  1.00  0.00     0.044 A 
ATOM     14  F   UNL A   1      30.497  25.408  25.987  1.00  0.00    -0.206 F 
BRANCH   9  15
ATOM     15  C   UNL A   1      31.783  27.548  24.474  1.00  0.00     0.069 A 
ATOM     16  C   UNL A   1      30.874  27.431  23.383  1.00  0.00     0.130 A 
ATOM     17  C   UNL A   1      30.086  28.496  22.940  1.00  0.00     0.047 A 
ATOM     18  C   UNL A   1      30.157  29.713  23.595  1.00  0.00     0.008 A 
ATOM     19  C   UNL A   1      31.859  28.806  25.117  1.00  0.00     0.130 A 
ATOM     20  C   UNL A   1      31.038  29.862  24.664  1.00  0.00     0.047 A 
BRANCH  16  21
ATOM     21  O   UNL A   1      30.792  26.244  22.692  1.00  0.00    -0.493 OA
BRANCH  21  22
ATOM     22  C   UNL A   1      31.483  26.281  21.439  1.00  0.00     0.226 C 
ATOM     23  C   UNL A   1      32.529  25.178  21.440  1.00  0.00     0.049 C 
ENDBRANCH  21  22
ENDBRANCH  16  21
BRANCH  19  24
ATOM     24  O   UNL A   1      32.596  29.245  26.183  1.00  0.00    -0.493 OA
BRANCH  24  25
ATOM     25  C   UNL A   1      32.772  28.555  27.411  1.00  0.00     0.226 C 
ATOM     26  C   UNL A   1      31.403  28.203  27.980  1.00  0.00     0.049 C 
ENDBRANCH  24  25
ENDBRANCH  19  24
ENDBRANCH   9  15
ENDBRANCH   6   8
ENDBRANCH   3   6
ENDBRANCH   1   2
BRANCH   1  27
ATOM     27  C   UNL A   1      39.274  23.174  26.539  1.00  0.00     0.023 C 
BRANCH  27  28
ATOM     28  C   UNL A   1      39.544  21.725  26.163  1.00  0.00     0.023 C 
BRANCH  28  29
ATOM     29  C   UNL A   1      40.624  21.048  26.991  1.00  0.00     0.116 C 
BRANCH  29  30
ATOM     30  N   UNL A   1      41.592  20.279  26.216  1.00  0.00    -0.352 N 
ATOM     31  C   UNL A   1      42.815  20.709  25.746  1.00  0.00     0.251 C 
ATOM     32  H   UNL A   1      41.345  19.350  26.006  1.00  0.00     0.163 HD
ATOM     33  O   UNL A   1      43.530  19.981  25.067  1.00  0.00    -0.269 OA
BRANCH  31  34
ATOM     34  C   UNL A   1      43.217  22.100  26.035  1.00  0.00     0.039 A 
ATOM     35  C   UNL A   1      43.042  23.077  25.053  1.00  0.00     0.014 A 
ATOM     36  C   UNL A   1      43.611  22.448  27.328  1.00  0.00     0.014 A 
ATOM     37  C   UNL A   1      43.159  24.424  25.399  1.00  0.00     0.010 A 
ATOM     38  C   UNL A   1      43.642  23.787  27.689  1.00  0.00     0.010 A 
ATOM     39  C   UNL A   1      43.402  24.789  26.733  1.00  0.00    -0.014 A 
BRANCH  39  40
ATOM     40  C   UNL A   1      43.414  26.203  27.181  1.00  0.00     0.031 A 
ATOM     41  C   UNL A   1      44.733  26.889  27.403  1.00  0.00     0.074 A 
ATOM     42  C   UNL A   1      42.264  26.822  27.519  1.00  0.00     0.049 A 
ATOM     43  N   UNL A   1      44.986  28.023  28.003  1.00  0.00    -0.248 NA
ATOM     44  C   UNL A   1      45.932  26.177  26.929  1.00  0.00     0.031 C 
ATOM     45  C   UNL A   1      40.919  26.255  27.394  1.00  0.00     0.029 A 
ATOM     46  N   UNL A   1      42.049  28.063  28.067  1.00  0.00    -0.354 N 
ATOM     47  C   UNL A   1      46.370  28.130  28.029  1.00  0.00     0.074 A 
ATOM     48  C   UNL A   1      46.904  26.938  27.408  1.00  0.00     0.031 C 
ATOM     49  C   UNL A   1      40.021  27.148  27.844  1.00  0.00     0.029 A 
ATOM     50  C   UNL A   1      40.727  28.329  28.330  1.00  0.00     0.049 A 
ATOM     51  H   UNL A   1      42.775  28.702  28.254  1.00  0.00     0.167 HD
ATOM     52  C   UNL A   1      47.129  29.137  28.518  1.00  0.00     0.031 A 
ATOM     53  C   UNL A   1      40.151  29.396  28.916  1.00  0.00     0.031 A 
ATOM     54  C   UNL A   1      46.599  30.349  29.077  1.00  0.00     0.049 A 
ATOM     55  C   UNL A   1      41.016  30.527  29.400  1.00  0.00     0.074 A 
ATOM     56  C   UNL A   1      47.286  31.464  29.522  1.00  0.00     0.029 A 
ATOM     57  N   UNL A   1      45.249  30.609  29.250  1.00  0.00    -0.354 N 
ATOM     58  N   UNL A   1      42.322  30.637  29.370  1.00  0.00    -0.248 NA
ATOM     59  C   UNL A   1      40.328  31.685  29.991  1.00  0.00     0.031 C 
ATOM     60  C   UNL A   1      46.351  32.393  29.988  1.00  0.00     0.029 A 
ATOM     61  C   UNL A   1      45.083  31.867  29.800  1.00  0.00     0.049 A 
ATOM     62  H   UNL A   1      44.519  29.992  29.017  1.00  0.00     0.167 HD
ATOM     63  C   UNL A   1      42.608  31.885  29.909  1.00  0.00     0.074 A 
ATOM     64  C   UNL A   1      41.343  32.498  30.251  1.00  0.00     0.031 C 
ATOM     65  C   UNL A   1      43.814  32.469  30.104  1.00  0.00     0.031 A 
BRANCH  52  66
ATOM     66  C   UNL A   1      48.619  28.969  28.468  1.00  0.00    -0.014 A 
ATOM     67  C   UNL A   1      49.319  28.376  29.530  1.00  0.00     0.009 A 
ATOM     68  C   UNL A   1      49.326  29.374  27.325  1.00  0.00     0.009 A 
ATOM     69  C   UNL A   1      50.706  28.222  29.460  1.00  0.00     0.001 A 
ATOM     70  C   UNL A   1      50.707  29.195  27.248  1.00  0.00     0.001 A 
ATOM     71  C   UNL A   1      51.397  28.626  28.318  1.00  0.00     0.000 A 
ENDBRANCH  52  66
BRANCH  53  72
ATOM     72  C   UNL A   1      38.675  29.456  29.084  1.00  0.00    -0.014 A 
ATOM     73  C   UNL A   1      37.851  29.765  27.991  1.00  0.00     0.009 A 
ATOM     74  C   UNL A   1      38.086  29.235  30.337  1.00  0.00     0.009 A 
ATOM     75  C   UNL A   1      36.469  29.884  28.158  1.00  0.00     0.001 A 
ATOM     76  C   UNL A   1      36.701  29.329  30.496  1.00  0.00     0.001 A 
ATOM     77  C   UNL A   1      35.896  29.663  29.409  1.00  0.00     0.000 A 
ENDBRANCH  53  72
BRANCH  65  78
ATOM     78  C   UNL A   1      43.826  33.862  30.660  1.00  0.00    -0.014 A 
ATOM     79  C   UNL A   1      43.868  34.091  32.043  1.00  0.00     0.009 A 
ATOM     80  C   UNL A   1      43.871  34.955  29.781  1.00  0.00     0.009 A 
ATOM     81  C   UNL A   1      43.940  35.396  32.535  1.00  0.00     0.001 A 
ATOM     82  C   UNL A   1      43.965  36.256  30.276  1.00  0.00     0.001 A 
ATOM     83  C   UNL A   1      43.994  36.474  31.653  1.00  0.00     0.000 A 
ENDBRANCH  65  78
ENDBRANCH  39  40
ENDBRANCH  31  34
ENDBRANCH  29  30
ENDBRANCH  28  29
ENDBRANCH  27  28
ENDBRANCH   1  27
TORSDOF 17
ENDMDL
MODEL 3
REMARK VINA RESULT:     -10.4      5.301     10.269
REMARK SMILES CCOc1cccc(OCC)c1-c1ccc([C@@H](C)C(=O)NCCCCNC(=O)c2ccc(-c3c4nc(c(-c5ccccc5)c5ccc([nH]5)c(-c5ccccc5)c5nc(c(-c6ccccc6)c6ccc3[nH]6)C=C5)C=C4)cc2)cc1F
REMARK SMILES IDX 22 1 21 2 19 3 20 4 17 6 18 7 16 8 13 9 14 10 78 11 15 12
REMARK SMILES IDX 77 13 79 14 12 15 4 16 5 17 6 18 8 19 7 20 3 21 2 22 1 23
REMARK SMILES IDX 9 24 10 25 11 26 23 27 24 28 25 29 26 30 27 31 28 33 29 34
REMARK SMILES IDX 30 35 76 36 31 37 75 38 32 39 33 40 34 41 69 42 35 43 74 44
REMARK SMILES IDX 68 45 70 46 36 47 73 48 67 49 66 50 37 52 59 53 44 54 58 55
REMARK SMILES IDX 45 56 48 57 57 58 71 59 46 60 47 61 56 63 72 64 49 65 38 66
REMARK SMILES IDX 39 67 43 68 40 69 42 70 41 71 60 72 61 73 65 74 62 75 64 76
REMARK SMILES IDX 63 77 50 78 51 79 55 80 52 81 54 82 53 83
REMARK H PARENT 21 5 26 32 70 51 48 62
REMARK Flexibility Score: inf
ROOT
ATOM      1  C   UNL A   1      37.787  23.544  26.179  1.00  0.00     0.116 C 
ENDROOT
BRANCH   1   2
ATOM      2  N   UNL A   1      36.913  22.443  25.808  1.00  0.00    -0.356 N 
ATOM      3  C   UNL A   1      35.624  22.116  26.107  1.00  0.00     0.227 C 
ATOM      4  O   UNL A   1      35.234  21.034  25.645  1.00  0.00    -0.274 OA
ATOM      5  H   UNL A   1      37.348  21.790  25.212  1.00  0.00     0.163 HD
BRANCH   3   6
ATOM      6  C   UNL A   1      34.652  22.971  26.952  1.00  0.00     0.105 C 
ATOM      7  C   UNL A   1      33.886  22.196  28.020  1.00  0.00     0.023 C 
BRANCH   6   8
ATOM      8  C   UNL A   1      33.787  23.901  26.119  1.00  0.00    -0.033 A 
ATOM      9  C   UNL A   1      32.257  25.921  24.820  1.00  0.00     0.025 A 
ATOM     10  C   UNL A   1      33.648  25.898  24.757  1.00  0.00     0.012 A 
ATOM     11  C   UNL A   1      31.638  24.879  25.528  1.00  0.00     0.131 A 
ATOM     12  C   UNL A   1      34.375  24.837  25.278  1.00  0.00     0.005 A 
ATOM     13  C   UNL A   1      32.390  23.910  26.211  1.00  0.00     0.044 A 
ATOM     14  F   UNL A   1      30.301  24.815  25.610  1.00  0.00    -0.206 F 
BRANCH   9  15
ATOM     15  C   UNL A   1      31.544  27.070  24.234  1.00  0.00     0.069 A 
ATOM     16  C   UNL A   1      31.361  28.216  25.061  1.00  0.00     0.130 A 
ATOM     17  C   UNL A   1      30.831  29.417  24.580  1.00  0.00     0.047 A 
ATOM     18  C   UNL A   1      30.494  29.523  23.242  1.00  0.00     0.008 A 
ATOM     19  C   UNL A   1      31.172  27.190  22.874  1.00  0.00     0.130 A 
ATOM     20  C   UNL A   1      30.657  28.420  22.408  1.00  0.00     0.047 A 
BRANCH  16  21
ATOM     21  O   UNL A   1      31.663  28.143  26.401  1.00  0.00    -0.493 OA
BRANCH  21  22
ATOM     22  C   UNL A   1      32.372  29.291  26.875  1.00  0.00     0.226 C 
ATOM     23  C   UNL A   1      33.862  29.007  26.772  1.00  0.00     0.049 C 
ENDBRANCH  21  22
ENDBRANCH  16  21
BRANCH  19  24
ATOM     24  O   UNL A   1      31.232  26.310  21.829  1.00  0.00    -0.493 OA
BRANCH  24  25
ATOM     25  C   UNL A   1      32.394  25.990  21.079  1.00  0.00     0.226 C 
ATOM     26  C   UNL A   1      32.917  24.632  21.532  1.00  0.00     0.049 C 
ENDBRANCH  24  25
ENDBRANCH  19  24
ENDBRANCH   9  15
ENDBRANCH   6   8
ENDBRANCH   3   6
ENDBRANCH   1   2
BRANCH   1  27
ATOM     27  C   UNL A   1      39.212  23.067  26.494  1.00  0.00     0.023 C 
BRANCH  27  28
ATOM     28  C   UNL A   1      39.533  21.624  26.138  1.00  0.00     0.023 C 
BRANCH  28  29
ATOM     29  C   UNL A   1      40.647  21.002  26.964  1.00  0.00     0.116 C 
BRANCH  29  30
ATOM     30  N   UNL A   1      41.580  20.177  26.205  1.00  0.00    -0.352 N 
ATOM     31  C   UNL A   1      42.817  20.545  25.719  1.00  0.00     0.251 C 
ATOM     32  H   UNL A   1      41.295  19.253  26.019  1.00  0.00     0.163 HD
ATOM     33  O   UNL A   1      43.499  19.773  25.055  1.00  0.00    -0.269 OA
BRANCH  31  34
ATOM     34  C   UNL A   1      43.275  21.926  25.971  1.00  0.00     0.039 A 
ATOM     35  C   UNL A   1      43.084  22.897  24.986  1.00  0.00     0.014 A 
ATOM     36  C   UNL A   1      43.741  22.275  27.240  1.00  0.00     0.014 A 
ATOM     37  C   UNL A   1      43.259  24.244  25.310  1.00  0.00     0.010 A 
ATOM     38  C   UNL A   1      43.831  23.616  27.582  1.00  0.00     0.010 A 
ATOM     39  C   UNL A   1      43.577  24.615  26.626  1.00  0.00    -0.014 A 
BRANCH  39  40
ATOM     40  C   UNL A   1      43.655  26.033  27.056  1.00  0.00     0.031 A 
ATOM     41  C   UNL A   1      45.000  26.694  27.159  1.00  0.00     0.074 A 
ATOM     42  C   UNL A   1      42.549  26.678  27.482  1.00  0.00     0.049 A 
ATOM     43  N   UNL A   1      45.326  27.828  27.722  1.00  0.00    -0.248 NA
ATOM     44  C   UNL A   1      46.141  25.953  26.593  1.00  0.00     0.031 C 
ATOM     45  C   UNL A   1      41.188  26.138  27.477  1.00  0.00     0.029 A 
ATOM     46  N   UNL A   1      42.406  27.928  28.032  1.00  0.00    -0.354 N 
ATOM     47  C   UNL A   1      46.709  27.907  27.630  1.00  0.00     0.074 A 
ATOM     48  C   UNL A   1      47.165  26.698  26.980  1.00  0.00     0.031 C 
ATOM     49  C   UNL A   1      40.349  27.054  27.991  1.00  0.00     0.029 A 
ATOM     50  C   UNL A   1      41.116  28.224  28.402  1.00  0.00     0.049 A 
ATOM     51  H   UNL A   1      43.157  28.554  28.150  1.00  0.00     0.167 HD
ATOM     52  C   UNL A   1      47.526  28.903  28.042  1.00  0.00     0.031 A 
ATOM     53  C   UNL A   1      40.613  29.308  29.023  1.00  0.00     0.031 A 
ATOM     54  C   UNL A   1      47.069  30.131  28.630  1.00  0.00     0.049 A 
ATOM     55  C   UNL A   1      41.538  30.427  29.419  1.00  0.00     0.074 A 
ATOM     56  C   UNL A   1      47.813  31.235  29.004  1.00  0.00     0.029 A 
ATOM     57  N   UNL A   1      45.744  30.420  28.913  1.00  0.00    -0.354 N 
ATOM     58  N   UNL A   1      42.838  30.509  29.279  1.00  0.00    -0.248 NA
ATOM     59  C   UNL A   1      40.925  31.603  30.053  1.00  0.00     0.031 C 
ATOM     60  C   UNL A   1      46.939  32.188  29.536  1.00  0.00     0.029 A 
ATOM     61  C   UNL A   1      45.650  31.686  29.461  1.00  0.00     0.049 A 
ATOM     62  H   UNL A   1      44.985  29.816  28.749  1.00  0.00     0.167 HD
ATOM     63  C   UNL A   1      43.193  31.756  29.777  1.00  0.00     0.074 A 
ATOM     64  C   UNL A   1      41.973  32.398  30.217  1.00  0.00     0.031 C 
ATOM     65  C   UNL A   1      44.422  32.317  29.864  1.00  0.00     0.031 A 
BRANCH  52  66
ATOM     66  C   UNL A   1      49.003  28.704  27.869  1.00  0.00    -0.014 A 
ATOM     67  C   UNL A   1      49.659  29.108  26.697  1.00  0.00     0.009 A 
ATOM     68  C   UNL A   1      49.754  28.139  28.912  1.00  0.00     0.009 A 
ATOM     69  C   UNL A   1      51.036  28.920  26.559  1.00  0.00     0.001 A 
ATOM     70  C   UNL A   1      51.134  27.977  28.782  1.00  0.00     0.001 A 
ATOM     71  C   UNL A   1      51.772  28.361  27.603  1.00  0.00     0.000 A 
ENDBRANCH  52  66
BRANCH  53  72
ATOM     72  C   UNL A   1      39.158  29.401  29.314  1.00  0.00    -0.014 A 
ATOM     73  C   UNL A   1      38.655  28.967  30.551  1.00  0.00     0.009 A 
ATOM     74  C   UNL A   1      38.264  29.893  28.353  1.00  0.00     0.009 A 
ATOM     75  C   UNL A   1      37.282  28.995  30.806  1.00  0.00     0.001 A 
ATOM     76  C   UNL A   1      36.894  29.944  28.620  1.00  0.00     0.001 A 
ATOM     77  C   UNL A   1      36.403  29.486  29.842  1.00  0.00     0.000 A 
ENDBRANCH  53  72
BRANCH  65  78
ATOM     78  C   UNL A   1      44.508  33.714  30.401  1.00  0.00    -0.014 A 
ATOM     79  C   UNL A   1      44.354  34.827  29.561  1.00  0.00     0.009 A 
ATOM     80  C   UNL A   1      44.671  33.913  31.781  1.00  0.00     0.009 A 
ATOM     81  C   UNL A   1      44.378  36.117  30.095  1.00  0.00     0.001 A 
ATOM     82  C   UNL A   1      44.673  35.202  32.314  1.00  0.00     0.001 A 
ATOM     83  C   UNL A   1      44.531  36.303  31.469  1.00  0.00     0.000 A 
ENDBRANCH  65  78
ENDBRANCH  39  40
ENDBRANCH  31  34
ENDBRANCH  29  30
ENDBRANCH  28  29
ENDBRANCH  27  28
ENDBRANCH   1  27
TORSDOF 17
ENDMDL
