MODEL 1
REMARK VINA RESULT:      -8.6      0.000      0.000
REMARK SMILES COc1cc(/C=N/[NH+]=C2\NC(=O)[C@@H](CC(=O)NCCCCNC(=O)c3ccc(-c4c5nc(c(-c6ccccc6)c6ccc([nH]6)c(-c6ccccc6)c6nc(c(-c7ccccc7)c7ccc4[nH]7)C=C6)C=C5)cc3)S2)cc(I)c1OC
REMARK SMILES IDX 18 1 17 2 15 3 16 4 14 6 13 7 8 8 9 9 10 11 73 12 11 13
REMARK SMILES IDX 12 15 7 16 6 17 5 18 3 19 4 20 77 21 75 22 74 23 76 24 2 25
REMARK SMILES IDX 1 26 78 27 79 28 19 29 20 30 21 31 22 32 23 33 24 35 25 36
REMARK SMILES IDX 26 37 72 38 27 39 71 40 28 41 29 42 30 43 65 44 31 45 70 46
REMARK SMILES IDX 64 47 66 48 32 49 69 50 63 51 62 52 33 54 55 55 40 56 54 57
REMARK SMILES IDX 41 58 44 59 53 60 67 61 42 62 43 63 52 65 68 66 45 67 34 68
REMARK SMILES IDX 35 69 39 70 36 71 38 72 37 73 56 74 57 75 61 76 58 77 60 78
REMARK SMILES IDX 59 79 46 80 47 81 51 82 48 83 50 84 49 85
REMARK H PARENT 17 5 8 10 10 14 22 34 66 53 44 64
REMARK Flexibility Score: inf
ROOT
ATOM      1  C   UNL A   1      42.939  23.162  27.488  1.00  0.00     0.116 C 
ENDROOT
BRANCH   1   2
ATOM      2  N   UNL A   1      44.074  22.438  26.955  1.00  0.00    -0.356 N 
ATOM      3  C   UNL A   1      45.309  22.906  26.626  1.00  0.00     0.221 C 
ATOM      4  O   UNL A   1      46.099  22.150  26.063  1.00  0.00    -0.275 OA
ATOM      5  H   UNL A   1      43.933  21.474  26.811  1.00  0.00     0.163 HD
BRANCH   3   6
ATOM      6  C   UNL A   1      45.688  24.329  26.956  1.00  0.00     0.127 C 
BRANCH   6   7
ATOM      7  C   UNL A   1      45.861  25.175  25.698  1.00  0.00     0.183 C 
ATOM      8  N   UNL A   1      44.185  28.620  26.023  1.00  0.00    -0.142 N 
ATOM      9  C   UNL A   1      44.911  27.560  25.930  1.00  0.00     0.337 C 
ATOM     10  H   UNL A   1      43.243  28.658  25.741  1.00  0.00     0.343 HD
ATOM     11  N   UNL A   1      46.217  27.456  26.266  1.00  0.00    -0.202 N 
ATOM     12  S   UNL A   1      44.328  26.088  25.257  1.00  0.00    -0.020 SA
ATOM     13  C   UNL A   1      46.854  26.281  26.000  1.00  0.00     0.322 C 
ATOM     14  H   UNL A   1      46.693  28.207  26.688  1.00  0.00     0.316 HD
ATOM     15  O   UNL A   1      48.066  26.146  26.041  1.00  0.00    -0.246 OA
BRANCH   8  16
ATOM     16  N   UNL A   1      44.867  29.710  26.565  1.00  0.00    -0.093 NA
ATOM     17  C   UNL A   1      44.055  30.669  26.875  1.00  0.00     0.166 C 
BRANCH  17  18
ATOM     18  C   UNL A   1      44.571  31.932  27.396  1.00  0.00     0.002 A 
ATOM     19  C   UNL A   1      46.367  33.250  28.274  1.00  0.00     0.162 A 
ATOM     20  C   UNL A   1      45.893  32.028  27.800  1.00  0.00     0.060 A 
ATOM     21  C   UNL A   1      45.525  34.400  28.329  1.00  0.00     0.174 A 
ATOM     22  C   UNL A   1      44.195  34.277  27.884  1.00  0.00     0.060 A 
ATOM     23  C   UNL A   1      43.721  33.031  27.436  1.00  0.00     0.028 A 
ATOM     24  I   UNL A   1      42.725  35.783  27.719  1.00  0.00    -0.040 I 
BRANCH  19  25
ATOM     25  O   UNL A   1      47.641  33.388  28.782  1.00  0.00    -0.493 OA
ATOM     26  C   UNL A   1      48.458  32.223  28.752  1.00  0.00     0.278 C 
ENDBRANCH  19  25
BRANCH  21  27
ATOM     27  O   UNL A   1      46.206  35.492  28.791  1.00  0.00    -0.492 OA
ATOM     28  C   UNL A   1      46.983  36.321  27.956  1.00  0.00     0.278 C 
ENDBRANCH  21  27
ENDBRANCH  17  18
ENDBRANCH   8  16
ENDBRANCH   6   7
ENDBRANCH   3   6
ENDBRANCH   1   2
BRANCH   1  29
ATOM     29  C   UNL A   1      42.087  22.254  28.377  1.00  0.00     0.023 C 
BRANCH  29  30
ATOM     30  C   UNL A   1      41.132  21.343  27.615  1.00  0.00     0.023 C 
BRANCH  30  31
ATOM     31  C   UNL A   1      40.908  21.741  26.167  1.00  0.00     0.116 C 
BRANCH  31  32
ATOM     32  N   UNL A   1      39.501  21.902  25.827  1.00  0.00    -0.352 N 
ATOM     33  C   UNL A   1      38.677  22.962  26.121  1.00  0.00     0.251 C 
ATOM     34  H   UNL A   1      39.091  21.161  25.324  1.00  0.00     0.163 HD
ATOM     35  O   UNL A   1      37.477  22.911  25.882  1.00  0.00    -0.269 OA
BRANCH  33  36
ATOM     36  C   UNL A   1      39.260  24.150  26.771  1.00  0.00     0.039 A 
ATOM     37  C   UNL A   1      39.987  25.057  25.999  1.00  0.00     0.014 A 
ATOM     38  C   UNL A   1      39.027  24.396  28.128  1.00  0.00     0.014 A 
ATOM     39  C   UNL A   1      40.429  26.246  26.577  1.00  0.00     0.010 A 
ATOM     40  C   UNL A   1      39.384  25.621  28.674  1.00  0.00     0.010 A 
ATOM     41  C   UNL A   1      40.099  26.554  27.908  1.00  0.00    -0.014 A 
BRANCH  41  42
ATOM     42  C   UNL A   1      40.511  27.837  28.527  1.00  0.00     0.031 A 
ATOM     43  C   UNL A   1      41.925  28.012  29.012  1.00  0.00     0.074 A 
ATOM     44  C   UNL A   1      39.607  28.819  28.705  1.00  0.00     0.049 A 
ATOM     45  N   UNL A   1      42.466  29.034  29.625  1.00  0.00    -0.248 NA
ATOM     46  C   UNL A   1      42.845  26.880  28.804  1.00  0.00     0.031 C 
ATOM     47  C   UNL A   1      38.197  28.757  28.313  1.00  0.00     0.029 A 
ATOM     48  N   UNL A   1      39.741  30.063  29.265  1.00  0.00    -0.354 N 
ATOM     49  C   UNL A   1      43.779  28.661  29.887  1.00  0.00     0.074 A 
ATOM     50  C   UNL A   1      43.935  27.301  29.425  1.00  0.00     0.031 C 
ATOM     51  C   UNL A   1      37.606  29.925  28.612  1.00  0.00     0.029 A 
ATOM     52  C   UNL A   1      38.580  30.799  29.258  1.00  0.00     0.049 A 
ATOM     53  H   UNL A   1      40.589  30.398  29.638  1.00  0.00     0.167 HD
ATOM     54  C   UNL A   1      44.774  29.394  30.439  1.00  0.00     0.031 A 
ATOM     55  C   UNL A   1      38.329  32.037  29.724  1.00  0.00     0.031 A 
ATOM     56  C   UNL A   1      44.619  30.749  30.894  1.00  0.00     0.049 A 
ATOM     57  C   UNL A   1      39.445  32.818  30.363  1.00  0.00     0.074 A 
ATOM     58  C   UNL A   1      45.577  31.594  31.425  1.00  0.00     0.029 A 
ATOM     59  N   UNL A   1      43.426  31.456  30.871  1.00  0.00    -0.354 N 
ATOM     60  N   UNL A   1      40.697  32.477  30.543  1.00  0.00    -0.248 NA
ATOM     61  C   UNL A   1      39.111  34.164  30.852  1.00  0.00     0.031 C 
ATOM     62  C   UNL A   1      44.951  32.794  31.780  1.00  0.00     0.029 A 
ATOM     63  C   UNL A   1      43.619  32.720  31.404  1.00  0.00     0.049 A 
ATOM     64  H   UNL A   1      42.571  31.111  30.528  1.00  0.00     0.167 HD
ATOM     65  C   UNL A   1      41.310  33.577  31.131  1.00  0.00     0.074 A 
ATOM     66  C   UNL A   1      40.293  34.600  31.262  1.00  0.00     0.031 C 
ATOM     67  C   UNL A   1      42.598  33.728  31.524  1.00  0.00     0.031 A 
BRANCH  54  68
ATOM     68  C   UNL A   1      46.118  28.735  30.588  1.00  0.00    -0.014 A 
ATOM     69  C   UNL A   1      47.079  28.801  29.565  1.00  0.00     0.009 A 
ATOM     70  C   UNL A   1      46.440  28.064  31.777  1.00  0.00     0.009 A 
ATOM     71  C   UNL A   1      48.318  28.175  29.715  1.00  0.00     0.001 A 
ATOM     72  C   UNL A   1      47.693  27.469  31.939  1.00  0.00     0.001 A 
ATOM     73  C   UNL A   1      48.626  27.515  30.904  1.00  0.00     0.000 A 
ENDBRANCH  54  68
BRANCH  55  74
ATOM     74  C   UNL A   1      36.969  32.625  29.595  1.00  0.00    -0.014 A 
ATOM     75  C   UNL A   1      36.078  32.607  30.681  1.00  0.00     0.009 A 
ATOM     76  C   UNL A   1      36.543  33.187  28.382  1.00  0.00     0.009 A 
ATOM     77  C   UNL A   1      34.781  33.106  30.543  1.00  0.00     0.001 A 
ATOM     78  C   UNL A   1      35.257  33.716  28.256  1.00  0.00     0.001 A 
ATOM     79  C   UNL A   1      34.374  33.664  29.333  1.00  0.00     0.000 A 
ENDBRANCH  55  74
BRANCH  67  80
ATOM     80  C   UNL A   1      42.994  35.064  32.088  1.00  0.00    -0.014 A 
ATOM     81  C   UNL A   1      43.641  36.032  31.304  1.00  0.00     0.009 A 
ATOM     82  C   UNL A   1      42.674  35.373  33.421  1.00  0.00     0.009 A 
ATOM     83  C   UNL A   1      43.993  37.266  31.854  1.00  0.00     0.001 A 
ATOM     84  C   UNL A   1      42.996  36.620  33.957  1.00  0.00     0.001 A 
ATOM     85  C   UNL A   1      43.665  37.561  33.177  1.00  0.00     0.000 A 
ENDBRANCH  67  80
ENDBRANCH  41  42
ENDBRANCH  33  36
ENDBRANCH  31  32
ENDBRANCH  30  31
ENDBRANCH  29  30
ENDBRANCH   1  29
TORSDOF 16
ENDMDL
MODEL 2
REMARK VINA RESULT:      -8.2      4.889      9.008
REMARK SMILES COc1cc(/C=N/[NH+]=C2\NC(=O)[C@@H](CC(=O)NCCCCNC(=O)c3ccc(-c4c5nc(c(-c6ccccc6)c6ccc([nH]6)c(-c6ccccc6)c6nc(c(-c7ccccc7)c7ccc4[nH]7)C=C6)C=C5)cc3)S2)cc(I)c1OC
REMARK SMILES IDX 18 1 17 2 15 3 16 4 14 6 13 7 8 8 9 9 10 11 73 12 11 13
REMARK SMILES IDX 12 15 7 16 6 17 5 18 3 19 4 20 77 21 75 22 74 23 76 24 2 25
REMARK SMILES IDX 1 26 78 27 79 28 19 29 20 30 21 31 22 32 23 33 24 35 25 36
REMARK SMILES IDX 26 37 72 38 27 39 71 40 28 41 29 42 30 43 65 44 31 45 70 46
REMARK SMILES IDX 64 47 66 48 32 49 69 50 63 51 62 52 33 54 55 55 40 56 54 57
REMARK SMILES IDX 41 58 44 59 53 60 67 61 42 62 43 63 52 65 68 66 45 67 34 68
REMARK SMILES IDX 35 69 39 70 36 71 38 72 37 73 56 74 57 75 61 76 58 77 60 78
REMARK SMILES IDX 59 79 46 80 47 81 51 82 48 83 50 84 49 85
REMARK H PARENT 17 5 8 10 10 14 22 34 66 53 44 64
REMARK Flexibility Score: inf
ROOT
ATOM      1  C   UNL A   1      36.165  20.994  25.545  1.00  0.00     0.116 C 
ENDROOT
BRANCH   1   2
ATOM      2  N   UNL A   1      35.446  19.847  25.029  1.00  0.00    -0.356 N 
ATOM      3  C   UNL A   1      34.116  19.714  24.777  1.00  0.00     0.221 C 
ATOM      4  O   UNL A   1      33.680  18.609  24.461  1.00  0.00    -0.275 OA
ATOM      5  H   UNL A   1      35.996  19.054  24.836  1.00  0.00     0.163 HD
BRANCH   3   6
ATOM      6  C   UNL A   1      33.205  20.913  24.882  1.00  0.00     0.127 C 
BRANCH   6   7
ATOM      7  C   UNL A   1      33.397  21.875  23.713  1.00  0.00     0.183 C 
ATOM      8  N   UNL A   1      30.320  24.112  23.155  1.00  0.00    -0.142 N 
ATOM      9  C   UNL A   1      31.435  23.519  23.409  1.00  0.00     0.337 C 
ATOM     10  H   UNL A   1      29.638  23.745  22.548  1.00  0.00     0.343 HD
ATOM     11  N   UNL A   1      32.426  23.989  24.201  1.00  0.00    -0.202 N 
ATOM     12  S   UNL A   1      31.884  22.026  22.681  1.00  0.00    -0.020 SA
ATOM     13  C   UNL A   1      33.583  23.272  24.271  1.00  0.00     0.322 C 
ATOM     14  H   UNL A   1      32.315  24.824  24.710  1.00  0.00     0.316 HD
ATOM     15  O   UNL A   1      34.616  23.704  24.757  1.00  0.00    -0.246 OA
BRANCH   8  16
ATOM     16  N   UNL A   1      30.178  25.328  23.824  1.00  0.00    -0.093 NA
ATOM     17  C   UNL A   1      30.743  26.294  23.173  1.00  0.00     0.166 C 
BRANCH  17  18
ATOM     18  C   UNL A   1      30.769  27.643  23.733  1.00  0.00     0.002 A 
ATOM     19  C   UNL A   1      29.933  29.885  23.818  1.00  0.00     0.162 A 
ATOM     20  C   UNL A   1      29.903  28.612  23.253  1.00  0.00     0.060 A 
ATOM     21  C   UNL A   1      30.819  30.198  24.890  1.00  0.00     0.174 A 
ATOM     22  C   UNL A   1      31.667  29.184  25.375  1.00  0.00     0.060 A 
ATOM     23  C   UNL A   1      31.647  27.912  24.776  1.00  0.00     0.028 A 
ATOM     24  I   UNL A   1      33.005  29.265  27.006  1.00  0.00    -0.040 I 
BRANCH  19  25
ATOM     25  O   UNL A   1      29.167  30.918  23.322  1.00  0.00    -0.493 OA
ATOM     26  C   UNL A   1      27.783  30.644  23.140  1.00  0.00     0.278 C 
ENDBRANCH  19  25
BRANCH  21  27
ATOM     27  O   UNL A   1      30.652  31.489  25.310  1.00  0.00    -0.492 OA
ATOM     28  C   UNL A   1      31.357  32.037  26.402  1.00  0.00     0.278 C 
ENDBRANCH  21  27
ENDBRANCH  17  18
ENDBRANCH   8  16
ENDBRANCH   6   7
ENDBRANCH   3   6
ENDBRANCH   1   2
BRANCH   1  29
ATOM     29  C   UNL A   1      37.494  21.174  24.810  1.00  0.00     0.023 C 
BRANCH  29  30
ATOM     30  C   UNL A   1      38.429  19.973  24.893  1.00  0.00     0.023 C 
BRANCH  30  31
ATOM     31  C   UNL A   1      39.412  20.025  26.049  1.00  0.00     0.116 C 
BRANCH  31  32
ATOM     32  N   UNL A   1      40.485  19.047  25.934  1.00  0.00    -0.352 N 
ATOM     33  C   UNL A   1      41.836  19.253  26.082  1.00  0.00     0.251 C 
ATOM     34  H   UNL A   1      40.208  18.125  25.725  1.00  0.00     0.163 HD
ATOM     35  O   UNL A   1      42.639  18.363  25.833  1.00  0.00    -0.269 OA
BRANCH  33  36
ATOM     36  C   UNL A   1      42.303  20.586  26.507  1.00  0.00     0.039 A 
ATOM     37  C   UNL A   1      42.764  21.482  25.541  1.00  0.00     0.014 A 
ATOM     38  C   UNL A   1      42.219  20.966  27.850  1.00  0.00     0.014 A 
ATOM     39  C   UNL A   1      43.083  22.786  25.916  1.00  0.00     0.010 A 
ATOM     40  C   UNL A   1      42.446  22.290  28.202  1.00  0.00     0.010 A 
ATOM     41  C   UNL A   1      42.891  23.210  27.242  1.00  0.00    -0.014 A 
BRANCH  41  42
ATOM     42  C   UNL A   1      43.172  24.607  27.653  1.00  0.00     0.031 A 
ATOM     43  C   UNL A   1      44.596  25.069  27.806  1.00  0.00     0.074 A 
ATOM     44  C   UNL A   1      42.154  25.441  27.941  1.00  0.00     0.049 A 
ATOM     45  N   UNL A   1      45.048  26.231  28.205  1.00  0.00    -0.248 NA
ATOM     46  C   UNL A   1      45.650  24.087  27.498  1.00  0.00     0.031 C 
ATOM     47  C   UNL A   1      40.731  25.102  27.867  1.00  0.00     0.029 A 
ATOM     48  N   UNL A   1      42.162  26.747  28.357  1.00  0.00    -0.354 N 
ATOM     49  C   UNL A   1      46.432  26.113  28.207  1.00  0.00     0.074 A 
ATOM     50  C   UNL A   1      46.744  24.752  27.835  1.00  0.00     0.031 C 
ATOM     51  C   UNL A   1      40.004  26.184  28.191  1.00  0.00     0.029 A 
ATOM     52  C   UNL A   1      40.907  27.276  28.539  1.00  0.00     0.049 A 
ATOM     53  H   UNL A   1      42.990  27.259  28.510  1.00  0.00     0.167 HD
ATOM     54  C   UNL A   1      47.363  27.059  28.472  1.00  0.00     0.031 A 
ATOM     55  C   UNL A   1      40.527  28.502  28.948  1.00  0.00     0.031 A 
ATOM     56  C   UNL A   1      47.052  28.414  28.838  1.00  0.00     0.049 A 
ATOM     57  C   UNL A   1      41.582  29.526  29.266  1.00  0.00     0.074 A 
ATOM     58  C   UNL A   1      47.922  29.462  29.081  1.00  0.00     0.029 A 
ATOM     59  N   UNL A   1      45.768  28.908  29.015  1.00  0.00    -0.354 N 
ATOM     60  N   UNL A   1      42.886  29.419  29.200  1.00  0.00    -0.248 NA
ATOM     61  C   UNL A   1      41.107  30.846  29.705  1.00  0.00     0.031 C 
ATOM     62  C   UNL A   1      47.166  30.575  29.464  1.00  0.00     0.029 A 
ATOM     63  C   UNL A   1      45.824  30.240  29.390  1.00  0.00     0.049 A 
ATOM     64  H   UNL A   1      44.941  28.389  28.893  1.00  0.00     0.167 HD
ATOM     65  C   UNL A   1      43.388  30.667  29.552  1.00  0.00     0.074 A 
ATOM     66  C   UNL A   1      42.245  31.516  29.815  1.00  0.00     0.031 C 
ATOM     67  C   UNL A   1      44.678  31.072  29.645  1.00  0.00     0.031 A 
BRANCH  54  68
ATOM     68  C   UNL A   1      48.809  26.653  28.381  1.00  0.00    -0.014 A 
ATOM     69  C   UNL A   1      49.513  26.208  29.512  1.00  0.00     0.009 A 
ATOM     70  C   UNL A   1      49.468  26.687  27.143  1.00  0.00     0.009 A 
ATOM     71  C   UNL A   1      50.858  25.845  29.412  1.00  0.00     0.001 A 
ATOM     72  C   UNL A   1      50.802  26.291  27.039  1.00  0.00     0.001 A 
ATOM     73  C   UNL A   1      51.499  25.881  28.175  1.00  0.00     0.000 A 
ENDBRANCH  54  68
BRANCH  55  74
ATOM     74  C   UNL A   1      39.083  28.838  29.067  1.00  0.00    -0.014 A 
ATOM     75  C   UNL A   1      38.375  29.340  27.963  1.00  0.00     0.009 A 
ATOM     76  C   UNL A   1      38.410  28.683  30.287  1.00  0.00     0.009 A 
ATOM     77  C   UNL A   1      37.034  29.711  28.090  1.00  0.00     0.001 A 
ATOM     78  C   UNL A   1      37.060  29.022  30.403  1.00  0.00     0.001 A 
ATOM     79  C   UNL A   1      36.378  29.547  29.308  1.00  0.00     0.000 A 
ENDBRANCH  55  74
BRANCH  67  80
ATOM     80  C   UNL A   1      44.923  32.512  30.001  1.00  0.00    -0.014 A 
ATOM     81  C   UNL A   1      45.104  32.922  31.332  1.00  0.00     0.009 A 
ATOM     82  C   UNL A   1      45.016  33.471  28.978  1.00  0.00     0.009 A 
ATOM     83  C   UNL A   1      45.334  34.266  31.631  1.00  0.00     0.001 A 
ATOM     84  C   UNL A   1      45.281  34.807  29.278  1.00  0.00     0.001 A 
ATOM     85  C   UNL A   1      45.428  35.205  30.605  1.00  0.00     0.000 A 
ENDBRANCH  67  80
ENDBRANCH  41  42
ENDBRANCH  33  36
ENDBRANCH  31  32
ENDBRANCH  30  31
ENDBRANCH  29  30
ENDBRANCH   1  29
TORSDOF 16
ENDMDL
MODEL 3
REMARK VINA RESULT:      -7.9      8.244     12.566
REMARK SMILES COc1cc(/C=N/[NH+]=C2\NC(=O)[C@@H](CC(=O)NCCCCNC(=O)c3ccc(-c4c5nc(c(-c6ccccc6)c6ccc([nH]6)c(-c6ccccc6)c6nc(c(-c7ccccc7)c7ccc4[nH]7)C=C6)C=C5)cc3)S2)cc(I)c1OC
REMARK SMILES IDX 18 1 17 2 15 3 16 4 14 6 13 7 8 8 9 9 10 11 73 12 11 13
REMARK SMILES IDX 12 15 7 16 6 17 5 18 3 19 4 20 77 21 75 22 74 23 76 24 2 25
REMARK SMILES IDX 1 26 78 27 79 28 19 29 20 30 21 31 22 32 23 33 24 35 25 36
REMARK SMILES IDX 26 37 72 38 27 39 71 40 28 41 29 42 30 43 65 44 31 45 70 46
REMARK SMILES IDX 64 47 66 48 32 49 69 50 63 51 62 52 33 54 55 55 40 56 54 57
REMARK SMILES IDX 41 58 44 59 53 60 67 61 42 62 43 63 52 65 68 66 45 67 34 68
REMARK SMILES IDX 35 69 39 70 36 71 38 72 37 73 56 74 57 75 61 76 58 77 60 78
REMARK SMILES IDX 59 79 46 80 47 81 51 82 48 83 50 84 49 85
REMARK H PARENT 17 5 8 10 10 14 22 34 66 53 44 64
REMARK Flexibility Score: inf
ROOT
ATOM      1  C   UNL A   1      50.324  22.659  34.451  1.00  0.00     0.116 C 
ENDROOT
BRANCH   1   2
ATOM      2  N   UNL A   1      49.776  21.605  33.623  1.00  0.00    -0.356 N 
ATOM      3  C   UNL A   1      49.105  20.483  34.000  1.00  0.00     0.221 C 
ATOM      4  O   UNL A   1      48.833  19.640  33.147  1.00  0.00    -0.275 OA
ATOM      5  H   UNL A   1      49.908  21.715  32.653  1.00  0.00     0.163 HD
BRANCH   3   6
ATOM      6  C   UNL A   1      48.707  20.292  35.443  1.00  0.00     0.127 C 
BRANCH   6   7
ATOM      7  C   UNL A   1      47.293  20.799  35.711  1.00  0.00     0.183 C 
ATOM      8  N   UNL A   1      44.935  17.986  36.856  1.00  0.00    -0.142 N 
ATOM      9  C   UNL A   1      45.719  18.988  36.653  1.00  0.00     0.337 C 
ATOM     10  H   UNL A   1      44.468  17.508  36.134  1.00  0.00     0.343 HD
ATOM     11  N   UNL A   1      46.357  19.707  37.604  1.00  0.00    -0.202 N 
ATOM     12  S   UNL A   1      46.009  19.642  35.088  1.00  0.00    -0.020 SA
ATOM     13  C   UNL A   1      47.064  20.804  37.210  1.00  0.00     0.322 C 
ATOM     14  H   UNL A   1      46.312  19.446  38.552  1.00  0.00     0.316 HD
ATOM     15  O   UNL A   1      47.483  21.650  37.984  1.00  0.00    -0.246 OA
BRANCH   8  16
ATOM     16  N   UNL A   1      44.815  17.645  38.204  1.00  0.00    -0.093 NA
ATOM     17  C   UNL A   1      43.943  16.703  38.376  1.00  0.00     0.166 C 
BRANCH  17  18
ATOM     18  C   UNL A   1      43.614  16.241  39.722  1.00  0.00     0.002 A 
ATOM     19  C   UNL A   1      43.675  16.524  42.099  1.00  0.00     0.162 A 
ATOM     20  C   UNL A   1      44.020  16.974  40.826  1.00  0.00     0.060 A 
ATOM     21  C   UNL A   1      42.898  15.342  42.281  1.00  0.00     0.174 A 
ATOM     22  C   UNL A   1      42.478  14.635  41.138  1.00  0.00     0.060 A 
ATOM     23  C   UNL A   1      42.857  15.084  39.861  1.00  0.00     0.028 A 
ATOM     24  I   UNL A   1      41.235  12.932  41.036  1.00  0.00    -0.040 I 
BRANCH  19  25
ATOM     25  O   UNL A   1      44.129  17.151  43.239  1.00  0.00    -0.493 OA
ATOM     26  C   UNL A   1      43.735  18.508  43.409  1.00  0.00     0.278 C 
ENDBRANCH  19  25
BRANCH  21  27
ATOM     27  O   UNL A   1      42.650  15.111  43.606  1.00  0.00    -0.492 OA
ATOM     28  C   UNL A   1      43.221  14.036  44.317  1.00  0.00     0.278 C 
ENDBRANCH  21  27
ENDBRANCH  17  18
ENDBRANCH   8  16
ENDBRANCH   6   7
ENDBRANCH   3   6
ENDBRANCH   1   2
BRANCH   1  29
ATOM     29  C   UNL A   1      49.923  24.034  33.913  1.00  0.00     0.023 C 
BRANCH  29  30
ATOM     30  C   UNL A   1      48.446  24.369  34.079  1.00  0.00     0.023 C 
BRANCH  30  31
ATOM     31  C   UNL A   1      48.177  25.773  34.592  1.00  0.00     0.116 C 
BRANCH  31  32
ATOM     32  N   UNL A   1      47.816  25.810  36.002  1.00  0.00    -0.352 N 
ATOM     33  C   UNL A   1      46.696  26.364  36.573  1.00  0.00     0.251 C 
ATOM     34  H   UNL A   1      48.454  25.387  36.623  1.00  0.00     0.163 HD
ATOM     35  O   UNL A   1      46.579  26.436  37.790  1.00  0.00    -0.269 OA
BRANCH  33  36
ATOM     36  C   UNL A   1      45.651  26.912  35.688  1.00  0.00     0.039 A 
ATOM     37  C   UNL A   1      44.448  26.218  35.550  1.00  0.00     0.014 A 
ATOM     38  C   UNL A   1      45.840  28.144  35.055  1.00  0.00     0.014 A 
ATOM     39  C   UNL A   1      43.408  26.793  34.821  1.00  0.00     0.010 A 
ATOM     40  C   UNL A   1      44.772  28.755  34.412  1.00  0.00     0.010 A 
ATOM     41  C   UNL A   1      43.549  28.082  34.279  1.00  0.00    -0.014 A 
BRANCH  41  42
ATOM     42  C   UNL A   1      42.437  28.736  33.547  1.00  0.00     0.031 A 
ATOM     43  C   UNL A   1      41.542  29.711  34.263  1.00  0.00     0.074 A 
ATOM     44  C   UNL A   1      42.198  28.414  32.261  1.00  0.00     0.049 A 
ATOM     45  N   UNL A   1      40.489  30.346  33.816  1.00  0.00    -0.248 NA
ATOM     46  C   UNL A   1      41.856  29.987  35.676  1.00  0.00     0.031 C 
ATOM     47  C   UNL A   1      42.970  27.456  31.466  1.00  0.00     0.029 A 
ATOM     48  N   UNL A   1      41.232  28.859  31.396  1.00  0.00    -0.354 N 
ATOM     49  C   UNL A   1      40.011  31.082  34.892  1.00  0.00     0.074 A 
ATOM     50  C   UNL A   1      40.846  30.766  36.029  1.00  0.00     0.031 C 
ATOM     51  C   UNL A   1      42.469  27.414  30.221  1.00  0.00     0.029 A 
ATOM     52  C   UNL A   1      41.315  28.303  30.142  1.00  0.00     0.049 A 
ATOM     53  H   UNL A   1      40.543  29.516  31.649  1.00  0.00     0.167 HD
ATOM     54  C   UNL A   1      38.983  31.961  34.928  1.00  0.00     0.031 A 
ATOM     55  C   UNL A   1      40.544  28.486  29.053  1.00  0.00     0.031 A 
ATOM     56  C   UNL A   1      38.155  32.279  33.796  1.00  0.00     0.049 A 
ATOM     57  C   UNL A   1      39.387  29.445  29.128  1.00  0.00     0.074 A 
ATOM     58  C   UNL A   1      37.118  33.191  33.716  1.00  0.00     0.029 A 
ATOM     59  N   UNL A   1      38.271  31.690  32.546  1.00  0.00    -0.354 N 
ATOM     60  N   UNL A   1      38.989  30.184  30.135  1.00  0.00    -0.248 NA
ATOM     61  C   UNL A   1      38.583  29.604  27.908  1.00  0.00     0.031 C 
ATOM     62  C   UNL A   1      36.567  33.112  32.433  1.00  0.00     0.029 A 
ATOM     63  C   UNL A   1      37.306  32.202  31.695  1.00  0.00     0.049 A 
ATOM     64  H   UNL A   1      38.939  31.011  32.300  1.00  0.00     0.167 HD
ATOM     65  C   UNL A   1      37.911  30.922  29.660  1.00  0.00     0.074 A 
ATOM     66  C   UNL A   1      37.731  30.552  28.272  1.00  0.00     0.031 C 
ATOM     67  C   UNL A   1      37.142  31.827  30.314  1.00  0.00     0.031 A 
BRANCH  54  68
ATOM     68  C   UNL A   1      38.695  32.637  36.241  1.00  0.00    -0.014 A 
ATOM     69  C   UNL A   1      39.168  33.931  36.515  1.00  0.00     0.009 A 
ATOM     70  C   UNL A   1      37.915  31.983  37.208  1.00  0.00     0.009 A 
ATOM     71  C   UNL A   1      38.900  34.539  37.743  1.00  0.00     0.001 A 
ATOM     72  C   UNL A   1      37.619  32.607  38.421  1.00  0.00     0.001 A 
ATOM     73  C   UNL A   1      38.121  33.879  38.692  1.00  0.00     0.000 A 
ENDBRANCH  54  68
BRANCH  55  74
ATOM     74  C   UNL A   1      40.843  27.757  27.792  1.00  0.00    -0.014 A 
ATOM     75  C   UNL A   1      40.316  26.476  27.566  1.00  0.00     0.009 A 
ATOM     76  C   UNL A   1      41.676  28.326  26.816  1.00  0.00     0.009 A 
ATOM     77  C   UNL A   1      40.644  25.767  26.408  1.00  0.00     0.001 A 
ATOM     78  C   UNL A   1      41.975  27.629  25.643  1.00  0.00     0.001 A 
ATOM     79  C   UNL A   1      41.469  26.346  25.446  1.00  0.00     0.000 A 
ENDBRANCH  55  74
BRANCH  67  80
ATOM     80  C   UNL A   1      36.067  32.517  29.523  1.00  0.00    -0.014 A 
ATOM     81  C   UNL A   1      36.225  33.831  29.054  1.00  0.00     0.009 A 
ATOM     82  C   UNL A   1      34.889  31.820  29.204  1.00  0.00     0.009 A 
ATOM     83  C   UNL A   1      35.210  34.444  28.317  1.00  0.00     0.001 A 
ATOM     84  C   UNL A   1      33.892  32.424  28.438  1.00  0.00     0.001 A 
ATOM     85  C   UNL A   1      34.049  33.739  28.005  1.00  0.00     0.000 A 
ENDBRANCH  67  80
ENDBRANCH  41  42
ENDBRANCH  33  36
ENDBRANCH  31  32
ENDBRANCH  30  31
ENDBRANCH  29  30
ENDBRANCH   1  29
TORSDOF 16
ENDMDL
