MODEL 1
REMARK VINA RESULT:     -11.8      0.000      0.000
REMARK SMILES COc1cc(/C=C2/CCc3cc(OC(C)(C)C(=O)NCCCCNC(=O)c4ccc(-c5c6nc(c(-c7ccccc7)c7ccc([nH]7)c(-c7ccccc7)c7nc(c(-c8ccccc8)c8ccc5[nH]8)C=C7)C=C6)cc4)ccc3C2=O)cc(OC)c1O
REMARK SMILES IDX 20 1 19 2 17 3 18 4 14 6 15 7 16 8 13 9 12 10 6 11 7 12 8 13
REMARK SMILES IDX 78 14 9 15 77 16 79 17 10 18 76 19 11 20 75 21 5 22 3 23
REMARK SMILES IDX 4 24 84 25 81 26 80 27 2 28 1 29 85 30 82 32 83 33 21 34
REMARK SMILES IDX 22 35 23 36 24 37 25 38 26 40 27 41 28 42 74 43 29 44 73 45
REMARK SMILES IDX 30 46 31 47 32 48 67 49 33 50 72 51 66 52 68 53 34 54 71 55
REMARK SMILES IDX 65 56 64 57 35 59 57 60 42 61 56 62 43 63 46 64 55 65 69 66
REMARK SMILES IDX 44 67 45 68 54 70 70 71 47 72 36 73 37 74 41 75 38 76 40 77
REMARK SMILES IDX 39 78 58 79 59 80 63 81 60 82 62 83 61 84 48 85 49 86 53 87
REMARK SMILES IDX 50 88 52 89 51 90
REMARK H PARENT 19 5 85 31 24 39 68 58 46 69
REMARK Flexibility Score: inf
ROOT
ATOM      1  C   UNL A   1      31.391  28.797  25.453  1.00  0.00     0.116 C 
ENDROOT
BRANCH   1   2
ATOM      2  N   UNL A   1      31.042  28.608  24.038  1.00  0.00    -0.353 N 
ATOM      3  C   UNL A   1      31.223  27.558  23.150  1.00  0.00     0.263 C 
ATOM      4  O   UNL A   1      30.355  27.457  22.271  1.00  0.00    -0.270 OA
ATOM      5  H   UNL A   1      30.585  29.385  23.640  1.00  0.00     0.163 HD
BRANCH   3   6
ATOM      6  C   UNL A   1      32.572  26.735  23.049  1.00  0.00     0.181 C 
ATOM      7  C   UNL A   1      33.756  27.634  23.409  1.00  0.00     0.067 C 
ATOM      8  C   UNL A   1      32.431  26.333  21.559  1.00  0.00     0.067 C 
BRANCH   6   9
ATOM      9  O   UNL A   1      32.609  25.571  23.980  1.00  0.00    -0.478 OA
BRANCH   9  10
ATOM     10  C   UNL A   1      33.854  25.326  24.558  1.00  0.00     0.121 A 
ATOM     11  C   UNL A   1      35.656  19.885  25.045  1.00  0.00     0.016 C 
ATOM     12  C   UNL A   1      36.000  21.196  25.099  1.00  0.00     0.001 C 
ATOM     13  C   UNL A   1      37.277  21.831  24.565  1.00  0.00     0.044 C 
ATOM     14  C   UNL A   1      35.017  22.249  25.411  1.00  0.00     0.189 C 
ATOM     15  C   UNL A   1      36.961  23.159  23.735  1.00  0.00     0.041 C 
ATOM     16  C   UNL A   1      35.565  23.607  25.699  1.00  0.00     0.026 A 
ATOM     17  O   UNL A   1      33.846  22.150  25.086  1.00  0.00    -0.289 OA
ATOM     18  C   UNL A   1      35.918  24.045  24.424  1.00  0.00    -0.033 A 
ATOM     19  C   UNL A   1      34.777  24.395  26.539  1.00  0.00     0.016 A 
ATOM     20  C   UNL A   1      34.976  24.891  23.804  1.00  0.00     0.051 A 
ATOM     21  C   UNL A   1      33.909  25.304  25.949  1.00  0.00     0.047 A 
BRANCH  11  22
ATOM     22  C   UNL A   1      34.287  19.404  24.651  1.00  0.00    -0.018 A 
ATOM     23  C   UNL A   1      33.244  17.333  23.917  1.00  0.00     0.165 A 
ATOM     24  C   UNL A   1      34.173  18.004  24.700  1.00  0.00     0.058 A 
ATOM     25  C   UNL A   1      32.454  18.069  23.040  1.00  0.00     0.200 A 
ATOM     26  C   UNL A   1      32.390  19.466  23.128  1.00  0.00     0.165 A 
ATOM     27  C   UNL A   1      33.277  20.136  23.991  1.00  0.00     0.058 A 
BRANCH  23  28
ATOM     28  O   UNL A   1      33.301  15.966  23.939  1.00  0.00    -0.493 OA
ATOM     29  C   UNL A   1      33.043  15.374  25.217  1.00  0.00     0.278 C 
ENDBRANCH  23  28
BRANCH  25  30
ATOM     30  O   UNL A   1      31.870  17.411  21.982  1.00  0.00    -0.502 OA
ATOM     31  H   UNL A   1      31.962  17.749  21.112  1.00  0.00     0.293 HD
ENDBRANCH  25  30
BRANCH  26  32
ATOM     32  O   UNL A   1      31.621  20.080  22.176  1.00  0.00    -0.493 OA
ATOM     33  C   UNL A   1      31.908  21.418  21.812  1.00  0.00     0.278 C 
ENDBRANCH  26  32
ENDBRANCH  11  22
ENDBRANCH   9  10
ENDBRANCH   6   9
ENDBRANCH   3   6
ENDBRANCH   1   2
BRANCH   1  34
ATOM     34  C   UNL A   1      31.657  30.250  25.874  1.00  0.00     0.023 C 
BRANCH  34  35
ATOM     35  C   UNL A   1      32.523  30.480  27.110  1.00  0.00     0.023 C 
BRANCH  35  36
ATOM     36  C   UNL A   1      33.381  31.739  27.145  1.00  0.00     0.116 C 
BRANCH  36  37
ATOM     37  N   UNL A   1      32.737  32.956  27.629  1.00  0.00    -0.352 N 
ATOM     38  C   UNL A   1      33.209  33.947  28.483  1.00  0.00     0.251 C 
ATOM     39  H   UNL A   1      31.820  33.098  27.299  1.00  0.00     0.163 HD
ATOM     40  O   UNL A   1      32.538  34.931  28.730  1.00  0.00    -0.269 OA
BRANCH  38  41
ATOM     41  C   UNL A   1      34.514  33.747  29.173  1.00  0.00     0.039 A 
ATOM     42  C   UNL A   1      34.555  33.023  30.369  1.00  0.00     0.014 A 
ATOM     43  C   UNL A   1      35.698  34.126  28.558  1.00  0.00     0.014 A 
ATOM     44  C   UNL A   1      35.779  32.530  30.838  1.00  0.00     0.010 A 
ATOM     45  C   UNL A   1      36.874  33.483  28.917  1.00  0.00     0.010 A 
ATOM     46  C   UNL A   1      36.939  32.673  30.062  1.00  0.00    -0.014 A 
BRANCH  46  47
ATOM     47  C   UNL A   1      38.230  32.002  30.395  1.00  0.00     0.031 A 
ATOM     48  C   UNL A   1      39.226  32.707  31.285  1.00  0.00     0.074 A 
ATOM     49  C   UNL A   1      38.575  30.838  29.804  1.00  0.00     0.049 A 
ATOM     50  N   UNL A   1      40.473  32.403  31.543  1.00  0.00    -0.248 NA
ATOM     51  C   UNL A   1      38.780  33.967  31.908  1.00  0.00     0.031 C 
ATOM     52  C   UNL A   1      37.757  30.081  28.852  1.00  0.00     0.029 A 
ATOM     53  N   UNL A   1      39.724  30.089  29.910  1.00  0.00    -0.354 N 
ATOM     54  C   UNL A   1      40.968  33.466  32.290  1.00  0.00     0.074 A 
ATOM     55  C   UNL A   1      39.919  34.454  32.369  1.00  0.00     0.031 C 
ATOM     56  C   UNL A   1      38.403  28.956  28.506  1.00  0.00     0.029 A 
ATOM     57  C   UNL A   1      39.702  28.931  29.168  1.00  0.00     0.049 A 
ATOM     58  H   UNL A   1      40.491  30.357  30.466  1.00  0.00     0.167 HD
ATOM     59  C   UNL A   1      42.171  33.596  32.898  1.00  0.00     0.031 A 
ATOM     60  C   UNL A   1      40.622  27.955  29.038  1.00  0.00     0.031 A 
ATOM     61  C   UNL A   1      43.183  32.577  32.889  1.00  0.00     0.049 A 
ATOM     62  C   UNL A   1      41.922  28.076  29.786  1.00  0.00     0.074 A 
ATOM     63  C   UNL A   1      44.393  32.554  33.558  1.00  0.00     0.029 A 
ATOM     64  N   UNL A   1      43.085  31.386  32.188  1.00  0.00    -0.354 N 
ATOM     65  N   UNL A   1      42.345  29.052  30.553  1.00  0.00    -0.248 NA
ATOM     66  C   UNL A   1      42.864  26.954  29.663  1.00  0.00     0.031 C 
ATOM     67  C   UNL A   1      45.044  31.360  33.232  1.00  0.00     0.029 A 
ATOM     68  C   UNL A   1      44.218  30.621  32.400  1.00  0.00     0.049 A 
ATOM     69  H   UNL A   1      42.324  31.123  31.622  1.00  0.00     0.167 HD
ATOM     70  C   UNL A   1      43.589  28.652  31.024  1.00  0.00     0.074 A 
ATOM     71  C   UNL A   1      43.843  27.337  30.470  1.00  0.00     0.031 C 
ATOM     72  C   UNL A   1      44.445  29.313  31.842  1.00  0.00     0.031 A 
BRANCH  59  73
ATOM     73  C   UNL A   1      42.433  34.883  33.635  1.00  0.00    -0.014 A 
ATOM     74  C   UNL A   1      42.085  35.035  34.988  1.00  0.00     0.009 A 
ATOM     75  C   UNL A   1      43.017  35.968  32.965  1.00  0.00     0.009 A 
ATOM     76  C   UNL A   1      42.249  36.263  35.632  1.00  0.00     0.001 A 
ATOM     77  C   UNL A   1      43.219  37.184  33.623  1.00  0.00     0.001 A 
ATOM     78  C   UNL A   1      42.818  37.336  34.949  1.00  0.00     0.000 A 
ENDBRANCH  59  73
BRANCH  60  79
ATOM     79  C   UNL A   1      40.328  26.753  28.211  1.00  0.00    -0.014 A 
ATOM     80  C   UNL A   1      40.803  26.670  26.893  1.00  0.00     0.009 A 
ATOM     81  C   UNL A   1      39.586  25.682  28.730  1.00  0.00     0.009 A 
ATOM     82  C   UNL A   1      40.524  25.549  26.105  1.00  0.00     0.001 A 
ATOM     83  C   UNL A   1      39.331  24.550  27.949  1.00  0.00     0.001 A 
ATOM     84  C   UNL A   1      39.795  24.487  26.636  1.00  0.00     0.000 A 
ENDBRANCH  60  79
BRANCH  72  85
ATOM     85  C   UNL A   1      45.719  28.611  32.214  1.00  0.00    -0.014 A 
ATOM     86  C   UNL A   1      45.783  27.761  33.327  1.00  0.00     0.009 A 
ATOM     87  C   UNL A   1      46.854  28.762  31.402  1.00  0.00     0.009 A 
ATOM     88  C   UNL A   1      46.971  27.095  33.635  1.00  0.00     0.001 A 
ATOM     89  C   UNL A   1      48.031  28.073  31.696  1.00  0.00     0.001 A 
ATOM     90  C   UNL A   1      48.091  27.247  32.817  1.00  0.00     0.000 A 
ENDBRANCH  72  85
ENDBRANCH  46  47
ENDBRANCH  38  41
ENDBRANCH  36  37
ENDBRANCH  35  36
ENDBRANCH  34  35
ENDBRANCH   1  34
TORSDOF 17
ENDMDL
MODEL 2
REMARK VINA RESULT:     -11.5      2.825      4.338
REMARK SMILES COc1cc(/C=C2/CCc3cc(OC(C)(C)C(=O)NCCCCNC(=O)c4ccc(-c5c6nc(c(-c7ccccc7)c7ccc([nH]7)c(-c7ccccc7)c7nc(c(-c8ccccc8)c8ccc5[nH]8)C=C7)C=C6)cc4)ccc3C2=O)cc(OC)c1O
REMARK SMILES IDX 20 1 19 2 17 3 18 4 14 6 15 7 16 8 13 9 12 10 6 11 7 12 8 13
REMARK SMILES IDX 78 14 9 15 77 16 79 17 10 18 76 19 11 20 75 21 5 22 3 23
REMARK SMILES IDX 4 24 84 25 81 26 80 27 2 28 1 29 85 30 82 32 83 33 21 34
REMARK SMILES IDX 22 35 23 36 24 37 25 38 26 40 27 41 28 42 74 43 29 44 73 45
REMARK SMILES IDX 30 46 31 47 32 48 67 49 33 50 72 51 66 52 68 53 34 54 71 55
REMARK SMILES IDX 65 56 64 57 35 59 57 60 42 61 56 62 43 63 46 64 55 65 69 66
REMARK SMILES IDX 44 67 45 68 54 70 70 71 47 72 36 73 37 74 41 75 38 76 40 77
REMARK SMILES IDX 39 78 58 79 59 80 63 81 60 82 62 83 61 84 48 85 49 86 53 87
REMARK SMILES IDX 50 88 52 89 51 90
REMARK H PARENT 19 5 85 31 24 39 68 58 46 69
REMARK Flexibility Score: inf
ROOT
ATOM      1  C   UNL A   1      33.295  31.336  27.490  1.00  0.00     0.116 C 
ENDROOT
BRANCH   1   2
ATOM      2  N   UNL A   1      33.898  30.001  27.611  1.00  0.00    -0.353 N 
ATOM      3  C   UNL A   1      33.666  28.795  26.967  1.00  0.00     0.263 C 
ATOM      4  O   UNL A   1      34.656  28.059  26.854  1.00  0.00    -0.270 OA
ATOM      5  H   UNL A   1      34.612  29.954  28.287  1.00  0.00     0.163 HD
BRANCH   3   6
ATOM      6  C   UNL A   1      32.212  28.241  26.668  1.00  0.00     0.181 C 
ATOM      7  C   UNL A   1      31.365  28.294  27.940  1.00  0.00     0.067 C 
ATOM      8  C   UNL A   1      32.648  26.836  26.179  1.00  0.00     0.067 C 
BRANCH   6   9
ATOM      9  O   UNL A   1      31.494  29.036  25.631  1.00  0.00    -0.478 OA
BRANCH   9  10
ATOM     10  C   UNL A   1      32.008  28.913  24.342  1.00  0.00     0.121 A 
ATOM     11  C   UNL A   1      33.767  23.739  22.546  1.00  0.00     0.016 C 
ATOM     12  C   UNL A   1      33.442  25.006  22.188  1.00  0.00     0.001 C 
ATOM     13  C   UNL A   1      32.653  25.438  20.959  1.00  0.00     0.044 C 
ATOM     14  C   UNL A   1      33.545  26.135  23.131  1.00  0.00     0.189 C 
ATOM     15  C   UNL A   1      31.531  26.510  21.338  1.00  0.00     0.041 C 
ATOM     16  C   UNL A   1      33.416  27.503  22.548  1.00  0.00     0.026 A 
ATOM     17  O   UNL A   1      33.359  25.990  24.327  1.00  0.00    -0.289 OA
ATOM     18  C   UNL A   1      32.045  27.578  22.308  1.00  0.00    -0.033 A 
ATOM     19  C   UNL A   1      34.080  28.509  23.252  1.00  0.00     0.016 A 
ATOM     20  C   UNL A   1      31.305  28.260  23.295  1.00  0.00     0.051 A 
ATOM     21  C   UNL A   1      33.346  29.257  24.161  1.00  0.00     0.047 A 
BRANCH  11  22
ATOM     22  C   UNL A   1      33.632  23.214  23.948  1.00  0.00    -0.018 A 
ATOM     23  C   UNL A   1      34.685  21.532  25.354  1.00  0.00     0.165 A 
ATOM     24  C   UNL A   1      34.771  22.508  24.372  1.00  0.00     0.058 A 
ATOM     25  C   UNL A   1      33.436  21.227  25.884  1.00  0.00     0.200 A 
ATOM     26  C   UNL A   1      32.330  22.055  25.647  1.00  0.00     0.165 A 
ATOM     27  C   UNL A   1      32.450  23.100  24.712  1.00  0.00     0.058 A 
BRANCH  23  28
ATOM     28  O   UNL A   1      35.823  20.813  25.601  1.00  0.00    -0.493 OA
ATOM     29  C   UNL A   1      37.044  21.498  25.301  1.00  0.00     0.278 C 
ENDBRANCH  23  28
BRANCH  25  30
ATOM     30  O   UNL A   1      33.272  20.010  26.506  1.00  0.00    -0.502 OA
ATOM     31  H   UNL A   1      33.496  19.220  26.054  1.00  0.00     0.293 HD
ENDBRANCH  25  30
BRANCH  26  32
ATOM     32  O   UNL A   1      31.146  21.620  26.177  1.00  0.00    -0.493 OA
ATOM     33  C   UNL A   1      30.144  22.567  26.501  1.00  0.00     0.278 C 
ENDBRANCH  26  32
ENDBRANCH  11  22
ENDBRANCH   9  10
ENDBRANCH   6   9
ENDBRANCH   3   6
ENDBRANCH   1   2
BRANCH   1  34
ATOM     34  C   UNL A   1      34.003  32.450  28.275  1.00  0.00     0.023 C 
BRANCH  34  35
ATOM     35  C   UNL A   1      33.315  33.810  28.349  1.00  0.00     0.023 C 
BRANCH  35  36
ATOM     36  C   UNL A   1      33.849  34.815  29.362  1.00  0.00     0.116 C 
BRANCH  36  37
ATOM     37  N   UNL A   1      32.864  35.456  30.229  1.00  0.00    -0.352 N 
ATOM     38  C   UNL A   1      32.865  35.647  31.607  1.00  0.00     0.251 C 
ATOM     39  H   UNL A   1      32.071  35.809  29.764  1.00  0.00     0.163 HD
ATOM     40  O   UNL A   1      31.969  36.262  32.153  1.00  0.00    -0.269 OA
BRANCH  38  41
ATOM     41  C   UNL A   1      33.929  35.004  32.427  1.00  0.00     0.039 A 
ATOM     42  C   UNL A   1      33.732  33.709  32.916  1.00  0.00     0.014 A 
ATOM     43  C   UNL A   1      35.170  35.609  32.564  1.00  0.00     0.014 A 
ATOM     44  C   UNL A   1      34.828  32.967  33.375  1.00  0.00     0.010 A 
ATOM     45  C   UNL A   1      36.275  34.816  32.838  1.00  0.00     0.010 A 
ATOM     46  C   UNL A   1      36.127  33.481  33.247  1.00  0.00    -0.014 A 
BRANCH  46  47
ATOM     47  C   UNL A   1      37.353  32.674  33.523  1.00  0.00     0.031 A 
ATOM     48  C   UNL A   1      38.116  32.895  34.808  1.00  0.00     0.074 A 
ATOM     49  C   UNL A   1      37.862  31.850  32.581  1.00  0.00     0.049 A 
ATOM     50  N   UNL A   1      39.297  32.455  35.160  1.00  0.00    -0.248 NA
ATOM     51  C   UNL A   1      37.498  33.797  35.796  1.00  0.00     0.031 C 
ATOM     52  C   UNL A   1      37.289  31.600  31.256  1.00  0.00     0.029 A 
ATOM     53  N   UNL A   1      38.998  31.075  32.594  1.00  0.00    -0.354 N 
ATOM     54  C   UNL A   1      39.582  33.083  36.367  1.00  0.00     0.074 A 
ATOM     55  C   UNL A   1      38.496  33.994  36.639  1.00  0.00     0.031 C 
ATOM     56  C   UNL A   1      38.040  30.696  30.609  1.00  0.00     0.029 A 
ATOM     57  C   UNL A   1      39.178  30.336  31.448  1.00  0.00     0.049 A 
ATOM     58  H   UNL A   1      39.623  31.050  33.353  1.00  0.00     0.167 HD
ATOM     59  C   UNL A   1      40.630  32.892  37.204  1.00  0.00     0.031 A 
ATOM     60  C   UNL A   1      40.148  29.464  31.110  1.00  0.00     0.031 A 
ATOM     61  C   UNL A   1      41.667  31.925  36.974  1.00  0.00     0.049 A 
ATOM     62  C   UNL A   1      41.263  29.201  32.085  1.00  0.00     0.074 A 
ATOM     63  C   UNL A   1      42.717  31.569  37.800  1.00  0.00     0.029 A 
ATOM     64  N   UNL A   1      41.767  31.143  35.834  1.00  0.00    -0.354 N 
ATOM     65  N   UNL A   1      41.478  29.745  33.259  1.00  0.00    -0.248 NA
ATOM     66  C   UNL A   1      42.259  28.192  31.697  1.00  0.00     0.031 C 
ATOM     67  C   UNL A   1      43.473  30.593  37.144  1.00  0.00     0.029 A 
ATOM     68  C   UNL A   1      42.866  30.310  35.930  1.00  0.00     0.049 A 
ATOM     69  H   UNL A   1      41.148  31.177  35.068  1.00  0.00     0.167 HD
ATOM     70  C   UNL A   1      42.617  29.129  33.760  1.00  0.00     0.074 A 
ATOM     71  C   UNL A   1      43.037  28.157  32.770  1.00  0.00     0.031 C 
ATOM     72  C   UNL A   1      43.260  29.347  34.934  1.00  0.00     0.031 A 
BRANCH  59  73
ATOM     73  C   UNL A   1      40.680  33.738  38.449  1.00  0.00    -0.014 A 
ATOM     74  C   UNL A   1      40.049  33.330  39.636  1.00  0.00     0.009 A 
ATOM     75  C   UNL A   1      41.348  34.971  38.430  1.00  0.00     0.009 A 
ATOM     76  C   UNL A   1      40.026  34.167  40.754  1.00  0.00     0.001 A 
ATOM     77  C   UNL A   1      41.358  35.790  39.563  1.00  0.00     0.001 A 
ATOM     78  C   UNL A   1      40.682  35.395  40.717  1.00  0.00     0.000 A 
ENDBRANCH  59  73
BRANCH  60  79
ATOM     79  C   UNL A   1      40.081  28.733  29.814  1.00  0.00    -0.014 A 
ATOM     80  C   UNL A   1      39.451  27.481  29.744  1.00  0.00     0.009 A 
ATOM     81  C   UNL A   1      40.629  29.280  28.645  1.00  0.00     0.009 A 
ATOM     82  C   UNL A   1      39.389  26.782  28.535  1.00  0.00     0.001 A 
ATOM     83  C   UNL A   1      40.543  28.591  27.432  1.00  0.00     0.001 A 
ATOM     84  C   UNL A   1      39.929  27.341  27.378  1.00  0.00     0.000 A 
ENDBRANCH  60  79
BRANCH  72  85
ATOM     85  C   UNL A   1      44.461  28.497  35.227  1.00  0.00    -0.014 A 
ATOM     86  C   UNL A   1      45.721  28.810  34.698  1.00  0.00     0.009 A 
ATOM     87  C   UNL A   1      44.337  27.400  36.095  1.00  0.00     0.009 A 
ATOM     88  C   UNL A   1      46.830  28.021  35.009  1.00  0.00     0.001 A 
ATOM     89  C   UNL A   1      45.452  26.631  36.427  1.00  0.00     0.001 A 
ATOM     90  C   UNL A   1      46.697  26.938  35.878  1.00  0.00     0.000 A 
ENDBRANCH  72  85
ENDBRANCH  46  47
ENDBRANCH  38  41
ENDBRANCH  36  37
ENDBRANCH  35  36
ENDBRANCH  34  35
ENDBRANCH   1  34
TORSDOF 17
ENDMDL
MODEL 3
REMARK VINA RESULT:     -11.1      6.548     10.887
REMARK SMILES COc1cc(/C=C2/CCc3cc(OC(C)(C)C(=O)NCCCCNC(=O)c4ccc(-c5c6nc(c(-c7ccccc7)c7ccc([nH]7)c(-c7ccccc7)c7nc(c(-c8ccccc8)c8ccc5[nH]8)C=C7)C=C6)cc4)ccc3C2=O)cc(OC)c1O
REMARK SMILES IDX 20 1 19 2 17 3 18 4 14 6 15 7 16 8 13 9 12 10 6 11 7 12 8 13
REMARK SMILES IDX 78 14 9 15 77 16 79 17 10 18 76 19 11 20 75 21 5 22 3 23
REMARK SMILES IDX 4 24 84 25 81 26 80 27 2 28 1 29 85 30 82 32 83 33 21 34
REMARK SMILES IDX 22 35 23 36 24 37 25 38 26 40 27 41 28 42 74 43 29 44 73 45
REMARK SMILES IDX 30 46 31 47 32 48 67 49 33 50 72 51 66 52 68 53 34 54 71 55
REMARK SMILES IDX 65 56 64 57 35 59 57 60 42 61 56 62 43 63 46 64 55 65 69 66
REMARK SMILES IDX 44 67 45 68 54 70 70 71 47 72 36 73 37 74 41 75 38 76 40 77
REMARK SMILES IDX 39 78 58 79 59 80 63 81 60 82 62 83 61 84 48 85 49 86 53 87
REMARK SMILES IDX 50 88 52 89 51 90
REMARK H PARENT 19 5 85 31 24 39 68 58 46 69
REMARK Flexibility Score: inf
ROOT
ATOM      1  C   UNL A   1      45.178  28.370  27.542  1.00  0.00     0.116 C 
ENDROOT
BRANCH   1   2
ATOM      2  N   UNL A   1      45.012  27.462  26.399  1.00  0.00    -0.353 N 
ATOM      3  C   UNL A   1      44.181  26.376  26.166  1.00  0.00     0.263 C 
ATOM      4  O   UNL A   1      43.863  26.201  24.981  1.00  0.00    -0.270 OA
ATOM      5  H   UNL A   1      45.612  27.666  25.645  1.00  0.00     0.163 HD
BRANCH   3   6
ATOM      6  C   UNL A   1      43.899  25.255  27.249  1.00  0.00     0.181 C 
ATOM      7  C   UNL A   1      45.212  24.828  27.907  1.00  0.00     0.067 C 
ATOM      8  C   UNL A   1      43.236  24.234  26.290  1.00  0.00     0.067 C 
BRANCH   6   9
ATOM      9  O   UNL A   1      42.996  25.722  28.340  1.00  0.00    -0.478 OA
BRANCH   9  10
ATOM     10  C   UNL A   1      41.698  26.023  27.933  1.00  0.00     0.121 A 
ATOM     11  C   UNL A   1      38.794  30.120  30.737  1.00  0.00     0.016 C 
ATOM     12  C   UNL A   1      38.852  29.335  29.634  1.00  0.00     0.001 C 
ATOM     13  C   UNL A   1      38.528  29.741  28.202  1.00  0.00     0.044 C 
ATOM     14  C   UNL A   1      39.555  28.039  29.633  1.00  0.00     0.189 C 
ATOM     15  C   UNL A   1      39.652  29.229  27.187  1.00  0.00     0.041 C 
ATOM     16  C   UNL A   1      39.325  27.156  28.451  1.00  0.00     0.026 A 
ATOM     17  O   UNL A   1      40.542  27.844  30.323  1.00  0.00    -0.289 OA
ATOM     18  C   UNL A   1      40.090  27.790  27.474  1.00  0.00    -0.033 A 
ATOM     19  C   UNL A   1      39.461  25.790  28.701  1.00  0.00     0.016 A 
ATOM     20  C   UNL A   1      41.365  27.229  27.261  1.00  0.00     0.051 A 
ATOM     21  C   UNL A   1      40.681  25.197  28.407  1.00  0.00     0.047 A 
BRANCH  11  22
ATOM     22  C   UNL A   1      39.866  30.149  31.792  1.00  0.00    -0.018 A 
ATOM     23  C   UNL A   1      40.010  30.248  34.217  1.00  0.00     0.165 A 
ATOM     24  C   UNL A   1      39.381  29.800  33.064  1.00  0.00     0.058 A 
ATOM     25  C   UNL A   1      41.107  31.093  34.094  1.00  0.00     0.200 A 
ATOM     26  C   UNL A   1      41.741  31.277  32.858  1.00  0.00     0.165 A 
ATOM     27  C   UNL A   1      41.143  30.745  31.700  1.00  0.00     0.058 A 
BRANCH  23  28
ATOM     28  O   UNL A   1      39.386  29.963  35.401  1.00  0.00    -0.493 OA
ATOM     29  C   UNL A   1      38.239  30.771  35.687  1.00  0.00     0.278 C 
ENDBRANCH  23  28
BRANCH  25  30
ATOM     30  O   UNL A   1      41.454  31.871  35.175  1.00  0.00    -0.502 OA
ATOM     31  H   UNL A   1      40.796  32.146  35.784  1.00  0.00     0.293 HD
ENDBRANCH  25  30
BRANCH  26  32
ATOM     32  O   UNL A   1      42.775  32.173  32.855  1.00  0.00    -0.493 OA
ATOM     33  C   UNL A   1      44.063  31.741  32.454  1.00  0.00     0.278 C 
ENDBRANCH  26  32
ENDBRANCH  11  22
ENDBRANCH   9  10
ENDBRANCH   6   9
ENDBRANCH   3   6
ENDBRANCH   1   2
BRANCH   1  34
ATOM     34  C   UNL A   1      43.988  29.302  27.819  1.00  0.00     0.023 C 
BRANCH  34  35
ATOM     35  C   UNL A   1      43.814  30.516  26.911  1.00  0.00     0.023 C 
BRANCH  35  36
ATOM     36  C   UNL A   1      45.073  31.257  26.478  1.00  0.00     0.116 C 
BRANCH  36  37
ATOM     37  N   UNL A   1      44.924  32.222  25.392  1.00  0.00    -0.352 N 
ATOM     38  C   UNL A   1      44.698  33.594  25.430  1.00  0.00     0.251 C 
ATOM     39  H   UNL A   1      44.994  31.840  24.488  1.00  0.00     0.163 HD
ATOM     40  O   UNL A   1      44.658  34.249  24.406  1.00  0.00    -0.269 OA
BRANCH  38  41
ATOM     41  C   UNL A   1      44.407  34.244  26.738  1.00  0.00     0.039 A 
ATOM     42  C   UNL A   1      43.297  35.087  26.855  1.00  0.00     0.014 A 
ATOM     43  C   UNL A   1      45.124  33.891  27.872  1.00  0.00     0.014 A 
ATOM     44  C   UNL A   1      42.810  35.419  28.126  1.00  0.00     0.010 A 
ATOM     45  C   UNL A   1      44.536  34.063  29.117  1.00  0.00     0.010 A 
ATOM     46  C   UNL A   1      43.368  34.828  29.269  1.00  0.00    -0.014 A 
BRANCH  46  47
ATOM     47  C   UNL A   1      42.777  34.973  30.632  1.00  0.00     0.031 A 
ATOM     48  C   UNL A   1      43.650  35.435  31.775  1.00  0.00     0.074 A 
ATOM     49  C   UNL A   1      41.514  34.568  30.882  1.00  0.00     0.049 A 
ATOM     50  N   UNL A   1      43.401  35.443  33.061  1.00  0.00    -0.248 NA
ATOM     51  C   UNL A   1      45.014  35.874  31.431  1.00  0.00     0.031 C 
ATOM     52  C   UNL A   1      40.577  34.015  29.900  1.00  0.00     0.029 A 
ATOM     53  N   UNL A   1      40.800  34.547  32.058  1.00  0.00    -0.354 N 
ATOM     54  C   UNL A   1      44.596  35.816  33.668  1.00  0.00     0.074 A 
ATOM     55  C   UNL A   1      45.583  35.939  32.622  1.00  0.00     0.031 C 
ATOM     56  C   UNL A   1      39.402  33.763  30.498  1.00  0.00     0.029 A 
ATOM     57  C   UNL A   1      39.511  34.086  31.915  1.00  0.00     0.049 A 
ATOM     58  H   UNL A   1      41.175  34.836  32.920  1.00  0.00     0.167 HD
ATOM     59  C   UNL A   1      44.846  36.078  34.972  1.00  0.00     0.031 A 
ATOM     60  C   UNL A   1      38.526  33.941  32.824  1.00  0.00     0.031 A 
ATOM     61  C   UNL A   1      43.844  36.036  36.000  1.00  0.00     0.049 A 
ATOM     62  C   UNL A   1      38.796  34.316  34.256  1.00  0.00     0.074 A 
ATOM     63  C   UNL A   1      43.957  36.386  37.333  1.00  0.00     0.029 A 
ATOM     64  N   UNL A   1      42.532  35.638  35.796  1.00  0.00    -0.354 N 
ATOM     65  N   UNL A   1      39.910  34.743  34.802  1.00  0.00    -0.248 NA
ATOM     66  C   UNL A   1      37.670  34.204  35.194  1.00  0.00     0.031 C 
ATOM     67  C   UNL A   1      42.718  36.166  37.944  1.00  0.00     0.029 A 
ATOM     68  C   UNL A   1      41.825  35.725  36.981  1.00  0.00     0.049 A 
ATOM     69  H   UNL A   1      42.159  35.337  34.936  1.00  0.00     0.167 HD
ATOM     70  C   UNL A   1      39.613  34.974  36.139  1.00  0.00     0.074 A 
ATOM     71  C   UNL A   1      38.210  34.657  36.317  1.00  0.00     0.031 C 
ATOM     72  C   UNL A   1      40.428  35.409  37.131  1.00  0.00     0.031 A 
BRANCH  59  73
ATOM     73  C   UNL A   1      46.258  36.451  35.340  1.00  0.00    -0.014 A 
ATOM     74  C   UNL A   1      46.693  37.787  35.309  1.00  0.00     0.009 A 
ATOM     75  C   UNL A   1      47.174  35.453  35.703  1.00  0.00     0.009 A 
ATOM     76  C   UNL A   1      48.029  38.106  35.563  1.00  0.00     0.001 A 
ATOM     77  C   UNL A   1      48.500  35.780  35.997  1.00  0.00     0.001 A 
ATOM     78  C   UNL A   1      48.931  37.103  35.909  1.00  0.00     0.000 A 
ENDBRANCH  59  73
BRANCH  60  79
ATOM     79  C   UNL A   1      37.178  33.474  32.400  1.00  0.00    -0.014 A 
ATOM     80  C   UNL A   1      36.830  32.120  32.523  1.00  0.00     0.009 A 
ATOM     81  C   UNL A   1      36.231  34.370  31.883  1.00  0.00     0.009 A 
ATOM     82  C   UNL A   1      35.570  31.668  32.119  1.00  0.00     0.001 A 
ATOM     83  C   UNL A   1      34.962  33.921  31.505  1.00  0.00     0.001 A 
ATOM     84  C   UNL A   1      34.635  32.571  31.617  1.00  0.00     0.000 A 
ENDBRANCH  60  79
BRANCH  72  85
ATOM     85  C   UNL A   1      39.815  35.602  38.488  1.00  0.00    -0.014 A 
ATOM     86  C   UNL A   1      39.702  34.537  39.393  1.00  0.00     0.009 A 
ATOM     87  C   UNL A   1      39.398  36.883  38.883  1.00  0.00     0.009 A 
ATOM     88  C   UNL A   1      39.156  34.747  40.661  1.00  0.00     0.001 A 
ATOM     89  C   UNL A   1      38.880  37.096  40.160  1.00  0.00     0.001 A 
ATOM     90  C   UNL A   1      38.752  36.026  41.045  1.00  0.00     0.000 A 
ENDBRANCH  72  85
ENDBRANCH  46  47
ENDBRANCH  38  41
ENDBRANCH  36  37
ENDBRANCH  35  36
ENDBRANCH  34  35
ENDBRANCH   1  34
TORSDOF 17
ENDMDL
