MODEL 1
REMARK VINA RESULT:     -11.9      0.000      0.000
REMARK SMILES CC(C)(C)c1cc2c(cc1Cl)C=C(C(=O)NCCCCNC(=O)c1ccc(-c3c4nc(c(-c5ccccc5)c5ccc([nH]5)c(-c5ccccc5)c5nc(c(-c6ccccc6)c6ccc3[nH]6)C=C5)C=C4)cc1)[C@@H](C(F)(F)F)O2
REMARK SMILES IDX 19 1 18 2 17 3 16 4 14 5 15 6 13 8 5 9 6 10 10 11 7 12 9 13
REMARK SMILES IDX 11 14 8 15 77 16 12 17 72 18 2 19 1 20 3 21 4 22 73 23 74 24
REMARK SMILES IDX 75 25 76 26 20 27 21 28 22 29 23 31 24 32 25 33 71 34 26 35
REMARK SMILES IDX 70 36 27 37 28 38 29 39 64 40 30 41 69 42 63 43 65 44 31 45
REMARK SMILES IDX 68 46 62 47 61 48 32 50 54 51 39 52 53 53 40 54 43 55 52 56
REMARK SMILES IDX 66 57 41 58 42 59 51 61 67 62 44 63 33 64 34 65 38 66 35 67
REMARK SMILES IDX 37 68 36 69 55 70 56 71 60 72 57 73 59 74 58 75 45 76 46 77
REMARK SMILES IDX 50 78 47 79 49 80 48 81
REMARK H PARENT 16 7 21 30 65 49 43 60
REMARK Flexibility Score: inf
ROOT
ATOM      1  C   UNL A   1      32.879  28.901  27.310  1.00  0.00     0.023 C 
ENDROOT
BRANCH   1   2
ATOM      2  C   UNL A   1      31.535  29.496  26.880  1.00  0.00     0.023 C 
BRANCH   2   3
ATOM      3  C   UNL A   1      31.545  30.132  25.492  1.00  0.00     0.116 C 
BRANCH   3   4
ATOM      4  N   UNL A   1      30.646  29.457  24.574  1.00  0.00    -0.352 N 
ATOM      5  C   UNL A   1      30.655  28.315  23.845  1.00  0.00     0.251 C 
ATOM      6  O   UNL A   1      29.644  28.119  23.164  1.00  0.00    -0.270 OA
ATOM      7  H   UNL A   1      29.809  29.961  24.446  1.00  0.00     0.163 HD
BRANCH   5   8
ATOM      8  C   UNL A   1      31.770  27.322  23.814  1.00  0.00     0.067 C 
ATOM      9  C   UNL A   1      34.974  23.505  24.886  1.00  0.00    -0.020 A 
ATOM     10  C   UNL A   1      34.692  24.321  23.765  1.00  0.00     0.053 A 
ATOM     11  C   UNL A   1      34.123  23.684  26.001  1.00  0.00     0.045 A 
ATOM     12  C   UNL A   1      33.687  25.290  23.775  1.00  0.00     0.128 A 
ATOM     13  C   UNL A   1      33.109  24.664  26.002  1.00  0.00     0.032 A 
ATOM     14  Cl  UNL A   1      34.156  22.708  27.427  1.00  0.00    -0.084 Cl
ATOM     15  C   UNL A   1      32.891  25.476  24.892  1.00  0.00     0.019 A 
ATOM     16  O   UNL A   1      33.507  25.989  22.617  1.00  0.00    -0.475 OA
ATOM     17  C   UNL A   1      31.817  26.460  24.848  1.00  0.00     0.025 C 
ATOM     18  C   UNL A   1      32.828  27.269  22.747  1.00  0.00     0.314 C 
BRANCH   9  19
ATOM     19  C   UNL A   1      36.116  22.462  24.752  1.00  0.00    -0.012 C 
ATOM     20  C   UNL A   1      35.712  20.992  24.997  1.00  0.00     0.016 C 
ATOM     21  C   UNL A   1      37.266  22.725  25.769  1.00  0.00     0.016 C 
ATOM     22  C   UNL A   1      36.701  22.586  23.331  1.00  0.00     0.016 C 
ENDBRANCH   9  19
BRANCH  18  23
ATOM     23  C   UNL A   1      33.879  28.384  22.896  1.00  0.00     0.429 C 
ATOM     24  F   UNL A   1      34.450  28.332  24.126  1.00  0.00    -0.167 F 
ATOM     25  F   UNL A   1      34.889  28.268  22.001  1.00  0.00    -0.167 F 
ATOM     26  F   UNL A   1      33.357  29.621  22.743  1.00  0.00    -0.167 F 
ENDBRANCH  18  23
ENDBRANCH   5   8
ENDBRANCH   3   4
ENDBRANCH   2   3
ENDBRANCH   1   2
BRANCH   1  27
ATOM     27  C   UNL A   1      34.072  29.852  27.229  1.00  0.00     0.116 C 
BRANCH  27  28
ATOM     28  N   UNL A   1      34.184  30.777  28.348  1.00  0.00    -0.352 N 
ATOM     29  C   UNL A   1      35.257  30.937  29.199  1.00  0.00     0.251 C 
ATOM     30  H   UNL A   1      33.405  31.356  28.515  1.00  0.00     0.163 HD
ATOM     31  O   UNL A   1      35.205  31.712  30.148  1.00  0.00    -0.269 OA
BRANCH  29  32
ATOM     32  C   UNL A   1      36.451  30.100  28.978  1.00  0.00     0.039 A 
ATOM     33  C   UNL A   1      37.000  29.379  30.039  1.00  0.00     0.014 A 
ATOM     34  C   UNL A   1      37.088  30.147  27.737  1.00  0.00     0.014 A 
ATOM     35  C   UNL A   1      38.280  28.856  29.911  1.00  0.00     0.010 A 
ATOM     36  C   UNL A   1      38.344  29.554  27.589  1.00  0.00     0.010 A 
ATOM     37  C   UNL A   1      38.975  28.960  28.693  1.00  0.00    -0.014 A 
BRANCH  37  38
ATOM     38  C   UNL A   1      40.374  28.473  28.617  1.00  0.00     0.031 A 
ATOM     39  C   UNL A   1      40.671  27.047  28.240  1.00  0.00     0.074 A 
ATOM     40  C   UNL A   1      41.382  29.345  28.806  1.00  0.00     0.049 A 
ATOM     41  N   UNL A   1      41.833  26.467  28.071  1.00  0.00    -0.248 NA
ATOM     42  C   UNL A   1      39.521  26.153  28.022  1.00  0.00     0.031 C 
ATOM     43  C   UNL A   1      41.218  30.760  29.145  1.00  0.00     0.029 A 
ATOM     44  N   UNL A   1      42.739  29.181  28.696  1.00  0.00    -0.354 N 
ATOM     45  C   UNL A   1      41.557  25.144  27.750  1.00  0.00     0.074 A 
ATOM     46  C   UNL A   1      40.118  24.997  27.765  1.00  0.00     0.031 C 
ATOM     47  C   UNL A   1      42.422  31.350  29.149  1.00  0.00     0.029 A 
ATOM     48  C   UNL A   1      43.444  30.346  28.872  1.00  0.00     0.049 A 
ATOM     49  H   UNL A   1      43.165  28.313  28.511  1.00  0.00     0.167 HD
ATOM     50  C   UNL A   1      42.423  24.144  27.464  1.00  0.00     0.031 A 
ATOM     51  C   UNL A   1      44.768  30.584  28.818  1.00  0.00     0.031 A 
ATOM     52  C   UNL A   1      43.854  24.292  27.432  1.00  0.00     0.049 A 
ATOM     53  C   UNL A   1      45.707  29.452  28.529  1.00  0.00     0.074 A 
ATOM     54  C   UNL A   1      44.811  23.335  27.144  1.00  0.00     0.029 A 
ATOM     55  N   UNL A   1      44.530  25.473  27.691  1.00  0.00    -0.354 N 
ATOM     56  N   UNL A   1      45.427  28.203  28.247  1.00  0.00    -0.248 NA
ATOM     57  C   UNL A   1      47.144  29.759  28.562  1.00  0.00     0.031 C 
ATOM     58  C   UNL A   1      46.071  23.926  27.268  1.00  0.00     0.029 A 
ATOM     59  C   UNL A   1      45.896  25.263  27.586  1.00  0.00     0.049 A 
ATOM     60  H   UNL A   1      44.106  26.332  27.914  1.00  0.00     0.167 HD
ATOM     61  C   UNL A   1      46.651  27.574  28.067  1.00  0.00     0.074 A 
ATOM     62  C   UNL A   1      47.675  28.584  28.249  1.00  0.00     0.031 C 
ATOM     63  C   UNL A   1      46.901  26.273  27.784  1.00  0.00     0.031 A 
BRANCH  50  64
ATOM     64  C   UNL A   1      41.855  22.783  27.176  1.00  0.00    -0.014 A 
ATOM     65  C   UNL A   1      41.109  22.575  26.005  1.00  0.00     0.009 A 
ATOM     66  C   UNL A   1      41.983  21.733  28.097  1.00  0.00     0.009 A 
ATOM     67  C   UNL A   1      40.497  21.343  25.764  1.00  0.00     0.001 A 
ATOM     68  C   UNL A   1      41.388  20.495  27.843  1.00  0.00     0.001 A 
ATOM     69  C   UNL A   1      40.640  20.304  26.681  1.00  0.00     0.000 A 
ENDBRANCH  50  64
BRANCH  51  70
ATOM     70  C   UNL A   1      45.265  31.965  29.041  1.00  0.00    -0.014 A 
ATOM     71  C   UNL A   1      45.444  32.841  27.959  1.00  0.00     0.009 A 
ATOM     72  C   UNL A   1      45.619  32.390  30.330  1.00  0.00     0.009 A 
ATOM     73  C   UNL A   1      45.993  34.108  28.158  1.00  0.00     0.001 A 
ATOM     74  C   UNL A   1      46.146  33.669  30.529  1.00  0.00     0.001 A 
ATOM     75  C   UNL A   1      46.341  34.522  29.443  1.00  0.00     0.000 A 
ENDBRANCH  51  70
BRANCH  63  76
ATOM     76  C   UNL A   1      48.337  25.857  27.655  1.00  0.00    -0.014 A 
ATOM     77  C   UNL A   1      49.066  25.500  28.800  1.00  0.00     0.009 A 
ATOM     78  C   UNL A   1      48.988  25.896  26.413  1.00  0.00     0.009 A 
ATOM     79  C   UNL A   1      50.424  25.194  28.704  1.00  0.00     0.001 A 
ATOM     80  C   UNL A   1      50.341  25.569  26.317  1.00  0.00     0.001 A 
ATOM     81  C   UNL A   1      51.059  25.225  27.463  1.00  0.00     0.000 A 
ENDBRANCH  63  76
ENDBRANCH  37  38
ENDBRANCH  29  32
ENDBRANCH  27  28
ENDBRANCH   1  27
TORSDOF 13
ENDMDL
MODEL 2
REMARK VINA RESULT:     -11.6      2.948      7.934
REMARK SMILES CC(C)(C)c1cc2c(cc1Cl)C=C(C(=O)NCCCCNC(=O)c1ccc(-c3c4nc(c(-c5ccccc5)c5ccc([nH]5)c(-c5ccccc5)c5nc(c(-c6ccccc6)c6ccc3[nH]6)C=C5)C=C4)cc1)[C@@H](C(F)(F)F)O2
REMARK SMILES IDX 19 1 18 2 17 3 16 4 14 5 15 6 13 8 5 9 6 10 10 11 7 12 9 13
REMARK SMILES IDX 11 14 8 15 77 16 12 17 72 18 2 19 1 20 3 21 4 22 73 23 74 24
REMARK SMILES IDX 75 25 76 26 20 27 21 28 22 29 23 31 24 32 25 33 71 34 26 35
REMARK SMILES IDX 70 36 27 37 28 38 29 39 64 40 30 41 69 42 63 43 65 44 31 45
REMARK SMILES IDX 68 46 62 47 61 48 32 50 54 51 39 52 53 53 40 54 43 55 52 56
REMARK SMILES IDX 66 57 41 58 42 59 51 61 67 62 44 63 33 64 34 65 38 66 35 67
REMARK SMILES IDX 37 68 36 69 55 70 56 71 60 72 57 73 59 74 58 75 45 76 46 77
REMARK SMILES IDX 50 78 47 79 49 80 48 81
REMARK H PARENT 16 7 21 30 65 49 43 60
REMARK Flexibility Score: inf
ROOT
ATOM      1  C   UNL A   1      38.098  21.952  24.862  1.00  0.00     0.023 C 
ENDROOT
BRANCH   1   2
ATOM      2  C   UNL A   1      36.713  21.585  24.325  1.00  0.00     0.023 C 
BRANCH   2   3
ATOM      3  C   UNL A   1      35.983  20.523  25.144  1.00  0.00     0.116 C 
BRANCH   3   4
ATOM      4  N   UNL A   1      34.668  20.224  24.605  1.00  0.00    -0.352 N 
ATOM      5  C   UNL A   1      33.472  20.853  24.518  1.00  0.00     0.251 C 
ATOM      6  O   UNL A   1      32.579  20.206  23.963  1.00  0.00    -0.270 OA
ATOM      7  H   UNL A   1      34.638  19.329  24.195  1.00  0.00     0.163 HD
BRANCH   5   8
ATOM      8  C   UNL A   1      33.178  22.222  25.037  1.00  0.00     0.067 C 
ATOM      9  C   UNL A   1      32.700  27.268  25.574  1.00  0.00    -0.020 A 
ATOM     10  C   UNL A   1      32.210  26.117  26.234  1.00  0.00     0.053 A 
ATOM     11  C   UNL A   1      33.451  27.026  24.401  1.00  0.00     0.045 A 
ATOM     12  C   UNL A   1      32.502  24.822  25.803  1.00  0.00     0.128 A 
ATOM     13  C   UNL A   1      33.740  25.714  23.971  1.00  0.00     0.032 A 
ATOM     14  Cl  UNL A   1      34.025  28.256  23.331  1.00  0.00    -0.084 Cl
ATOM     15  C   UNL A   1      33.273  24.607  24.673  1.00  0.00     0.019 A 
ATOM     16  O   UNL A   1      31.943  23.804  26.519  1.00  0.00    -0.475 OA
ATOM     17  C   UNL A   1      33.513  23.242  24.222  1.00  0.00     0.025 C 
ATOM     18  C   UNL A   1      32.589  22.507  26.390  1.00  0.00     0.314 C 
BRANCH   9  19
ATOM     19  C   UNL A   1      32.305  28.655  26.148  1.00  0.00    -0.012 C 
ATOM     20  C   UNL A   1      31.410  29.527  25.240  1.00  0.00     0.016 C 
ATOM     21  C   UNL A   1      33.552  29.542  26.434  1.00  0.00     0.016 C 
ATOM     22  C   UNL A   1      31.574  28.419  27.485  1.00  0.00     0.016 C 
ENDBRANCH   9  19
BRANCH  18  23
ATOM     23  C   UNL A   1      33.611  22.338  27.530  1.00  0.00     0.429 C 
ATOM     24  F   UNL A   1      33.916  21.027  27.699  1.00  0.00    -0.167 F 
ATOM     25  F   UNL A   1      34.780  22.973  27.276  1.00  0.00    -0.167 F 
ATOM     26  F   UNL A   1      33.158  22.806  28.714  1.00  0.00    -0.167 F 
ENDBRANCH  18  23
ENDBRANCH   5   8
ENDBRANCH   3   4
ENDBRANCH   2   3
ENDBRANCH   1   2
BRANCH   1  27
ATOM     27  C   UNL A   1      38.554  21.168  26.092  1.00  0.00     0.116 C 
BRANCH  27  28
ATOM     28  N   UNL A   1      39.388  20.013  25.796  1.00  0.00    -0.352 N 
ATOM     29  C   UNL A   1      40.748  19.888  25.990  1.00  0.00     0.251 C 
ATOM     30  H   UNL A   1      38.929  19.229  25.414  1.00  0.00     0.163 HD
ATOM     31  O   UNL A   1      41.349  18.878  25.641  1.00  0.00    -0.269 OA
BRANCH  29  32
ATOM     32  C   UNL A   1      41.475  21.032  26.572  1.00  0.00     0.039 A 
ATOM     33  C   UNL A   1      41.519  21.195  27.956  1.00  0.00     0.014 A 
ATOM     34  C   UNL A   1      41.998  22.005  25.718  1.00  0.00     0.014 A 
ATOM     35  C   UNL A   1      41.920  22.416  28.482  1.00  0.00     0.010 A 
ATOM     36  C   UNL A   1      42.472  23.203  26.255  1.00  0.00     0.010 A 
ATOM     37  C   UNL A   1      42.377  23.441  27.635  1.00  0.00    -0.014 A 
BRANCH  37  38
ATOM     38  C   UNL A   1      42.712  24.763  28.218  1.00  0.00     0.031 A 
ATOM     39  C   UNL A   1      44.144  25.149  28.475  1.00  0.00     0.074 A 
ATOM     40  C   UNL A   1      41.725  25.651  28.438  1.00  0.00     0.049 A 
ATOM     41  N   UNL A   1      44.621  26.282  28.926  1.00  0.00    -0.248 NA
ATOM     42  C   UNL A   1      45.177  24.139  28.187  1.00  0.00     0.031 C 
ATOM     43  C   UNL A   1      40.302  25.402  28.200  1.00  0.00     0.029 A 
ATOM     44  N   UNL A   1      41.771  26.952  28.869  1.00  0.00    -0.354 N 
ATOM     45  C   UNL A   1      45.999  26.115  28.997  1.00  0.00     0.074 A 
ATOM     46  C   UNL A   1      46.284  24.766  28.561  1.00  0.00     0.031 C 
ATOM     47  C   UNL A   1      39.618  26.535  28.421  1.00  0.00     0.029 A 
ATOM     48  C   UNL A   1      40.544  27.568  28.874  1.00  0.00     0.049 A 
ATOM     49  H   UNL A   1      42.602  27.400  29.148  1.00  0.00     0.167 HD
ATOM     50  C   UNL A   1      46.940  27.007  29.385  1.00  0.00     0.031 A 
ATOM     51  C   UNL A   1      40.198  28.825  29.205  1.00  0.00     0.031 A 
ATOM     52  C   UNL A   1      46.660  28.354  29.804  1.00  0.00     0.049 A 
ATOM     53  C   UNL A   1      41.256  29.784  29.661  1.00  0.00     0.074 A 
ATOM     54  C   UNL A   1      47.552  29.332  30.208  1.00  0.00     0.029 A 
ATOM     55  N   UNL A   1      45.394  28.914  29.866  1.00  0.00    -0.354 N 
ATOM     56  N   UNL A   1      42.551  29.601  29.740  1.00  0.00    -0.248 NA
ATOM     57  C   UNL A   1      40.805  31.116  30.084  1.00  0.00     0.031 C 
ATOM     58  C   UNL A   1      46.823  30.473  30.554  1.00  0.00     0.029 A 
ATOM     59  C   UNL A   1      45.481  30.220  30.319  1.00  0.00     0.049 A 
ATOM     60  H   UNL A   1      44.559  28.454  29.623  1.00  0.00     0.167 HD
ATOM     61  C   UNL A   1      43.072  30.794  30.220  1.00  0.00     0.074 A 
ATOM     62  C   UNL A   1      41.955  31.702  30.393  1.00  0.00     0.031 C 
ATOM     63  C   UNL A   1      44.361  31.105  30.499  1.00  0.00     0.031 A 
BRANCH  50  64
ATOM     64  C   UNL A   1      48.373  26.555  29.397  1.00  0.00    -0.014 A 
ATOM     65  C   UNL A   1      49.165  26.725  28.250  1.00  0.00     0.009 A 
ATOM     66  C   UNL A   1      48.915  25.887  30.505  1.00  0.00     0.009 A 
ATOM     67  C   UNL A   1      50.470  26.231  28.210  1.00  0.00     0.001 A 
ATOM     68  C   UNL A   1      50.229  25.414  30.470  1.00  0.00     0.001 A 
ATOM     69  C   UNL A   1      51.002  25.580  29.321  1.00  0.00     0.000 A 
ENDBRANCH  50  64
BRANCH  51  70
ATOM     70  C   UNL A   1      38.774  29.234  29.106  1.00  0.00    -0.014 A 
ATOM     71  C   UNL A   1      37.907  29.066  30.197  1.00  0.00     0.009 A 
ATOM     72  C   UNL A   1      38.264  29.738  27.900  1.00  0.00     0.009 A 
ATOM     73  C   UNL A   1      36.550  29.369  30.075  1.00  0.00     0.001 A 
ATOM     74  C   UNL A   1      36.910  30.063  27.790  1.00  0.00     0.001 A 
ATOM     75  C   UNL A   1      36.054  29.870  28.873  1.00  0.00     0.000 A 
ENDBRANCH  51  70
BRANCH  63  76
ATOM     76  C   UNL A   1      44.642  32.482  31.025  1.00  0.00    -0.014 A 
ATOM     77  C   UNL A   1      44.599  32.723  32.407  1.00  0.00     0.009 A 
ATOM     78  C   UNL A   1      44.870  33.553  30.149  1.00  0.00     0.009 A 
ATOM     79  C   UNL A   1      44.774  34.016  32.902  1.00  0.00     0.001 A 
ATOM     80  C   UNL A   1      45.066  34.841  30.649  1.00  0.00     0.001 A 
ATOM     81  C   UNL A   1      45.011  35.073  32.024  1.00  0.00     0.000 A 
ENDBRANCH  63  76
ENDBRANCH  37  38
ENDBRANCH  29  32
ENDBRANCH  27  28
ENDBRANCH   1  27
TORSDOF 13
ENDMDL
MODEL 3
REMARK VINA RESULT:     -11.6      2.997      7.722
REMARK SMILES CC(C)(C)c1cc2c(cc1Cl)C=C(C(=O)NCCCCNC(=O)c1ccc(-c3c4nc(c(-c5ccccc5)c5ccc([nH]5)c(-c5ccccc5)c5nc(c(-c6ccccc6)c6ccc3[nH]6)C=C5)C=C4)cc1)[C@@H](C(F)(F)F)O2
REMARK SMILES IDX 19 1 18 2 17 3 16 4 14 5 15 6 13 8 5 9 6 10 10 11 7 12 9 13
REMARK SMILES IDX 11 14 8 15 77 16 12 17 72 18 2 19 1 20 3 21 4 22 73 23 74 24
REMARK SMILES IDX 75 25 76 26 20 27 21 28 22 29 23 31 24 32 25 33 71 34 26 35
REMARK SMILES IDX 70 36 27 37 28 38 29 39 64 40 30 41 69 42 63 43 65 44 31 45
REMARK SMILES IDX 68 46 62 47 61 48 32 50 54 51 39 52 53 53 40 54 43 55 52 56
REMARK SMILES IDX 66 57 41 58 42 59 51 61 67 62 44 63 33 64 34 65 38 66 35 67
REMARK SMILES IDX 37 68 36 69 55 70 56 71 60 72 57 73 59 74 58 75 45 76 46 77
REMARK SMILES IDX 50 78 47 79 49 80 48 81
REMARK H PARENT 16 7 21 30 65 49 43 60
REMARK Flexibility Score: inf
ROOT
ATOM      1  C   UNL A   1      37.794  21.816  24.612  1.00  0.00     0.023 C 
ENDROOT
BRANCH   1   2
ATOM      2  C   UNL A   1      36.266  21.742  24.646  1.00  0.00     0.023 C 
BRANCH   2   3
ATOM      3  C   UNL A   1      35.712  20.394  25.101  1.00  0.00     0.116 C 
BRANCH   3   4
ATOM      4  N   UNL A   1      34.380  20.145  24.578  1.00  0.00    -0.352 N 
ATOM      5  C   UNL A   1      33.207  20.818  24.506  1.00  0.00     0.251 C 
ATOM      6  O   UNL A   1      32.284  20.205  23.961  1.00  0.00    -0.270 OA
ATOM      7  H   UNL A   1      34.312  19.252  24.167  1.00  0.00     0.163 HD
BRANCH   5   8
ATOM      8  C   UNL A   1      32.970  22.197  25.029  1.00  0.00     0.067 C 
ATOM      9  C   UNL A   1      32.651  27.256  25.562  1.00  0.00    -0.020 A 
ATOM     10  C   UNL A   1      32.155  26.121  26.245  1.00  0.00     0.053 A 
ATOM     11  C   UNL A   1      33.351  26.989  24.363  1.00  0.00     0.045 A 
ATOM     12  C   UNL A   1      32.395  24.816  25.809  1.00  0.00     0.128 A 
ATOM     13  C   UNL A   1      33.589  25.668  23.928  1.00  0.00     0.032 A 
ATOM     14  Cl  UNL A   1      33.919  28.199  23.267  1.00  0.00    -0.084 Cl
ATOM     15  C   UNL A   1      33.117  24.576  24.652  1.00  0.00     0.019 A 
ATOM     16  O   UNL A   1      31.835  23.816  26.550  1.00  0.00    -0.475 OA
ATOM     17  C   UNL A   1      33.303  23.204  24.199  1.00  0.00     0.025 C 
ATOM     18  C   UNL A   1      32.440  22.502  26.402  1.00  0.00     0.314 C 
BRANCH   9  19
ATOM     19  C   UNL A   1      32.317  28.655  26.144  1.00  0.00    -0.012 C 
ATOM     20  C   UNL A   1      31.441  29.561  25.251  1.00  0.00     0.016 C 
ATOM     21  C   UNL A   1      33.600  29.495  26.413  1.00  0.00     0.016 C 
ATOM     22  C   UNL A   1      31.597  28.442  27.492  1.00  0.00     0.016 C 
ENDBRANCH   9  19
BRANCH  18  23
ATOM     23  C   UNL A   1      33.499  22.309  27.504  1.00  0.00     0.429 C 
ATOM     24  F   UNL A   1      34.612  23.030  27.219  1.00  0.00    -0.167 F 
ATOM     25  F   UNL A   1      33.069  22.734  28.717  1.00  0.00    -0.167 F 
ATOM     26  F   UNL A   1      33.876  21.019  27.649  1.00  0.00    -0.167 F 
ENDBRANCH  18  23
ENDBRANCH   5   8
ENDBRANCH   3   4
ENDBRANCH   2   3
ENDBRANCH   1   2
BRANCH   1  27
ATOM     27  C   UNL A   1      38.502  21.354  25.885  1.00  0.00     0.116 C 
BRANCH  27  28
ATOM     28  N   UNL A   1      39.288  20.139  25.732  1.00  0.00    -0.352 N 
ATOM     29  C   UNL A   1      40.622  19.960  26.030  1.00  0.00     0.251 C 
ATOM     30  H   UNL A   1      38.812  19.353  25.376  1.00  0.00     0.163 HD
ATOM     31  O   UNL A   1      41.188  18.897  25.798  1.00  0.00    -0.269 OA
BRANCH  29  32
ATOM     32  C   UNL A   1      41.371  21.106  26.578  1.00  0.00     0.039 A 
ATOM     33  C   UNL A   1      41.343  21.362  27.949  1.00  0.00     0.014 A 
ATOM     34  C   UNL A   1      41.992  21.992  25.695  1.00  0.00     0.014 A 
ATOM     35  C   UNL A   1      41.776  22.596  28.416  1.00  0.00     0.010 A 
ATOM     36  C   UNL A   1      42.495  23.201  26.180  1.00  0.00     0.010 A 
ATOM     37  C   UNL A   1      42.333  23.537  27.532  1.00  0.00    -0.014 A 
BRANCH  37  38
ATOM     38  C   UNL A   1      42.700  24.880  28.046  1.00  0.00     0.031 A 
ATOM     39  C   UNL A   1      41.642  25.917  28.312  1.00  0.00     0.074 A 
ATOM     40  C   UNL A   1      43.986  25.134  28.354  1.00  0.00     0.049 A 
ATOM     41  N   UNL A   1      41.778  27.119  28.813  1.00  0.00    -0.248 NA
ATOM     42  C   UNL A   1      40.252  25.563  27.977  1.00  0.00     0.031 C 
ATOM     43  C   UNL A   1      45.095  24.197  28.169  1.00  0.00     0.029 A 
ATOM     44  N   UNL A   1      44.568  26.236  28.926  1.00  0.00    -0.354 N 
ATOM     45  C   UNL A   1      40.503  27.671  28.833  1.00  0.00     0.074 A 
ATOM     46  C   UNL A   1      39.606  26.682  28.277  1.00  0.00     0.031 C 
ATOM     47  C   UNL A   1      46.212  24.736  28.681  1.00  0.00     0.029 A 
ATOM     48  C   UNL A   1      45.909  26.076  29.174  1.00  0.00     0.049 A 
ATOM     49  H   UNL A   1      44.073  27.060  29.137  1.00  0.00     0.167 HD
ATOM     50  C   UNL A   1      40.115  28.889  29.279  1.00  0.00     0.031 A 
ATOM     51  C   UNL A   1      46.800  26.913  29.736  1.00  0.00     0.031 A 
ATOM     52  C   UNL A   1      41.003  29.867  29.847  1.00  0.00     0.049 A 
ATOM     53  C   UNL A   1      46.350  28.268  30.194  1.00  0.00     0.074 A 
ATOM     54  C   UNL A   1      40.697  31.126  30.333  1.00  0.00     0.029 A 
ATOM     55  N   UNL A   1      42.368  29.693  30.011  1.00  0.00    -0.354 N 
ATOM     56  N   UNL A   1      45.143  28.779  30.186  1.00  0.00    -0.248 NA
ATOM     57  C   UNL A   1      47.384  29.165  30.726  1.00  0.00     0.031 C 
ATOM     58  C   UNL A   1      41.884  31.732  30.755  1.00  0.00     0.029 A 
ATOM     59  C   UNL A   1      42.921  30.830  30.576  1.00  0.00     0.049 A 
ATOM     60  H   UNL A   1      42.869  28.883  29.765  1.00  0.00     0.167 HD
ATOM     61  C   UNL A   1      45.271  30.056  30.713  1.00  0.00     0.074 A 
ATOM     62  C   UNL A   1      46.669  30.234  31.051  1.00  0.00     0.031 C 
ATOM     63  C   UNL A   1      44.314  30.998  30.893  1.00  0.00     0.031 A 
BRANCH  50  64
ATOM     64  C   UNL A   1      38.662  29.251  29.157  1.00  0.00    -0.014 A 
ATOM     65  C   UNL A   1      38.189  29.841  27.974  1.00  0.00     0.009 A 
ATOM     66  C   UNL A   1      37.780  29.088  30.236  1.00  0.00     0.009 A 
ATOM     67  C   UNL A   1      36.863  30.266  27.875  1.00  0.00     0.001 A 
ATOM     68  C   UNL A   1      36.448  29.495  30.126  1.00  0.00     0.001 A 
ATOM     69  C   UNL A   1      35.993  30.089  28.949  1.00  0.00     0.000 A 
ENDBRANCH  50  64
BRANCH  51  70
ATOM     70  C   UNL A   1      48.208  26.471  29.894  1.00  0.00    -0.014 A 
ATOM     71  C   UNL A   1      49.129  26.640  28.848  1.00  0.00     0.009 A 
ATOM     72  C   UNL A   1      48.621  25.824  31.068  1.00  0.00     0.009 A 
ATOM     73  C   UNL A   1      50.430  26.147  28.964  1.00  0.00     0.001 A 
ATOM     74  C   UNL A   1      49.930  25.354  31.190  1.00  0.00     0.001 A 
ATOM     75  C   UNL A   1      50.829  25.507  30.135  1.00  0.00     0.000 A 
ENDBRANCH  51  70
BRANCH  63  76
ATOM     76  C   UNL A   1      44.740  32.313  31.477  1.00  0.00    -0.014 A 
ATOM     77  C   UNL A   1      45.185  33.341  30.633  1.00  0.00     0.009 A 
ATOM     78  C   UNL A   1      44.775  32.503  32.866  1.00  0.00     0.009 A 
ATOM     79  C   UNL A   1      45.663  34.537  31.170  1.00  0.00     0.001 A 
ATOM     80  C   UNL A   1      45.233  33.708  33.400  1.00  0.00     0.001 A 
ATOM     81  C   UNL A   1      45.684  34.721  32.553  1.00  0.00     0.000 A 
ENDBRANCH  63  76
ENDBRANCH  37  38
ENDBRANCH  29  32
ENDBRANCH  27  28
ENDBRANCH   1  27
TORSDOF 13
ENDMDL
