MODEL 1
REMARK VINA RESULT:     -11.4      0.000      0.000
REMARK SMILES Nc1nonc1C(=O)N1[C@@H]2CC[C@H]1C[C@H](CC(=O)NCCCCNC(=O)c1ccc(-c3c4nc(c(-c5ccccc5)c5ccc([nH]5)c(-c5ccccc5)c5nc(c(-c6ccccc6)c6ccc3[nH]6)C=C5)C=C4)cc1)C2
REMARK SMILES IDX 20 1 19 2 17 3 18 4 16 6 15 7 9 8 10 9 13 10 11 11 75 12
REMARK SMILES IDX 12 13 14 14 7 15 8 16 6 17 2 18 3 19 4 20 5 21 1 22 21 25
REMARK SMILES IDX 22 26 23 27 24 28 25 29 26 31 27 32 28 33 74 34 29 35 73 36
REMARK SMILES IDX 30 37 31 38 32 39 67 40 33 41 72 42 66 43 68 44 34 45 71 46
REMARK SMILES IDX 65 47 64 48 35 50 57 51 42 52 56 53 43 54 46 55 55 56 69 57
REMARK SMILES IDX 44 58 45 59 54 61 70 62 47 63 36 64 37 65 41 66 38 67 40 68
REMARK SMILES IDX 39 69 58 70 59 71 63 72 60 73 62 74 61 75 48 76 49 77 53 78
REMARK SMILES IDX 50 79 52 80 51 81
REMARK H PARENT 19 5 1 23 1 24 24 30 68 49 46 60
REMARK Flexibility Score: inf
ROOT
ATOM      1  C   UNL A   1      33.640  32.519  27.626  1.00  0.00     0.116 C 
ENDROOT
BRANCH   1   2
ATOM      2  N   UNL A   1      34.567  31.399  27.675  1.00  0.00    -0.356 N 
ATOM      3  C   UNL A   1      34.365  30.052  27.580  1.00  0.00     0.220 C 
ATOM      4  O   UNL A   1      35.335  29.312  27.751  1.00  0.00    -0.275 OA
ATOM      5  H   UNL A   1      35.509  31.658  27.800  1.00  0.00     0.163 HD
BRANCH   3   6
ATOM      6  C   UNL A   1      32.994  29.467  27.273  1.00  0.00     0.103 C 
BRANCH   6   7
ATOM      7  C   UNL A   1      32.972  28.487  26.073  1.00  0.00     0.002 C 
ATOM      8  N   UNL A   1      31.059  28.502  23.938  1.00  0.00    -0.331 N 
ATOM      9  C   UNL A   1      32.460  28.619  23.550  1.00  0.00     0.086 C 
ATOM     10  C   UNL A   1      31.026  27.307  24.752  1.00  0.00     0.086 C 
ATOM     11  C   UNL A   1      32.925  27.168  23.304  1.00  0.00     0.027 C 
ATOM     12  C   UNL A   1      33.183  29.259  24.744  1.00  0.00     0.029 C 
ATOM     13  C   UNL A   1      31.874  26.298  23.992  1.00  0.00     0.027 C 
ATOM     14  C   UNL A   1      31.674  27.658  26.089  1.00  0.00     0.029 C 
BRANCH   8  15
ATOM     15  C   UNL A   1      30.087  28.696  22.955  1.00  0.00     0.280 C 
ATOM     16  O   UNL A   1      30.154  28.102  21.879  1.00  0.00    -0.267 OA
BRANCH  15  17
ATOM     17  C   UNL A   1      29.067  29.705  23.251  1.00  0.00     0.216 A 
ATOM     18  C   UNL A   1      27.649  29.694  23.155  1.00  0.00     0.201 A 
ATOM     19  N   UNL A   1      27.161  30.853  23.590  1.00  0.00    -0.032 NA
ATOM     20  O   UNL A   1      28.267  31.611  23.930  1.00  0.00    -0.242 OA
ATOM     21  N   UNL A   1      29.440  30.910  23.712  1.00  0.00    -0.042 NA
BRANCH  18  22
ATOM     22  N   UNL A   1      26.856  28.721  22.677  1.00  0.00    -0.379 N 
ATOM     23  H   UNL A   1      27.251  27.937  22.234  1.00  0.00     0.158 HD
ATOM     24  H   UNL A   1      25.879  28.793  22.770  1.00  0.00     0.158 HD
ENDBRANCH  18  22
ENDBRANCH  15  17
ENDBRANCH   8  15
ENDBRANCH   6   7
ENDBRANCH   3   6
ENDBRANCH   1   2
BRANCH   1  25
ATOM     25  C   UNL A   1      33.999  33.582  28.672  1.00  0.00     0.023 C 
BRANCH  25  26
ATOM     26  C   UNL A   1      33.120  34.815  28.707  1.00  0.00     0.023 C 
BRANCH  26  27
ATOM     27  C   UNL A   1      33.563  35.853  29.716  1.00  0.00     0.116 C 
BRANCH  27  28
ATOM     28  N   UNL A   1      32.548  36.190  30.707  1.00  0.00    -0.352 N 
ATOM     29  C   UNL A   1      32.543  35.888  32.053  1.00  0.00     0.251 C 
ATOM     30  H   UNL A   1      31.771  36.694  30.374  1.00  0.00     0.163 HD
ATOM     31  O   UNL A   1      31.589  36.174  32.758  1.00  0.00    -0.269 OA
BRANCH  29  32
ATOM     32  C   UNL A   1      33.700  35.156  32.609  1.00  0.00     0.039 A 
ATOM     33  C   UNL A   1      33.554  33.809  32.946  1.00  0.00     0.014 A 
ATOM     34  C   UNL A   1      34.950  35.775  32.670  1.00  0.00     0.014 A 
ATOM     35  C   UNL A   1      34.687  33.058  33.257  1.00  0.00     0.010 A 
ATOM     36  C   UNL A   1      36.083  34.999  32.860  1.00  0.00     0.010 A 
ATOM     37  C   UNL A   1      35.964  33.636  33.168  1.00  0.00    -0.014 A 
BRANCH  37  38
ATOM     38  C   UNL A   1      37.197  32.855  33.430  1.00  0.00     0.031 A 
ATOM     39  C   UNL A   1      37.951  33.081  34.712  1.00  0.00     0.074 A 
ATOM     40  C   UNL A   1      37.678  32.011  32.496  1.00  0.00     0.049 A 
ATOM     41  N   UNL A   1      39.099  32.582  35.095  1.00  0.00    -0.248 NA
ATOM     42  C   UNL A   1      37.358  34.028  35.672  1.00  0.00     0.031 C 
ATOM     43  C   UNL A   1      37.070  31.744  31.190  1.00  0.00     0.029 A 
ATOM     44  N   UNL A   1      38.801  31.222  32.507  1.00  0.00    -0.354 N 
ATOM     45  C   UNL A   1      39.374  33.178  36.319  1.00  0.00     0.074 A 
ATOM     46  C   UNL A   1      38.313  34.124  36.584  1.00  0.00     0.031 C 
ATOM     47  C   UNL A   1      37.805  30.823  30.543  1.00  0.00     0.029 A 
ATOM     48  C   UNL A   1      38.952  30.464  31.370  1.00  0.00     0.049 A 
ATOM     49  H   UNL A   1      39.436  31.200  33.257  1.00  0.00     0.167 HD
ATOM     50  C   UNL A   1      40.399  32.939  37.168  1.00  0.00     0.031 A 
ATOM     51  C   UNL A   1      39.907  29.576  31.039  1.00  0.00     0.031 A 
ATOM     52  C   UNL A   1      41.430  31.971  36.928  1.00  0.00     0.049 A 
ATOM     53  C   UNL A   1      41.023  29.305  32.011  1.00  0.00     0.074 A 
ATOM     54  C   UNL A   1      42.484  31.608  37.747  1.00  0.00     0.029 A 
ATOM     55  N   UNL A   1      41.525  31.197  35.781  1.00  0.00    -0.354 N 
ATOM     56  N   UNL A   1      41.238  29.838  33.190  1.00  0.00    -0.248 NA
ATOM     57  C   UNL A   1      42.019  28.301  31.611  1.00  0.00     0.031 C 
ATOM     58  C   UNL A   1      43.235  30.634  37.082  1.00  0.00     0.029 A 
ATOM     59  C   UNL A   1      42.623  30.361  35.868  1.00  0.00     0.049 A 
ATOM     60  H   UNL A   1      40.904  31.238  35.018  1.00  0.00     0.167 HD
ATOM     61  C   UNL A   1      42.373  29.208  33.687  1.00  0.00     0.074 A 
ATOM     62  C   UNL A   1      42.793  28.249  32.686  1.00  0.00     0.031 C 
ATOM     63  C   UNL A   1      43.012  29.406  34.865  1.00  0.00     0.031 A 
BRANCH  50  64
ATOM     64  C   UNL A   1      40.435  33.737  38.442  1.00  0.00    -0.014 A 
ATOM     65  C   UNL A   1      41.052  34.998  38.489  1.00  0.00     0.009 A 
ATOM     66  C   UNL A   1      39.844  33.226  39.607  1.00  0.00     0.009 A 
ATOM     67  C   UNL A   1      41.116  35.711  39.687  1.00  0.00     0.001 A 
ATOM     68  C   UNL A   1      39.881  33.955  40.796  1.00  0.00     0.001 A 
ATOM     69  C   UNL A   1      40.527  35.190  40.838  1.00  0.00     0.000 A 
ENDBRANCH  50  64
BRANCH  51  70
ATOM     70  C   UNL A   1      39.836  28.841  29.749  1.00  0.00    -0.014 A 
ATOM     71  C   UNL A   1      39.314  27.538  29.706  1.00  0.00     0.009 A 
ATOM     72  C   UNL A   1      40.301  29.425  28.562  1.00  0.00     0.009 A 
ATOM     73  C   UNL A   1      39.290  26.824  28.506  1.00  0.00     0.001 A 
ATOM     74  C   UNL A   1      40.251  28.717  27.358  1.00  0.00     0.001 A 
ATOM     75  C   UNL A   1      39.756  27.415  27.333  1.00  0.00     0.000 A 
ENDBRANCH  51  70
BRANCH  63  76
ATOM     76  C   UNL A   1      44.199  28.535  35.154  1.00  0.00    -0.014 A 
ATOM     77  C   UNL A   1      44.053  27.290  35.783  1.00  0.00     0.009 A 
ATOM     78  C   UNL A   1      45.477  28.951  34.748  1.00  0.00     0.009 A 
ATOM     79  C   UNL A   1      45.172  26.492  36.030  1.00  0.00     0.001 A 
ATOM     80  C   UNL A   1      46.589  28.140  34.973  1.00  0.00     0.001 A 
ATOM     81  C   UNL A   1      46.437  26.916  35.621  1.00  0.00     0.000 A 
ENDBRANCH  63  76
ENDBRANCH  37  38
ENDBRANCH  29  32
ENDBRANCH  27  28
ENDBRANCH  26  27
ENDBRANCH  25  26
ENDBRANCH   1  25
TORSDOF 15
ENDMDL
MODEL 2
REMARK VINA RESULT:     -11.3      1.853      2.708
REMARK SMILES Nc1nonc1C(=O)N1[C@@H]2CC[C@H]1C[C@H](CC(=O)NCCCCNC(=O)c1ccc(-c3c4nc(c(-c5ccccc5)c5ccc([nH]5)c(-c5ccccc5)c5nc(c(-c6ccccc6)c6ccc3[nH]6)C=C5)C=C4)cc1)C2
REMARK SMILES IDX 20 1 19 2 17 3 18 4 16 6 15 7 9 8 10 9 13 10 11 11 75 12
REMARK SMILES IDX 12 13 14 14 7 15 8 16 6 17 2 18 3 19 4 20 5 21 1 22 21 25
REMARK SMILES IDX 22 26 23 27 24 28 25 29 26 31 27 32 28 33 74 34 29 35 73 36
REMARK SMILES IDX 30 37 31 38 32 39 67 40 33 41 72 42 66 43 68 44 34 45 71 46
REMARK SMILES IDX 65 47 64 48 35 50 57 51 42 52 56 53 43 54 46 55 55 56 69 57
REMARK SMILES IDX 44 58 45 59 54 61 70 62 47 63 36 64 37 65 41 66 38 67 40 68
REMARK SMILES IDX 39 69 58 70 59 71 63 72 60 73 62 74 61 75 48 76 49 77 53 78
REMARK SMILES IDX 50 79 52 80 51 81
REMARK H PARENT 19 5 1 23 1 24 24 30 68 49 46 60
REMARK Flexibility Score: inf
ROOT
ATOM      1  C   UNL A   1      31.608  29.748  25.461  1.00  0.00     0.116 C 
ENDROOT
BRANCH   1   2
ATOM      2  N   UNL A   1      32.678  29.542  24.497  1.00  0.00    -0.356 N 
ATOM      3  C   UNL A   1      33.742  28.687  24.495  1.00  0.00     0.220 C 
ATOM      4  O   UNL A   1      34.560  28.789  23.579  1.00  0.00    -0.275 OA
ATOM      5  H   UNL A   1      32.625  30.122  23.703  1.00  0.00     0.163 HD
BRANCH   3   6
ATOM      6  C   UNL A   1      33.930  27.637  25.581  1.00  0.00     0.103 C 
BRANCH   6   7
ATOM      7  C   UNL A   1      32.925  26.458  25.508  1.00  0.00     0.002 C 
ATOM      8  N   UNL A   1      30.257  26.600  24.471  1.00  0.00    -0.331 N 
ATOM      9  C   UNL A   1      31.138  25.615  23.855  1.00  0.00     0.086 C 
ATOM     10  C   UNL A   1      30.326  26.289  25.882  1.00  0.00     0.086 C 
ATOM     11  C   UNL A   1      30.902  24.317  24.656  1.00  0.00     0.027 C 
ATOM     12  C   UNL A   1      32.567  26.148  24.032  1.00  0.00     0.029 C 
ATOM     13  C   UNL A   1      30.226  24.772  25.948  1.00  0.00     0.027 C 
ATOM     14  C   UNL A   1      31.691  26.761  26.378  1.00  0.00     0.029 C 
BRANCH   8  15
ATOM     15  C   UNL A   1      29.017  26.836  23.875  1.00  0.00     0.280 C 
ATOM     16  O   UNL A   1      28.076  26.063  24.055  1.00  0.00    -0.267 OA
BRANCH  15  17
ATOM     17  C   UNL A   1      28.948  27.984  22.968  1.00  0.00     0.216 A 
ATOM     18  C   UNL A   1      27.873  28.816  22.552  1.00  0.00     0.201 A 
ATOM     19  N   UNL A   1      28.331  29.767  21.742  1.00  0.00    -0.032 NA
ATOM     20  O   UNL A   1      29.686  29.521  21.616  1.00  0.00    -0.242 OA
ATOM     21  N   UNL A   1      30.065  28.419  22.362  1.00  0.00    -0.042 NA
BRANCH  18  22
ATOM     22  N   UNL A   1      26.570  28.704  22.854  1.00  0.00    -0.379 N 
ATOM     23  H   UNL A   1      25.915  28.503  22.147  1.00  0.00     0.158 HD
ATOM     24  H   UNL A   1      26.268  28.824  23.783  1.00  0.00     0.158 HD
ENDBRANCH  18  22
ENDBRANCH  15  17
ENDBRANCH   8  15
ENDBRANCH   6   7
ENDBRANCH   3   6
ENDBRANCH   1   2
BRANCH   1  25
ATOM     25  C   UNL A   1      32.116  30.500  26.699  1.00  0.00     0.023 C 
BRANCH  25  26
ATOM     26  C   UNL A   1      31.725  31.959  26.806  1.00  0.00     0.023 C 
BRANCH  26  27
ATOM     27  C   UNL A   1      32.853  32.861  27.263  1.00  0.00     0.116 C 
BRANCH  27  28
ATOM     28  N   UNL A   1      32.422  34.195  27.662  1.00  0.00    -0.352 N 
ATOM     29  C   UNL A   1      32.987  35.020  28.614  1.00  0.00     0.251 C 
ATOM     30  H   UNL A   1      31.631  34.551  27.197  1.00  0.00     0.163 HD
ATOM     31  O   UNL A   1      32.478  36.092  28.899  1.00  0.00    -0.269 OA
BRANCH  29  32
ATOM     32  C   UNL A   1      34.193  34.544  29.322  1.00  0.00     0.039 A 
ATOM     33  C   UNL A   1      34.045  33.849  30.524  1.00  0.00     0.014 A 
ATOM     34  C   UNL A   1      35.448  34.679  28.726  1.00  0.00     0.014 A 
ATOM     35  C   UNL A   1      35.152  33.207  31.080  1.00  0.00     0.010 A 
ATOM     36  C   UNL A   1      36.515  33.941  29.215  1.00  0.00     0.010 A 
ATOM     37  C   UNL A   1      36.383  33.207  30.403  1.00  0.00    -0.014 A 
BRANCH  37  38
ATOM     38  C   UNL A   1      37.566  32.485  30.930  1.00  0.00     0.031 A 
ATOM     39  C   UNL A   1      38.216  32.967  32.198  1.00  0.00     0.074 A 
ATOM     40  C   UNL A   1      38.099  31.459  30.238  1.00  0.00     0.049 A 
ATOM     41  N   UNL A   1      39.312  32.548  32.776  1.00  0.00    -0.248 NA
ATOM     42  C   UNL A   1      37.572  34.102  32.884  1.00  0.00     0.031 C 
ATOM     43  C   UNL A   1      37.596  30.931  28.968  1.00  0.00     0.029 A 
ATOM     44  N   UNL A   1      39.193  30.678  30.511  1.00  0.00    -0.354 N 
ATOM     45  C   UNL A   1      39.501  33.385  33.869  1.00  0.00     0.074 A 
ATOM     46  C   UNL A   1      38.449  34.376  33.836  1.00  0.00     0.031 C 
ATOM     47  C   UNL A   1      38.355  29.887  28.594  1.00  0.00     0.029 A 
ATOM     48  C   UNL A   1      39.418  29.697  29.575  1.00  0.00     0.049 A 
ATOM     49  H   UNL A   1      39.763  30.808  31.303  1.00  0.00     0.167 HD
ATOM     50  C   UNL A   1      40.444  33.318  34.836  1.00  0.00     0.031 A 
ATOM     51  C   UNL A   1      40.371  28.749  29.522  1.00  0.00     0.031 A 
ATOM     52  C   UNL A   1      41.463  32.310  34.894  1.00  0.00     0.049 A 
ATOM     53  C   UNL A   1      41.393  28.677  30.624  1.00  0.00     0.074 A 
ATOM     54  C   UNL A   1      42.434  32.116  35.861  1.00  0.00     0.029 A 
ATOM     55  N   UNL A   1      41.632  31.312  33.946  1.00  0.00    -0.354 N 
ATOM     56  N   UNL A   1      41.524  29.442  31.680  1.00  0.00    -0.248 NA
ATOM     57  C   UNL A   1      42.390  27.600  30.531  1.00  0.00     0.031 C 
ATOM     58  C   UNL A   1      43.210  31.016  35.482  1.00  0.00     0.029 A 
ATOM     59  C   UNL A   1      42.694  30.501  34.302  1.00  0.00     0.049 A 
ATOM     60  H   UNL A   1      41.078  31.198  33.140  1.00  0.00     0.167 HD
ATOM     61  C   UNL A   1      42.595  28.919  32.395  1.00  0.00     0.074 A 
ATOM     62  C   UNL A   1      43.069  27.766  31.657  1.00  0.00     0.031 C 
ATOM     63  C   UNL A   1      43.138  29.352  33.558  1.00  0.00     0.031 A 
BRANCH  50  64
ATOM     64  C   UNL A   1      40.395  34.365  35.914  1.00  0.00    -0.014 A 
ATOM     65  C   UNL A   1      39.607  34.184  37.063  1.00  0.00     0.009 A 
ATOM     66  C   UNL A   1      41.146  35.542  35.783  1.00  0.00     0.009 A 
ATOM     67  C   UNL A   1      39.537  35.182  38.037  1.00  0.00     0.001 A 
ATOM     68  C   UNL A   1      41.098  36.524  36.773  1.00  0.00     0.001 A 
ATOM     69  C   UNL A   1      40.286  36.349  37.893  1.00  0.00     0.000 A 
ENDBRANCH  50  64
BRANCH  51  70
ATOM     70  C   UNL A   1      40.387  27.761  28.412  1.00  0.00    -0.014 A 
ATOM     71  C   UNL A   1      39.719  26.533  28.549  1.00  0.00     0.009 A 
ATOM     72  C   UNL A   1      41.079  28.027  27.222  1.00  0.00     0.009 A 
ATOM     73  C   UNL A   1      39.772  25.580  27.529  1.00  0.00     0.001 A 
ATOM     74  C   UNL A   1      41.108  27.082  26.193  1.00  0.00     0.001 A 
ATOM     75  C   UNL A   1      40.464  25.856  26.352  1.00  0.00     0.000 A 
ENDBRANCH  51  70
BRANCH  63  76
ATOM     76  C   UNL A   1      44.271  28.548  34.125  1.00  0.00    -0.014 A 
ATOM     77  C   UNL A   1      45.605  28.859  33.827  1.00  0.00     0.009 A 
ATOM     78  C   UNL A   1      43.995  27.491  35.006  1.00  0.00     0.009 A 
ATOM     79  C   UNL A   1      46.643  28.104  34.377  1.00  0.00     0.001 A 
ATOM     80  C   UNL A   1      45.034  26.755  35.574  1.00  0.00     0.001 A 
ATOM     81  C   UNL A   1      46.356  27.056  35.252  1.00  0.00     0.000 A 
ENDBRANCH  63  76
ENDBRANCH  37  38
ENDBRANCH  29  32
ENDBRANCH  27  28
ENDBRANCH  26  27
ENDBRANCH  25  26
ENDBRANCH   1  25
TORSDOF 15
ENDMDL
MODEL 3
REMARK VINA RESULT:     -11.3      5.023      9.813
REMARK SMILES Nc1nonc1C(=O)N1[C@@H]2CC[C@H]1C[C@H](CC(=O)NCCCCNC(=O)c1ccc(-c3c4nc(c(-c5ccccc5)c5ccc([nH]5)c(-c5ccccc5)c5nc(c(-c6ccccc6)c6ccc3[nH]6)C=C5)C=C4)cc1)C2
REMARK SMILES IDX 20 1 19 2 17 3 18 4 16 6 15 7 9 8 10 9 13 10 11 11 75 12
REMARK SMILES IDX 12 13 14 14 7 15 8 16 6 17 2 18 3 19 4 20 5 21 1 22 21 25
REMARK SMILES IDX 22 26 23 27 24 28 25 29 26 31 27 32 28 33 74 34 29 35 73 36
REMARK SMILES IDX 30 37 31 38 32 39 67 40 33 41 72 42 66 43 68 44 34 45 71 46
REMARK SMILES IDX 65 47 64 48 35 50 57 51 42 52 56 53 43 54 46 55 55 56 69 57
REMARK SMILES IDX 44 58 45 59 54 61 70 62 47 63 36 64 37 65 41 66 38 67 40 68
REMARK SMILES IDX 39 69 58 70 59 71 63 72 60 73 62 74 61 75 48 76 49 77 53 78
REMARK SMILES IDX 50 79 52 80 51 81
REMARK H PARENT 19 5 1 23 1 24 24 30 68 49 46 60
REMARK Flexibility Score: inf
ROOT
ATOM      1  C   UNL A   1      34.734  22.011  25.106  1.00  0.00     0.116 C 
ENDROOT
BRANCH   1   2
ATOM      2  N   UNL A   1      34.020  21.996  26.374  1.00  0.00    -0.356 N 
ATOM      3  C   UNL A   1      32.964  22.735  26.826  1.00  0.00     0.220 C 
ATOM      4  O   UNL A   1      32.611  22.578  27.996  1.00  0.00    -0.275 OA
ATOM      5  H   UNL A   1      34.357  21.336  27.021  1.00  0.00     0.163 HD
BRANCH   3   6
ATOM      6  C   UNL A   1      32.237  23.727  25.929  1.00  0.00     0.103 C 
BRANCH   6   7
ATOM      7  C   UNL A   1      32.407  25.210  26.348  1.00  0.00     0.002 C 
ATOM      8  N   UNL A   1      32.403  27.459  24.571  1.00  0.00    -0.331 N 
ATOM      9  C   UNL A   1      31.418  27.484  25.646  1.00  0.00     0.086 C 
ATOM     10  C   UNL A   1      33.658  27.252  25.258  1.00  0.00     0.086 C 
ATOM     11  C   UNL A   1      32.117  28.229  26.804  1.00  0.00     0.027 C 
ATOM     12  C   UNL A   1      31.130  26.017  25.999  1.00  0.00     0.029 C 
ATOM     13  C   UNL A   1      33.604  28.190  26.454  1.00  0.00     0.027 C 
ATOM     14  C   UNL A   1      33.683  25.795  25.715  1.00  0.00     0.029 C 
BRANCH   8  15
ATOM     15  C   UNL A   1      32.312  28.432  23.574  1.00  0.00     0.280 C 
ATOM     16  O   UNL A   1      33.321  29.005  23.162  1.00  0.00    -0.267 OA
BRANCH  15  17
ATOM     17  C   UNL A   1      30.958  28.782  23.139  1.00  0.00     0.216 A 
ATOM     18  C   UNL A   1      30.087  29.852  23.479  1.00  0.00     0.201 A 
ATOM     19  N   UNL A   1      28.964  29.758  22.771  1.00  0.00    -0.032 NA
ATOM     20  O   UNL A   1      29.107  28.614  22.009  1.00  0.00    -0.242 OA
ATOM     21  N   UNL A   1      30.328  28.007  22.241  1.00  0.00    -0.042 NA
BRANCH  18  22
ATOM     22  N   UNL A   1      30.278  30.823  24.387  1.00  0.00    -0.379 N 
ATOM     23  H   UNL A   1      30.961  31.515  24.232  1.00  0.00     0.158 HD
ATOM     24  H   UNL A   1      29.735  30.844  25.208  1.00  0.00     0.158 HD
ENDBRANCH  18  22
ENDBRANCH  15  17
ENDBRANCH   8  15
ENDBRANCH   6   7
ENDBRANCH   3   6
ENDBRANCH   1   2
BRANCH   1  25
ATOM     25  C   UNL A   1      36.234  22.249  25.319  1.00  0.00     0.023 C 
BRANCH  25  26
ATOM     26  C   UNL A   1      37.140  21.052  25.119  1.00  0.00     0.023 C 
BRANCH  26  27
ATOM     27  C   UNL A   1      38.508  21.209  25.750  1.00  0.00     0.116 C 
BRANCH  27  28
ATOM     28  N   UNL A   1      39.337  20.012  25.676  1.00  0.00    -0.352 N 
ATOM     29  C   UNL A   1      40.667  19.879  26.022  1.00  0.00     0.251 C 
ATOM     30  H   UNL A   1      38.895  19.201  25.338  1.00  0.00     0.163 HD
ATOM     31  O   UNL A   1      41.261  18.828  25.843  1.00  0.00    -0.269 OA
BRANCH  29  32
ATOM     32  C   UNL A   1      41.370  21.061  26.561  1.00  0.00     0.039 A 
ATOM     33  C   UNL A   1      41.933  21.980  25.674  1.00  0.00     0.014 A 
ATOM     34  C   UNL A   1      41.353  21.314  27.934  1.00  0.00     0.014 A 
ATOM     35  C   UNL A   1      42.398  23.201  26.162  1.00  0.00     0.010 A 
ATOM     36  C   UNL A   1      41.703  22.572  28.397  1.00  0.00     0.010 A 
ATOM     37  C   UNL A   1      42.240  23.526  27.520  1.00  0.00    -0.014 A 
BRANCH  37  38
ATOM     38  C   UNL A   1      42.665  24.837  28.066  1.00  0.00     0.031 A 
ATOM     39  C   UNL A   1      41.631  25.904  28.303  1.00  0.00     0.074 A 
ATOM     40  C   UNL A   1      43.971  25.096  28.272  1.00  0.00     0.049 A 
ATOM     41  N   UNL A   1      41.796  27.147  28.677  1.00  0.00    -0.248 NA
ATOM     42  C   UNL A   1      40.228  25.538  28.041  1.00  0.00     0.031 C 
ATOM     43  C   UNL A   1      45.076  24.166  28.029  1.00  0.00     0.029 A 
ATOM     44  N   UNL A   1      44.589  26.232  28.732  1.00  0.00    -0.354 N 
ATOM     45  C   UNL A   1      40.527  27.712  28.664  1.00  0.00     0.074 A 
ATOM     46  C   UNL A   1      39.613  26.701  28.182  1.00  0.00     0.031 C 
ATOM     47  C   UNL A   1      46.232  24.754  28.382  1.00  0.00     0.029 A 
ATOM     48  C   UNL A   1      45.954  26.112  28.838  1.00  0.00     0.049 A 
ATOM     49  H   UNL A   1      44.101  27.054  28.965  1.00  0.00     0.167 HD
ATOM     50  C   UNL A   1      40.146  28.950  29.051  1.00  0.00     0.031 A 
ATOM     51  C   UNL A   1      46.873  26.998  29.262  1.00  0.00     0.031 A 
ATOM     52  C   UNL A   1      41.045  29.941  29.571  1.00  0.00     0.049 A 
ATOM     53  C   UNL A   1      46.423  28.360  29.714  1.00  0.00     0.074 A 
ATOM     54  C   UNL A   1      40.755  31.208  30.045  1.00  0.00     0.029 A 
ATOM     55  N   UNL A   1      42.414  29.765  29.697  1.00  0.00    -0.354 N 
ATOM     56  N   UNL A   1      45.211  28.860  29.748  1.00  0.00    -0.248 NA
ATOM     57  C   UNL A   1      47.467  29.274  30.199  1.00  0.00     0.031 C 
ATOM     58  C   UNL A   1      41.956  31.811  30.432  1.00  0.00     0.029 A 
ATOM     59  C   UNL A   1      42.985  30.902  30.238  1.00  0.00     0.049 A 
ATOM     60  H   UNL A   1      42.906  28.953  29.439  1.00  0.00     0.167 HD
ATOM     61  C   UNL A   1      45.342  30.133  30.290  1.00  0.00     0.074 A 
ATOM     62  C   UNL A   1      46.749  30.322  30.578  1.00  0.00     0.031 C 
ATOM     63  C   UNL A   1      44.386  31.062  30.528  1.00  0.00     0.031 A 
BRANCH  50  64
ATOM     64  C   UNL A   1      38.685  29.285  28.935  1.00  0.00    -0.014 A 
ATOM     65  C   UNL A   1      38.137  29.722  27.718  1.00  0.00     0.009 A 
ATOM     66  C   UNL A   1      37.845  29.160  30.052  1.00  0.00     0.009 A 
ATOM     67  C   UNL A   1      36.788  30.071  27.633  1.00  0.00     0.001 A 
ATOM     68  C   UNL A   1      36.490  29.478  29.956  1.00  0.00     0.001 A 
ATOM     69  C   UNL A   1      35.965  29.944  28.751  1.00  0.00     0.000 A 
ENDBRANCH  50  64
BRANCH  51  70
ATOM     70  C   UNL A   1      48.310  26.620  29.324  1.00  0.00    -0.014 A 
ATOM     71  C   UNL A   1      48.823  25.974  30.460  1.00  0.00     0.009 A 
ATOM     72  C   UNL A   1      49.177  26.914  28.262  1.00  0.00     0.009 A 
ATOM     73  C   UNL A   1      50.181  25.661  30.544  1.00  0.00     0.001 A 
ATOM     74  C   UNL A   1      50.531  26.576  28.338  1.00  0.00     0.001 A 
ATOM     75  C   UNL A   1      51.033  25.960  29.483  1.00  0.00     0.000 A 
ENDBRANCH  51  70
BRANCH  63  76
ATOM     76  C   UNL A   1      44.823  32.344  31.173  1.00  0.00    -0.014 A 
ATOM     77  C   UNL A   1      44.870  32.478  32.568  1.00  0.00     0.009 A 
ATOM     78  C   UNL A   1      45.236  33.417  30.368  1.00  0.00     0.009 A 
ATOM     79  C   UNL A   1      45.292  33.678  33.145  1.00  0.00     0.001 A 
ATOM     80  C   UNL A   1      45.682  34.605  30.947  1.00  0.00     0.001 A 
ATOM     81  C   UNL A   1      45.701  34.737  32.334  1.00  0.00     0.000 A 
ENDBRANCH  63  76
ENDBRANCH  37  38
ENDBRANCH  29  32
ENDBRANCH  27  28
ENDBRANCH  26  27
ENDBRANCH  25  26
ENDBRANCH   1  25
TORSDOF 15
ENDMDL
