MODEL 1
REMARK VINA RESULT:     -12.0      0.000      0.000
REMARK SMILES O=C(NCCCCNC(=O)c1ccc(N2C(=O)/C(=C/C3=c4ccccc4=NC3)SC2=S)cc1O)c1ccc(-c2c3nc(c(-c4ccccc4)c4ccc([nH]4)c(-c4ccccc4)c4nc(c(-c5ccccc5)c5ccc2[nH]5)C=C4)C=C3)cc1
REMARK SMILES IDX 5 1 4 2 3 3 1 4 2 5 35 7 36 8 82 9 37 10 81 11 38 12 39 13
REMARK SMILES IDX 40 14 75 15 41 16 80 17 74 18 76 19 42 20 79 21 73 22 72 23
REMARK SMILES IDX 43 25 65 26 50 27 64 28 51 29 54 30 63 31 77 32 52 33 53 34
REMARK SMILES IDX 62 36 78 37 55 38 44 39 45 40 49 41 46 42 48 43 47 44 66 45
REMARK SMILES IDX 67 46 71 47 68 48 70 49 69 50 56 51 57 52 61 53 58 54 60 55
REMARK SMILES IDX 59 56 6 57 7 58 8 59 9 60 10 62 11 63 12 64 33 65 13 66
REMARK SMILES IDX 32 67 14 68 34 69 15 71 16 72 30 73 17 74 18 75 29 76 31 77
REMARK SMILES IDX 19 78 20 79 21 80 28 81 22 82 26 83 27 84 23 85 25 86 24 87
REMARK H PARENT 3 6 76 24 54 35 8 61 34 70
REMARK Flexibility Score: inf
ROOT
ATOM      1  C   UNL A   1      31.637  31.065  26.490  1.00  0.00     0.023 C 
ENDROOT
BRANCH   1   2
ATOM      2  C   UNL A   1      32.827  31.846  27.036  1.00  0.00     0.116 C 
BRANCH   2   3
ATOM      3  N   UNL A   1      32.505  33.244  27.269  1.00  0.00    -0.352 N 
ATOM      4  O   UNL A   1      32.485  35.212  28.360  1.00  0.00    -0.269 OA
ATOM      5  C   UNL A   1      33.030  34.126  28.179  1.00  0.00     0.251 C 
ATOM      6  H   UNL A   1      31.803  33.614  26.686  1.00  0.00     0.163 HD
BRANCH   5   7
ATOM      7  C   UNL A   1      34.251  33.784  28.942  1.00  0.00     0.039 A 
ATOM      8  C   UNL A   1      35.481  34.291  28.511  1.00  0.00     0.014 A 
ATOM      9  C   UNL A   1      34.201  32.903  30.025  1.00  0.00     0.014 A 
ATOM     10  C   UNL A   1      36.657  33.923  29.170  1.00  0.00     0.010 A 
ATOM     11  C   UNL A   1      35.361  32.599  30.729  1.00  0.00     0.010 A 
ATOM     12  C   UNL A   1      36.605  33.072  30.283  1.00  0.00    -0.014 A 
BRANCH  12  13
ATOM     13  C   UNL A   1      37.837  32.552  30.929  1.00  0.00     0.031 A 
ATOM     14  C   UNL A   1      38.527  31.361  30.315  1.00  0.00     0.074 A 
ATOM     15  C   UNL A   1      38.307  33.096  32.066  1.00  0.00     0.049 A 
ATOM     16  N   UNL A   1      39.512  30.644  30.790  1.00  0.00    -0.248 NA
ATOM     17  C   UNL A   1      38.030  30.902  29.005  1.00  0.00     0.031 C 
ATOM     18  C   UNL A   1      37.741  34.261  32.746  1.00  0.00     0.029 A 
ATOM     19  N   UNL A   1      39.367  32.728  32.862  1.00  0.00    -0.354 N 
ATOM     20  C   UNL A   1      39.730  29.641  29.853  1.00  0.00     0.074 A 
ATOM     21  C   UNL A   1      38.753  29.811  28.804  1.00  0.00     0.031 C 
ATOM     22  C   UNL A   1      38.460  34.515  33.851  1.00  0.00     0.029 A 
ATOM     23  C   UNL A   1      39.502  33.500  33.991  1.00  0.00     0.049 A 
ATOM     24  H   UNL A   1      39.971  31.983  32.643  1.00  0.00     0.167 HD
ATOM     25  C   UNL A   1      40.678  28.679  29.859  1.00  0.00     0.031 A 
ATOM     26  C   UNL A   1      40.349  33.387  35.035  1.00  0.00     0.031 A 
ATOM     27  C   UNL A   1      41.677  28.544  30.881  1.00  0.00     0.049 A 
ATOM     28  C   UNL A   1      41.371  32.279  35.038  1.00  0.00     0.074 A 
ATOM     29  C   UNL A   1      42.710  27.626  30.946  1.00  0.00     0.029 A 
ATOM     30  N   UNL A   1      41.779  29.350  32.002  1.00  0.00    -0.354 N 
ATOM     31  N   UNL A   1      41.587  31.357  34.129  1.00  0.00    -0.248 NA
ATOM     32  C   UNL A   1      42.272  32.193  36.198  1.00  0.00     0.031 C 
ATOM     33  C   UNL A   1      43.394  27.830  32.141  1.00  0.00     0.029 A 
ATOM     34  C   UNL A   1      42.841  28.929  32.779  1.00  0.00     0.049 A 
ATOM     35  H   UNL A   1      41.185  30.106  32.214  1.00  0.00     0.167 HD
ATOM     36  C   UNL A   1      42.662  30.607  34.593  1.00  0.00     0.074 A 
ATOM     37  C   UNL A   1      43.064  31.183  35.857  1.00  0.00     0.031 C 
ATOM     38  C   UNL A   1      43.255  29.534  34.019  1.00  0.00     0.031 A 
BRANCH  25  39
ATOM     39  C   UNL A   1      40.719  27.695  28.724  1.00  0.00    -0.014 A 
ATOM     40  C   UNL A   1      41.479  27.988  27.579  1.00  0.00     0.009 A 
ATOM     41  C   UNL A   1      39.887  26.566  28.718  1.00  0.00     0.009 A 
ATOM     42  C   UNL A   1      41.374  27.193  26.438  1.00  0.00     0.001 A 
ATOM     43  C   UNL A   1      39.809  25.754  27.585  1.00  0.00     0.001 A 
ATOM     44  C   UNL A   1      40.538  26.078  26.441  1.00  0.00     0.000 A 
ENDBRANCH  25  39
BRANCH  26  45
ATOM     45  C   UNL A   1      40.254  34.348  36.170  1.00  0.00    -0.014 A 
ATOM     46  C   UNL A   1      41.018  35.528  36.173  1.00  0.00     0.009 A 
ATOM     47  C   UNL A   1      39.425  34.082  37.271  1.00  0.00     0.009 A 
ATOM     48  C   UNL A   1      40.972  36.407  37.258  1.00  0.00     0.001 A 
ATOM     49  C   UNL A   1      39.352  34.982  38.338  1.00  0.00     0.001 A 
ATOM     50  C   UNL A   1      40.133  36.136  38.337  1.00  0.00     0.000 A 
ENDBRANCH  26  45
BRANCH  38  51
ATOM     51  C   UNL A   1      44.434  28.901  34.703  1.00  0.00    -0.014 A 
ATOM     52  C   UNL A   1      44.215  27.928  35.694  1.00  0.00     0.009 A 
ATOM     53  C   UNL A   1      45.730  29.404  34.518  1.00  0.00     0.009 A 
ATOM     54  C   UNL A   1      45.259  27.507  36.517  1.00  0.00     0.001 A 
ATOM     55  C   UNL A   1      46.779  28.956  35.324  1.00  0.00     0.001 A 
ATOM     56  C   UNL A   1      46.540  28.023  36.333  1.00  0.00     0.000 A 
ENDBRANCH  38  51
ENDBRANCH  12  13
ENDBRANCH   5   7
ENDBRANCH   2   3
ENDBRANCH   1   2
BRANCH   1  57
ATOM     57  C   UNL A   1      31.879  29.569  26.302  1.00  0.00     0.023 C 
BRANCH  57  58
ATOM     58  C   UNL A   1      31.834  29.087  24.856  1.00  0.00     0.116 C 
BRANCH  58  59
ATOM     59  N   UNL A   1      30.518  28.609  24.471  1.00  0.00    -0.352 N 
ATOM     60  C   UNL A   1      30.116  27.311  24.276  1.00  0.00     0.255 C 
ATOM     61  H   UNL A   1      29.832  29.301  24.332  1.00  0.00     0.163 HD
ATOM     62  O   UNL A   1      28.983  27.061  23.877  1.00  0.00    -0.269 OA
BRANCH  60  63
ATOM     63  C   UNL A   1      31.083  26.214  24.472  1.00  0.00     0.081 A 
ATOM     64  C   UNL A   1      31.638  25.632  23.329  1.00  0.00     0.020 A 
ATOM     65  C   UNL A   1      31.465  25.768  25.739  1.00  0.00     0.130 A 
ATOM     66  C   UNL A   1      32.610  24.636  23.457  1.00  0.00     0.028 A 
ATOM     67  C   UNL A   1      32.427  24.766  25.864  1.00  0.00     0.073 A 
ATOM     68  C   UNL A   1      33.005  24.183  24.724  1.00  0.00     0.054 A 
BRANCH  65  69
ATOM     69  O   UNL A   1      30.926  26.325  26.865  1.00  0.00    -0.507 OA
ATOM     70  H   UNL A   1      30.089  26.744  26.827  1.00  0.00     0.293 HD
ENDBRANCH  65  69
BRANCH  68  71
ATOM     71  N   UNL A   1      34.006  23.177  24.860  1.00  0.00    -0.261 N 
ATOM     72  C   UNL A   1      35.355  23.532  24.800  1.00  0.00     0.270 C 
ATOM     73  C   UNL A   1      33.733  21.833  25.079  1.00  0.00     0.152 C 
ATOM     74  O   UNL A   1      35.828  24.642  24.614  1.00  0.00    -0.268 OA
ATOM     75  C   UNL A   1      36.207  22.340  25.073  1.00  0.00     0.081 C 
ATOM     76  S   UNL A   1      35.233  20.957  25.347  1.00  0.00    -0.054 SA
ATOM     77  S   UNL A   1      32.275  21.010  25.029  1.00  0.00    -0.051 S 
ATOM     78  C   UNL A   1      37.543  22.418  25.149  1.00  0.00     0.027 C 
BRANCH  78  79
ATOM     79  C   UNL A   1      38.438  21.325  25.443  1.00  0.00    -0.016 C 
ATOM     80  C   UNL A   1      39.525  21.376  26.209  1.00  0.00     0.005 A 
ATOM     81  C   UNL A   1      38.241  19.939  24.897  1.00  0.00     0.179 C 
ATOM     82  C   UNL A   1      40.192  22.386  26.966  1.00  0.00     0.011 A 
ATOM     83  C   UNL A   1      40.011  19.986  26.173  1.00  0.00     0.065 A 
ATOM     84  N   UNL A   1      39.353  19.129  25.454  1.00  0.00    -0.280 NA
ATOM     85  C   UNL A   1      41.289  22.047  27.666  1.00  0.00     0.001 A 
ATOM     86  C   UNL A   1      41.217  19.691  26.975  1.00  0.00     0.028 A 
ATOM     87  C   UNL A   1      41.795  20.685  27.671  1.00  0.00     0.002 A 
ENDBRANCH  78  79
ENDBRANCH  68  71
ENDBRANCH  60  63
ENDBRANCH  58  59
ENDBRANCH  57  58
ENDBRANCH   1  57
TORSDOF 14
ENDMDL
MODEL 2
REMARK VINA RESULT:     -12.0      5.046     10.844
REMARK SMILES O=C(NCCCCNC(=O)c1ccc(N2C(=O)/C(=C/C3=c4ccccc4=NC3)SC2=S)cc1O)c1ccc(-c2c3nc(c(-c4ccccc4)c4ccc([nH]4)c(-c4ccccc4)c4nc(c(-c5ccccc5)c5ccc2[nH]5)C=C4)C=C3)cc1
REMARK SMILES IDX 5 1 4 2 3 3 1 4 2 5 35 7 36 8 82 9 37 10 81 11 38 12 39 13
REMARK SMILES IDX 40 14 75 15 41 16 80 17 74 18 76 19 42 20 79 21 73 22 72 23
REMARK SMILES IDX 43 25 65 26 50 27 64 28 51 29 54 30 63 31 77 32 52 33 53 34
REMARK SMILES IDX 62 36 78 37 55 38 44 39 45 40 49 41 46 42 48 43 47 44 66 45
REMARK SMILES IDX 67 46 71 47 68 48 70 49 69 50 56 51 57 52 61 53 58 54 60 55
REMARK SMILES IDX 59 56 6 57 7 58 8 59 9 60 10 62 11 63 12 64 33 65 13 66
REMARK SMILES IDX 32 67 14 68 34 69 15 71 16 72 30 73 17 74 18 75 29 76 31 77
REMARK SMILES IDX 19 78 20 79 21 80 28 81 22 82 26 83 27 84 23 85 25 86 24 87
REMARK H PARENT 3 6 76 24 54 35 8 61 34 70
REMARK Flexibility Score: inf
ROOT
ATOM      1  C   UNL A   1      42.285  22.428  27.603  1.00  0.00     0.023 C 
ENDROOT
BRANCH   1   2
ATOM      2  C   UNL A   1      40.963  21.719  27.880  1.00  0.00     0.116 C 
BRANCH   2   3
ATOM      3  N   UNL A   1      40.042  21.817  26.760  1.00  0.00    -0.352 N 
ATOM      4  O   UNL A   1      38.401  22.698  25.498  1.00  0.00    -0.269 OA
ATOM      5  C   UNL A   1      39.269  22.873  26.348  1.00  0.00     0.251 C 
ATOM      6  H   UNL A   1      39.960  21.002  26.214  1.00  0.00     0.163 HD
BRANCH   5   7
ATOM      7  C   UNL A   1      39.476  24.224  26.915  1.00  0.00     0.039 A 
ATOM      8  C   UNL A   1      40.202  25.164  26.175  1.00  0.00     0.014 A 
ATOM      9  C   UNL A   1      39.032  24.541  28.201  1.00  0.00     0.014 A 
ATOM     10  C   UNL A   1      40.473  26.422  26.721  1.00  0.00     0.010 A 
ATOM     11  C   UNL A   1      39.235  25.819  28.712  1.00  0.00     0.010 A 
ATOM     12  C   UNL A   1      39.993  26.757  27.995  1.00  0.00    -0.014 A 
BRANCH  12  13
ATOM     13  C   UNL A   1      40.369  28.028  28.663  1.00  0.00     0.031 A 
ATOM     14  C   UNL A   1      41.740  28.143  29.278  1.00  0.00     0.074 A 
ATOM     15  C   UNL A   1      39.494  29.045  28.764  1.00  0.00     0.049 A 
ATOM     16  N   UNL A   1      42.224  29.087  30.044  1.00  0.00    -0.248 NA
ATOM     17  C   UNL A   1      42.685  27.042  29.015  1.00  0.00     0.031 C 
ATOM     18  C   UNL A   1      38.147  29.064  28.195  1.00  0.00     0.029 A 
ATOM     19  N   UNL A   1      39.604  30.260  29.400  1.00  0.00    -0.354 N 
ATOM     20  C   UNL A   1      43.511  28.678  30.373  1.00  0.00     0.074 A 
ATOM     21  C   UNL A   1      43.723  27.387  29.763  1.00  0.00     0.031 C 
ATOM     22  C   UNL A   1      37.558  30.231  28.501  1.00  0.00     0.029 A 
ATOM     23  C   UNL A   1      38.461  31.021  29.336  1.00  0.00     0.049 A 
ATOM     24  H   UNL A   1      40.424  30.556  29.857  1.00  0.00     0.167 HD
ATOM     25  C   UNL A   1      44.440  29.336  31.100  1.00  0.00     0.031 A 
ATOM     26  C   UNL A   1      38.162  32.206  29.908  1.00  0.00     0.031 A 
ATOM     27  C   UNL A   1      44.240  30.640  31.665  1.00  0.00     0.049 A 
ATOM     28  C   UNL A   1      39.202  32.900  30.750  1.00  0.00     0.074 A 
ATOM     29  C   UNL A   1      45.144  31.406  32.379  1.00  0.00     0.029 A 
ATOM     30  N   UNL A   1      43.070  31.375  31.571  1.00  0.00    -0.354 N 
ATOM     31  N   UNL A   1      40.427  32.517  31.025  1.00  0.00    -0.248 NA
ATOM     32  C   UNL A   1      38.831  34.189  31.355  1.00  0.00     0.031 C 
ATOM     33  C   UNL A   1      44.499  32.574  32.778  1.00  0.00     0.029 A 
ATOM     34  C   UNL A   1      43.222  32.574  32.241  1.00  0.00     0.049 A 
ATOM     35  H   UNL A   1      42.255  31.086  31.100  1.00  0.00     0.167 HD
ATOM     36  C   UNL A   1      40.977  33.528  31.805  1.00  0.00     0.074 A 
ATOM     37  C   UNL A   1      39.962  34.547  31.953  1.00  0.00     0.031 C 
ATOM     38  C   UNL A   1      42.214  33.597  32.351  1.00  0.00     0.031 A 
BRANCH  25  39
ATOM     39  C   UNL A   1      45.777  28.688  31.324  1.00  0.00    -0.014 A 
ATOM     40  C   UNL A   1      46.885  29.102  30.564  1.00  0.00     0.009 A 
ATOM     41  C   UNL A   1      45.906  27.570  32.161  1.00  0.00     0.009 A 
ATOM     42  C   UNL A   1      48.081  28.386  30.609  1.00  0.00     0.001 A 
ATOM     43  C   UNL A   1      47.115  26.874  32.227  1.00  0.00     0.001 A 
ATOM     44  C   UNL A   1      48.194  27.272  31.438  1.00  0.00     0.000 A 
ENDBRANCH  25  39
BRANCH  26  45
ATOM     45  C   UNL A   1      36.811  32.802  29.708  1.00  0.00    -0.014 A 
ATOM     46  C   UNL A   1      36.532  33.574  28.567  1.00  0.00     0.009 A 
ATOM     47  C   UNL A   1      35.800  32.631  30.667  1.00  0.00     0.009 A 
ATOM     48  C   UNL A   1      35.284  34.178  28.400  1.00  0.00     0.001 A 
ATOM     49  C   UNL A   1      34.539  33.205  30.479  1.00  0.00     0.001 A 
ATOM     50  C   UNL A   1      34.286  33.987  29.354  1.00  0.00     0.000 A 
ENDBRANCH  26  45
BRANCH  38  51
ATOM     51  C   UNL A   1      42.596  34.819  33.139  1.00  0.00    -0.014 A 
ATOM     52  C   UNL A   1      42.083  34.987  34.438  1.00  0.00     0.009 A 
ATOM     53  C   UNL A   1      43.281  35.881  32.535  1.00  0.00     0.009 A 
ATOM     54  C   UNL A   1      42.208  36.211  35.096  1.00  0.00     0.001 A 
ATOM     55  C   UNL A   1      43.432  37.095  33.210  1.00  0.00     0.001 A 
ATOM     56  C   UNL A   1      42.881  37.265  34.480  1.00  0.00     0.000 A 
ENDBRANCH  38  51
ENDBRANCH  12  13
ENDBRANCH   5   7
ENDBRANCH   2   3
ENDBRANCH   1   2
BRANCH   1  57
ATOM     57  C   UNL A   1      42.730  23.408  28.686  1.00  0.00     0.023 C 
BRANCH  57  58
ATOM     58  C   UNL A   1      44.212  23.353  29.035  1.00  0.00     0.116 C 
BRANCH  58  59
ATOM     59  N   UNL A   1      45.008  22.744  27.984  1.00  0.00    -0.352 N 
ATOM     60  C   UNL A   1      45.716  23.373  26.991  1.00  0.00     0.255 C 
ATOM     61  H   UNL A   1      45.042  21.760  27.984  1.00  0.00     0.163 HD
ATOM     62  O   UNL A   1      46.286  22.722  26.121  1.00  0.00    -0.269 OA
BRANCH  60  63
ATOM     63  C   UNL A   1      45.723  24.847  26.926  1.00  0.00     0.081 A 
ATOM     64  C   UNL A   1      46.477  25.531  27.884  1.00  0.00     0.020 A 
ATOM     65  C   UNL A   1      45.034  25.558  25.942  1.00  0.00     0.130 A 
ATOM     66  C   UNL A   1      46.575  26.924  27.828  1.00  0.00     0.028 A 
ATOM     67  C   UNL A   1      45.125  26.950  25.894  1.00  0.00     0.073 A 
ATOM     68  C   UNL A   1      45.890  27.649  26.842  1.00  0.00     0.054 A 
BRANCH  65  69
ATOM     69  O   UNL A   1      44.290  24.902  25.001  1.00  0.00    -0.507 OA
ATOM     70  H   UNL A   1      44.713  24.369  24.357  1.00  0.00     0.293 HD
ENDBRANCH  65  69
BRANCH  68  71
ATOM     71  N   UNL A   1      45.999  29.069  26.773  1.00  0.00    -0.261 N 
ATOM     72  C   UNL A   1      44.844  29.845  26.654  1.00  0.00     0.270 C 
ATOM     73  C   UNL A   1      47.201  29.761  26.843  1.00  0.00     0.152 C 
ATOM     74  O   UNL A   1      43.689  29.458  26.573  1.00  0.00    -0.268 OA
ATOM     75  C   UNL A   1      45.197  31.292  26.710  1.00  0.00     0.081 C 
ATOM     76  S   UNL A   1      46.890  31.491  26.882  1.00  0.00    -0.054 SA
ATOM     77  S   UNL A   1      48.775  29.189  26.802  1.00  0.00    -0.051 S 
ATOM     78  C   UNL A   1      44.266  32.256  26.691  1.00  0.00     0.027 C 
BRANCH  78  79
ATOM     79  C   UNL A   1      44.516  33.674  26.776  1.00  0.00    -0.016 C 
ATOM     80  C   UNL A   1      43.893  34.542  27.569  1.00  0.00     0.005 A 
ATOM     81  C   UNL A   1      45.556  34.371  25.944  1.00  0.00     0.179 C 
ATOM     82  C   UNL A   1      42.851  34.468  28.542  1.00  0.00     0.011 A 
ATOM     83  C   UNL A   1      44.572  35.811  27.256  1.00  0.00     0.065 A 
ATOM     84  N   UNL A   1      45.504  35.797  26.352  1.00  0.00    -0.280 NA
ATOM     85  C   UNL A   1      42.492  35.591  29.189  1.00  0.00     0.001 A 
ATOM     86  C   UNL A   1      44.128  37.000  28.015  1.00  0.00     0.028 A 
ATOM     87  C   UNL A   1      43.146  36.862  28.922  1.00  0.00     0.002 A 
ENDBRANCH  78  79
ENDBRANCH  68  71
ENDBRANCH  60  63
ENDBRANCH  58  59
ENDBRANCH  57  58
ENDBRANCH   1  57
TORSDOF 14
ENDMDL
MODEL 3
REMARK VINA RESULT:     -12.0      2.941      9.018
REMARK SMILES O=C(NCCCCNC(=O)c1ccc(N2C(=O)/C(=C/C3=c4ccccc4=NC3)SC2=S)cc1O)c1ccc(-c2c3nc(c(-c4ccccc4)c4ccc([nH]4)c(-c4ccccc4)c4nc(c(-c5ccccc5)c5ccc2[nH]5)C=C4)C=C3)cc1
REMARK SMILES IDX 5 1 4 2 3 3 1 4 2 5 35 7 36 8 82 9 37 10 81 11 38 12 39 13
REMARK SMILES IDX 40 14 75 15 41 16 80 17 74 18 76 19 42 20 79 21 73 22 72 23
REMARK SMILES IDX 43 25 65 26 50 27 64 28 51 29 54 30 63 31 77 32 52 33 53 34
REMARK SMILES IDX 62 36 78 37 55 38 44 39 45 40 49 41 46 42 48 43 47 44 66 45
REMARK SMILES IDX 67 46 71 47 68 48 70 49 69 50 56 51 57 52 61 53 58 54 60 55
REMARK SMILES IDX 59 56 6 57 7 58 8 59 9 60 10 62 11 63 12 64 33 65 13 66
REMARK SMILES IDX 32 67 14 68 34 69 15 71 16 72 30 73 17 74 18 75 29 76 31 77
REMARK SMILES IDX 19 78 20 79 21 80 28 81 22 82 26 83 27 84 23 85 25 86 24 87
REMARK H PARENT 3 6 76 24 54 35 8 61 34 70
REMARK Flexibility Score: inf
ROOT
ATOM      1  C   UNL A   1      36.068  23.145  25.892  1.00  0.00     0.023 C 
ENDROOT
BRANCH   1   2
ATOM      2  C   UNL A   1      37.353  23.508  25.157  1.00  0.00     0.116 C 
BRANCH   2   3
ATOM      3  N   UNL A   1      38.473  22.675  25.564  1.00  0.00    -0.352 N 
ATOM      4  O   UNL A   1      40.547  22.205  26.296  1.00  0.00    -0.269 OA
ATOM      5  C   UNL A   1      39.628  23.015  26.220  1.00  0.00     0.251 C 
ATOM      6  H   UNL A   1      38.389  21.721  25.333  1.00  0.00     0.163 HD
BRANCH   5   7
ATOM      7  C   UNL A   1      39.775  24.348  26.844  1.00  0.00     0.039 A 
ATOM      8  C   UNL A   1      40.457  25.350  26.146  1.00  0.00     0.014 A 
ATOM      9  C   UNL A   1      39.319  24.591  28.142  1.00  0.00     0.014 A 
ATOM     10  C   UNL A   1      40.673  26.595  26.744  1.00  0.00     0.010 A 
ATOM     11  C   UNL A   1      39.465  25.854  28.707  1.00  0.00     0.010 A 
ATOM     12  C   UNL A   1      40.180  26.854  28.031  1.00  0.00    -0.014 A 
BRANCH  12  13
ATOM     13  C   UNL A   1      40.499  28.111  28.753  1.00  0.00     0.031 A 
ATOM     14  C   UNL A   1      41.837  28.232  29.436  1.00  0.00     0.074 A 
ATOM     15  C   UNL A   1      39.601  29.109  28.841  1.00  0.00     0.049 A 
ATOM     16  N   UNL A   1      42.266  29.161  30.251  1.00  0.00    -0.248 NA
ATOM     17  C   UNL A   1      42.814  27.156  29.187  1.00  0.00     0.031 C 
ATOM     18  C   UNL A   1      38.282  29.121  28.208  1.00  0.00     0.029 A 
ATOM     19  N   UNL A   1      39.658  30.306  29.516  1.00  0.00    -0.354 N 
ATOM     20  C   UNL A   1      43.543  28.765  30.630  1.00  0.00     0.074 A 
ATOM     21  C   UNL A   1      43.809  27.497  29.993  1.00  0.00     0.031 C 
ATOM     22  C   UNL A   1      37.657  30.268  28.519  1.00  0.00     0.029 A 
ATOM     23  C   UNL A   1      38.504  31.048  29.419  1.00  0.00     0.049 A 
ATOM     24  H   UNL A   1      40.449  30.603  30.020  1.00  0.00     0.167 HD
ATOM     25  C   UNL A   1      44.424  29.418  31.419  1.00  0.00     0.031 A 
ATOM     26  C   UNL A   1      38.156  32.210  30.010  1.00  0.00     0.031 A 
ATOM     27  C   UNL A   1      44.172  30.701  32.011  1.00  0.00     0.049 A 
ATOM     28  C   UNL A   1      39.142  32.898  30.920  1.00  0.00     0.074 A 
ATOM     29  C   UNL A   1      45.027  31.461  32.789  1.00  0.00     0.029 A 
ATOM     30  N   UNL A   1      42.995  31.417  31.882  1.00  0.00    -0.354 N 
ATOM     31  N   UNL A   1      40.359  32.529  31.243  1.00  0.00    -0.248 NA
ATOM     32  C   UNL A   1      38.718  34.162  31.544  1.00  0.00     0.031 C 
ATOM     33  C   UNL A   1      44.341  32.605  33.191  1.00  0.00     0.029 A 
ATOM     34  C   UNL A   1      43.091  32.598  32.593  1.00  0.00     0.049 A 
ATOM     35  H   UNL A   1      42.208  31.129  31.364  1.00  0.00     0.167 HD
ATOM     36  C   UNL A   1      40.853  33.525  32.077  1.00  0.00     0.074 A 
ATOM     37  C   UNL A   1      39.812  34.521  32.205  1.00  0.00     0.031 C 
ATOM     38  C   UNL A   1      42.061  33.600  32.684  1.00  0.00     0.031 A 
BRANCH  25  39
ATOM     39  C   UNL A   1      45.761  28.787  31.689  1.00  0.00    -0.014 A 
ATOM     40  C   UNL A   1      45.951  28.040  32.864  1.00  0.00     0.009 A 
ATOM     41  C   UNL A   1      46.867  29.063  30.872  1.00  0.00     0.009 A 
ATOM     42  C   UNL A   1      47.227  27.616  33.235  1.00  0.00     0.001 A 
ATOM     43  C   UNL A   1      48.139  28.610  31.230  1.00  0.00     0.001 A 
ATOM     44  C   UNL A   1      48.319  27.903  32.419  1.00  0.00     0.000 A 
ENDBRANCH  25  39
BRANCH  26  45
ATOM     45  C   UNL A   1      36.806  32.789  29.763  1.00  0.00    -0.014 A 
ATOM     46  C   UNL A   1      35.753  32.558  30.666  1.00  0.00     0.009 A 
ATOM     47  C   UNL A   1      36.548  33.551  28.613  1.00  0.00     0.009 A 
ATOM     48  C   UNL A   1      34.473  33.054  30.413  1.00  0.00     0.001 A 
ATOM     49  C   UNL A   1      35.274  34.078  28.381  1.00  0.00     0.001 A 
ATOM     50  C   UNL A   1      34.236  33.821  29.274  1.00  0.00     0.000 A 
ENDBRANCH  26  45
BRANCH  38  51
ATOM     51  C   UNL A   1      42.381  34.804  33.525  1.00  0.00    -0.014 A 
ATOM     52  C   UNL A   1      41.848  34.899  34.822  1.00  0.00     0.009 A 
ATOM     53  C   UNL A   1      43.027  35.918  32.971  1.00  0.00     0.009 A 
ATOM     54  C   UNL A   1      41.913  36.100  35.529  1.00  0.00     0.001 A 
ATOM     55  C   UNL A   1      43.118  37.109  33.695  1.00  0.00     0.001 A 
ATOM     56  C   UNL A   1      42.547  37.205  34.964  1.00  0.00     0.000 A 
ENDBRANCH  38  51
ENDBRANCH  12  13
ENDBRANCH   5   7
ENDBRANCH   2   3
ENDBRANCH   1   2
BRANCH   1  57
ATOM     57  C   UNL A   1      35.742  21.653  25.923  1.00  0.00     0.023 C 
BRANCH  57  58
ATOM     58  C   UNL A   1      35.135  21.101  24.639  1.00  0.00     0.116 C 
BRANCH  58  59
ATOM     59  N   UNL A   1      33.970  20.270  24.888  1.00  0.00    -0.352 N 
ATOM     60  C   UNL A   1      32.647  20.630  24.820  1.00  0.00     0.255 C 
ATOM     61  H   UNL A   1      34.152  19.334  25.135  1.00  0.00     0.163 HD
ATOM     62  O   UNL A   1      31.766  19.835  25.131  1.00  0.00    -0.269 OA
BRANCH  60  63
ATOM     63  C   UNL A   1      32.289  22.012  24.447  1.00  0.00     0.081 A 
ATOM     64  C   UNL A   1      32.275  22.971  25.464  1.00  0.00     0.020 A 
ATOM     65  C   UNL A   1      31.993  22.382  23.134  1.00  0.00     0.130 A 
ATOM     66  C   UNL A   1      32.010  24.308  25.156  1.00  0.00     0.028 A 
ATOM     67  C   UNL A   1      31.719  23.716  22.830  1.00  0.00     0.073 A 
ATOM     68  C   UNL A   1      31.716  24.693  23.840  1.00  0.00     0.054 A 
BRANCH  65  69
ATOM     69  O   UNL A   1      31.999  21.453  22.131  1.00  0.00    -0.507 OA
ATOM     70  H   UNL A   1      31.190  21.130  21.787  1.00  0.00     0.293 HD
ENDBRANCH  65  69
BRANCH  68  71
ATOM     71  N   UNL A   1      31.458  26.058  23.519  1.00  0.00    -0.261 N 
ATOM     72  C   UNL A   1      30.168  26.570  23.665  1.00  0.00     0.270 C 
ATOM     73  C   UNL A   1      32.430  26.951  23.083  1.00  0.00     0.152 C 
ATOM     74  O   UNL A   1      29.164  25.977  24.027  1.00  0.00    -0.268 OA
ATOM     75  C   UNL A   1      30.166  28.033  23.376  1.00  0.00     0.081 C 
ATOM     76  S   UNL A   1      31.740  28.562  22.952  1.00  0.00    -0.054 SA
ATOM     77  S   UNL A   1      34.015  26.673  22.620  1.00  0.00    -0.051 S 
ATOM     78  C   UNL A   1      29.067  28.787  23.512  1.00  0.00     0.027 C 
BRANCH  78  79
ATOM     79  C   UNL A   1      28.986  30.210  23.289  1.00  0.00    -0.016 C 
ATOM     80  C   UNL A   1      28.561  30.815  22.182  1.00  0.00     0.005 A 
ATOM     81  C   UNL A   1      29.385  31.224  24.324  1.00  0.00     0.179 C 
ATOM     82  C   UNL A   1      28.074  30.388  20.909  1.00  0.00     0.011 A 
ATOM     83  C   UNL A   1      28.665  32.241  22.533  1.00  0.00     0.065 A 
ATOM     84  N   UNL A   1      29.126  32.548  23.707  1.00  0.00    -0.280 NA
ATOM     85  C   UNL A   1      27.697  31.320  20.018  1.00  0.00     0.001 A 
ATOM     86  C   UNL A   1      28.223  33.206  21.503  1.00  0.00     0.028 A 
ATOM     87  C   UNL A   1      27.768  32.739  20.327  1.00  0.00     0.002 A 
ENDBRANCH  78  79
ENDBRANCH  68  71
ENDBRANCH  60  63
ENDBRANCH  58  59
ENDBRANCH  57  58
ENDBRANCH   1  57
TORSDOF 14
ENDMDL
