MODEL 1
REMARK VINA RESULT:     -10.0      0.000      0.000
REMARK SMILES CC(C)Cc1ccc([C@@H](C)C(=O)NCCCCNC(=O)c2ccc(-c3c4nc(c(-c5ccccc5)c5ccc([nH]5)c(-c5ccccc5)c5nc(c(-c6ccccc6)c6ccc3[nH]6)C=C5)C=C4)cc2)cc1
REMARK SMILES IDX 15 1 14 2 13 3 11 4 12 5 9 7 10 8 8 9 5 10 6 11 70 12 7 13
REMARK SMILES IDX 69 14 4 15 2 16 1 17 3 18 16 19 17 20 18 21 19 22 20 24
REMARK SMILES IDX 21 25 22 26 68 27 23 28 67 29 24 30 25 31 26 32 61 33 27 34
REMARK SMILES IDX 66 35 60 36 62 37 28 38 65 39 59 40 58 41 29 43 51 44 36 45
REMARK SMILES IDX 50 46 37 47 40 48 49 49 63 50 38 51 39 52 48 54 64 55 41 56
REMARK SMILES IDX 30 57 31 58 35 59 32 60 34 61 33 62 52 63 53 64 57 65 54 66
REMARK SMILES IDX 56 67 55 68 42 69 43 70 47 71 44 72 46 73 45 74
REMARK H PARENT 13 6 18 23 62 42 40 53
REMARK Flexibility Score: inf
ROOT
ATOM      1  C   UNL A   1      34.157  35.571  28.708  1.00  0.00     0.023 C 
ENDROOT
BRANCH   1   2
ATOM      2  C   UNL A   1      33.171  36.715  28.941  1.00  0.00     0.116 C 
BRANCH   2   3
ATOM      3  N   UNL A   1      33.456  37.446  30.156  1.00  0.00    -0.356 N 
ATOM      4  C   UNL A   1      33.278  37.112  31.464  1.00  0.00     0.227 C 
ATOM      5  O   UNL A   1      33.562  37.981  32.297  1.00  0.00    -0.274 OA
ATOM      6  H   UNL A   1      33.846  38.339  30.013  1.00  0.00     0.163 HD
BRANCH   4   7
ATOM      7  C   UNL A   1      32.775  35.737  31.929  1.00  0.00     0.105 C 
ATOM      8  C   UNL A   1      31.475  35.797  32.734  1.00  0.00     0.023 C 
BRANCH   7   9
ATOM      9  C   UNL A   1      33.871  34.850  32.496  1.00  0.00    -0.036 A 
ATOM     10  C   UNL A   1      35.939  33.163  33.443  1.00  0.00    -0.048 A 
ATOM     11  C   UNL A   1      35.661  34.380  34.074  1.00  0.00     0.004 A 
ATOM     12  C   UNL A   1      35.184  32.799  32.324  1.00  0.00     0.004 A 
ATOM     13  C   UNL A   1      34.616  35.191  33.630  1.00  0.00     0.005 A 
ATOM     14  C   UNL A   1      34.173  33.640  31.849  1.00  0.00     0.005 A 
BRANCH  10  15
ATOM     15  C   UNL A   1      37.008  32.249  33.991  1.00  0.00     0.038 C 
BRANCH  15  16
ATOM     16  C   UNL A   1      37.768  32.865  35.183  1.00  0.00    -0.013 C 
ATOM     17  C   UNL A   1      38.243  31.793  36.169  1.00  0.00     0.008 C 
ATOM     18  C   UNL A   1      38.957  33.687  34.688  1.00  0.00     0.008 C 
ENDBRANCH  15  16
ENDBRANCH  10  15
ENDBRANCH   7   9
ENDBRANCH   4   7
ENDBRANCH   2   3
ENDBRANCH   1   2
BRANCH   1  19
ATOM     19  C   UNL A   1      33.524  34.189  28.560  1.00  0.00     0.023 C 
BRANCH  19  20
ATOM     20  C   UNL A   1      34.483  33.071  28.177  1.00  0.00     0.116 C 
BRANCH  20  21
ATOM     21  N   UNL A   1      33.835  31.886  27.634  1.00  0.00    -0.352 N 
ATOM     22  C   UNL A   1      34.305  30.591  27.619  1.00  0.00     0.251 C 
ATOM     23  H   UNL A   1      32.950  32.027  27.226  1.00  0.00     0.163 HD
ATOM     24  O   UNL A   1      33.677  29.701  27.061  1.00  0.00    -0.269 OA
BRANCH  22  25
ATOM     25  C   UNL A   1      35.613  30.303  28.245  1.00  0.00     0.039 A 
ATOM     26  C   UNL A   1      35.638  29.761  29.532  1.00  0.00     0.014 A 
ATOM     27  C   UNL A   1      36.798  30.495  27.532  1.00  0.00     0.014 A 
ATOM     28  C   UNL A   1      36.852  29.332  30.072  1.00  0.00     0.010 A 
ATOM     29  C   UNL A   1      37.992  29.996  28.039  1.00  0.00     0.010 A 
ATOM     30  C   UNL A   1      38.029  29.405  29.310  1.00  0.00    -0.014 A 
BRANCH  30  31
ATOM     31  C   UNL A   1      39.312  28.858  29.817  1.00  0.00     0.031 A 
ATOM     32  C   UNL A   1      40.044  29.557  30.927  1.00  0.00     0.074 A 
ATOM     33  C   UNL A   1      39.859  27.780  29.220  1.00  0.00     0.049 A 
ATOM     34  N   UNL A   1      41.207  29.276  31.455  1.00  0.00    -0.248 NA
ATOM     35  C   UNL A   1      39.396  30.750  31.496  1.00  0.00     0.031 C 
ATOM     36  C   UNL A   1      39.279  27.043  28.095  1.00  0.00     0.029 A 
ATOM     37  N   UNL A   1      41.037  27.123  29.475  1.00  0.00    -0.354 N 
ATOM     38  C   UNL A   1      41.442  30.267  32.398  1.00  0.00     0.074 A 
ATOM     39  C   UNL A   1      40.324  31.185  32.335  1.00  0.00     0.031 C 
ATOM     40  C   UNL A   1      40.088  26.020  27.776  1.00  0.00     0.029 A 
ATOM     41  C   UNL A   1      41.256  26.048  28.648  1.00  0.00     0.049 A 
ATOM     42  H   UNL A   1      41.664  27.396  30.183  1.00  0.00     0.167 HD
ATOM     43  C   UNL A   1      42.483  30.395  33.254  1.00  0.00     0.031 A 
ATOM     44  C   UNL A   1      42.286  25.182  28.598  1.00  0.00     0.031 A 
ATOM     45  C   UNL A   1      43.583  29.472  33.332  1.00  0.00     0.049 A 
ATOM     46  C   UNL A   1      43.421  25.332  29.571  1.00  0.00     0.074 A 
ATOM     47  C   UNL A   1      44.650  29.474  34.212  1.00  0.00     0.029 A 
ATOM     48  N   UNL A   1      43.755  28.381  32.495  1.00  0.00    -0.354 N 
ATOM     49  N   UNL A   1      43.592  26.233  30.507  1.00  0.00    -0.248 NA
ATOM     50  C   UNL A   1      44.501  24.338  29.485  1.00  0.00     0.031 C 
ATOM     51  C   UNL A   1      45.489  28.404  33.883  1.00  0.00     0.029 A 
ATOM     52  C   UNL A   1      44.921  27.712  32.826  1.00  0.00     0.049 A 
ATOM     53  H   UNL A   1      43.139  28.121  31.772  1.00  0.00     0.167 HD
ATOM     54  C   UNL A   1      44.784  25.903  31.137  1.00  0.00     0.074 A 
ATOM     55  C   UNL A   1      45.286  24.709  30.486  1.00  0.00     0.031 C 
ATOM     56  C   UNL A   1      45.406  26.529  32.165  1.00  0.00     0.031 A 
BRANCH  43  57
ATOM     57  C   UNL A   1      42.474  31.584  34.171  1.00  0.00    -0.014 A 
ATOM     58  C   UNL A   1      41.972  31.489  35.479  1.00  0.00     0.009 A 
ATOM     59  C   UNL A   1      42.984  32.814  33.726  1.00  0.00     0.009 A 
ATOM     60  C   UNL A   1      41.940  32.613  36.307  1.00  0.00     0.001 A 
ATOM     61  C   UNL A   1      42.976  33.928  34.567  1.00  0.00     0.001 A 
ATOM     62  C   UNL A   1      42.445  33.830  35.852  1.00  0.00     0.000 A 
ENDBRANCH  43  57
BRANCH  44  63
ATOM     63  C   UNL A   1      42.274  24.074  27.610  1.00  0.00    -0.014 A 
ATOM     64  C   UNL A   1      41.689  22.841  27.936  1.00  0.00     0.009 A 
ATOM     65  C   UNL A   1      42.841  24.243  26.337  1.00  0.00     0.009 A 
ATOM     66  C   UNL A   1      41.690  21.791  27.015  1.00  0.00     0.001 A 
ATOM     67  C   UNL A   1      42.818  23.199  25.409  1.00  0.00     0.001 A 
ATOM     68  C   UNL A   1      42.249  21.972  25.751  1.00  0.00     0.000 A 
ENDBRANCH  44  63
BRANCH  56  69
ATOM     69  C   UNL A   1      46.684  25.920  32.666  1.00  0.00    -0.014 A 
ATOM     70  C   UNL A   1      46.685  25.017  33.740  1.00  0.00     0.009 A 
ATOM     71  C   UNL A   1      47.895  26.226  32.028  1.00  0.00     0.009 A 
ATOM     72  C   UNL A   1      47.883  24.451  34.182  1.00  0.00     0.001 A 
ATOM     73  C   UNL A   1      49.087  25.641  32.456  1.00  0.00     0.001 A 
ATOM     74  C   UNL A   1      49.082  24.761  33.538  1.00  0.00     0.000 A 
ENDBRANCH  56  69
ENDBRANCH  30  31
ENDBRANCH  22  25
ENDBRANCH  20  21
ENDBRANCH  19  20
ENDBRANCH   1  19
TORSDOF 14
ENDMDL
MODEL 2
REMARK VINA RESULT:      -9.8      3.719      9.402
REMARK SMILES CC(C)Cc1ccc([C@@H](C)C(=O)NCCCCNC(=O)c2ccc(-c3c4nc(c(-c5ccccc5)c5ccc([nH]5)c(-c5ccccc5)c5nc(c(-c6ccccc6)c6ccc3[nH]6)C=C5)C=C4)cc2)cc1
REMARK SMILES IDX 15 1 14 2 13 3 11 4 12 5 9 7 10 8 8 9 5 10 6 11 70 12 7 13
REMARK SMILES IDX 69 14 4 15 2 16 1 17 3 18 16 19 17 20 18 21 19 22 20 24
REMARK SMILES IDX 21 25 22 26 68 27 23 28 67 29 24 30 25 31 26 32 61 33 27 34
REMARK SMILES IDX 66 35 60 36 62 37 28 38 65 39 59 40 58 41 29 43 51 44 36 45
REMARK SMILES IDX 50 46 37 47 40 48 49 49 63 50 38 51 39 52 48 54 64 55 41 56
REMARK SMILES IDX 30 57 31 58 35 59 32 60 34 61 33 62 52 63 53 64 57 65 54 66
REMARK SMILES IDX 56 67 55 68 42 69 43 70 47 71 44 72 46 73 45 74
REMARK H PARENT 13 6 18 23 62 42 40 53
REMARK Flexibility Score: inf
ROOT
ATOM      1  C   UNL A   1      31.784  28.897  26.627  1.00  0.00     0.023 C 
ENDROOT
BRANCH   1   2
ATOM      2  C   UNL A   1      32.948  27.970  26.279  1.00  0.00     0.116 C 
BRANCH   2   3
ATOM      3  N   UNL A   1      32.616  26.576  26.473  1.00  0.00    -0.356 N 
ATOM      4  C   UNL A   1      32.279  25.604  25.580  1.00  0.00     0.227 C 
ATOM      5  O   UNL A   1      31.982  24.501  26.054  1.00  0.00    -0.274 OA
ATOM      6  H   UNL A   1      32.638  26.277  27.411  1.00  0.00     0.163 HD
BRANCH   4   7
ATOM      7  C   UNL A   1      32.274  25.813  24.058  1.00  0.00     0.105 C 
ATOM      8  C   UNL A   1      33.669  25.999  23.457  1.00  0.00     0.023 C 
BRANCH   7   9
ATOM      9  C   UNL A   1      31.206  26.785  23.584  1.00  0.00    -0.036 A 
ATOM     10  C   UNL A   1      29.156  28.572  22.797  1.00  0.00    -0.048 A 
ATOM     11  C   UNL A   1      30.495  28.837  22.490  1.00  0.00     0.004 A 
ATOM     12  C   UNL A   1      28.848  27.412  23.513  1.00  0.00     0.004 A 
ATOM     13  C   UNL A   1      31.499  27.935  22.843  1.00  0.00     0.005 A 
ATOM     14  C   UNL A   1      29.864  26.538  23.914  1.00  0.00     0.005 A 
BRANCH  10  15
ATOM     15  C   UNL A   1      28.068  29.506  22.324  1.00  0.00     0.038 C 
BRANCH  15  16
ATOM     16  C   UNL A   1      28.430  30.993  22.517  1.00  0.00    -0.013 C 
ATOM     17  C   UNL A   1      28.215  31.801  21.234  1.00  0.00     0.008 C 
ATOM     18  C   UNL A   1      27.614  31.595  23.660  1.00  0.00     0.008 C 
ENDBRANCH  15  16
ENDBRANCH  10  15
ENDBRANCH   7   9
ENDBRANCH   4   7
ENDBRANCH   2   3
ENDBRANCH   1   2
BRANCH   1  19
ATOM     19  C   UNL A   1      31.974  30.356  26.219  1.00  0.00     0.023 C 
BRANCH  19  20
ATOM     20  C   UNL A   1      32.860  31.181  27.143  1.00  0.00     0.116 C 
BRANCH  20  21
ATOM     21  N   UNL A   1      32.392  32.541  27.364  1.00  0.00    -0.352 N 
ATOM     22  C   UNL A   1      33.024  33.557  28.048  1.00  0.00     0.251 C 
ATOM     23  H   UNL A   1      31.515  32.764  26.977  1.00  0.00     0.163 HD
ATOM     24  O   UNL A   1      32.475  34.638  28.215  1.00  0.00    -0.269 OA
BRANCH  22  25
ATOM     25  C   UNL A   1      34.360  33.300  28.627  1.00  0.00     0.039 A 
ATOM     26  C   UNL A   1      34.447  32.602  29.835  1.00  0.00     0.014 A 
ATOM     27  C   UNL A   1      35.515  33.678  27.942  1.00  0.00     0.014 A 
ATOM     28  C   UNL A   1      35.699  32.209  30.311  1.00  0.00     0.010 A 
ATOM     29  C   UNL A   1      36.752  33.219  28.376  1.00  0.00     0.010 A 
ATOM     30  C   UNL A   1      36.856  32.476  29.561  1.00  0.00    -0.014 A 
BRANCH  30  31
ATOM     31  C   UNL A   1      38.185  31.976  29.989  1.00  0.00     0.031 A 
ATOM     32  C   UNL A   1      38.701  30.664  29.470  1.00  0.00     0.074 A 
ATOM     33  C   UNL A   1      38.890  32.663  30.910  1.00  0.00     0.049 A 
ATOM     34  N   UNL A   1      39.800  30.028  29.781  1.00  0.00    -0.248 NA
ATOM     35  C   UNL A   1      37.850  29.959  28.498  1.00  0.00     0.031 C 
ATOM     36  C   UNL A   1      38.476  33.920  31.536  1.00  0.00     0.029 A 
ATOM     37  N   UNL A   1      40.105  32.389  31.488  1.00  0.00    -0.354 N 
ATOM     38  C   UNL A   1      39.763  28.840  29.064  1.00  0.00     0.074 A 
ATOM     39  C   UNL A   1      38.509  28.820  28.341  1.00  0.00     0.031 C 
ATOM     40  C   UNL A   1      39.433  34.324  32.388  1.00  0.00     0.029 A 
ATOM     41  C   UNL A   1      40.509  33.339  32.394  1.00  0.00     0.049 A 
ATOM     42  H   UNL A   1      40.636  31.589  31.272  1.00  0.00     0.167 HD
ATOM     43  C   UNL A   1      40.695  27.860  28.995  1.00  0.00     0.031 A 
ATOM     44  C   UNL A   1      41.623  33.408  33.147  1.00  0.00     0.031 A 
ATOM     45  C   UNL A   1      41.950  27.888  29.695  1.00  0.00     0.049 A 
ATOM     46  C   UNL A   1      42.652  32.319  33.040  1.00  0.00     0.074 A 
ATOM     47  C   UNL A   1      42.992  26.980  29.636  1.00  0.00     0.029 A 
ATOM     48  N   UNL A   1      42.333  28.881  30.583  1.00  0.00    -0.354 N 
ATOM     49  N   UNL A   1      42.635  31.238  32.301  1.00  0.00    -0.248 NA
ATOM     50  C   UNL A   1      43.859  32.467  33.866  1.00  0.00     0.031 C 
ATOM     51  C   UNL A   1      43.991  27.403  30.520  1.00  0.00     0.029 A 
ATOM     52  C   UNL A   1      43.588  28.598  31.094  1.00  0.00     0.049 A 
ATOM     53  H   UNL A   1      41.792  29.670  30.816  1.00  0.00     0.167 HD
ATOM     54  C   UNL A   1      43.835  30.588  32.552  1.00  0.00     0.074 A 
ATOM     55  C   UNL A   1      44.563  31.405  33.502  1.00  0.00     0.031 C 
ATOM     56  C   UNL A   1      44.295  29.420  32.040  1.00  0.00     0.031 A 
BRANCH  43  57
ATOM     57  C   UNL A   1      40.379  26.673  28.131  1.00  0.00    -0.014 A 
ATOM     58  C   UNL A   1      39.583  25.619  28.608  1.00  0.00     0.009 A 
ATOM     59  C   UNL A   1      40.874  26.611  26.819  1.00  0.00     0.009 A 
ATOM     60  C   UNL A   1      39.326  24.507  27.803  1.00  0.00     0.001 A 
ATOM     61  C   UNL A   1      40.592  25.511  26.008  1.00  0.00     0.001 A 
ATOM     62  C   UNL A   1      39.828  24.455  26.504  1.00  0.00     0.000 A 
ENDBRANCH  43  57
BRANCH  44  63
ATOM     63  C   UNL A   1      41.837  34.570  34.047  1.00  0.00    -0.014 A 
ATOM     64  C   UNL A   1      42.435  35.742  33.559  1.00  0.00     0.009 A 
ATOM     65  C   UNL A   1      41.443  34.517  35.393  1.00  0.00     0.009 A 
ATOM     66  C   UNL A   1      42.652  36.831  34.406  1.00  0.00     0.001 A 
ATOM     67  C   UNL A   1      41.640  35.616  36.231  1.00  0.00     0.001 A 
ATOM     68  C   UNL A   1      42.250  36.769  35.739  1.00  0.00     0.000 A 
ENDBRANCH  44  63
BRANCH  56  69
ATOM     69  C   UNL A   1      45.660  28.972  32.477  1.00  0.00    -0.014 A 
ATOM     70  C   UNL A   1      45.825  28.131  33.589  1.00  0.00     0.009 A 
ATOM     71  C   UNL A   1      46.789  29.364  31.742  1.00  0.00     0.009 A 
ATOM     72  C   UNL A   1      47.103  27.714  33.972  1.00  0.00     0.001 A 
ATOM     73  C   UNL A   1      48.060  28.926  32.112  1.00  0.00     0.001 A 
ATOM     74  C   UNL A   1      48.218  28.109  33.232  1.00  0.00     0.000 A 
ENDBRANCH  56  69
ENDBRANCH  30  31
ENDBRANCH  22  25
ENDBRANCH  20  21
ENDBRANCH  19  20
ENDBRANCH   1  19
TORSDOF 14
ENDMDL
MODEL 3
REMARK VINA RESULT:      -9.8      1.463      1.776
REMARK SMILES CC(C)Cc1ccc([C@@H](C)C(=O)NCCCCNC(=O)c2ccc(-c3c4nc(c(-c5ccccc5)c5ccc([nH]5)c(-c5ccccc5)c5nc(c(-c6ccccc6)c6ccc3[nH]6)C=C5)C=C4)cc2)cc1
REMARK SMILES IDX 15 1 14 2 13 3 11 4 12 5 9 7 10 8 8 9 5 10 6 11 70 12 7 13
REMARK SMILES IDX 69 14 4 15 2 16 1 17 3 18 16 19 17 20 18 21 19 22 20 24
REMARK SMILES IDX 21 25 22 26 68 27 23 28 67 29 24 30 25 31 26 32 61 33 27 34
REMARK SMILES IDX 66 35 60 36 62 37 28 38 65 39 59 40 58 41 29 43 51 44 36 45
REMARK SMILES IDX 50 46 37 47 40 48 49 49 63 50 38 51 39 52 48 54 64 55 41 56
REMARK SMILES IDX 30 57 31 58 35 59 32 60 34 61 33 62 52 63 53 64 57 65 54 66
REMARK SMILES IDX 56 67 55 68 42 69 43 70 47 71 44 72 46 73 45 74
REMARK H PARENT 13 6 18 23 62 42 40 53
REMARK Flexibility Score: inf
ROOT
ATOM      1  C   UNL A   1      34.160  35.106  28.768  1.00  0.00     0.023 C 
ENDROOT
BRANCH   1   2
ATOM      2  C   UNL A   1      33.078  36.179  28.880  1.00  0.00     0.116 C 
BRANCH   2   3
ATOM      3  N   UNL A   1      33.326  37.096  29.972  1.00  0.00    -0.356 N 
ATOM      4  C   UNL A   1      33.133  36.962  31.314  1.00  0.00     0.227 C 
ATOM      5  O   UNL A   1      33.384  37.956  32.006  1.00  0.00    -0.274 OA
ATOM      6  H   UNL A   1      33.700  37.964  29.698  1.00  0.00     0.163 HD
BRANCH   4   7
ATOM      7  C   UNL A   1      32.651  35.664  31.978  1.00  0.00     0.105 C 
ATOM      8  C   UNL A   1      31.401  35.842  32.843  1.00  0.00     0.023 C 
BRANCH   7   9
ATOM      9  C   UNL A   1      33.775  34.843  32.588  1.00  0.00    -0.036 A 
ATOM     10  C   UNL A   1      35.894  33.274  33.619  1.00  0.00    -0.048 A 
ATOM     11  C   UNL A   1      35.568  34.506  34.195  1.00  0.00     0.004 A 
ATOM     12  C   UNL A   1      35.161  32.835  32.513  1.00  0.00     0.004 A 
ATOM     13  C   UNL A   1      34.498  35.259  33.711  1.00  0.00     0.005 A 
ATOM     14  C   UNL A   1      34.124  33.618  31.996  1.00  0.00     0.005 A 
BRANCH  10  15
ATOM     15  C   UNL A   1      36.992  32.423  34.212  1.00  0.00     0.038 C 
BRANCH  15  16
ATOM     16  C   UNL A   1      38.163  32.191  33.235  1.00  0.00    -0.013 C 
ATOM     17  C   UNL A   1      38.708  33.510  32.679  1.00  0.00     0.008 C 
ATOM     18  C   UNL A   1      39.281  31.408  33.922  1.00  0.00     0.008 C 
ENDBRANCH  15  16
ENDBRANCH  10  15
ENDBRANCH   7   9
ENDBRANCH   4   7
ENDBRANCH   2   3
ENDBRANCH   1   2
BRANCH   1  19
ATOM     19  C   UNL A   1      33.722  33.815  28.078  1.00  0.00     0.023 C 
BRANCH  19  20
ATOM     20  C   UNL A   1      34.505  32.570  28.470  1.00  0.00     0.116 C 
BRANCH  20  21
ATOM     21  N   UNL A   1      33.893  31.319  28.045  1.00  0.00    -0.352 N 
ATOM     22  C   UNL A   1      34.482  30.079  27.933  1.00  0.00     0.251 C 
ATOM     23  H   UNL A   1      32.938  31.365  27.810  1.00  0.00     0.163 HD
ATOM     24  O   UNL A   1      33.856  29.124  27.493  1.00  0.00    -0.269 OA
BRANCH  22  25
ATOM     25  C   UNL A   1      35.906  29.933  28.303  1.00  0.00     0.039 A 
ATOM     26  C   UNL A   1      36.225  29.519  29.598  1.00  0.00     0.014 A 
ATOM     27  C   UNL A   1      36.909  30.129  27.353  1.00  0.00     0.014 A 
ATOM     28  C   UNL A   1      37.552  29.218  29.915  1.00  0.00     0.010 A 
ATOM     29  C   UNL A   1      38.215  29.755  27.646  1.00  0.00     0.010 A 
ATOM     30  C   UNL A   1      38.547  29.291  28.928  1.00  0.00    -0.014 A 
BRANCH  30  31
ATOM     31  C   UNL A   1      39.943  28.874  29.208  1.00  0.00     0.031 A 
ATOM     32  C   UNL A   1      40.890  29.820  29.891  1.00  0.00     0.074 A 
ATOM     33  C   UNL A   1      40.382  27.677  28.771  1.00  0.00     0.049 A 
ATOM     34  N   UNL A   1      42.161  29.667  30.156  1.00  0.00    -0.248 NA
ATOM     35  C   UNL A   1      40.340  31.123  30.300  1.00  0.00     0.031 C 
ATOM     36  C   UNL A   1      39.581  26.690  28.044  1.00  0.00     0.029 A 
ATOM     37  N   UNL A   1      41.621  27.093  28.868  1.00  0.00    -0.354 N 
ATOM     38  C   UNL A   1      42.569  30.859  30.739  1.00  0.00     0.074 A 
ATOM     39  C   UNL A   1      41.423  31.744  30.743  1.00  0.00     0.031 C 
ATOM     40  C   UNL A   1      40.339  25.611  27.787  1.00  0.00     0.029 A 
ATOM     41  C   UNL A   1      41.685  25.844  28.299  1.00  0.00     0.049 A 
ATOM     42  H   UNL A   1      42.389  27.527  29.305  1.00  0.00     0.167 HD
ATOM     43  C   UNL A   1      43.782  31.186  31.244  1.00  0.00     0.031 A 
ATOM     44  C   UNL A   1      42.715  24.983  28.199  1.00  0.00     0.031 A 
ATOM     45  C   UNL A   1      44.916  30.301  31.260  1.00  0.00     0.049 A 
ATOM     46  C   UNL A   1      44.047  25.359  28.784  1.00  0.00     0.074 A 
ATOM     47  C   UNL A   1      46.167  30.511  31.812  1.00  0.00     0.029 A 
ATOM     48  N   UNL A   1      44.933  29.035  30.697  1.00  0.00    -0.354 N 
ATOM     49  N   UNL A   1      44.397  26.462  29.398  1.00  0.00    -0.248 NA
ATOM     50  C   UNL A   1      45.124  24.364  28.669  1.00  0.00     0.031 C 
ATOM     51  C   UNL A   1      46.955  29.386  31.549  1.00  0.00     0.029 A 
ATOM     52  C   UNL A   1      46.179  28.458  30.872  1.00  0.00     0.049 A 
ATOM     53  H   UNL A   1      44.172  28.609  30.240  1.00  0.00     0.167 HD
ATOM     54  C   UNL A   1      45.724  26.287  29.765  1.00  0.00     0.074 A 
ATOM     55  C   UNL A   1      46.112  24.965  29.316  1.00  0.00     0.031 C 
ATOM     56  C   UNL A   1      46.548  27.144  30.416  1.00  0.00     0.031 A 
BRANCH  43  57
ATOM     57  C   UNL A   1      43.938  32.566  31.816  1.00  0.00    -0.014 A 
ATOM     58  C   UNL A   1      43.654  32.828  33.166  1.00  0.00     0.009 A 
ATOM     59  C   UNL A   1      44.384  33.616  30.999  1.00  0.00     0.009 A 
ATOM     60  C   UNL A   1      43.771  34.124  33.675  1.00  0.00     0.001 A 
ATOM     61  C   UNL A   1      44.527  34.904  31.518  1.00  0.00     0.001 A 
ATOM     62  C   UNL A   1      44.210  35.159  32.851  1.00  0.00     0.000 A 
ENDBRANCH  43  57
BRANCH  44  63
ATOM     63  C   UNL A   1      42.518  23.664  27.545  1.00  0.00    -0.014 A 
ATOM     64  C   UNL A   1      42.098  22.557  28.298  1.00  0.00     0.009 A 
ATOM     65  C   UNL A   1      42.742  23.506  26.169  1.00  0.00     0.009 A 
ATOM     66  C   UNL A   1      41.925  21.312  27.690  1.00  0.00     0.001 A 
ATOM     67  C   UNL A   1      42.546  22.265  25.559  1.00  0.00     0.001 A 
ATOM     68  C   UNL A   1      42.145  21.168  26.321  1.00  0.00     0.000 A 
ENDBRANCH  44  63
BRANCH  56  69
ATOM     69  C   UNL A   1      47.941  26.666  30.707  1.00  0.00    -0.014 A 
ATOM     70  C   UNL A   1      48.202  25.799  31.779  1.00  0.00     0.009 A 
ATOM     71  C   UNL A   1      48.998  27.058  29.872  1.00  0.00     0.009 A 
ATOM     72  C   UNL A   1      49.504  25.355  32.025  1.00  0.00     0.001 A 
ATOM     73  C   UNL A   1      50.293  26.595  30.105  1.00  0.00     0.001 A 
ATOM     74  C   UNL A   1      50.547  25.750  31.186  1.00  0.00     0.000 A 
ENDBRANCH  56  69
ENDBRANCH  30  31
ENDBRANCH  22  25
ENDBRANCH  20  21
ENDBRANCH  19  20
ENDBRANCH   1  19
TORSDOF 14
ENDMDL
