MODEL 1
REMARK VINA RESULT:     -11.2      0.000      0.000
REMARK SMILES O=C(NCCCCNC(=O)c1ccccc1S[C@H]1CCOC2(CCCCC2)C1)c1ccc(-c2c3nc(c(-c4ccccc4)c4ccc([nH]4)c(-c4ccccc4)c4nc(c(-c5ccccc5)c5ccc2[nH]5)C=C4)C=C3)cc1
REMARK SMILES IDX 5 1 4 2 3 3 1 4 2 5 29 7 30 8 76 9 31 10 75 11 32 12 33 13
REMARK SMILES IDX 34 14 69 15 35 16 74 17 68 18 70 19 36 20 73 21 67 22 66 23
REMARK SMILES IDX 37 25 59 26 44 27 58 28 45 29 48 30 57 31 71 32 46 33 47 34
REMARK SMILES IDX 56 36 72 37 49 38 38 39 39 40 43 41 40 42 42 43 41 44 60 45
REMARK SMILES IDX 61 46 65 47 62 48 64 49 63 50 50 51 51 52 55 53 52 54 54 55
REMARK SMILES IDX 53 56 6 57 7 58 8 59 9 60 10 62 11 63 12 64 16 65 13 66
REMARK SMILES IDX 15 67 14 68 17 69 18 70 19 71 28 72 20 73 22 74 21 75 23 76
REMARK SMILES IDX 27 77 24 78 26 79 25 80
REMARK H PARENT 3 6 70 24 48 35 8 61
REMARK Flexibility Score: inf
ROOT
ATOM      1  C   UNL A   1      36.863  23.697  24.337  1.00  0.00     0.023 C 
ENDROOT
BRANCH   1   2
ATOM      2  C   UNL A   1      36.890  23.137  25.753  1.00  0.00     0.116 C 
BRANCH   2   3
ATOM      3  N   UNL A   1      38.041  22.282  26.008  1.00  0.00    -0.352 N 
ATOM      4  O   UNL A   1      40.184  21.788  26.536  1.00  0.00    -0.269 OA
ATOM      5  C   UNL A   1      39.279  22.618  26.506  1.00  0.00     0.251 C 
ATOM      6  H   UNL A   1      37.916  21.330  25.796  1.00  0.00     0.163 HD
BRANCH   5   7
ATOM      7  C   UNL A   1      39.530  23.998  26.976  1.00  0.00     0.039 A 
ATOM      8  C   UNL A   1      40.068  24.951  26.110  1.00  0.00     0.014 A 
ATOM      9  C   UNL A   1      39.248  24.336  28.303  1.00  0.00     0.014 A 
ATOM     10  C   UNL A   1      40.486  26.175  26.612  1.00  0.00     0.010 A 
ATOM     11  C   UNL A   1      39.577  25.610  28.781  1.00  0.00     0.010 A 
ATOM     12  C   UNL A   1      40.235  26.527  27.950  1.00  0.00    -0.014 A 
BRANCH  12  13
ATOM     13  C   UNL A   1      40.625  27.884  28.411  1.00  0.00     0.031 A 
ATOM     14  C   UNL A   1      39.609  28.972  28.619  1.00  0.00     0.074 A 
ATOM     15  C   UNL A   1      41.919  28.102  28.721  1.00  0.00     0.049 A 
ATOM     16  N   UNL A   1      39.783  30.173  29.113  1.00  0.00    -0.248 NA
ATOM     17  C   UNL A   1      38.222  28.687  28.219  1.00  0.00     0.031 C 
ATOM     18  C   UNL A   1      43.001  27.129  28.548  1.00  0.00     0.029 A 
ATOM     19  N   UNL A   1      42.536  29.187  29.287  1.00  0.00    -0.354 N 
ATOM     20  C   UNL A   1      38.538  30.790  29.071  1.00  0.00     0.074 A 
ATOM     21  C   UNL A   1      37.619  29.840  28.481  1.00  0.00     0.031 C 
ATOM     22  C   UNL A   1      44.130  27.630  29.067  1.00  0.00     0.029 A 
ATOM     23  C   UNL A   1      43.868  28.980  29.551  1.00  0.00     0.049 A 
ATOM     24  H   UNL A   1      42.070  30.032  29.485  1.00  0.00     0.167 HD
ATOM     25  C   UNL A   1      38.193  32.031  29.492  1.00  0.00     0.031 A 
ATOM     26  C   UNL A   1      44.785  29.785  30.118  1.00  0.00     0.031 A 
ATOM     27  C   UNL A   1      39.107  32.977  30.081  1.00  0.00     0.049 A 
ATOM     28  C   UNL A   1      44.371  31.150  30.575  1.00  0.00     0.074 A 
ATOM     29  C   UNL A   1      38.848  34.257  30.542  1.00  0.00     0.029 A 
ATOM     30  N   UNL A   1      40.457  32.743  30.293  1.00  0.00    -0.354 N 
ATOM     31  N   UNL A   1      43.186  31.707  30.539  1.00  0.00    -0.248 NA
ATOM     32  C   UNL A   1      45.424  31.997  31.151  1.00  0.00     0.031 C 
ATOM     33  C   UNL A   1      40.049  34.812  30.998  1.00  0.00     0.029 A 
ATOM     34  C   UNL A   1      41.046  33.860  30.865  1.00  0.00     0.049 A 
ATOM     35  H   UNL A   1      40.928  31.908  30.070  1.00  0.00     0.167 HD
ATOM     36  C   UNL A   1      43.349  32.972  31.084  1.00  0.00     0.074 A 
ATOM     37  C   UNL A   1      44.739  33.083  31.479  1.00  0.00     0.031 C 
ATOM     38  C   UNL A   1      42.433  33.959  31.233  1.00  0.00     0.031 A 
BRANCH  25  39
ATOM     39  C   UNL A   1      36.761  32.453  29.319  1.00  0.00    -0.014 A 
ATOM     40  C   UNL A   1      35.825  32.287  30.353  1.00  0.00     0.009 A 
ATOM     41  C   UNL A   1      36.356  33.087  28.134  1.00  0.00     0.009 A 
ATOM     42  C   UNL A   1      34.509  32.729  30.193  1.00  0.00     0.001 A 
ATOM     43  C   UNL A   1      35.046  33.547  27.986  1.00  0.00     0.001 A 
ATOM     44  C   UNL A   1      34.123  33.362  29.014  1.00  0.00     0.000 A 
ENDBRANCH  25  39
BRANCH  26  45
ATOM     45  C   UNL A   1      46.186  29.318  30.263  1.00  0.00    -0.014 A 
ATOM     46  C   UNL A   1      47.116  29.502  29.230  1.00  0.00     0.009 A 
ATOM     47  C   UNL A   1      46.603  28.694  31.450  1.00  0.00     0.009 A 
ATOM     48  C   UNL A   1      48.430  29.050  29.374  1.00  0.00     0.001 A 
ATOM     49  C   UNL A   1      47.924  28.271  31.603  1.00  0.00     0.001 A 
ATOM     50  C   UNL A   1      48.833  28.442  30.561  1.00  0.00     0.000 A 
ENDBRANCH  26  45
BRANCH  38  51
ATOM     51  C   UNL A   1      42.920  35.238  31.850  1.00  0.00    -0.014 A 
ATOM     52  C   UNL A   1      43.567  36.212  31.075  1.00  0.00     0.009 A 
ATOM     53  C   UNL A   1      42.730  35.470  33.220  1.00  0.00     0.009 A 
ATOM     54  C   UNL A   1      44.055  37.376  31.670  1.00  0.00     0.001 A 
ATOM     55  C   UNL A   1      43.196  36.646  33.808  1.00  0.00     0.001 A 
ATOM     56  C   UNL A   1      43.868  37.594  33.035  1.00  0.00     0.000 A 
ENDBRANCH  38  51
ENDBRANCH  12  13
ENDBRANCH   5   7
ENDBRANCH   2   3
ENDBRANCH   1   2
BRANCH   1  57
ATOM     57  C   UNL A   1      35.982  22.937  23.348  1.00  0.00     0.023 C 
BRANCH  57  58
ATOM     58  C   UNL A   1      34.592  23.524  23.131  1.00  0.00     0.116 C 
BRANCH  58  59
ATOM     59  N   UNL A   1      33.596  22.516  22.819  1.00  0.00    -0.352 N 
ATOM     60  C   UNL A   1      32.754  21.857  23.678  1.00  0.00     0.252 C 
ATOM     61  H   UNL A   1      33.513  22.274  21.868  1.00  0.00     0.163 HD
ATOM     62  O   UNL A   1      31.956  21.027  23.254  1.00  0.00    -0.269 OA
BRANCH  60  63
ATOM     63  C   UNL A   1      32.870  22.083  25.131  1.00  0.00     0.053 A 
ATOM     64  C   UNL A   1      33.750  21.222  25.806  1.00  0.00     0.015 A 
ATOM     65  C   UNL A   1      32.144  23.075  25.820  1.00  0.00     0.020 A 
ATOM     66  C   UNL A   1      33.940  21.353  27.178  1.00  0.00     0.001 A 
ATOM     67  C   UNL A   1      32.325  23.157  27.210  1.00  0.00     0.016 A 
ATOM     68  C   UNL A   1      33.227  22.321  27.878  1.00  0.00     0.001 A 
BRANCH  65  69
ATOM     69  S   UNL A   1      31.000  24.159  24.953  1.00  0.00    -0.122 SA
BRANCH  69  70
ATOM     70  C   UNL A   1      31.893  25.758  24.831  1.00  0.00     0.057 C 
ATOM     71  C   UNL A   1      31.593  26.556  23.563  1.00  0.00     0.043 C 
ATOM     72  C   UNL A   1      31.522  26.635  26.036  1.00  0.00     0.050 C 
ATOM     73  C   UNL A   1      32.420  27.835  23.587  1.00  0.00     0.162 C 
ATOM     74  C   UNL A   1      32.322  27.957  26.015  1.00  0.00     0.069 C 
ATOM     75  O   UNL A   1      32.151  28.614  24.748  1.00  0.00    -0.375 OA
ATOM     76  C   UNL A   1      33.814  27.698  26.332  1.00  0.00     0.035 C 
ATOM     77  C   UNL A   1      31.739  28.925  27.070  1.00  0.00     0.035 C 
ATOM     78  C   UNL A   1      34.628  28.982  26.478  1.00  0.00     0.003 C 
ATOM     79  C   UNL A   1      32.557  30.212  27.202  1.00  0.00     0.003 C 
ATOM     80  C   UNL A   1      34.018  29.914  27.516  1.00  0.00     0.000 C 
ENDBRANCH  69  70
ENDBRANCH  65  69
ENDBRANCH  60  63
ENDBRANCH  58  59
ENDBRANCH  57  58
ENDBRANCH   1  57
TORSDOF 13
ENDMDL
MODEL 2
REMARK VINA RESULT:     -11.0      3.169      7.952
REMARK SMILES O=C(NCCCCNC(=O)c1ccccc1S[C@H]1CCOC2(CCCCC2)C1)c1ccc(-c2c3nc(c(-c4ccccc4)c4ccc([nH]4)c(-c4ccccc4)c4nc(c(-c5ccccc5)c5ccc2[nH]5)C=C4)C=C3)cc1
REMARK SMILES IDX 5 1 4 2 3 3 1 4 2 5 29 7 30 8 76 9 31 10 75 11 32 12 33 13
REMARK SMILES IDX 34 14 69 15 35 16 74 17 68 18 70 19 36 20 73 21 67 22 66 23
REMARK SMILES IDX 37 25 59 26 44 27 58 28 45 29 48 30 57 31 71 32 46 33 47 34
REMARK SMILES IDX 56 36 72 37 49 38 38 39 39 40 43 41 40 42 42 43 41 44 60 45
REMARK SMILES IDX 61 46 65 47 62 48 64 49 63 50 50 51 51 52 55 53 52 54 54 55
REMARK SMILES IDX 53 56 6 57 7 58 8 59 9 60 10 62 11 63 12 64 16 65 13 66
REMARK SMILES IDX 15 67 14 68 17 69 18 70 19 71 28 72 20 73 22 74 21 75 23 76
REMARK SMILES IDX 27 77 24 78 26 79 25 80
REMARK H PARENT 3 6 70 24 48 35 8 61
REMARK Flexibility Score: inf
ROOT
ATOM      1  C   UNL A   1      31.354  32.033  26.898  1.00  0.00     0.023 C 
ENDROOT
BRANCH   1   2
ATOM      2  C   UNL A   1      32.608  32.839  27.212  1.00  0.00     0.116 C 
BRANCH   2   3
ATOM      3  N   UNL A   1      32.321  34.207  27.620  1.00  0.00    -0.352 N 
ATOM      4  O   UNL A   1      32.502  36.081  28.873  1.00  0.00    -0.269 OA
ATOM      5  C   UNL A   1      32.959  34.985  28.559  1.00  0.00     0.251 C 
ATOM      6  H   UNL A   1      31.566  34.638  27.158  1.00  0.00     0.163 HD
BRANCH   5   7
ATOM      7  C   UNL A   1      34.183  34.480  29.219  1.00  0.00     0.039 A 
ATOM      8  C   UNL A   1      35.433  34.683  28.634  1.00  0.00     0.014 A 
ATOM      9  C   UNL A   1      34.076  33.774  30.422  1.00  0.00     0.014 A 
ATOM     10  C   UNL A   1      36.545  34.034  29.152  1.00  0.00     0.010 A 
ATOM     11  C   UNL A   1      35.218  33.207  30.998  1.00  0.00     0.010 A 
ATOM     12  C   UNL A   1      36.457  33.298  30.347  1.00  0.00    -0.014 A 
BRANCH  12  13
ATOM     13  C   UNL A   1      37.697  32.698  30.904  1.00  0.00     0.031 A 
ATOM     14  C   UNL A   1      38.280  33.156  32.212  1.00  0.00     0.074 A 
ATOM     15  C   UNL A   1      38.254  31.664  30.242  1.00  0.00     0.049 A 
ATOM     16  N   UNL A   1      39.297  32.660  32.873  1.00  0.00    -0.248 NA
ATOM     17  C   UNL A   1      37.653  34.317  32.862  1.00  0.00     0.031 C 
ATOM     18  C   UNL A   1      37.789  31.140  28.955  1.00  0.00     0.029 A 
ATOM     19  N   UNL A   1      39.298  30.842  30.577  1.00  0.00    -0.354 N 
ATOM     20  C   UNL A   1      39.440  33.454  34.006  1.00  0.00     0.074 A 
ATOM     21  C   UNL A   1      38.421  34.479  33.931  1.00  0.00     0.031 C 
ATOM     22  C   UNL A   1      38.491  30.041  28.648  1.00  0.00     0.029 A 
ATOM     23  C   UNL A   1      39.496  29.820  29.680  1.00  0.00     0.049 A 
ATOM     24  H   UNL A   1      39.851  30.971  31.381  1.00  0.00     0.167 HD
ATOM     25  C   UNL A   1      40.335  33.333  35.016  1.00  0.00     0.031 A 
ATOM     26  C   UNL A   1      40.389  28.814  29.682  1.00  0.00     0.031 A 
ATOM     27  C   UNL A   1      41.348  32.312  35.091  1.00  0.00     0.049 A 
ATOM     28  C   UNL A   1      41.363  28.707  30.814  1.00  0.00     0.074 A 
ATOM     29  C   UNL A   1      42.298  32.107  36.080  1.00  0.00     0.029 A 
ATOM     30  N   UNL A   1      41.542  31.320  34.142  1.00  0.00    -0.354 N 
ATOM     31  N   UNL A   1      41.471  29.459  31.881  1.00  0.00    -0.248 NA
ATOM     32  C   UNL A   1      42.338  27.610  30.741  1.00  0.00     0.031 C 
ATOM     33  C   UNL A   1      43.090  31.015  35.709  1.00  0.00     0.029 A 
ATOM     34  C   UNL A   1      42.604  30.510  34.515  1.00  0.00     0.049 A 
ATOM     35  H   UNL A   1      41.005  31.208  33.325  1.00  0.00     0.167 HD
ATOM     36  C   UNL A   1      42.529  28.931  32.607  1.00  0.00     0.074 A 
ATOM     37  C   UNL A   1      43.001  27.770  31.878  1.00  0.00     0.031 C 
ATOM     38  C   UNL A   1      43.070  29.373  33.768  1.00  0.00     0.031 A 
BRANCH  25  39
ATOM     39  C   UNL A   1      40.273  34.344  36.127  1.00  0.00    -0.014 A 
ATOM     40  C   UNL A   1      40.981  35.554  36.048  1.00  0.00     0.009 A 
ATOM     41  C   UNL A   1      39.445  34.115  37.236  1.00  0.00     0.009 A 
ATOM     42  C   UNL A   1      40.875  36.504  37.068  1.00  0.00     0.001 A 
ATOM     43  C   UNL A   1      39.323  35.075  38.243  1.00  0.00     0.001 A 
ATOM     44  C   UNL A   1      40.042  36.266  38.160  1.00  0.00     0.000 A 
ENDBRANCH  25  39
BRANCH  26  45
ATOM     45  C   UNL A   1      40.407  27.843  28.559  1.00  0.00    -0.014 A 
ATOM     46  C   UNL A   1      41.145  28.104  27.395  1.00  0.00     0.009 A 
ATOM     47  C   UNL A   1      39.689  26.640  28.654  1.00  0.00     0.009 A 
ATOM     48  C   UNL A   1      41.147  27.187  26.341  1.00  0.00     0.001 A 
ATOM     49  C   UNL A   1      39.718  25.713  27.612  1.00  0.00     0.001 A 
ATOM     50  C   UNL A   1      40.440  25.991  26.453  1.00  0.00     0.000 A 
ENDBRANCH  26  45
BRANCH  38  51
ATOM     51  C   UNL A   1      44.232  28.590  34.307  1.00  0.00    -0.014 A 
ATOM     52  C   UNL A   1      44.031  27.505  35.173  1.00  0.00     0.009 A 
ATOM     53  C   UNL A   1      45.541  28.944  33.947  1.00  0.00     0.009 A 
ATOM     54  C   UNL A   1      45.122  26.814  35.702  1.00  0.00     0.001 A 
ATOM     55  C   UNL A   1      46.629  28.236  34.458  1.00  0.00     0.001 A 
ATOM     56  C   UNL A   1      46.419  27.179  35.344  1.00  0.00     0.000 A 
ENDBRANCH  38  51
ENDBRANCH  12  13
ENDBRANCH   5   7
ENDBRANCH   2   3
ENDBRANCH   1   2
BRANCH   1  57
ATOM     57  C   UNL A   1      31.515  30.965  25.819  1.00  0.00     0.023 C 
BRANCH  57  58
ATOM     58  C   UNL A   1      32.610  29.937  26.081  1.00  0.00     0.116 C 
BRANCH  58  59
ATOM     59  N   UNL A   1      33.358  29.590  24.886  1.00  0.00    -0.352 N 
ATOM     60  C   UNL A   1      32.988  28.756  23.863  1.00  0.00     0.252 C 
ATOM     61  H   UNL A   1      34.245  30.009  24.799  1.00  0.00     0.163 HD
ATOM     62  O   UNL A   1      33.738  28.568  22.910  1.00  0.00    -0.269 OA
BRANCH  60  63
ATOM     63  C   UNL A   1      31.719  28.010  23.952  1.00  0.00     0.053 A 
ATOM     64  C   UNL A   1      30.669  28.511  23.166  1.00  0.00     0.015 A 
ATOM     65  C   UNL A   1      31.541  26.882  24.777  1.00  0.00     0.020 A 
ATOM     66  C   UNL A   1      29.430  27.879  23.170  1.00  0.00     0.001 A 
ATOM     67  C   UNL A   1      30.268  26.288  24.792  1.00  0.00     0.016 A 
ATOM     68  C   UNL A   1      29.232  26.768  23.983  1.00  0.00     0.001 A 
BRANCH  65  69
ATOM     69  S   UNL A   1      32.883  26.259  25.801  1.00  0.00    -0.122 SA
BRANCH  69  70
ATOM     70  C   UNL A   1      33.450  24.744  24.934  1.00  0.00     0.057 C 
ATOM     71  C   UNL A   1      33.440  24.846  23.409  1.00  0.00     0.043 C 
ATOM     72  C   UNL A   1      34.886  24.420  25.373  1.00  0.00     0.050 C 
ATOM     73  C   UNL A   1      33.906  23.515  22.830  1.00  0.00     0.162 C 
ATOM     74  C   UNL A   1      35.369  23.101  24.729  1.00  0.00     0.069 C 
ATOM     75  O   UNL A   1      35.200  23.160  23.303  1.00  0.00    -0.375 OA
ATOM     76  C   UNL A   1      34.629  21.889  25.346  1.00  0.00     0.035 C 
ATOM     77  C   UNL A   1      36.888  22.942  24.965  1.00  0.00     0.035 C 
ATOM     78  C   UNL A   1      35.170  20.546  24.862  1.00  0.00     0.003 C 
ATOM     79  C   UNL A   1      37.422  21.596  24.469  1.00  0.00     0.003 C 
ATOM     80  C   UNL A   1      36.669  20.430  25.100  1.00  0.00     0.000 C 
ENDBRANCH  69  70
ENDBRANCH  65  69
ENDBRANCH  60  63
ENDBRANCH  58  59
ENDBRANCH  57  58
ENDBRANCH   1  57
TORSDOF 13
ENDMDL
MODEL 3
REMARK VINA RESULT:     -10.9      2.326      7.844
REMARK SMILES O=C(NCCCCNC(=O)c1ccccc1S[C@H]1CCOC2(CCCCC2)C1)c1ccc(-c2c3nc(c(-c4ccccc4)c4ccc([nH]4)c(-c4ccccc4)c4nc(c(-c5ccccc5)c5ccc2[nH]5)C=C4)C=C3)cc1
REMARK SMILES IDX 5 1 4 2 3 3 1 4 2 5 29 7 30 8 76 9 31 10 75 11 32 12 33 13
REMARK SMILES IDX 34 14 69 15 35 16 74 17 68 18 70 19 36 20 73 21 67 22 66 23
REMARK SMILES IDX 37 25 59 26 44 27 58 28 45 29 48 30 57 31 71 32 46 33 47 34
REMARK SMILES IDX 56 36 72 37 49 38 38 39 39 40 43 41 40 42 42 43 41 44 60 45
REMARK SMILES IDX 61 46 65 47 62 48 64 49 63 50 50 51 51 52 55 53 52 54 54 55
REMARK SMILES IDX 53 56 6 57 7 58 8 59 9 60 10 62 11 63 12 64 16 65 13 66
REMARK SMILES IDX 15 67 14 68 17 69 18 70 19 71 28 72 20 73 22 74 21 75 23 76
REMARK SMILES IDX 27 77 24 78 26 79 25 80
REMARK H PARENT 3 6 70 24 48 35 8 61
REMARK Flexibility Score: inf
ROOT
ATOM      1  C   UNL A   1      31.059  32.280  26.526  1.00  0.00     0.023 C 
ENDROOT
BRANCH   1   2
ATOM      2  C   UNL A   1      32.416  32.724  27.056  1.00  0.00     0.116 C 
BRANCH   2   3
ATOM      3  N   UNL A   1      32.381  34.036  27.688  1.00  0.00    -0.352 N 
ATOM      4  O   UNL A   1      33.002  35.662  29.131  1.00  0.00    -0.269 OA
ATOM      5  C   UNL A   1      33.254  34.585  28.599  1.00  0.00     0.251 C 
ATOM      6  H   UNL A   1      31.628  34.613  27.425  1.00  0.00     0.163 HD
BRANCH   5   7
ATOM      7  C   UNL A   1      34.487  33.853  28.964  1.00  0.00     0.039 A 
ATOM      8  C   UNL A   1      34.503  33.009  30.076  1.00  0.00     0.014 A 
ATOM      9  C   UNL A   1      35.646  34.032  28.202  1.00  0.00     0.014 A 
ATOM     10  C   UNL A   1      35.709  32.492  30.526  1.00  0.00     0.010 A 
ATOM     11  C   UNL A   1      36.841  33.423  28.601  1.00  0.00     0.010 A 
ATOM     12  C   UNL A   1      36.892  32.680  29.789  1.00  0.00    -0.014 A 
BRANCH  12  13
ATOM     13  C   UNL A   1      38.138  32.028  30.269  1.00  0.00     0.031 A 
ATOM     14  C   UNL A   1      38.619  30.723  29.700  1.00  0.00     0.074 A 
ATOM     15  C   UNL A   1      38.883  32.680  31.184  1.00  0.00     0.049 A 
ATOM     16  N   UNL A   1      39.737  30.084  29.946  1.00  0.00    -0.248 NA
ATOM     17  C   UNL A   1      37.740  30.039  28.739  1.00  0.00     0.031 C 
ATOM     18  C   UNL A   1      38.513  33.947  31.823  1.00  0.00     0.029 A 
ATOM     19  N   UNL A   1      40.120  32.397  31.701  1.00  0.00    -0.354 N 
ATOM     20  C   UNL A   1      39.690  28.922  29.184  1.00  0.00     0.074 A 
ATOM     21  C   UNL A   1      38.423  28.930  28.485  1.00  0.00     0.031 C 
ATOM     22  C   UNL A   1      39.531  34.370  32.584  1.00  0.00     0.029 A 
ATOM     23  C   UNL A   1      40.597  33.376  32.539  1.00  0.00     0.049 A 
ATOM     24  H   UNL A   1      40.617  31.574  31.493  1.00  0.00     0.167 HD
ATOM     25  C   UNL A   1      40.621  27.944  29.075  1.00  0.00     0.031 A 
ATOM     26  C   UNL A   1      41.763  33.469  33.203  1.00  0.00     0.031 A 
ATOM     27  C   UNL A   1      41.883  27.936  29.769  1.00  0.00     0.049 A 
ATOM     28  C   UNL A   1      42.773  32.372  33.059  1.00  0.00     0.074 A 
ATOM     29  C   UNL A   1      42.893  26.989  29.717  1.00  0.00     0.029 A 
ATOM     30  N   UNL A   1      42.311  28.926  30.640  1.00  0.00    -0.354 N 
ATOM     31  N   UNL A   1      42.713  31.290  32.323  1.00  0.00    -0.248 NA
ATOM     32  C   UNL A   1      44.010  32.511  33.838  1.00  0.00     0.031 C 
ATOM     33  C   UNL A   1      43.915  27.387  30.585  1.00  0.00     0.029 A 
ATOM     34  C   UNL A   1      43.563  28.606  31.141  1.00  0.00     0.049 A 
ATOM     35  H   UNL A   1      41.802  29.737  30.868  1.00  0.00     0.167 HD
ATOM     36  C   UNL A   1      43.903  30.615  32.551  1.00  0.00     0.074 A 
ATOM     37  C   UNL A   1      44.681  31.430  33.463  1.00  0.00     0.031 C 
ATOM     38  C   UNL A   1      44.312  29.419  32.061  1.00  0.00     0.031 A 
BRANCH  25  39
ATOM     39  C   UNL A   1      40.307  26.780  28.176  1.00  0.00    -0.014 A 
ATOM     40  C   UNL A   1      40.814  26.714  26.869  1.00  0.00     0.009 A 
ATOM     41  C   UNL A   1      39.551  25.703  28.665  1.00  0.00     0.009 A 
ATOM     42  C   UNL A   1      40.552  25.602  26.063  1.00  0.00     0.001 A 
ATOM     43  C   UNL A   1      39.309  24.583  27.866  1.00  0.00     0.001 A 
ATOM     44  C   UNL A   1      39.805  24.537  26.564  1.00  0.00     0.000 A 
ENDBRANCH  25  39
BRANCH  26  45
ATOM     45  C   UNL A   1      42.022  34.640  34.078  1.00  0.00    -0.014 A 
ATOM     46  C   UNL A   1      42.603  35.808  33.563  1.00  0.00     0.009 A 
ATOM     47  C   UNL A   1      41.674  34.596  35.438  1.00  0.00     0.009 A 
ATOM     48  C   UNL A   1      42.851  36.900  34.397  1.00  0.00     0.001 A 
ATOM     49  C   UNL A   1      41.894  35.700  36.262  1.00  0.00     0.001 A 
ATOM     50  C   UNL A   1      42.490  36.848  35.743  1.00  0.00     0.000 A 
ENDBRANCH  26  45
BRANCH  38  51
ATOM     51  C   UNL A   1      45.660  28.936  32.510  1.00  0.00    -0.014 A 
ATOM     52  C   UNL A   1      45.801  28.173  33.679  1.00  0.00     0.009 A 
ATOM     53  C   UNL A   1      46.801  29.249  31.756  1.00  0.00     0.009 A 
ATOM     54  C   UNL A   1      47.066  27.769  34.108  1.00  0.00     0.001 A 
ATOM     55  C   UNL A   1      48.062  28.822  32.174  1.00  0.00     0.001 A 
ATOM     56  C   UNL A   1      48.195  28.092  33.355  1.00  0.00     0.000 A 
ENDBRANCH  38  51
ENDBRANCH  12  13
ENDBRANCH   5   7
ENDBRANCH   2   3
ENDBRANCH   1   2
BRANCH   1  57
ATOM     57  C   UNL A   1      31.087  31.086  25.574  1.00  0.00     0.023 C 
BRANCH  57  58
ATOM     58  C   UNL A   1      32.206  30.081  25.825  1.00  0.00     0.116 C 
BRANCH  58  59
ATOM     59  N   UNL A   1      32.929  29.728  24.616  1.00  0.00    -0.352 N 
ATOM     60  C   UNL A   1      32.596  28.795  23.668  1.00  0.00     0.252 C 
ATOM     61  H   UNL A   1      33.765  30.221  24.457  1.00  0.00     0.163 HD
ATOM     62  O   UNL A   1      33.316  28.614  22.691  1.00  0.00    -0.269 OA
BRANCH  60  63
ATOM     63  C   UNL A   1      31.411  27.939  23.870  1.00  0.00     0.053 A 
ATOM     64  C   UNL A   1      30.262  28.326  23.162  1.00  0.00     0.015 A 
ATOM     65  C   UNL A   1      31.402  26.819  24.724  1.00  0.00     0.020 A 
ATOM     66  C   UNL A   1      29.090  27.584  23.274  1.00  0.00     0.001 A 
ATOM     67  C   UNL A   1      30.194  26.114  24.850  1.00  0.00     0.016 A 
ATOM     68  C   UNL A   1      29.058  26.479  24.118  1.00  0.00     0.001 A 
BRANCH  65  69
ATOM     69  S   UNL A   1      32.871  26.343  25.648  1.00  0.00    -0.122 SA
BRANCH  69  70
ATOM     70  C   UNL A   1      33.445  24.805  24.827  1.00  0.00     0.057 C 
ATOM     71  C   UNL A   1      33.430  24.858  23.300  1.00  0.00     0.043 C 
ATOM     72  C   UNL A   1      34.883  24.504  25.272  1.00  0.00     0.050 C 
ATOM     73  C   UNL A   1      33.901  23.512  22.763  1.00  0.00     0.162 C 
ATOM     74  C   UNL A   1      35.372  23.167  24.669  1.00  0.00     0.069 C 
ATOM     75  O   UNL A   1      35.199  23.180  23.242  1.00  0.00    -0.375 OA
ATOM     76  C   UNL A   1      34.641  21.971  25.327  1.00  0.00     0.035 C 
ATOM     77  C   UNL A   1      36.894  23.025  24.905  1.00  0.00     0.035 C 
ATOM     78  C   UNL A   1      35.189  20.617  24.884  1.00  0.00     0.003 C 
ATOM     79  C   UNL A   1      37.433  21.666  24.450  1.00  0.00     0.003 C 
ATOM     80  C   UNL A   1      36.690  20.517  25.120  1.00  0.00     0.000 C 
ENDBRANCH  69  70
ENDBRANCH  65  69
ENDBRANCH  60  63
ENDBRANCH  58  59
ENDBRANCH  57  58
ENDBRANCH   1  57
TORSDOF 13
ENDMDL
