MODEL 1
REMARK VINA RESULT:     -13.5      0.000      0.000
REMARK SMILES O=C1C[C@@H](c2cccc(O)c2)c2c(c(C(=O)NCCCCNC(=O)c3ccc(-c4c5nc(c(-c6ccccc6)c6ccc([nH]6)c(-c6ccccc6)c6nc(c(-c7ccccc7)c7ccc4[nH]7)C=C6)C=C5)cc3)cn2-c2cccc(C(F)(F)F)c2)N1
REMARK SMILES IDX 19 1 18 2 17 3 15 4 16 5 14 7 1 8 2 9 3 10 85 11 4 12 13 13
REMARK SMILES IDX 12 15 74 16 73 17 5 18 6 19 11 20 7 21 9 22 8 23 10 24 75 26
REMARK SMILES IDX 76 27 84 28 77 29 79 30 78 31 80 32 81 33 82 34 83 35 20 36
REMARK SMILES IDX 21 37 22 38 23 39 24 41 25 42 26 43 72 44 27 45 71 46 28 47
REMARK SMILES IDX 29 48 30 49 65 50 31 51 70 52 64 53 66 54 32 55 69 56 63 57
REMARK SMILES IDX 62 58 33 60 55 61 40 62 54 63 41 64 44 65 53 66 67 67 42 68
REMARK SMILES IDX 43 69 52 71 68 72 45 73 34 74 35 75 39 76 36 77 38 78 37 79
REMARK SMILES IDX 56 80 57 81 61 82 58 83 60 84 59 85 46 86 47 87 51 88 48 89
REMARK SMILES IDX 50 90 49 91
REMARK H PARENT 17 6 85 14 10 25 22 40 66 59 44 70
REMARK Flexibility Score: inf
ROOT
ATOM      1  C   UNL A   1      35.955  20.873  24.998  1.00  0.00     0.023 C 
ENDROOT
BRANCH   1   2
ATOM      2  C   UNL A   1      34.589  21.406  25.435  1.00  0.00     0.116 C 
BRANCH   2   3
ATOM      3  N   UNL A   1      33.575  21.265  24.410  1.00  0.00    -0.352 N 
ATOM      4  C   UNL A   1      32.775  22.151  23.735  1.00  0.00     0.254 C 
ATOM      5  O   UNL A   1      31.996  21.657  22.914  1.00  0.00    -0.269 OA
ATOM      6  H   UNL A   1      33.428  20.329  24.140  1.00  0.00     0.163 HD
BRANCH   4   7
ATOM      7  C   UNL A   1      32.796  23.596  23.950  1.00  0.00     0.081 A 
ATOM      8  O   UNL A   1      32.462  25.297  19.477  1.00  0.00    -0.275 OA
ATOM      9  C   UNL A   1      32.668  25.465  20.679  1.00  0.00     0.225 C 
ATOM     10  C   UNL A   1      33.128  26.809  21.233  1.00  0.00     0.115 C 
ATOM     11  N   UNL A   1      32.617  24.413  21.560  1.00  0.00    -0.324 N 
ATOM     12  C   UNL A   1      32.646  27.107  22.666  1.00  0.00     0.078 C 
ATOM     13  C   UNL A   1      32.712  24.581  22.922  1.00  0.00     0.076 A 
ATOM     14  H   UNL A   1      32.507  23.502  21.202  1.00  0.00     0.170 HD
ATOM     15  C   UNL A   1      32.696  25.842  23.475  1.00  0.00     0.055 A 
ATOM     16  N   UNL A   1      32.804  25.695  24.839  1.00  0.00    -0.317 N 
ATOM     17  C   UNL A   1      32.917  24.340  25.109  1.00  0.00     0.107 A 
BRANCH  12  18
ATOM     18  C   UNL A   1      31.274  27.760  22.661  1.00  0.00    -0.035 A 
ATOM     19  C   UNL A   1      30.132  27.106  23.150  1.00  0.00     0.005 A 
ATOM     20  C   UNL A   1      31.147  29.087  22.216  1.00  0.00     0.050 A 
ATOM     21  C   UNL A   1      28.911  27.776  23.239  1.00  0.00     0.004 A 
ATOM     22  C   UNL A   1      29.935  29.754  22.343  1.00  0.00     0.115 A 
ATOM     23  C   UNL A   1      28.813  29.111  22.850  1.00  0.00     0.046 A 
BRANCH  22  24
ATOM     24  O   UNL A   1      29.905  31.074  22.001  1.00  0.00    -0.508 OA
ATOM     25  H   UNL A   1      29.849  31.323  21.100  1.00  0.00     0.293 HD
ENDBRANCH  22  24
ENDBRANCH  12  18
BRANCH  16  26
ATOM     26  C   UNL A   1      32.706  26.649  25.879  1.00  0.00     0.046 A 
ATOM     27  C   UNL A   1      31.458  26.893  26.464  1.00  0.00     0.026 A 
ATOM     28  C   UNL A   1      33.788  27.486  26.160  1.00  0.00     0.039 A 
ATOM     29  C   UNL A   1      31.309  27.945  27.369  1.00  0.00     0.003 A 
ATOM     30  C   UNL A   1      33.645  28.553  27.060  1.00  0.00     0.058 A 
ATOM     31  C   UNL A   1      32.397  28.766  27.668  1.00  0.00     0.013 A 
BRANCH  30  32
ATOM     32  C   UNL A   1      34.794  29.489  27.350  1.00  0.00     0.416 C 
ATOM     33  F   UNL A   1      34.426  30.798  27.252  1.00  0.00    -0.166 F 
ATOM     34  F   UNL A   1      35.290  29.338  28.608  1.00  0.00    -0.166 F 
ATOM     35  F   UNL A   1      35.853  29.346  26.506  1.00  0.00    -0.166 F 
ENDBRANCH  30  32
ENDBRANCH  16  26
ENDBRANCH   4   7
ENDBRANCH   2   3
ENDBRANCH   1   2
BRANCH   1  36
ATOM     36  C   UNL A   1      36.867  21.906  24.315  1.00  0.00     0.023 C 
BRANCH  36  37
ATOM     37  C   UNL A   1      37.790  22.680  25.253  1.00  0.00     0.116 C 
BRANCH  37  38
ATOM     38  N   UNL A   1      38.546  21.824  26.171  1.00  0.00    -0.352 N 
ATOM     39  C   UNL A   1      39.683  22.151  26.886  1.00  0.00     0.251 C 
ATOM     40  H   UNL A   1      38.204  20.909  26.292  1.00  0.00     0.163 HD
ATOM     41  O   UNL A   1      40.457  21.283  27.292  1.00  0.00    -0.269 OA
BRANCH  39  42
ATOM     42  C   UNL A   1      39.936  23.566  27.190  1.00  0.00     0.039 A 
ATOM     43  C   UNL A   1      38.988  24.567  26.967  1.00  0.00     0.014 A 
ATOM     44  C   UNL A   1      41.169  23.864  27.761  1.00  0.00     0.014 A 
ATOM     45  C   UNL A   1      39.271  25.861  27.402  1.00  0.00     0.010 A 
ATOM     46  C   UNL A   1      41.367  25.080  28.349  1.00  0.00     0.010 A 
ATOM     47  C   UNL A   1      40.460  26.102  28.109  1.00  0.00    -0.014 A 
BRANCH  47  48
ATOM     48  C   UNL A   1      40.741  27.396  28.712  1.00  0.00     0.031 A 
ATOM     49  C   UNL A   1      41.878  28.130  28.095  1.00  0.00     0.074 A 
ATOM     50  C   UNL A   1      39.896  27.991  29.583  1.00  0.00     0.049 A 
ATOM     51  N   UNL A   1      43.008  28.421  28.644  1.00  0.00    -0.248 NA
ATOM     52  C   UNL A   1      41.804  28.465  26.662  1.00  0.00     0.031 C 
ATOM     53  C   UNL A   1      38.570  27.540  30.027  1.00  0.00     0.029 A 
ATOM     54  N   UNL A   1      39.995  29.215  30.162  1.00  0.00    -0.354 N 
ATOM     55  C   UNL A   1      43.719  29.150  27.697  1.00  0.00     0.074 A 
ATOM     56  C   UNL A   1      43.012  28.991  26.451  1.00  0.00     0.031 C 
ATOM     57  C   UNL A   1      37.901  28.577  30.580  1.00  0.00     0.029 A 
ATOM     58  C   UNL A   1      38.807  29.706  30.689  1.00  0.00     0.049 A 
ATOM     59  H   UNL A   1      40.842  29.715  30.204  1.00  0.00     0.167 HD
ATOM     60  C   UNL A   1      44.694  30.027  28.063  1.00  0.00     0.031 A 
ATOM     61  C   UNL A   1      38.581  30.963  31.147  1.00  0.00     0.031 A 
ATOM     62  C   UNL A   1      45.096  29.833  29.433  1.00  0.00     0.049 A 
ATOM     63  C   UNL A   1      39.905  31.567  31.429  1.00  0.00     0.074 A 
ATOM     64  C   UNL A   1      45.608  28.765  30.143  1.00  0.00     0.029 A 
ATOM     65  N   UNL A   1      44.572  30.690  30.374  1.00  0.00    -0.354 N 
ATOM     66  N   UNL A   1      40.696  31.139  32.373  1.00  0.00    -0.248 NA
ATOM     67  C   UNL A   1      40.555  32.305  30.356  1.00  0.00     0.031 C 
ATOM     68  C   UNL A   1      44.905  28.786  31.385  1.00  0.00     0.029 A 
ATOM     69  C   UNL A   1      44.087  29.918  31.401  1.00  0.00     0.049 A 
ATOM     70  H   UNL A   1      44.549  31.673  30.321  1.00  0.00     0.167 HD
ATOM     71  C   UNL A   1      41.960  31.146  31.801  1.00  0.00     0.074 A 
ATOM     72  C   UNL A   1      41.824  31.957  30.589  1.00  0.00     0.031 C 
ATOM     73  C   UNL A   1      42.922  30.257  32.190  1.00  0.00     0.031 A 
BRANCH  60  74
ATOM     74  C   UNL A   1      44.986  31.301  27.316  1.00  0.00    -0.014 A 
ATOM     75  C   UNL A   1      46.306  31.570  26.916  1.00  0.00     0.009 A 
ATOM     76  C   UNL A   1      44.067  32.366  27.228  1.00  0.00     0.009 A 
ATOM     77  C   UNL A   1      46.694  32.851  26.505  1.00  0.00     0.001 A 
ATOM     78  C   UNL A   1      44.441  33.634  26.780  1.00  0.00     0.001 A 
ATOM     79  C   UNL A   1      45.763  33.884  26.441  1.00  0.00     0.000 A 
ENDBRANCH  60  74
BRANCH  61  80
ATOM     80  C   UNL A   1      37.338  31.764  31.077  1.00  0.00    -0.014 A 
ATOM     81  C   UNL A   1      36.734  32.058  29.843  1.00  0.00     0.009 A 
ATOM     82  C   UNL A   1      36.589  32.011  32.243  1.00  0.00     0.009 A 
ATOM     83  C   UNL A   1      35.418  32.542  29.780  1.00  0.00     0.001 A 
ATOM     84  C   UNL A   1      35.277  32.495  32.180  1.00  0.00     0.001 A 
ATOM     85  C   UNL A   1      34.685  32.746  30.947  1.00  0.00     0.000 A 
ENDBRANCH  61  80
BRANCH  73  86
ATOM     86  C   UNL A   1      42.647  29.380  33.392  1.00  0.00    -0.014 A 
ATOM     87  C   UNL A   1      42.041  28.113  33.306  1.00  0.00     0.009 A 
ATOM     88  C   UNL A   1      43.169  29.777  34.631  1.00  0.00     0.009 A 
ATOM     89  C   UNL A   1      41.939  27.286  34.432  1.00  0.00     0.001 A 
ATOM     90  C   UNL A   1      43.088  28.943  35.749  1.00  0.00     0.001 A 
ATOM     91  C   UNL A   1      42.468  27.700  35.652  1.00  0.00     0.000 A 
ENDBRANCH  73  86
ENDBRANCH  47  48
ENDBRANCH  39  42
ENDBRANCH  37  38
ENDBRANCH  36  37
ENDBRANCH   1  36
TORSDOF 15
ENDMDL
MODEL 2
REMARK VINA RESULT:     -13.4      2.664      7.789
REMARK SMILES O=C1C[C@@H](c2cccc(O)c2)c2c(c(C(=O)NCCCCNC(=O)c3ccc(-c4c5nc(c(-c6ccccc6)c6ccc([nH]6)c(-c6ccccc6)c6nc(c(-c7ccccc7)c7ccc4[nH]7)C=C6)C=C5)cc3)cn2-c2cccc(C(F)(F)F)c2)N1
REMARK SMILES IDX 19 1 18 2 17 3 15 4 16 5 14 7 1 8 2 9 3 10 85 11 4 12 13 13
REMARK SMILES IDX 12 15 74 16 73 17 5 18 6 19 11 20 7 21 9 22 8 23 10 24 75 26
REMARK SMILES IDX 76 27 84 28 77 29 79 30 78 31 80 32 81 33 82 34 83 35 20 36
REMARK SMILES IDX 21 37 22 38 23 39 24 41 25 42 26 43 72 44 27 45 71 46 28 47
REMARK SMILES IDX 29 48 30 49 65 50 31 51 70 52 64 53 66 54 32 55 69 56 63 57
REMARK SMILES IDX 62 58 33 60 55 61 40 62 54 63 41 64 44 65 53 66 67 67 42 68
REMARK SMILES IDX 43 69 52 71 68 72 45 73 34 74 35 75 39 76 36 77 38 78 37 79
REMARK SMILES IDX 56 80 57 81 61 82 58 83 60 84 59 85 46 86 47 87 51 88 48 89
REMARK SMILES IDX 50 90 49 91
REMARK H PARENT 17 6 85 14 10 25 22 40 66 59 44 70
REMARK Flexibility Score: inf
ROOT
ATOM      1  C   UNL A   1      31.801  29.909  25.523  1.00  0.00     0.023 C 
ENDROOT
BRANCH   1   2
ATOM      2  C   UNL A   1      31.995  28.918  24.374  1.00  0.00     0.116 C 
BRANCH   2   3
ATOM      3  N   UNL A   1      30.832  28.087  24.143  1.00  0.00    -0.352 N 
ATOM      4  C   UNL A   1      30.594  26.739  24.225  1.00  0.00     0.254 C 
ATOM      5  O   UNL A   1      29.451  26.375  23.936  1.00  0.00    -0.269 OA
ATOM      6  H   UNL A   1      30.039  28.603  23.866  1.00  0.00     0.163 HD
BRANCH   4   7
ATOM      7  C   UNL A   1      31.603  25.756  24.612  1.00  0.00     0.081 A 
ATOM      8  O   UNL A   1      29.106  22.790  27.439  1.00  0.00    -0.275 OA
ATOM      9  C   UNL A   1      30.175  23.192  26.980  1.00  0.00     0.225 C 
ATOM     10  C   UNL A   1      31.513  22.654  27.474  1.00  0.00     0.115 C 
ATOM     11  N   UNL A   1      30.215  24.239  26.091  1.00  0.00    -0.324 N 
ATOM     12  C   UNL A   1      32.627  22.638  26.409  1.00  0.00     0.078 C 
ATOM     13  C   UNL A   1      31.372  24.631  25.458  1.00  0.00     0.076 A 
ATOM     14  H   UNL A   1      29.382  24.727  25.898  1.00  0.00     0.170 HD
ATOM     15  C   UNL A   1      32.519  23.876  25.565  1.00  0.00     0.055 A 
ATOM     16  N   UNL A   1      33.498  24.509  24.834  1.00  0.00    -0.317 N 
ATOM     17  C   UNL A   1      32.948  25.668  24.308  1.00  0.00     0.107 A 
BRANCH  12  18
ATOM     18  C   UNL A   1      32.593  21.354  25.596  1.00  0.00    -0.035 A 
ATOM     19  C   UNL A   1      32.411  21.355  24.204  1.00  0.00     0.005 A 
ATOM     20  C   UNL A   1      32.817  20.127  26.242  1.00  0.00     0.050 A 
ATOM     21  C   UNL A   1      32.502  20.169  23.474  1.00  0.00     0.004 A 
ATOM     22  C   UNL A   1      32.941  18.958  25.500  1.00  0.00     0.115 A 
ATOM     23  C   UNL A   1      32.785  18.967  24.120  1.00  0.00     0.046 A 
BRANCH  22  24
ATOM     24  O   UNL A   1      33.273  17.819  26.171  1.00  0.00    -0.508 OA
ATOM     25  H   UNL A   1      34.153  17.689  26.466  1.00  0.00     0.293 HD
ENDBRANCH  22  24
ENDBRANCH  12  18
BRANCH  16  26
ATOM     26  C   UNL A   1      34.811  24.097  24.503  1.00  0.00     0.046 A 
ATOM     27  C   UNL A   1      35.021  23.373  23.323  1.00  0.00     0.026 A 
ATOM     28  C   UNL A   1      35.836  24.220  25.442  1.00  0.00     0.039 A 
ATOM     29  C   UNL A   1      36.273  22.816  23.064  1.00  0.00     0.003 A 
ATOM     30  C   UNL A   1      37.096  23.653  25.195  1.00  0.00     0.058 A 
ATOM     31  C   UNL A   1      37.305  22.959  23.992  1.00  0.00     0.013 A 
BRANCH  30  32
ATOM     32  C   UNL A   1      38.207  23.744  26.215  1.00  0.00     0.416 C 
ATOM     33  F   UNL A   1      39.207  24.578  25.811  1.00  0.00    -0.166 F 
ATOM     34  F   UNL A   1      37.781  24.232  27.412  1.00  0.00    -0.166 F 
ATOM     35  F   UNL A   1      38.813  22.555  26.485  1.00  0.00    -0.166 F 
ENDBRANCH  30  32
ENDBRANCH  16  26
ENDBRANCH   4   7
ENDBRANCH   2   3
ENDBRANCH   1   2
BRANCH   1  36
ATOM     36  C   UNL A   1      32.106  29.350  26.923  1.00  0.00     0.023 C 
BRANCH  36  37
ATOM     37  C   UNL A   1      33.479  29.712  27.482  1.00  0.00     0.116 C 
BRANCH  37  38
ATOM     38  N   UNL A   1      33.912  31.070  27.143  1.00  0.00    -0.352 N 
ATOM     39  C   UNL A   1      35.018  31.747  27.622  1.00  0.00     0.251 C 
ATOM     40  H   UNL A   1      33.349  31.557  26.499  1.00  0.00     0.163 HD
ATOM     41  O   UNL A   1      35.074  32.977  27.605  1.00  0.00    -0.269 OA
BRANCH  39  42
ATOM     42  C   UNL A   1      36.155  30.964  28.123  1.00  0.00     0.039 A 
ATOM     43  C   UNL A   1      36.313  29.603  27.853  1.00  0.00     0.014 A 
ATOM     44  C   UNL A   1      37.110  31.662  28.856  1.00  0.00     0.014 A 
ATOM     45  C   UNL A   1      37.486  28.973  28.264  1.00  0.00     0.010 A 
ATOM     46  C   UNL A   1      38.329  31.096  29.093  1.00  0.00     0.010 A 
ATOM     47  C   UNL A   1      38.498  29.736  28.871  1.00  0.00    -0.014 A 
BRANCH  47  48
ATOM     48  C   UNL A   1      39.798  29.166  29.189  1.00  0.00     0.031 A 
ATOM     49  C   UNL A   1      40.060  29.004  30.644  1.00  0.00     0.074 A 
ATOM     50  C   UNL A   1      40.592  28.601  28.253  1.00  0.00     0.049 A 
ATOM     51  N   UNL A   1      40.946  29.620  31.350  1.00  0.00    -0.248 NA
ATOM     52  C   UNL A   1      39.149  28.157  31.433  1.00  0.00     0.031 C 
ATOM     53  C   UNL A   1      40.317  28.382  26.827  1.00  0.00     0.029 A 
ATOM     54  N   UNL A   1      41.785  27.974  28.417  1.00  0.00    -0.354 N 
ATOM     55  C   UNL A   1      40.843  29.101  32.635  1.00  0.00     0.074 A 
ATOM     56  C   UNL A   1      39.615  28.347  32.669  1.00  0.00     0.031 C 
ATOM     57  C   UNL A   1      41.178  27.463  26.335  1.00  0.00     0.029 A 
ATOM     58  C   UNL A   1      42.167  27.165  27.354  1.00  0.00     0.049 A 
ATOM     59  H   UNL A   1      42.335  28.083  29.226  1.00  0.00     0.167 HD
ATOM     60  C   UNL A   1      41.897  29.127  33.497  1.00  0.00     0.031 A 
ATOM     61  C   UNL A   1      43.202  26.288  27.333  1.00  0.00     0.031 A 
ATOM     62  C   UNL A   1      42.931  30.024  33.046  1.00  0.00     0.049 A 
ATOM     63  C   UNL A   1      44.122  26.675  28.430  1.00  0.00     0.074 A 
ATOM     64  C   UNL A   1      42.972  31.372  32.748  1.00  0.00     0.029 A 
ATOM     65  N   UNL A   1      44.019  29.468  32.411  1.00  0.00    -0.354 N 
ATOM     66  N   UNL A   1      44.793  27.792  28.435  1.00  0.00    -0.248 NA
ATOM     67  C   UNL A   1      43.912  26.066  29.735  1.00  0.00     0.031 C 
ATOM     68  C   UNL A   1      43.746  31.454  31.552  1.00  0.00     0.029 A 
ATOM     69  C   UNL A   1      44.216  30.174  31.250  1.00  0.00     0.049 A 
ATOM     70  H   UNL A   1      44.555  28.706  32.730  1.00  0.00     0.167 HD
ATOM     71  C   UNL A   1      44.692  28.256  29.739  1.00  0.00     0.074 A 
ATOM     72  C   UNL A   1      44.215  27.109  30.514  1.00  0.00     0.031 C 
ATOM     73  C   UNL A   1      44.713  29.593  30.022  1.00  0.00     0.031 A 
BRANCH  60  74
ATOM     74  C   UNL A   1      42.160  28.052  34.518  1.00  0.00    -0.014 A 
ATOM     75  C   UNL A   1      42.701  26.826  34.095  1.00  0.00     0.009 A 
ATOM     76  C   UNL A   1      41.647  28.099  35.830  1.00  0.00     0.009 A 
ATOM     77  C   UNL A   1      42.677  25.697  34.922  1.00  0.00     0.001 A 
ATOM     78  C   UNL A   1      41.659  26.986  36.672  1.00  0.00     0.001 A 
ATOM     79  C   UNL A   1      42.152  25.776  36.209  1.00  0.00     0.000 A 
ENDBRANCH  60  74
BRANCH  61  80
ATOM     80  C   UNL A   1      43.299  24.987  26.634  1.00  0.00    -0.014 A 
ATOM     81  C   UNL A   1      42.403  23.943  26.919  1.00  0.00     0.009 A 
ATOM     82  C   UNL A   1      44.101  24.859  25.484  1.00  0.00     0.009 A 
ATOM     83  C   UNL A   1      42.289  22.835  26.064  1.00  0.00     0.001 A 
ATOM     84  C   UNL A   1      43.988  23.753  24.633  1.00  0.00     0.001 A 
ATOM     85  C   UNL A   1      43.070  22.748  24.915  1.00  0.00     0.000 A 
ENDBRANCH  61  80
BRANCH  73  86
ATOM     86  C   UNL A   1      45.037  30.559  28.903  1.00  0.00    -0.014 A 
ATOM     87  C   UNL A   1      46.327  31.068  28.666  1.00  0.00     0.009 A 
ATOM     88  C   UNL A   1      44.038  30.833  27.958  1.00  0.00     0.009 A 
ATOM     89  C   UNL A   1      46.598  31.847  27.534  1.00  0.00     0.001 A 
ATOM     90  C   UNL A   1      44.312  31.590  26.817  1.00  0.00     0.001 A 
ATOM     91  C   UNL A   1      45.590  32.102  26.607  1.00  0.00     0.000 A 
ENDBRANCH  73  86
ENDBRANCH  47  48
ENDBRANCH  39  42
ENDBRANCH  37  38
ENDBRANCH  36  37
ENDBRANCH   1  36
TORSDOF 15
ENDMDL
MODEL 3
REMARK VINA RESULT:     -13.1      4.736      8.841
REMARK SMILES O=C1C[C@@H](c2cccc(O)c2)c2c(c(C(=O)NCCCCNC(=O)c3ccc(-c4c5nc(c(-c6ccccc6)c6ccc([nH]6)c(-c6ccccc6)c6nc(c(-c7ccccc7)c7ccc4[nH]7)C=C6)C=C5)cc3)cn2-c2cccc(C(F)(F)F)c2)N1
REMARK SMILES IDX 19 1 18 2 17 3 15 4 16 5 14 7 1 8 2 9 3 10 85 11 4 12 13 13
REMARK SMILES IDX 12 15 74 16 73 17 5 18 6 19 11 20 7 21 9 22 8 23 10 24 75 26
REMARK SMILES IDX 76 27 84 28 77 29 79 30 78 31 80 32 81 33 82 34 83 35 20 36
REMARK SMILES IDX 21 37 22 38 23 39 24 41 25 42 26 43 72 44 27 45 71 46 28 47
REMARK SMILES IDX 29 48 30 49 65 50 31 51 70 52 64 53 66 54 32 55 69 56 63 57
REMARK SMILES IDX 62 58 33 60 55 61 40 62 54 63 41 64 44 65 53 66 67 67 42 68
REMARK SMILES IDX 43 69 52 71 68 72 45 73 34 74 35 75 39 76 36 77 38 78 37 79
REMARK SMILES IDX 56 80 57 81 61 82 58 83 60 84 59 85 46 86 47 87 51 88 48 89
REMARK SMILES IDX 50 90 49 91
REMARK H PARENT 17 6 85 14 10 25 22 40 66 59 44 70
REMARK Flexibility Score: inf
ROOT
ATOM      1  C   UNL A   1      47.973  27.939  28.285  1.00  0.00     0.023 C 
ENDROOT
BRANCH   1   2
ATOM      2  C   UNL A   1      47.889  28.507  26.867  1.00  0.00     0.116 C 
BRANCH   2   3
ATOM      3  N   UNL A   1      48.386  27.589  25.863  1.00  0.00    -0.352 N 
ATOM      4  C   UNL A   1      47.799  26.632  25.075  1.00  0.00     0.254 C 
ATOM      5  O   UNL A   1      48.556  26.017  24.319  1.00  0.00    -0.269 OA
ATOM      6  H   UNL A   1      49.356  27.670  25.713  1.00  0.00     0.163 HD
BRANCH   4   7
ATOM      7  C   UNL A   1      46.372  26.315  25.104  1.00  0.00     0.081 A 
ATOM      8  O   UNL A   1      46.364  21.581  24.326  1.00  0.00    -0.275 OA
ATOM      9  C   UNL A   1      45.772  22.656  24.421  1.00  0.00     0.225 C 
ATOM     10  C   UNL A   1      44.286  22.784  24.109  1.00  0.00     0.115 C 
ATOM     11  N   UNL A   1      46.454  23.818  24.689  1.00  0.00    -0.324 N 
ATOM     12  C   UNL A   1      43.552  23.863  24.928  1.00  0.00     0.078 C 
ATOM     13  C   UNL A   1      45.817  25.014  24.931  1.00  0.00     0.076 A 
ATOM     14  H   UNL A   1      47.439  23.794  24.710  1.00  0.00     0.170 HD
ATOM     15  C   UNL A   1      44.448  25.059  25.081  1.00  0.00     0.055 A 
ATOM     16  N   UNL A   1      44.103  26.371  25.311  1.00  0.00    -0.317 N 
ATOM     17  C   UNL A   1      45.266  27.126  25.271  1.00  0.00     0.107 A 
BRANCH  12  18
ATOM     18  C   UNL A   1      43.062  23.309  26.256  1.00  0.00    -0.035 A 
ATOM     19  C   UNL A   1      43.806  23.436  27.440  1.00  0.00     0.005 A 
ATOM     20  C   UNL A   1      41.793  22.709  26.323  1.00  0.00     0.050 A 
ATOM     21  C   UNL A   1      43.275  23.020  28.662  1.00  0.00     0.004 A 
ATOM     22  C   UNL A   1      41.261  22.332  27.551  1.00  0.00     0.115 A 
ATOM     23  C   UNL A   1      41.991  22.482  28.723  1.00  0.00     0.046 A 
BRANCH  22  24
ATOM     24  O   UNL A   1      39.981  21.863  27.564  1.00  0.00    -0.508 OA
ATOM     25  H   UNL A   1      39.335  22.252  27.009  1.00  0.00     0.293 HD
ENDBRANCH  22  24
ENDBRANCH  12  18
BRANCH  16  26
ATOM     26  C   UNL A   1      42.860  26.949  25.660  1.00  0.00     0.046 A 
ATOM     27  C   UNL A   1      42.692  28.333  25.537  1.00  0.00     0.026 A 
ATOM     28  C   UNL A   1      41.898  26.182  26.321  1.00  0.00     0.039 A 
ATOM     29  C   UNL A   1      41.538  28.940  26.033  1.00  0.00     0.003 A 
ATOM     30  C   UNL A   1      40.738  26.785  26.833  1.00  0.00     0.058 A 
ATOM     31  C   UNL A   1      40.566  28.170  26.672  1.00  0.00     0.013 A 
BRANCH  30  32
ATOM     32  C   UNL A   1      39.704  25.979  27.582  1.00  0.00     0.416 C 
ATOM     33  F   UNL A   1      39.215  24.950  26.833  1.00  0.00    -0.166 F 
ATOM     34  F   UNL A   1      40.202  25.409  28.712  1.00  0.00    -0.166 F 
ATOM     35  F   UNL A   1      38.613  26.696  27.968  1.00  0.00    -0.166 F 
ENDBRANCH  30  32
ENDBRANCH  16  26
ENDBRANCH   4   7
ENDBRANCH   2   3
ENDBRANCH   1   2
BRANCH   1  36
ATOM     36  C   UNL A   1      46.671  27.312  28.813  1.00  0.00     0.023 C 
BRANCH  36  37
ATOM     37  C   UNL A   1      46.719  26.836  30.262  1.00  0.00     0.116 C 
BRANCH  37  38
ATOM     38  N   UNL A   1      46.081  25.533  30.473  1.00  0.00    -0.352 N 
ATOM     39  C   UNL A   1      44.866  25.278  31.080  1.00  0.00     0.251 C 
ATOM     40  H   UNL A   1      46.576  24.749  30.143  1.00  0.00     0.163 HD
ATOM     41  O   UNL A   1      44.612  24.175  31.566  1.00  0.00    -0.269 OA
BRANCH  39  42
ATOM     42  C   UNL A   1      43.857  26.345  31.104  1.00  0.00     0.039 A 
ATOM     43  C   UNL A   1      43.591  27.108  32.244  1.00  0.00     0.014 A 
ATOM     44  C   UNL A   1      43.197  26.597  29.906  1.00  0.00     0.014 A 
ATOM     45  C   UNL A   1      42.707  28.180  32.136  1.00  0.00     0.010 A 
ATOM     46  C   UNL A   1      42.481  27.750  29.756  1.00  0.00     0.010 A 
ATOM     47  C   UNL A   1      42.169  28.502  30.879  1.00  0.00    -0.014 A 
BRANCH  47  48
ATOM     48  C   UNL A   1      41.358  29.693  30.679  1.00  0.00     0.031 A 
ATOM     49  C   UNL A   1      42.125  30.898  30.264  1.00  0.00     0.074 A 
ATOM     50  C   UNL A   1      40.008  29.653  30.627  1.00  0.00     0.049 A 
ATOM     51  N   UNL A   1      42.292  31.985  30.935  1.00  0.00    -0.248 NA
ATOM     52  C   UNL A   1      42.904  30.839  29.015  1.00  0.00     0.031 C 
ATOM     53  C   UNL A   1      39.122  28.482  30.681  1.00  0.00     0.029 A 
ATOM     54  N   UNL A   1      39.137  30.664  30.377  1.00  0.00    -0.354 N 
ATOM     55  C   UNL A   1      43.033  32.832  30.119  1.00  0.00     0.074 A 
ATOM     56  C   UNL A   1      43.530  32.018  29.038  1.00  0.00     0.031 C 
ATOM     57  C   UNL A   1      37.897  28.819  30.217  1.00  0.00     0.029 A 
ATOM     58  C   UNL A   1      37.863  30.254  30.004  1.00  0.00     0.049 A 
ATOM     59  H   UNL A   1      39.389  31.612  30.455  1.00  0.00     0.167 HD
ATOM     60  C   UNL A   1      42.975  34.185  30.262  1.00  0.00     0.031 A 
ATOM     61  C   UNL A   1      36.868  31.039  29.520  1.00  0.00     0.031 A 
ATOM     62  C   UNL A   1      42.370  34.562  31.514  1.00  0.00     0.049 A 
ATOM     63  C   UNL A   1      37.193  32.436  29.898  1.00  0.00     0.074 A 
ATOM     64  C   UNL A   1      42.660  34.302  32.840  1.00  0.00     0.029 A 
ATOM     65  N   UNL A   1      41.046  34.940  31.489  1.00  0.00    -0.354 N 
ATOM     66  N   UNL A   1      37.208  32.853  31.132  1.00  0.00    -0.248 NA
ATOM     67  C   UNL A   1      37.979  33.224  28.961  1.00  0.00     0.031 C 
ATOM     68  C   UNL A   1      41.394  34.028  33.439  1.00  0.00     0.029 A 
ATOM     69  C   UNL A   1      40.404  34.236  32.477  1.00  0.00     0.049 A 
ATOM     70  H   UNL A   1      40.637  35.594  30.876  1.00  0.00     0.167 HD
ATOM     71  C   UNL A   1      38.338  33.653  31.218  1.00  0.00     0.074 A 
ATOM     72  C   UNL A   1      38.723  33.916  29.829  1.00  0.00     0.031 C 
ATOM     73  C   UNL A   1      39.033  33.781  32.388  1.00  0.00     0.031 A 
BRANCH  60  74
ATOM     74  C   UNL A   1      43.095  35.147  29.109  1.00  0.00    -0.014 A 
ATOM     75  C   UNL A   1      41.940  35.497  28.391  1.00  0.00     0.009 A 
ATOM     76  C   UNL A   1      44.331  35.507  28.537  1.00  0.00     0.009 A 
ATOM     77  C   UNL A   1      42.023  36.124  27.141  1.00  0.00     0.001 A 
ATOM     78  C   UNL A   1      44.417  36.168  27.311  1.00  0.00     0.001 A 
ATOM     79  C   UNL A   1      43.262  36.455  26.600  1.00  0.00     0.000 A 
ENDBRANCH  60  74
BRANCH  61  80
ATOM     80  C   UNL A   1      35.830  30.705  28.518  1.00  0.00    -0.014 A 
ATOM     81  C   UNL A   1      35.741  29.416  27.969  1.00  0.00     0.009 A 
ATOM     82  C   UNL A   1      34.748  31.580  28.302  1.00  0.00     0.009 A 
ATOM     83  C   UNL A   1      34.596  29.007  27.266  1.00  0.00     0.001 A 
ATOM     84  C   UNL A   1      33.607  31.173  27.600  1.00  0.00     0.001 A 
ATOM     85  C   UNL A   1      33.525  29.880  27.094  1.00  0.00     0.000 A 
ENDBRANCH  61  80
BRANCH  73  86
ATOM     86  C   UNL A   1      38.441  33.181  33.645  1.00  0.00    -0.014 A 
ATOM     87  C   UNL A   1      38.643  31.845  34.036  1.00  0.00     0.009 A 
ATOM     88  C   UNL A   1      37.798  34.041  34.546  1.00  0.00     0.009 A 
ATOM     89  C   UNL A   1      38.189  31.382  35.279  1.00  0.00     0.001 A 
ATOM     90  C   UNL A   1      37.365  33.586  35.794  1.00  0.00     0.001 A 
ATOM     91  C   UNL A   1      37.556  32.256  36.158  1.00  0.00     0.000 A 
ENDBRANCH  73  86
ENDBRANCH  47  48
ENDBRANCH  39  42
ENDBRANCH  37  38
ENDBRANCH  36  37
ENDBRANCH   1  36
TORSDOF 15
ENDMDL
