MODEL 1
REMARK VINA RESULT:     -11.3      0.000      0.000
REMARK SMILES O=C(NCCCCNC(=O)[C@H](CO)NC(=O)[C@H](Cc1c[nH]c2ccccc12)NC(=O)[C@H](Cc1ccc(O)cc1)NC(=O)c1ccc(F)cc1)c1ccc(-c2c3nc(c(-c4ccccc4)c4ccc([nH]4)c(-c4ccccc4)c4nc(c(-c5ccccc5)c5ccc2[nH]5)C=C4)C=C3)cc1
REMARK SMILES IDX 8 1 9 2 10 3 7 5 6 6 5 7 4 8 3 9 1 10 2 11 50 13 51 14 97 15
REMARK SMILES IDX 52 16 96 17 53 18 54 19 55 20 90 21 56 22 95 23 89 24 91 25
REMARK SMILES IDX 57 26 94 27 88 28 87 29 58 31 80 32 65 33 79 34 66 35 69 36
REMARK SMILES IDX 78 37 92 38 67 39 68 40 77 42 93 43 70 44 59 45 60 46 64 47
REMARK SMILES IDX 61 48 63 49 62 50 81 51 82 52 86 53 83 54 85 55 84 56 71 57
REMARK SMILES IDX 72 58 76 59 73 60 75 61 74 62 11 63 14 64 15 65 16 67 17 68
REMARK SMILES IDX 28 69 29 70 30 72 31 73 40 74 41 75 42 77 43 78 44 79 49 80
REMARK SMILES IDX 45 81 48 82 46 83 47 84 32 85 33 86 34 87 39 88 35 89 38 90
REMARK SMILES IDX 36 91 37 92 18 94 19 95 20 96 27 97 21 98 22 99 26 100
REMARK SMILES IDX 23 102 25 103 24 104 12 105 13 106
REMARK H PARENT 8 4 3 12 91 30 69 41 14 66 28 71 40 76 37 93 21 101 13 107
REMARK Flexibility Score: inf
ROOT
ATOM      1  N   UNL A   1      38.676  22.402  25.999  1.00  0.00    -0.354 N 
ATOM      2  C   UNL A   1      37.675  22.374  25.084  1.00  0.00     0.244 C 
ATOM      3  O   UNL A   1      37.463  21.272  24.557  1.00  0.00    -0.273 OA
ATOM      4  H   UNL A   1      39.031  21.509  26.215  1.00  0.00     0.163 HD
ENDROOT
BRANCH   1   5
ATOM      5  C   UNL A   1      39.331  23.471  26.724  1.00  0.00     0.116 C 
BRANCH   5   6
ATOM      6  C   UNL A   1      40.447  22.948  27.624  1.00  0.00     0.023 C 
BRANCH   6   7
ATOM      7  C   UNL A   1      41.030  21.595  27.219  1.00  0.00     0.023 C 
BRANCH   7   8
ATOM      8  C   UNL A   1      41.448  21.487  25.760  1.00  0.00     0.116 C 
BRANCH   8   9
ATOM      9  N   UNL A   1      42.762  20.892  25.574  1.00  0.00    -0.352 N 
ATOM     10  O   UNL A   1      45.021  20.880  25.471  1.00  0.00    -0.269 OA
ATOM     11  C   UNL A   1      43.991  21.484  25.744  1.00  0.00     0.251 C 
ATOM     12  H   UNL A   1      42.772  19.950  25.291  1.00  0.00     0.163 HD
BRANCH  11  13
ATOM     13  C   UNL A   1      44.046  22.878  26.224  1.00  0.00     0.039 A 
ATOM     14  C   UNL A   1      44.234  23.146  27.581  1.00  0.00     0.014 A 
ATOM     15  C   UNL A   1      43.860  23.918  25.310  1.00  0.00     0.014 A 
ATOM     16  C   UNL A   1      44.104  24.447  28.044  1.00  0.00     0.010 A 
ATOM     17  C   UNL A   1      43.805  25.236  25.768  1.00  0.00     0.010 A 
ATOM     18  C   UNL A   1      43.896  25.505  27.142  1.00  0.00    -0.014 A 
BRANCH  18  19
ATOM     19  C   UNL A   1      43.846  26.888  27.667  1.00  0.00     0.031 A 
ATOM     20  C   UNL A   1      42.544  27.533  28.043  1.00  0.00     0.074 A 
ATOM     21  C   UNL A   1      45.011  27.535  27.860  1.00  0.00     0.049 A 
ATOM     22  N   UNL A   1      42.340  28.710  28.580  1.00  0.00    -0.248 NA
ATOM     23  C   UNL A   1      41.313  26.770  27.781  1.00  0.00     0.031 C 
ATOM     24  C   UNL A   1      46.335  27.003  27.526  1.00  0.00     0.029 A 
ATOM     25  N   UNL A   1      45.272  28.757  28.418  1.00  0.00    -0.354 N 
ATOM     26  C   UNL A   1      40.963  28.837  28.703  1.00  0.00     0.074 A 
ATOM     27  C   UNL A   1      40.377  27.624  28.175  1.00  0.00     0.031 C 
ATOM     28  C   UNL A   1      47.272  27.865  27.947  1.00  0.00     0.029 A 
ATOM     29  C   UNL A   1      46.614  29.029  28.528  1.00  0.00     0.049 A 
ATOM     30  H   UNL A   1      44.569  29.380  28.711  1.00  0.00     0.167 HD
ATOM     31  C   UNL A   1      40.254  29.875  29.210  1.00  0.00     0.031 A 
ATOM     32  C   UNL A   1      47.249  30.097  29.040  1.00  0.00     0.031 A 
ATOM     33  C   UNL A   1      40.839  31.078  29.740  1.00  0.00     0.049 A 
ATOM     34  C   UNL A   1      46.437  31.225  29.600  1.00  0.00     0.074 A 
ATOM     35  C   UNL A   1      40.202  32.181  30.281  1.00  0.00     0.029 A 
ATOM     36  N   UNL A   1      42.200  31.333  29.797  1.00  0.00    -0.354 N 
ATOM     37  N   UNL A   1      45.135  31.326  29.711  1.00  0.00    -0.248 NA
ATOM     38  C   UNL A   1      47.183  32.388  30.099  1.00  0.00     0.031 C 
ATOM     39  C   UNL A   1      41.180  33.118  30.641  1.00  0.00     0.029 A 
ATOM     40  C   UNL A   1      42.424  32.581  30.354  1.00  0.00     0.049 A 
ATOM     41  H   UNL A   1      42.904  30.718  29.488  1.00  0.00     0.167 HD
ATOM     42  C   UNL A   1      44.903  32.566  30.285  1.00  0.00     0.074 A 
ATOM     43  C   UNL A   1      46.199  33.165  30.531  1.00  0.00     0.031 C 
ATOM     44  C   UNL A   1      43.721  33.163  30.572  1.00  0.00     0.031 A 
BRANCH  31  45
ATOM     45  C   UNL A   1      38.757  29.764  29.197  1.00  0.00    -0.014 A 
ATOM     46  C   UNL A   1      38.045  29.414  30.355  1.00  0.00     0.009 A 
ATOM     47  C   UNL A   1      38.045  30.071  28.027  1.00  0.00     0.009 A 
ATOM     48  C   UNL A   1      36.650  29.357  30.334  1.00  0.00     0.001 A 
ATOM     49  C   UNL A   1      36.650  30.030  28.014  1.00  0.00     0.001 A 
ATOM     50  C   UNL A   1      35.954  29.668  29.167  1.00  0.00     0.000 A 
ENDBRANCH  31  45
BRANCH  32  51
ATOM     51  C   UNL A   1      48.730  30.144  29.036  1.00  0.00    -0.014 A 
ATOM     52  C   UNL A   1      49.459  29.729  30.159  1.00  0.00     0.009 A 
ATOM     53  C   UNL A   1      49.421  30.577  27.895  1.00  0.00     0.009 A 
ATOM     54  C   UNL A   1      50.855  29.760  30.143  1.00  0.00     0.001 A 
ATOM     55  C   UNL A   1      50.817  30.585  27.873  1.00  0.00     0.001 A 
ATOM     56  C   UNL A   1      51.532  30.182  28.999  1.00  0.00     0.000 A 
ENDBRANCH  32  51
BRANCH  44  57
ATOM     57  C   UNL A   1      43.793  34.533  31.175  1.00  0.00    -0.014 A 
ATOM     58  C   UNL A   1      43.819  34.701  32.568  1.00  0.00     0.009 A 
ATOM     59  C   UNL A   1      43.838  35.662  30.346  1.00  0.00     0.009 A 
ATOM     60  C   UNL A   1      43.855  35.980  33.121  1.00  0.00     0.001 A 
ATOM     61  C   UNL A   1      43.894  36.940  30.902  1.00  0.00     0.001 A 
ATOM     62  C   UNL A   1      43.894  37.099  32.288  1.00  0.00     0.000 A 
ENDBRANCH  44  57
ENDBRANCH  18  19
ENDBRANCH  11  13
ENDBRANCH   8   9
ENDBRANCH   7   8
ENDBRANCH   6   7
ENDBRANCH   5   6
ENDBRANCH   1   5
BRANCH   2  63
ATOM     63  C   UNL A   1      36.744  23.563  24.740  1.00  0.00     0.197 C 
BRANCH  63  64
ATOM     64  N   UNL A   1      35.696  23.393  23.744  1.00  0.00    -0.340 N 
ATOM     65  C   UNL A   1      34.517  22.718  23.743  1.00  0.00     0.243 C 
ATOM     66  H   UNL A   1      35.879  23.863  22.898  1.00  0.00     0.164 HD
ATOM     67  O   UNL A   1      33.898  22.782  22.673  1.00  0.00    -0.273 OA
BRANCH  65  68
ATOM     68  C   UNL A   1      33.975  21.848  24.917  1.00  0.00     0.175 C 
BRANCH  68  69
ATOM     69  N   UNL A   1      32.512  21.743  25.005  1.00  0.00    -0.342 N 
ATOM     70  C   UNL A   1      31.533  22.596  25.414  1.00  0.00     0.243 C 
ATOM     71  H   UNL A   1      32.166  20.871  24.705  1.00  0.00     0.164 HD
ATOM     72  O   UNL A   1      30.480  22.032  25.743  1.00  0.00    -0.273 OA
BRANCH  70  73
ATOM     73  C   UNL A   1      31.577  24.144  25.302  1.00  0.00     0.176 C 
BRANCH  73  74
ATOM     74  N   UNL A   1      30.337  24.718  24.781  1.00  0.00    -0.340 N 
ATOM     75  C   UNL A   1      30.112  25.627  23.783  1.00  0.00     0.251 C 
ATOM     76  H   UNL A   1      29.521  24.394  25.226  1.00  0.00     0.164 HD
ATOM     77  O   UNL A   1      28.956  25.915  23.494  1.00  0.00    -0.269 OA
BRANCH  75  78
ATOM     78  C   UNL A   1      31.227  26.370  23.158  1.00  0.00     0.040 A 
ATOM     79  C   UNL A   1      32.257  25.752  22.439  1.00  0.00     0.017 A 
ATOM     80  C   UNL A   1      31.222  27.763  23.321  1.00  0.00     0.017 A 
ATOM     81  C   UNL A   1      33.314  26.523  21.950  1.00  0.00     0.040 A 
ATOM     82  C   UNL A   1      32.273  28.530  22.821  1.00  0.00     0.040 A 
ATOM     83  C   UNL A   1      33.316  27.901  22.152  1.00  0.00     0.123 A 
ATOM     84  F   UNL A   1      34.339  28.633  21.693  1.00  0.00    -0.207 F 
ENDBRANCH  75  78
ENDBRANCH  73  74
BRANCH  73  85
ATOM     85  C   UNL A   1      31.932  24.825  26.639  1.00  0.00     0.070 C 
BRANCH  85  86
ATOM     86  C   UNL A   1      32.387  26.264  26.540  1.00  0.00    -0.045 A 
ATOM     87  C   UNL A   1      33.639  26.596  26.001  1.00  0.00     0.007 A 
ATOM     88  C   UNL A   1      31.564  27.300  27.001  1.00  0.00     0.007 A 
ATOM     89  C   UNL A   1      34.059  27.925  25.914  1.00  0.00     0.046 A 
ATOM     90  C   UNL A   1      31.985  28.631  26.923  1.00  0.00     0.046 A 
ATOM     91  C   UNL A   1      33.227  28.933  26.378  1.00  0.00     0.115 A 
BRANCH  91  92
ATOM     92  O   UNL A   1      33.597  30.243  26.315  1.00  0.00    -0.508 OA
ATOM     93  H   UNL A   1      34.450  30.474  26.001  1.00  0.00     0.293 HD
ENDBRANCH  91  92
ENDBRANCH  85  86
ENDBRANCH  73  85
ENDBRANCH  70  73
ENDBRANCH  68  69
BRANCH  68  94
ATOM     94  C   UNL A   1      34.622  20.441  24.748  1.00  0.00     0.072 C 
BRANCH  94  95
ATOM     95  C   UNL A   1      33.698  19.268  24.566  1.00  0.00    -0.020 A 
ATOM     96  C   UNL A   1      32.427  19.261  24.023  1.00  0.00     0.087 A 
ATOM     97  C   UNL A   1      34.035  17.889  24.808  1.00  0.00     0.003 A 
ATOM     98  N   UNL A   1      31.950  17.978  24.034  1.00  0.00    -0.361 N 
ATOM     99  C   UNL A   1      32.921  17.116  24.477  1.00  0.00     0.046 A 
ATOM    100  C   UNL A   1      35.197  17.222  25.250  1.00  0.00     0.010 A 
ATOM    101  H   UNL A   1      31.042  17.712  23.762  1.00  0.00     0.166 HD
ATOM    102  C   UNL A   1      32.899  15.722  24.590  1.00  0.00     0.026 A 
ATOM    103  C   UNL A   1      35.201  15.825  25.347  1.00  0.00     0.001 A 
ATOM    104  C   UNL A   1      34.064  15.088  25.028  1.00  0.00     0.002 A 
ENDBRANCH  94  95
ENDBRANCH  68  94
ENDBRANCH  65  68
ENDBRANCH  63  64
BRANCH  63 105
ATOM    105  C   UNL A   1      36.140  24.068  26.073  1.00  0.00     0.191 C 
BRANCH 105 106
ATOM    106  O   UNL A   1      35.916  22.994  26.985  1.00  0.00    -0.394 OA
ATOM    107  H   UNL A   1      34.970  22.782  27.007  1.00  0.00     0.210 HD
ENDBRANCH 105 106
ENDBRANCH  63 105
ENDBRANCH   2  63
TORSDOF 24
ENDMDL
MODEL 2
REMARK VINA RESULT:     -11.2      3.207      5.894
REMARK SMILES O=C(NCCCCNC(=O)[C@H](CO)NC(=O)[C@H](Cc1c[nH]c2ccccc12)NC(=O)[C@H](Cc1ccc(O)cc1)NC(=O)c1ccc(F)cc1)c1ccc(-c2c3nc(c(-c4ccccc4)c4ccc([nH]4)c(-c4ccccc4)c4nc(c(-c5ccccc5)c5ccc2[nH]5)C=C4)C=C3)cc1
REMARK SMILES IDX 8 1 9 2 10 3 7 5 6 6 5 7 4 8 3 9 1 10 2 11 50 13 51 14 97 15
REMARK SMILES IDX 52 16 96 17 53 18 54 19 55 20 90 21 56 22 95 23 89 24 91 25
REMARK SMILES IDX 57 26 94 27 88 28 87 29 58 31 80 32 65 33 79 34 66 35 69 36
REMARK SMILES IDX 78 37 92 38 67 39 68 40 77 42 93 43 70 44 59 45 60 46 64 47
REMARK SMILES IDX 61 48 63 49 62 50 81 51 82 52 86 53 83 54 85 55 84 56 71 57
REMARK SMILES IDX 72 58 76 59 73 60 75 61 74 62 11 63 14 64 15 65 16 67 17 68
REMARK SMILES IDX 28 69 29 70 30 72 31 73 40 74 41 75 42 77 43 78 44 79 49 80
REMARK SMILES IDX 45 81 48 82 46 83 47 84 32 85 33 86 34 87 39 88 35 89 38 90
REMARK SMILES IDX 36 91 37 92 18 94 19 95 20 96 27 97 21 98 22 99 26 100
REMARK SMILES IDX 23 102 25 103 24 104 12 105 13 106
REMARK H PARENT 8 4 3 12 91 30 69 41 14 66 28 71 40 76 37 93 21 101 13 107
REMARK Flexibility Score: inf
ROOT
ATOM      1  N   UNL A   1      38.784  22.533  25.761  1.00  0.00    -0.354 N 
ATOM      2  C   UNL A   1      37.665  22.471  24.996  1.00  0.00     0.244 C 
ATOM      3  O   UNL A   1      37.494  21.405  24.386  1.00  0.00    -0.273 OA
ATOM      4  H   UNL A   1      39.260  21.673  25.826  1.00  0.00     0.163 HD
ENDROOT
BRANCH   1   5
ATOM      5  C   UNL A   1      39.423  23.601  26.502  1.00  0.00     0.116 C 
BRANCH   5   6
ATOM      6  C   UNL A   1      40.731  23.144  27.144  1.00  0.00     0.023 C 
BRANCH   6   7
ATOM      7  C   UNL A   1      41.699  22.423  26.207  1.00  0.00     0.023 C 
BRANCH   7   8
ATOM      8  C   UNL A   1      42.690  23.326  25.489  1.00  0.00     0.116 C 
BRANCH   8   9
ATOM      9  N   UNL A   1      44.073  22.896  25.626  1.00  0.00    -0.352 N 
ATOM     10  O   UNL A   1      46.154  22.905  26.511  1.00  0.00    -0.269 OA
ATOM     11  C   UNL A   1      44.993  23.292  26.567  1.00  0.00     0.251 C 
ATOM     12  H   UNL A   1      44.388  22.241  24.963  1.00  0.00     0.163 HD
BRANCH  11  13
ATOM     13  C   UNL A   1      44.567  24.227  27.625  1.00  0.00     0.039 A 
ATOM     14  C   UNL A   1      44.012  23.741  28.810  1.00  0.00     0.014 A 
ATOM     15  C   UNL A   1      44.684  25.601  27.403  1.00  0.00     0.014 A 
ATOM     16  C   UNL A   1      43.453  24.629  29.716  1.00  0.00     0.010 A 
ATOM     17  C   UNL A   1      44.186  26.497  28.352  1.00  0.00     0.010 A 
ATOM     18  C   UNL A   1      43.541  26.015  29.501  1.00  0.00    -0.014 A 
BRANCH  18  19
ATOM     19  C   UNL A   1      43.005  26.932  30.532  1.00  0.00     0.031 A 
ATOM     20  C   UNL A   1      43.761  27.211  31.798  1.00  0.00     0.074 A 
ATOM     21  C   UNL A   1      41.844  27.564  30.275  1.00  0.00     0.049 A 
ATOM     22  N   UNL A   1      43.458  28.040  32.765  1.00  0.00    -0.248 NA
ATOM     23  C   UNL A   1      45.011  26.465  32.014  1.00  0.00     0.031 C 
ATOM     24  C   UNL A   1      41.023  27.364  29.077  1.00  0.00     0.029 A 
ATOM     25  N   UNL A   1      41.174  28.525  30.983  1.00  0.00    -0.354 N 
ATOM     26  C   UNL A   1      44.466  27.904  33.711  1.00  0.00     0.074 A 
ATOM     27  C   UNL A   1      45.384  26.904  33.209  1.00  0.00     0.031 C 
ATOM     28  C   UNL A   1      39.997  28.226  29.102  1.00  0.00     0.029 A 
ATOM     29  C   UNL A   1      40.057  28.997  30.338  1.00  0.00     0.049 A 
ATOM     30  H   UNL A   1      41.463  28.846  31.867  1.00  0.00     0.167 HD
ATOM     31  C   UNL A   1      44.609  28.555  34.891  1.00  0.00     0.031 A 
ATOM     32  C   UNL A   1      39.177  29.946  30.699  1.00  0.00     0.031 A 
ATOM     33  C   UNL A   1      43.696  29.552  35.384  1.00  0.00     0.049 A 
ATOM     34  C   UNL A   1      39.366  30.652  32.006  1.00  0.00     0.074 A 
ATOM     35  C   UNL A   1      43.760  30.271  36.566  1.00  0.00     0.029 A 
ATOM     36  N   UNL A   1      42.556  29.974  34.721  1.00  0.00    -0.354 N 
ATOM     37  N   UNL A   1      40.327  30.512  32.886  1.00  0.00    -0.248 NA
ATOM     38  C   UNL A   1      38.345  31.643  32.372  1.00  0.00     0.031 C 
ATOM     39  C   UNL A   1      42.640  31.109  36.630  1.00  0.00     0.029 A 
ATOM     40  C   UNL A   1      41.900  30.936  35.471  1.00  0.00     0.049 A 
ATOM     41  H   UNL A   1      42.255  29.641  33.844  1.00  0.00     0.167 HD
ATOM     42  C   UNL A   1      40.023  31.390  33.915  1.00  0.00     0.074 A 
ATOM     43  C   UNL A   1      38.809  32.082  33.533  1.00  0.00     0.031 C 
ATOM     44  C   UNL A   1      40.684  31.596  35.080  1.00  0.00     0.031 A 
BRANCH  31  45
ATOM     45  C   UNL A   1      45.788  28.190  35.745  1.00  0.00    -0.014 A 
ATOM     46  C   UNL A   1      47.035  28.805  35.558  1.00  0.00     0.009 A 
ATOM     47  C   UNL A   1      45.633  27.265  36.789  1.00  0.00     0.009 A 
ATOM     48  C   UNL A   1      48.110  28.484  36.390  1.00  0.00     0.001 A 
ATOM     49  C   UNL A   1      46.705  26.959  37.629  1.00  0.00     0.001 A 
ATOM     50  C   UNL A   1      47.944  27.566  37.426  1.00  0.00     0.000 A 
ENDBRANCH  31  45
BRANCH  32  51
ATOM     51  C   UNL A   1      38.038  30.269  29.807  1.00  0.00    -0.014 A 
ATOM     52  C   UNL A   1      36.946  29.396  29.701  1.00  0.00     0.009 A 
ATOM     53  C   UNL A   1      38.028  31.468  29.078  1.00  0.00     0.009 A 
ATOM     54  C   UNL A   1      35.869  29.714  28.870  1.00  0.00     0.001 A 
ATOM     55  C   UNL A   1      36.939  31.794  28.268  1.00  0.00     0.001 A 
ATOM     56  C   UNL A   1      35.864  30.914  28.161  1.00  0.00     0.000 A 
ENDBRANCH  32  51
BRANCH  44  57
ATOM     57  C   UNL A   1      40.092  32.607  36.014  1.00  0.00    -0.014 A 
ATOM     58  C   UNL A   1      40.608  33.911  36.079  1.00  0.00     0.009 A 
ATOM     59  C   UNL A   1      39.009  32.256  36.833  1.00  0.00     0.009 A 
ATOM     60  C   UNL A   1      40.070  34.835  36.974  1.00  0.00     0.001 A 
ATOM     61  C   UNL A   1      38.461  33.189  37.712  1.00  0.00     0.001 A 
ATOM     62  C   UNL A   1      38.997  34.475  37.788  1.00  0.00     0.000 A 
ENDBRANCH  44  57
ENDBRANCH  18  19
ENDBRANCH  11  13
ENDBRANCH   8   9
ENDBRANCH   7   8
ENDBRANCH   6   7
ENDBRANCH   5   6
ENDBRANCH   1   5
BRANCH   2  63
ATOM     63  C   UNL A   1      36.573  23.566  24.918  1.00  0.00     0.197 C 
BRANCH  63  64
ATOM     64  N   UNL A   1      35.562  23.502  23.872  1.00  0.00    -0.340 N 
ATOM     65  C   UNL A   1      34.427  22.772  23.721  1.00  0.00     0.243 C 
ATOM     66  H   UNL A   1      35.737  24.114  23.120  1.00  0.00     0.164 HD
ATOM     67  O   UNL A   1      33.832  22.974  22.655  1.00  0.00    -0.273 OA
BRANCH  65  68
ATOM     68  C   UNL A   1      33.910  21.692  24.720  1.00  0.00     0.175 C 
BRANCH  68  69
ATOM     69  N   UNL A   1      32.450  21.619  24.875  1.00  0.00    -0.342 N 
ATOM     70  C   UNL A   1      31.510  22.492  25.331  1.00  0.00     0.243 C 
ATOM     71  H   UNL A   1      32.071  20.757  24.588  1.00  0.00     0.164 HD
ATOM     72  O   UNL A   1      30.461  21.950  25.706  1.00  0.00    -0.273 OA
BRANCH  70  73
ATOM     73  C   UNL A   1      31.583  24.040  25.223  1.00  0.00     0.176 C 
BRANCH  73  74
ATOM     74  N   UNL A   1      30.341  24.641  24.740  1.00  0.00    -0.340 N 
ATOM     75  C   UNL A   1      30.109  25.582  23.772  1.00  0.00     0.251 C 
ATOM     76  H   UNL A   1      29.529  24.313  25.189  1.00  0.00     0.164 HD
ATOM     77  O   UNL A   1      28.952  25.890  23.511  1.00  0.00    -0.269 OA
BRANCH  75  78
ATOM     78  C   UNL A   1      31.222  26.330  23.150  1.00  0.00     0.040 A 
ATOM     79  C   UNL A   1      32.297  25.714  22.500  1.00  0.00     0.017 A 
ATOM     80  C   UNL A   1      31.166  27.729  23.243  1.00  0.00     0.017 A 
ATOM     81  C   UNL A   1      33.346  26.496  22.010  1.00  0.00     0.040 A 
ATOM     82  C   UNL A   1      32.209  28.506  22.742  1.00  0.00     0.040 A 
ATOM     83  C   UNL A   1      33.296  27.881  22.143  1.00  0.00     0.123 A 
ATOM     84  F   UNL A   1      34.311  28.624  21.684  1.00  0.00    -0.207 F 
ENDBRANCH  75  78
ENDBRANCH  73  74
BRANCH  73  85
ATOM     85  C   UNL A   1      31.991  24.707  26.551  1.00  0.00     0.070 C 
BRANCH  85  86
ATOM     86  C   UNL A   1      32.401  26.160  26.454  1.00  0.00    -0.045 A 
ATOM     87  C   UNL A   1      31.552  27.187  26.895  1.00  0.00     0.007 A 
ATOM     88  C   UNL A   1      33.641  26.512  25.906  1.00  0.00     0.007 A 
ATOM     89  C   UNL A   1      31.930  28.528  26.802  1.00  0.00     0.046 A 
ATOM     90  C   UNL A   1      34.019  27.853  25.802  1.00  0.00     0.046 A 
ATOM     91  C   UNL A   1      33.163  28.850  26.253  1.00  0.00     0.115 A 
BRANCH  91  92
ATOM     92  O   UNL A   1      33.571  30.145  26.140  1.00  0.00    -0.508 OA
ATOM     93  H   UNL A   1      34.269  30.367  25.554  1.00  0.00     0.293 HD
ENDBRANCH  91  92
ENDBRANCH  85  86
ENDBRANCH  73  85
ENDBRANCH  70  73
ENDBRANCH  68  69
BRANCH  68  94
ATOM     94  C   UNL A   1      34.483  20.332  24.223  1.00  0.00     0.072 C 
BRANCH  94  95
ATOM     95  C   UNL A   1      33.600  19.120  24.344  1.00  0.00    -0.020 A 
ATOM     96  C   UNL A   1      32.261  19.006  24.020  1.00  0.00     0.087 A 
ATOM     97  C   UNL A   1      34.037  17.796  24.701  1.00  0.00     0.003 A 
ATOM     98  N   UNL A   1      31.855  17.723  24.271  1.00  0.00    -0.361 N 
ATOM     99  C   UNL A   1      32.924  16.955  24.657  1.00  0.00     0.046 A 
ATOM    100  C   UNL A   1      35.286  17.225  25.030  1.00  0.00     0.010 A 
ATOM    101  H   UNL A   1      30.929  17.398  24.186  1.00  0.00     0.166 HD
ATOM    102  C   UNL A   1      32.988  15.588  24.948  1.00  0.00     0.026 A 
ATOM    103  C   UNL A   1      35.373  15.854  25.302  1.00  0.00     0.001 A 
ATOM    104  C   UNL A   1      34.237  15.050  25.267  1.00  0.00     0.002 A 
ENDBRANCH  94  95
ENDBRANCH  68  94
ENDBRANCH  65  68
ENDBRANCH  63  64
BRANCH  63 105
ATOM    105  C   UNL A   1      35.900  23.637  26.310  1.00  0.00     0.191 C 
BRANCH 105 106
ATOM    106  O   UNL A   1      35.916  22.369  26.964  1.00  0.00    -0.394 OA
ATOM    107  H   UNL A   1      35.079  21.909  26.798  1.00  0.00     0.210 HD
ENDBRANCH 105 106
ENDBRANCH  63 105
ENDBRANCH   2  63
TORSDOF 24
ENDMDL
MODEL 3
REMARK VINA RESULT:     -11.1      3.460      7.594
REMARK SMILES O=C(NCCCCNC(=O)[C@H](CO)NC(=O)[C@H](Cc1c[nH]c2ccccc12)NC(=O)[C@H](Cc1ccc(O)cc1)NC(=O)c1ccc(F)cc1)c1ccc(-c2c3nc(c(-c4ccccc4)c4ccc([nH]4)c(-c4ccccc4)c4nc(c(-c5ccccc5)c5ccc2[nH]5)C=C4)C=C3)cc1
REMARK SMILES IDX 8 1 9 2 10 3 7 5 6 6 5 7 4 8 3 9 1 10 2 11 50 13 51 14 97 15
REMARK SMILES IDX 52 16 96 17 53 18 54 19 55 20 90 21 56 22 95 23 89 24 91 25
REMARK SMILES IDX 57 26 94 27 88 28 87 29 58 31 80 32 65 33 79 34 66 35 69 36
REMARK SMILES IDX 78 37 92 38 67 39 68 40 77 42 93 43 70 44 59 45 60 46 64 47
REMARK SMILES IDX 61 48 63 49 62 50 81 51 82 52 86 53 83 54 85 55 84 56 71 57
REMARK SMILES IDX 72 58 76 59 73 60 75 61 74 62 11 63 14 64 15 65 16 67 17 68
REMARK SMILES IDX 28 69 29 70 30 72 31 73 40 74 41 75 42 77 43 78 44 79 49 80
REMARK SMILES IDX 45 81 48 82 46 83 47 84 32 85 33 86 34 87 39 88 35 89 38 90
REMARK SMILES IDX 36 91 37 92 18 94 19 95 20 96 27 97 21 98 22 99 26 100
REMARK SMILES IDX 23 102 25 103 24 104 12 105 13 106
REMARK H PARENT 8 4 3 12 91 30 69 41 14 66 28 71 40 76 37 93 21 101 13 107
REMARK Flexibility Score: inf
ROOT
ATOM      1  N   UNL A   1      37.181  29.684  28.636  1.00  0.00    -0.354 N 
ATOM      2  C   UNL A   1      35.957  30.260  28.743  1.00  0.00     0.244 C 
ATOM      3  O   UNL A   1      35.798  31.000  29.724  1.00  0.00    -0.273 OA
ATOM      4  H   UNL A   1      37.830  30.024  29.295  1.00  0.00     0.163 HD
ENDROOT
BRANCH   1   5
ATOM      5  C   UNL A   1      37.732  28.675  27.755  1.00  0.00     0.116 C 
BRANCH   5   6
ATOM      6  C   UNL A   1      38.837  27.869  28.433  1.00  0.00     0.023 C 
BRANCH   6   7
ATOM      7  C   UNL A   1      39.137  26.513  27.796  1.00  0.00     0.023 C 
BRANCH   7   8
ATOM      8  C   UNL A   1      40.274  25.738  28.445  1.00  0.00     0.116 C 
BRANCH   8   9
ATOM      9  N   UNL A   1      40.537  24.453  27.813  1.00  0.00    -0.352 N 
ATOM     10  O   UNL A   1      41.674  22.991  26.516  1.00  0.00    -0.269 OA
ATOM     11  C   UNL A   1      41.624  24.090  27.056  1.00  0.00     0.251 C 
ATOM     12  H   UNL A   1      39.850  23.761  27.944  1.00  0.00     0.163 HD
BRANCH  11  13
ATOM     13  C   UNL A   1      42.717  25.063  26.872  1.00  0.00     0.039 A 
ATOM     14  C   UNL A   1      43.566  25.375  27.935  1.00  0.00     0.014 A 
ATOM     15  C   UNL A   1      42.857  25.700  25.636  1.00  0.00     0.014 A 
ATOM     16  C   UNL A   1      44.471  26.419  27.802  1.00  0.00     0.010 A 
ATOM     17  C   UNL A   1      43.819  26.700  25.482  1.00  0.00     0.010 A 
ATOM     18  C   UNL A   1      44.611  27.086  26.573  1.00  0.00    -0.014 A 
BRANCH  18  19
ATOM     19  C   UNL A   1      45.645  28.138  26.448  1.00  0.00     0.031 A 
ATOM     20  C   UNL A   1      45.310  29.588  26.642  1.00  0.00     0.074 A 
ATOM     21  C   UNL A   1      46.915  27.754  26.219  1.00  0.00     0.049 A 
ATOM     22  N   UNL A   1      46.114  30.622  26.633  1.00  0.00    -0.248 NA
ATOM     23  C   UNL A   1      43.896  29.929  26.868  1.00  0.00     0.031 C 
ATOM     24  C   UNL A   1      47.352  26.371  26.011  1.00  0.00     0.029 A 
ATOM     25  N   UNL A   1      48.072  28.483  26.160  1.00  0.00    -0.354 N 
ATOM     26  C   UNL A   1      45.307  31.733  26.833  1.00  0.00     0.074 A 
ATOM     27  C   UNL A   1      43.946  31.252  26.948  1.00  0.00     0.031 C 
ATOM     28  C   UNL A   1      48.689  26.344  25.915  1.00  0.00     0.029 A 
ATOM     29  C   UNL A   1      49.195  27.709  26.000  1.00  0.00     0.049 A 
ATOM     30  H   UNL A   1      48.097  29.465  26.226  1.00  0.00     0.167 HD
ATOM     31  C   UNL A   1      45.670  33.036  26.912  1.00  0.00     0.031 A 
ATOM     32  C   UNL A   1      50.491  28.057  25.929  1.00  0.00     0.031 A 
ATOM     33  C   UNL A   1      47.024  33.511  26.803  1.00  0.00     0.049 A 
ATOM     34  C   UNL A   1      50.861  29.505  26.026  1.00  0.00     0.074 A 
ATOM     35  C   UNL A   1      47.490  34.812  26.876  1.00  0.00     0.029 A 
ATOM     36  N   UNL A   1      48.129  32.700  26.601  1.00  0.00    -0.354 N 
ATOM     37  N   UNL A   1      50.083  30.542  26.218  1.00  0.00    -0.248 NA
ATOM     38  C   UNL A   1      52.287  29.830  25.890  1.00  0.00     0.031 C 
ATOM     39  C   UNL A   1      48.879  34.791  26.689  1.00  0.00     0.029 A 
ATOM     40  C   UNL A   1      49.277  33.472  26.535  1.00  0.00     0.049 A 
ATOM     41  H   UNL A   1      48.103  31.720  26.517  1.00  0.00     0.167 HD
ATOM     42  C   UNL A   1      50.923  31.645  26.219  1.00  0.00     0.074 A 
ATOM     43  C   UNL A   1      52.272  31.147  26.043  1.00  0.00     0.031 C 
ATOM     44  C   UNL A   1      50.605  32.956  26.341  1.00  0.00     0.031 A 
BRANCH  31  45
ATOM     45  C   UNL A   1      44.579  34.049  27.106  1.00  0.00    -0.014 A 
ATOM     46  C   UNL A   1      44.245  34.519  28.385  1.00  0.00     0.009 A 
ATOM     47  C   UNL A   1      43.918  34.585  25.989  1.00  0.00     0.009 A 
ATOM     48  C   UNL A   1      43.256  35.493  28.542  1.00  0.00     0.001 A 
ATOM     49  C   UNL A   1      42.943  35.570  26.148  1.00  0.00     0.001 A 
ATOM     50  C   UNL A   1      42.609  36.020  27.425  1.00  0.00     0.000 A 
ENDBRANCH  31  45
BRANCH  32  51
ATOM     51  C   UNL A   1      51.524  27.009  25.749  1.00  0.00    -0.014 A 
ATOM     52  C   UNL A   1      52.019  26.300  26.853  1.00  0.00     0.009 A 
ATOM     53  C   UNL A   1      51.998  26.695  24.466  1.00  0.00     0.009 A 
ATOM     54  C   UNL A   1      52.981  25.303  26.675  1.00  0.00     0.001 A 
ATOM     55  C   UNL A   1      52.941  25.682  24.289  1.00  0.00     0.001 A 
ATOM     56  C   UNL A   1      53.436  24.991  25.394  1.00  0.00     0.000 A 
ENDBRANCH  32  51
BRANCH  44  57
ATOM     57  C   UNL A   1      51.743  33.929  26.279  1.00  0.00    -0.014 A 
ATOM     58  C   UNL A   1      52.193  34.427  25.047  1.00  0.00     0.009 A 
ATOM     59  C   UNL A   1      52.367  34.354  27.461  1.00  0.00     0.009 A 
ATOM     60  C   UNL A   1      53.273  35.308  24.998  1.00  0.00     0.001 A 
ATOM     61  C   UNL A   1      53.433  35.251  27.410  1.00  0.00     0.001 A 
ATOM     62  C   UNL A   1      53.891  35.720  26.178  1.00  0.00     0.000 A 
ENDBRANCH  44  57
ENDBRANCH  18  19
ENDBRANCH  11  13
ENDBRANCH   8   9
ENDBRANCH   7   8
ENDBRANCH   6   7
ENDBRANCH   5   6
ENDBRANCH   1   5
BRANCH   2  63
ATOM     63  C   UNL A   1      34.818  30.139  27.700  1.00  0.00     0.197 C 
BRANCH  63  64
ATOM     64  N   UNL A   1      33.853  29.055  27.810  1.00  0.00    -0.340 N 
ATOM     65  C   UNL A   1      32.812  28.656  27.034  1.00  0.00     0.243 C 
ATOM     66  H   UNL A   1      33.980  28.497  28.612  1.00  0.00     0.164 HD
ATOM     67  O   UNL A   1      32.187  27.687  27.484  1.00  0.00    -0.273 OA
BRANCH  65  68
ATOM     68  C   UNL A   1      32.338  29.364  25.729  1.00  0.00     0.175 C 
BRANCH  68  69
ATOM     69  N   UNL A   1      33.336  29.447  24.654  1.00  0.00    -0.342 N 
ATOM     70  C   UNL A   1      34.079  28.520  23.990  1.00  0.00     0.243 C 
ATOM     71  H   UNL A   1      33.504  30.368  24.349  1.00  0.00     0.164 HD
ATOM     72  O   UNL A   1      35.099  28.980  23.457  1.00  0.00    -0.273 OA
BRANCH  70  73
ATOM     73  C   UNL A   1      33.651  27.056  23.698  1.00  0.00     0.176 C 
BRANCH  73  74
ATOM     74  N   UNL A   1      33.594  26.748  22.270  1.00  0.00    -0.340 N 
ATOM     75  C   UNL A   1      33.050  25.687  21.595  1.00  0.00     0.251 C 
ATOM     76  H   UNL A   1      34.023  27.419  21.692  1.00  0.00     0.164 HD
ATOM     77  O   UNL A   1      33.088  25.683  20.370  1.00  0.00    -0.269 OA
BRANCH  75  78
ATOM     78  C   UNL A   1      32.558  24.493  22.314  1.00  0.00     0.040 A 
ATOM     79  C   UNL A   1      31.289  24.413  22.897  1.00  0.00     0.017 A 
ATOM     80  C   UNL A   1      33.441  23.407  22.403  1.00  0.00     0.017 A 
ATOM     81  C   UNL A   1      30.936  23.275  23.627  1.00  0.00     0.040 A 
ATOM     82  C   UNL A   1      33.080  22.269  23.121  1.00  0.00     0.040 A 
ATOM     83  C   UNL A   1      31.836  22.220  23.739  1.00  0.00     0.123 A 
ATOM     84  F   UNL A   1      31.498  21.137  24.451  1.00  0.00    -0.207 F 
ENDBRANCH  75  78
ENDBRANCH  73  74
BRANCH  73  85
ATOM     85  C   UNL A   1      34.548  26.023  24.408  1.00  0.00     0.070 C 
BRANCH  85  86
ATOM     86  C   UNL A   1      33.841  25.095  25.371  1.00  0.00    -0.045 A 
ATOM     87  C   UNL A   1      32.532  25.353  25.803  1.00  0.00     0.007 A 
ATOM     88  C   UNL A   1      34.492  23.956  25.864  1.00  0.00     0.007 A 
ATOM     89  C   UNL A   1      31.882  24.498  26.695  1.00  0.00     0.046 A 
ATOM     90  C   UNL A   1      33.848  23.102  26.764  1.00  0.00     0.046 A 
ATOM     91  C   UNL A   1      32.548  23.378  27.170  1.00  0.00     0.115 A 
BRANCH  91  92
ATOM     92  O   UNL A   1      31.954  22.517  28.043  1.00  0.00    -0.508 OA
ATOM     93  H   UNL A   1      31.034  22.346  27.980  1.00  0.00     0.293 HD
ENDBRANCH  91  92
ENDBRANCH  85  86
ENDBRANCH  73  85
ENDBRANCH  70  73
ENDBRANCH  68  69
BRANCH  68  94
ATOM     94  C   UNL A   1      31.073  28.592  25.251  1.00  0.00     0.072 C 
BRANCH  94  95
ATOM     95  C   UNL A   1      30.543  28.906  23.879  1.00  0.00    -0.020 A 
ATOM     96  C   UNL A   1      30.502  28.080  22.772  1.00  0.00     0.087 A 
ATOM     97  C   UNL A   1      29.844  30.108  23.505  1.00  0.00     0.003 A 
ATOM     98  N   UNL A   1      29.924  28.762  21.735  1.00  0.00    -0.361 N 
ATOM     99  C   UNL A   1      29.484  29.989  22.162  1.00  0.00     0.046 A 
ATOM    100  C   UNL A   1      29.457  31.278  24.193  1.00  0.00     0.010 A 
ATOM    101  H   UNL A   1      29.835  28.420  20.816  1.00  0.00     0.166 HD
ATOM    102  C   UNL A   1      28.785  30.983  21.467  1.00  0.00     0.026 A 
ATOM    103  C   UNL A   1      28.737  32.274  23.521  1.00  0.00     0.001 A 
ATOM    104  C   UNL A   1      28.413  32.128  22.175  1.00  0.00     0.002 A 
ENDBRANCH  94  95
ENDBRANCH  68  94
ENDBRANCH  65  68
ENDBRANCH  63  64
BRANCH  63 105
ATOM    105  C   UNL A   1      34.089  31.504  27.663  1.00  0.00     0.191 C 
BRANCH 105 106
ATOM    106  O   UNL A   1      35.008  32.583  27.499  1.00  0.00    -0.394 OA
ATOM    107  H   UNL A   1      35.520  32.451  26.686  1.00  0.00     0.210 HD
ENDBRANCH 105 106
ENDBRANCH  63 105
ENDBRANCH   2  63
TORSDOF 24
ENDMDL
