MODEL 1
REMARK VINA RESULT:     -12.9      0.000      0.000
REMARK SMILES O=C(NCCCCNC(=O)c1ccc(-c2c3nc(c(-c4ccccc4)c4ccc([nH]4)c(-c4ccccc4)c4nc(c(-c5ccccc5)c5ccc2[nH]5)C=C4)C=C3)cc1)c1ccc(NC(=O)[C@@H]2CC=CC[C@H]2C(=O)Nc2cccc([N+](=O)[O-])c2)cc1
REMARK SMILES IDX 4 1 3 2 1 3 2 4 59 6 60 7 85 8 61 9 84 10 62 11 63 12 64 13
REMARK SMILES IDX 65 15 66 16 67 17 71 18 68 19 70 20 69 21 72 22 73 23 74 24
REMARK SMILES IDX 75 26 76 27 83 28 77 29 79 30 78 31 80 32 81 33 82 34 5 35
REMARK SMILES IDX 6 36 7 37 8 38 9 39 10 41 11 42 12 43 58 44 13 45 57 46
REMARK SMILES IDX 14 47 15 48 16 49 51 50 17 51 56 52 50 53 52 54 18 55 55 56
REMARK SMILES IDX 49 57 48 58 19 60 41 61 26 62 40 63 27 64 30 65 39 66 53 67
REMARK SMILES IDX 28 68 29 69 38 71 54 72 31 73 20 74 21 75 25 76 22 77 24 78
REMARK SMILES IDX 23 79 42 80 43 81 47 82 44 83 46 84 45 85 32 86 33 87 37 88
REMARK SMILES IDX 34 89 36 90 35 91
REMARK H PARENT 3 5 63 14 74 25 8 40 52 59 30 70
REMARK Flexibility Score: inf
ROOT
ATOM      1  C   UNL A   1      30.793  30.265  24.899  1.00  0.00     0.116 C 
ENDROOT
BRANCH   1   2
ATOM      2  N   UNL A   1      30.286  30.416  23.555  1.00  0.00    -0.352 N 
ATOM      3  O   UNL A   1      29.541  29.975  21.513  1.00  0.00    -0.269 OA
ATOM      4  C   UNL A   1      29.968  29.511  22.573  1.00  0.00     0.251 C 
ATOM      5  H   UNL A   1      30.140  31.353  23.292  1.00  0.00     0.163 HD
BRANCH   4   6
ATOM      6  C   UNL A   1      30.008  28.027  22.750  1.00  0.00     0.039 A 
ATOM      7  C   UNL A   1      31.006  27.164  22.288  1.00  0.00     0.016 A 
ATOM      8  C   UNL A   1      28.958  27.474  23.494  1.00  0.00     0.016 A 
ATOM      9  C   UNL A   1      31.098  25.849  22.787  1.00  0.00     0.027 A 
ATOM     10  C   UNL A   1      29.015  26.154  23.935  1.00  0.00     0.027 A 
ATOM     11  C   UNL A   1      30.157  25.389  23.702  1.00  0.00     0.041 A 
BRANCH  11  12
ATOM     12  N   UNL A   1      30.253  24.210  24.442  1.00  0.00    -0.326 N 
ATOM     13  C   UNL A   1      31.061  23.783  25.448  1.00  0.00     0.228 C 
ATOM     14  H   UNL A   1      29.585  23.538  24.177  1.00  0.00     0.169 HD
ATOM     15  O   UNL A   1      30.805  22.643  25.857  1.00  0.00    -0.274 OA
BRANCH  13  16
ATOM     16  C   UNL A   1      32.214  24.610  26.058  1.00  0.00     0.095 C 
ATOM     17  C   UNL A   1      31.577  25.947  26.543  1.00  0.00     0.041 C 
ATOM     18  C   UNL A   1      33.438  24.855  25.141  1.00  0.00     0.095 C 
ATOM     19  C   UNL A   1      32.498  27.098  26.784  1.00  0.00    -0.030 C 
ATOM     20  C   UNL A   1      34.131  26.244  25.142  1.00  0.00     0.041 C 
ATOM     21  C   UNL A   1      33.650  27.239  26.133  1.00  0.00    -0.030 C 
BRANCH  18  22
ATOM     22  C   UNL A   1      34.617  23.900  25.244  1.00  0.00     0.228 C 
ATOM     23  O   UNL A   1      35.649  24.312  25.801  1.00  0.00    -0.274 OA
ATOM     24  N   UNL A   1      34.623  22.566  24.987  1.00  0.00    -0.326 N 
ATOM     25  H   UNL A   1      35.426  22.158  25.384  1.00  0.00     0.169 HD
BRANCH  24  26
ATOM     26  C   UNL A   1      33.861  21.578  24.344  1.00  0.00     0.048 A 
ATOM     27  C   UNL A   1      33.048  22.032  23.288  1.00  0.00     0.026 A 
ATOM     28  C   UNL A   1      33.786  20.234  24.677  1.00  0.00     0.111 A 
ATOM     29  C   UNL A   1      32.202  21.170  22.579  1.00  0.00     0.009 A 
ATOM     30  C   UNL A   1      32.908  19.372  23.995  1.00  0.00     0.271 A 
ATOM     31  C   UNL A   1      32.124  19.828  22.935  1.00  0.00     0.086 A 
BRANCH  30  32
ATOM     32  N   UNL A   1      32.804  17.973  24.426  1.00  0.00     0.062 N 
ATOM     33  O   UNL A   1      33.473  17.131  23.815  1.00  0.00    -0.258 OA
ATOM     34  O   UNL A   1      32.039  17.722  25.369  1.00  0.00    -0.258 OA
ENDBRANCH  30  32
ENDBRANCH  24  26
ENDBRANCH  18  22
ENDBRANCH  13  16
ENDBRANCH  11  12
ENDBRANCH   4   6
ENDBRANCH   1   2
BRANCH   1  35
ATOM     35  C   UNL A   1      30.990  31.626  25.564  1.00  0.00     0.023 C 
BRANCH  35  36
ATOM     36  C   UNL A   1      31.661  31.542  26.936  1.00  0.00     0.023 C 
BRANCH  36  37
ATOM     37  C   UNL A   1      32.867  32.461  27.119  1.00  0.00     0.116 C 
BRANCH  37  38
ATOM     38  N   UNL A   1      32.510  33.813  27.525  1.00  0.00    -0.352 N 
ATOM     39  C   UNL A   1      33.083  34.615  28.488  1.00  0.00     0.251 C 
ATOM     40  H   UNL A   1      31.750  34.211  27.043  1.00  0.00     0.163 HD
ATOM     41  O   UNL A   1      32.601  35.708  28.740  1.00  0.00    -0.269 OA
BRANCH  39  42
ATOM     42  C   UNL A   1      34.253  34.114  29.244  1.00  0.00     0.039 A 
ATOM     43  C   UNL A   1      34.033  33.284  30.348  1.00  0.00     0.014 A 
ATOM     44  C   UNL A   1      35.554  34.399  28.826  1.00  0.00     0.014 A 
ATOM     45  C   UNL A   1      35.120  32.663  30.970  1.00  0.00     0.010 A 
ATOM     46  C   UNL A   1      36.625  33.715  29.393  1.00  0.00     0.010 A 
ATOM     47  C   UNL A   1      36.420  32.831  30.464  1.00  0.00    -0.014 A 
BRANCH  47  48
ATOM     48  C   UNL A   1      37.569  32.069  31.019  1.00  0.00     0.031 A 
ATOM     49  C   UNL A   1      38.098  32.382  32.392  1.00  0.00     0.074 A 
ATOM     50  C   UNL A   1      38.189  31.143  30.259  1.00  0.00     0.049 A 
ATOM     51  N   UNL A   1      39.125  31.865  33.020  1.00  0.00    -0.248 NA
ATOM     52  C   UNL A   1      37.400  33.433  33.149  1.00  0.00     0.031 C 
ATOM     53  C   UNL A   1      37.812  30.775  28.892  1.00  0.00     0.029 A 
ATOM     54  N   UNL A   1      39.273  30.345  30.529  1.00  0.00    -0.354 N 
ATOM     55  C   UNL A   1      39.204  32.536  34.233  1.00  0.00     0.074 A 
ATOM     56  C   UNL A   1      38.157  33.535  34.231  1.00  0.00     0.031 C 
ATOM     57  C   UNL A   1      38.630  29.802  28.457  1.00  0.00     0.029 A 
ATOM     58  C   UNL A   1      39.615  29.507  29.492  1.00  0.00     0.049 A 
ATOM     59  H   UNL A   1      39.761  30.369  31.383  1.00  0.00     0.167 HD
ATOM     60  C   UNL A   1      40.055  32.330  35.265  1.00  0.00     0.031 A 
ATOM     61  C   UNL A   1      40.610  28.607  29.384  1.00  0.00     0.031 A 
ATOM     62  C   UNL A   1      41.091  31.332  35.275  1.00  0.00     0.049 A 
ATOM     63  C   UNL A   1      41.550  28.405  30.539  1.00  0.00     0.074 A 
ATOM     64  C   UNL A   1      41.964  31.007  36.299  1.00  0.00     0.029 A 
ATOM     65  N   UNL A   1      41.397  30.502  34.209  1.00  0.00    -0.354 N 
ATOM     66  N   UNL A   1      41.562  28.997  31.709  1.00  0.00    -0.248 NA
ATOM     67  C   UNL A   1      42.609  27.401  30.361  1.00  0.00     0.031 C 
ATOM     68  C   UNL A   1      42.835  30.016  35.834  1.00  0.00     0.029 A 
ATOM     69  C   UNL A   1      42.464  29.682  34.541  1.00  0.00     0.049 A 
ATOM     70  H   UNL A   1      40.927  30.495  33.344  1.00  0.00     0.167 HD
ATOM     71  C   UNL A   1      42.608  28.419  32.415  1.00  0.00     0.074 A 
ATOM     72  C   UNL A   1      43.197  27.418  31.550  1.00  0.00     0.031 C 
ATOM     73  C   UNL A   1      43.042  28.691  33.670  1.00  0.00     0.031 A 
BRANCH  60  74
ATOM     74  C   UNL A   1      39.901  33.210  36.474  1.00  0.00    -0.014 A 
ATOM     75  C   UNL A   1      40.602  34.423  36.585  1.00  0.00     0.009 A 
ATOM     76  C   UNL A   1      39.020  32.841  37.503  1.00  0.00     0.009 A 
ATOM     77  C   UNL A   1      40.453  35.226  37.717  1.00  0.00     0.001 A 
ATOM     78  C   UNL A   1      38.850  33.661  38.619  1.00  0.00     0.001 A 
ATOM     79  C   UNL A   1      39.574  34.848  38.731  1.00  0.00     0.000 A 
ENDBRANCH  60  74
BRANCH  61  80
ATOM     80  C   UNL A   1      40.761  27.808  28.138  1.00  0.00    -0.014 A 
ATOM     81  C   UNL A   1      40.156  26.547  28.023  1.00  0.00     0.009 A 
ATOM     82  C   UNL A   1      41.521  28.296  27.064  1.00  0.00     0.009 A 
ATOM     83  C   UNL A   1      40.331  25.779  26.870  1.00  0.00     0.001 A 
ATOM     84  C   UNL A   1      41.670  27.539  25.899  1.00  0.00     0.001 A 
ATOM     85  C   UNL A   1      41.084  26.277  25.807  1.00  0.00     0.000 A 
ENDBRANCH  61  80
BRANCH  73  86
ATOM     86  C   UNL A   1      44.186  27.872  34.198  1.00  0.00    -0.014 A 
ATOM     87  C   UNL A   1      43.974  26.620  34.796  1.00  0.00     0.009 A 
ATOM     88  C   UNL A   1      45.500  28.345  34.057  1.00  0.00     0.009 A 
ATOM     89  C   UNL A   1      45.054  25.874  35.274  1.00  0.00     0.001 A 
ATOM     90  C   UNL A   1      46.580  27.583  34.508  1.00  0.00     0.001 A 
ATOM     91  C   UNL A   1      46.355  26.353  35.124  1.00  0.00     0.000 A 
ENDBRANCH  73  86
ENDBRANCH  47  48
ENDBRANCH  39  42
ENDBRANCH  37  38
ENDBRANCH  36  37
ENDBRANCH  35  36
ENDBRANCH   1  35
TORSDOF 16
ENDMDL
MODEL 2
REMARK VINA RESULT:     -12.9      0.635      5.580
REMARK SMILES O=C(NCCCCNC(=O)c1ccc(-c2c3nc(c(-c4ccccc4)c4ccc([nH]4)c(-c4ccccc4)c4nc(c(-c5ccccc5)c5ccc2[nH]5)C=C4)C=C3)cc1)c1ccc(NC(=O)[C@@H]2CC=CC[C@H]2C(=O)Nc2cccc([N+](=O)[O-])c2)cc1
REMARK SMILES IDX 4 1 3 2 1 3 2 4 59 6 60 7 85 8 61 9 84 10 62 11 63 12 64 13
REMARK SMILES IDX 65 15 66 16 67 17 71 18 68 19 70 20 69 21 72 22 73 23 74 24
REMARK SMILES IDX 75 26 76 27 83 28 77 29 79 30 78 31 80 32 81 33 82 34 5 35
REMARK SMILES IDX 6 36 7 37 8 38 9 39 10 41 11 42 12 43 58 44 13 45 57 46
REMARK SMILES IDX 14 47 15 48 16 49 51 50 17 51 56 52 50 53 52 54 18 55 55 56
REMARK SMILES IDX 49 57 48 58 19 60 41 61 26 62 40 63 27 64 30 65 39 66 53 67
REMARK SMILES IDX 28 68 29 69 38 71 54 72 31 73 20 74 21 75 25 76 22 77 24 78
REMARK SMILES IDX 23 79 42 80 43 81 47 82 44 83 46 84 45 85 32 86 33 87 37 88
REMARK SMILES IDX 34 89 36 90 35 91
REMARK H PARENT 3 5 63 14 74 25 8 40 52 59 30 70
REMARK Flexibility Score: inf
ROOT
ATOM      1  C   UNL A   1      30.942  30.337  24.991  1.00  0.00     0.116 C 
ENDROOT
BRANCH   1   2
ATOM      2  N   UNL A   1      30.266  30.546  23.731  1.00  0.00    -0.352 N 
ATOM      3  O   UNL A   1      29.265  30.192  21.784  1.00  0.00    -0.269 OA
ATOM      4  C   UNL A   1      29.825  29.684  22.758  1.00  0.00     0.251 C 
ATOM      5  H   UNL A   1      30.087  31.493  23.532  1.00  0.00     0.163 HD
BRANCH   4   6
ATOM      6  C   UNL A   1      29.889  28.194  22.861  1.00  0.00     0.039 A 
ATOM      7  C   UNL A   1      30.898  27.371  22.352  1.00  0.00     0.016 A 
ATOM      8  C   UNL A   1      28.851  27.588  23.580  1.00  0.00     0.016 A 
ATOM      9  C   UNL A   1      31.012  26.035  22.785  1.00  0.00     0.027 A 
ATOM     10  C   UNL A   1      28.931  26.248  23.954  1.00  0.00     0.027 A 
ATOM     11  C   UNL A   1      30.083  25.514  23.679  1.00  0.00     0.041 A 
BRANCH  11  12
ATOM     12  N   UNL A   1      30.201  24.301  24.358  1.00  0.00    -0.326 N 
ATOM     13  C   UNL A   1      31.020  23.838  25.339  1.00  0.00     0.228 C 
ATOM     14  H   UNL A   1      29.542  23.633  24.063  1.00  0.00     0.169 HD
ATOM     15  O   UNL A   1      30.784  22.674  25.691  1.00  0.00    -0.274 OA
BRANCH  13  16
ATOM     16  C   UNL A   1      32.164  24.651  25.984  1.00  0.00     0.095 C 
ATOM     17  C   UNL A   1      31.508  25.950  26.542  1.00  0.00     0.041 C 
ATOM     18  C   UNL A   1      33.377  24.963  25.075  1.00  0.00     0.095 C 
ATOM     19  C   UNL A   1      32.411  27.102  26.837  1.00  0.00    -0.030 C 
ATOM     20  C   UNL A   1      34.048  26.362  25.144  1.00  0.00     0.041 C 
ATOM     21  C   UNL A   1      33.557  27.296  26.188  1.00  0.00    -0.030 C 
BRANCH  18  22
ATOM     22  C   UNL A   1      34.573  24.025  25.121  1.00  0.00     0.228 C 
ATOM     23  O   UNL A   1      35.621  24.446  25.639  1.00  0.00    -0.274 OA
ATOM     24  N   UNL A   1      34.586  22.693  24.851  1.00  0.00    -0.326 N 
ATOM     25  H   UNL A   1      35.410  22.292  25.212  1.00  0.00     0.169 HD
BRANCH  24  26
ATOM     26  C   UNL A   1      33.813  21.700  24.230  1.00  0.00     0.048 A 
ATOM     27  C   UNL A   1      33.062  22.125  23.117  1.00  0.00     0.026 A 
ATOM     28  C   UNL A   1      33.671  20.381  24.631  1.00  0.00     0.111 A 
ATOM     29  C   UNL A   1      32.212  21.257  22.420  1.00  0.00     0.009 A 
ATOM     30  C   UNL A   1      32.788  19.515  23.959  1.00  0.00     0.271 A 
ATOM     31  C   UNL A   1      32.067  19.941  22.843  1.00  0.00     0.086 A 
BRANCH  30  32
ATOM     32  N   UNL A   1      32.611  18.147  24.460  1.00  0.00     0.062 N 
ATOM     33  O   UNL A   1      32.188  18.006  25.614  1.00  0.00    -0.258 OA
ATOM     34  O   UNL A   1      32.911  17.217  23.696  1.00  0.00    -0.258 OA
ENDBRANCH  30  32
ENDBRANCH  24  26
ENDBRANCH  18  22
ENDBRANCH  13  16
ENDBRANCH  11  12
ENDBRANCH   4   6
ENDBRANCH   1   2
BRANCH   1  35
ATOM     35  C   UNL A   1      31.013  31.635  25.793  1.00  0.00     0.023 C 
BRANCH  35  36
ATOM     36  C   UNL A   1      31.816  31.508  27.089  1.00  0.00     0.023 C 
BRANCH  36  37
ATOM     37  C   UNL A   1      32.969  32.500  27.231  1.00  0.00     0.116 C 
BRANCH  37  38
ATOM     38  N   UNL A   1      32.533  33.856  27.528  1.00  0.00    -0.352 N 
ATOM     39  C   UNL A   1      33.036  34.754  28.445  1.00  0.00     0.251 C 
ATOM     40  H   UNL A   1      31.770  34.179  26.998  1.00  0.00     0.163 HD
ATOM     41  O   UNL A   1      32.493  35.836  28.605  1.00  0.00    -0.269 OA
BRANCH  39  42
ATOM     42  C   UNL A   1      34.205  34.368  29.268  1.00  0.00     0.039 A 
ATOM     43  C   UNL A   1      33.987  33.676  30.463  1.00  0.00     0.014 A 
ATOM     44  C   UNL A   1      35.506  34.621  28.828  1.00  0.00     0.014 A 
ATOM     45  C   UNL A   1      35.077  33.154  31.165  1.00  0.00     0.010 A 
ATOM     46  C   UNL A   1      36.581  34.030  29.484  1.00  0.00     0.010 A 
ATOM     47  C   UNL A   1      36.379  33.280  30.654  1.00  0.00    -0.014 A 
BRANCH  47  48
ATOM     48  C   UNL A   1      37.534  32.612  31.308  1.00  0.00     0.031 A 
ATOM     49  C   UNL A   1      38.227  31.458  30.637  1.00  0.00     0.074 A 
ATOM     50  C   UNL A   1      37.917  32.995  32.544  1.00  0.00     0.049 A 
ATOM     51  N   UNL A   1      39.212  30.715  31.078  1.00  0.00    -0.248 NA
ATOM     52  C   UNL A   1      37.729  31.067  29.308  1.00  0.00     0.031 C 
ATOM     53  C   UNL A   1      37.302  34.066  33.331  1.00  0.00     0.029 A 
ATOM     54  N   UNL A   1      38.915  32.519  33.358  1.00  0.00    -0.354 N 
ATOM     55  C   UNL A   1      39.440  29.765  30.092  1.00  0.00     0.074 A 
ATOM     56  C   UNL A   1      38.455  29.989  29.054  1.00  0.00     0.031 C 
ATOM     57  C   UNL A   1      37.957  34.187  34.498  1.00  0.00     0.029 A 
ATOM     58  C   UNL A   1      39.007  33.177  34.562  1.00  0.00     0.049 A 
ATOM     59  H   UNL A   1      39.510  31.777  33.104  1.00  0.00     0.167 HD
ATOM     60  C   UNL A   1      40.393  28.806  30.039  1.00  0.00     0.031 A 
ATOM     61  C   UNL A   1      39.839  32.987  35.604  1.00  0.00     0.031 A 
ATOM     62  C   UNL A   1      41.379  28.586  31.063  1.00  0.00     0.049 A 
ATOM     63  C   UNL A   1      40.881  31.906  35.528  1.00  0.00     0.074 A 
ATOM     64  C   UNL A   1      42.424  27.677  31.072  1.00  0.00     0.029 A 
ATOM     65  N   UNL A   1      41.441  29.278  32.261  1.00  0.00    -0.354 N 
ATOM     66  N   UNL A   1      41.131  31.065  34.553  1.00  0.00    -0.248 NA
ATOM     67  C   UNL A   1      41.764  31.756  36.694  1.00  0.00     0.031 C 
ATOM     68  C   UNL A   1      43.086  27.784  32.300  1.00  0.00     0.029 A 
ATOM     69  C   UNL A   1      42.490  28.800  33.029  1.00  0.00     0.049 A 
ATOM     70  H   UNL A   1      40.830  30.003  32.528  1.00  0.00     0.167 HD
ATOM     71  C   UNL A   1      42.215  30.308  34.975  1.00  0.00     0.074 A 
ATOM     72  C   UNL A   1      42.586  30.799  36.286  1.00  0.00     0.031 C 
ATOM     73  C   UNL A   1      42.848  29.296  34.333  1.00  0.00     0.031 A 
BRANCH  60  74
ATOM     74  C   UNL A   1      40.410  27.913  28.829  1.00  0.00    -0.014 A 
ATOM     75  C   UNL A   1      41.148  28.254  27.683  1.00  0.00     0.009 A 
ATOM     76  C   UNL A   1      39.706  26.698  28.845  1.00  0.00     0.009 A 
ATOM     77  C   UNL A   1      41.148  27.417  26.566  1.00  0.00     0.001 A 
ATOM     78  C   UNL A   1      39.734  25.849  27.738  1.00  0.00     0.001 A 
ATOM     79  C   UNL A   1      40.445  26.214  26.595  1.00  0.00     0.000 A 
ENDBRANCH  60  74
BRANCH  61  80
ATOM     80  C   UNL A   1      39.737  33.853  36.809  1.00  0.00    -0.014 A 
ATOM     81  C   UNL A   1      38.900  33.492  37.876  1.00  0.00     0.009 A 
ATOM     82  C   UNL A   1      40.465  35.050  36.893  1.00  0.00     0.009 A 
ATOM     83  C   UNL A   1      38.773  34.325  38.991  1.00  0.00     0.001 A 
ATOM     84  C   UNL A   1      40.359  35.867  38.022  1.00  0.00     0.001 A 
ATOM     85  C   UNL A   1      39.506  35.509  39.065  1.00  0.00     0.000 A 
ENDBRANCH  61  80
BRANCH  73  86
ATOM     86  C   UNL A   1      44.030  28.674  35.022  1.00  0.00    -0.014 A 
ATOM     87  C   UNL A   1      45.289  29.295  35.017  1.00  0.00     0.009 A 
ATOM     88  C   UNL A   1      43.870  27.467  35.721  1.00  0.00     0.009 A 
ATOM     89  C   UNL A   1      46.371  28.701  35.670  1.00  0.00     0.001 A 
ATOM     90  C   UNL A   1      44.946  26.892  36.398  1.00  0.00     0.001 A 
ATOM     91  C   UNL A   1      46.198  27.504  36.364  1.00  0.00     0.000 A 
ENDBRANCH  73  86
ENDBRANCH  47  48
ENDBRANCH  39  42
ENDBRANCH  37  38
ENDBRANCH  36  37
ENDBRANCH  35  36
ENDBRANCH   1  35
TORSDOF 16
ENDMDL
MODEL 3
REMARK VINA RESULT:     -12.8      3.173      8.924
REMARK SMILES O=C(NCCCCNC(=O)c1ccc(-c2c3nc(c(-c4ccccc4)c4ccc([nH]4)c(-c4ccccc4)c4nc(c(-c5ccccc5)c5ccc2[nH]5)C=C4)C=C3)cc1)c1ccc(NC(=O)[C@@H]2CC=CC[C@H]2C(=O)Nc2cccc([N+](=O)[O-])c2)cc1
REMARK SMILES IDX 4 1 3 2 1 3 2 4 59 6 60 7 85 8 61 9 84 10 62 11 63 12 64 13
REMARK SMILES IDX 65 15 66 16 67 17 71 18 68 19 70 20 69 21 72 22 73 23 74 24
REMARK SMILES IDX 75 26 76 27 83 28 77 29 79 30 78 31 80 32 81 33 82 34 5 35
REMARK SMILES IDX 6 36 7 37 8 38 9 39 10 41 11 42 12 43 58 44 13 45 57 46
REMARK SMILES IDX 14 47 15 48 16 49 51 50 17 51 56 52 50 53 52 54 18 55 55 56
REMARK SMILES IDX 49 57 48 58 19 60 41 61 26 62 40 63 27 64 30 65 39 66 53 67
REMARK SMILES IDX 28 68 29 69 38 71 54 72 31 73 20 74 21 75 25 76 22 77 24 78
REMARK SMILES IDX 23 79 42 80 43 81 47 82 44 83 46 84 45 85 32 86 33 87 37 88
REMARK SMILES IDX 34 89 36 90 35 91
REMARK H PARENT 3 5 63 14 74 25 8 40 52 59 30 70
REMARK Flexibility Score: inf
ROOT
ATOM      1  C   UNL A   1      34.748  20.385  24.991  1.00  0.00     0.116 C 
ENDROOT
BRANCH   1   2
ATOM      2  N   UNL A   1      34.140  20.759  26.247  1.00  0.00    -0.352 N 
ATOM      3  O   UNL A   1      33.163  21.927  27.859  1.00  0.00    -0.269 OA
ATOM      4  C   UNL A   1      33.627  21.943  26.717  1.00  0.00     0.251 C 
ATOM      5  H   UNL A   1      34.084  20.019  26.893  1.00  0.00     0.163 HD
BRANCH   4   6
ATOM      6  C   UNL A   1      33.506  23.190  25.903  1.00  0.00     0.039 A 
ATOM      7  C   UNL A   1      34.144  24.409  26.155  1.00  0.00     0.016 A 
ATOM      8  C   UNL A   1      32.709  23.094  24.756  1.00  0.00     0.016 A 
ATOM      9  C   UNL A   1      34.207  25.399  25.154  1.00  0.00     0.027 A 
ATOM     10  C   UNL A   1      32.719  24.102  23.794  1.00  0.00     0.027 A 
ATOM     11  C   UNL A   1      33.584  25.187  23.930  1.00  0.00     0.041 A 
BRANCH  11  12
ATOM     12  N   UNL A   1      33.754  25.967  22.786  1.00  0.00    -0.326 N 
ATOM     13  C   UNL A   1      33.310  27.192  22.397  1.00  0.00     0.228 C 
ATOM     14  H   UNL A   1      34.324  25.535  22.110  1.00  0.00     0.169 HD
ATOM     15  O   UNL A   1      33.710  27.547  21.279  1.00  0.00    -0.274 OA
BRANCH  13  16
ATOM     16  C   UNL A   1      32.382  28.097  23.237  1.00  0.00     0.095 C 
ATOM     17  C   UNL A   1      33.320  28.978  24.116  1.00  0.00     0.041 C 
ATOM     18  C   UNL A   1      31.309  27.374  24.087  1.00  0.00     0.095 C 
ATOM     19  C   UNL A   1      32.719  29.636  25.314  1.00  0.00    -0.030 C 
ATOM     20  C   UNL A   1      31.000  27.876  25.523  1.00  0.00     0.041 C 
ATOM     21  C   UNL A   1      31.674  29.123  25.962  1.00  0.00    -0.030 C 
BRANCH  18  22
ATOM     22  C   UNL A   1      29.919  27.199  23.495  1.00  0.00     0.228 C 
ATOM     23  O   UNL A   1      29.443  26.051  23.463  1.00  0.00    -0.274 OA
ATOM     24  N   UNL A   1      29.030  28.176  23.177  1.00  0.00    -0.326 N 
ATOM     25  H   UNL A   1      28.133  27.783  23.069  1.00  0.00     0.169 HD
BRANCH  24  26
ATOM     26  C   UNL A   1      28.967  29.560  22.952  1.00  0.00     0.048 A 
ATOM     27  C   UNL A   1      29.427  30.366  24.010  1.00  0.00     0.026 A 
ATOM     28  C   UNL A   1      28.450  30.201  21.836  1.00  0.00     0.111 A 
ATOM     29  C   UNL A   1      29.388  31.765  23.948  1.00  0.00     0.009 A 
ATOM     30  C   UNL A   1      28.372  31.605  21.785  1.00  0.00     0.271 A 
ATOM     31  C   UNL A   1      28.853  32.395  22.829  1.00  0.00     0.086 A 
BRANCH  30  32
ATOM     32  N   UNL A   1      27.752  32.242  20.618  1.00  0.00     0.062 N 
ATOM     33  O   UNL A   1      27.481  31.526  19.646  1.00  0.00    -0.258 OA
ATOM     34  O   UNL A   1      27.551  33.465  20.674  1.00  0.00    -0.258 OA
ENDBRANCH  30  32
ENDBRANCH  24  26
ENDBRANCH  18  22
ENDBRANCH  13  16
ENDBRANCH  11  12
ENDBRANCH   4   6
ENDBRANCH   1   2
BRANCH   1  35
ATOM     35  C   UNL A   1      36.228  20.762  24.968  1.00  0.00     0.023 C 
BRANCH  35  36
ATOM     36  C   UNL A   1      36.490  22.171  24.432  1.00  0.00     0.023 C 
BRANCH  36  37
ATOM     37  C   UNL A   1      37.516  22.978  25.224  1.00  0.00     0.116 C 
BRANCH  37  38
ATOM     38  N   UNL A   1      38.706  22.218  25.578  1.00  0.00    -0.352 N 
ATOM     39  C   UNL A   1      39.828  22.623  26.268  1.00  0.00     0.251 C 
ATOM     40  H   UNL A   1      38.710  21.280  25.281  1.00  0.00     0.163 HD
ATOM     41  O   UNL A   1      40.768  21.857  26.413  1.00  0.00    -0.269 OA
BRANCH  39  42
ATOM     42  C   UNL A   1      39.899  24.010  26.780  1.00  0.00     0.039 A 
ATOM     43  C   UNL A   1      39.436  24.273  28.073  1.00  0.00     0.014 A 
ATOM     44  C   UNL A   1      40.484  25.026  26.022  1.00  0.00     0.014 A 
ATOM     45  C   UNL A   1      39.649  25.533  28.638  1.00  0.00     0.010 A 
ATOM     46  C   UNL A   1      40.769  26.252  26.617  1.00  0.00     0.010 A 
ATOM     47  C   UNL A   1      40.365  26.516  27.935  1.00  0.00    -0.014 A 
BRANCH  47  48
ATOM     48  C   UNL A   1      40.728  27.811  28.569  1.00  0.00     0.031 A 
ATOM     49  C   UNL A   1      42.114  28.033  29.107  1.00  0.00     0.074 A 
ATOM     50  C   UNL A   1      39.786  28.765  28.729  1.00  0.00     0.049 A 
ATOM     51  N   UNL A   1      42.597  29.072  29.743  1.00  0.00    -0.248 NA
ATOM     52  C   UNL A   1      43.078  26.934  28.936  1.00  0.00     0.031 C 
ATOM     53  C   UNL A   1      38.390  28.661  28.299  1.00  0.00     0.029 A 
ATOM     54  N   UNL A   1      39.864  30.008  29.304  1.00  0.00    -0.354 N 
ATOM     55  C   UNL A   1      43.909  28.746  30.058  1.00  0.00     0.074 A 
ATOM     56  C   UNL A   1      44.131  27.393  29.594  1.00  0.00     0.031 C 
ATOM     57  C   UNL A   1      37.753  29.806  28.596  1.00  0.00     0.029 A 
ATOM     58  C   UNL A   1      38.679  30.706  29.274  1.00  0.00     0.049 A 
ATOM     59  H   UNL A   1      40.690  30.369  29.701  1.00  0.00     0.167 HD
ATOM     60  C   UNL A   1      44.854  29.507  30.659  1.00  0.00     0.031 A 
ATOM     61  C   UNL A   1      38.369  31.930  29.743  1.00  0.00     0.031 A 
ATOM     62  C   UNL A   1      44.641  30.855  31.113  1.00  0.00     0.049 A 
ATOM     63  C   UNL A   1      39.432  32.751  30.419  1.00  0.00     0.074 A 
ATOM     64  C   UNL A   1      45.555  31.728  31.680  1.00  0.00     0.029 A 
ATOM     65  N   UNL A   1      43.430  31.525  31.057  1.00  0.00    -0.354 N 
ATOM     66  N   UNL A   1      40.690  32.454  30.641  1.00  0.00    -0.248 NA
ATOM     67  C   UNL A   1      39.033  34.081  30.901  1.00  0.00     0.031 C 
ATOM     68  C   UNL A   1      44.882  32.907  32.015  1.00  0.00     0.029 A 
ATOM     69  C   UNL A   1      43.565  32.791  31.603  1.00  0.00     0.049 A 
ATOM     70  H   UNL A   1      42.596  31.156  30.684  1.00  0.00     0.167 HD
ATOM     71  C   UNL A   1      41.238  33.569  31.260  1.00  0.00     0.074 A 
ATOM     72  C   UNL A   1      40.182  34.554  31.364  1.00  0.00     0.031 C 
ATOM     73  C   UNL A   1      42.505  33.761  31.702  1.00  0.00     0.031 A 
BRANCH  60  74
ATOM     74  C   UNL A   1      46.210  28.891  30.866  1.00  0.00    -0.014 A 
ATOM     75  C   UNL A   1      46.560  28.297  32.090  1.00  0.00     0.009 A 
ATOM     76  C   UNL A   1      47.139  28.873  29.814  1.00  0.00     0.009 A 
ATOM     77  C   UNL A   1      47.826  27.734  32.267  1.00  0.00     0.001 A 
ATOM     78  C   UNL A   1      48.392  28.283  29.985  1.00  0.00     0.001 A 
ATOM     79  C   UNL A   1      48.739  27.723  31.214  1.00  0.00     0.000 A 
ENDBRANCH  60  74
BRANCH  61  80
ATOM     80  C   UNL A   1      36.993  32.468  29.575  1.00  0.00    -0.014 A 
ATOM     81  C   UNL A   1      36.634  33.149  28.402  1.00  0.00     0.009 A 
ATOM     82  C   UNL A   1      36.036  32.314  30.590  1.00  0.00     0.009 A 
ATOM     83  C   UNL A   1      35.354  33.690  28.259  1.00  0.00     0.001 A 
ATOM     84  C   UNL A   1      34.747  32.830  30.433  1.00  0.00     0.001 A 
ATOM     85  C   UNL A   1      34.410  33.526  29.273  1.00  0.00     0.000 A 
ENDBRANCH  61  80
BRANCH  73  86
ATOM     86  C   UNL A   1      42.830  35.099  32.306  1.00  0.00    -0.014 A 
ATOM     87  C   UNL A   1      43.473  36.100  31.563  1.00  0.00     0.009 A 
ATOM     88  C   UNL A   1      42.449  35.372  33.630  1.00  0.00     0.009 A 
ATOM     89  C   UNL A   1      43.759  37.337  32.144  1.00  0.00     0.001 A 
ATOM     90  C   UNL A   1      42.709  36.620  34.198  1.00  0.00     0.001 A 
ATOM     91  C   UNL A   1      43.372  37.598  33.459  1.00  0.00     0.000 A 
ENDBRANCH  73  86
ENDBRANCH  47  48
ENDBRANCH  39  42
ENDBRANCH  37  38
ENDBRANCH  36  37
ENDBRANCH  35  36
ENDBRANCH   1  35
TORSDOF 16
ENDMDL
