MODEL 1
REMARK VINA RESULT:     -12.3      0.000      0.000
REMARK SMILES Cc1cccc(Cn2c(=O)c3sccc3n(CC(=O)NCCCCNC(=O)c3ccc(-c4c5nc(c(-c6ccccc6)c6ccc([nH]6)c(-c6ccccc6)c6nc(c(-c7ccccc7)c7ccc4[nH]7)C=C6)C=C5)cc3)c2=O)c1
REMARK SMILES IDX 22 1 21 2 20 3 18 4 19 5 17 7 16 8 8 9 9 10 76 11 10 12
REMARK SMILES IDX 11 13 77 14 12 15 15 16 13 17 14 18 7 19 6 20 1 21 2 22 3 23
REMARK SMILES IDX 78 24 4 25 5 26 23 27 24 28 25 29 26 30 27 32 28 33 29 34
REMARK SMILES IDX 75 35 30 36 74 37 31 38 32 39 33 40 68 41 34 42 73 43 67 44
REMARK SMILES IDX 69 45 35 46 72 47 66 48 65 49 36 51 58 52 43 53 57 54 44 55
REMARK SMILES IDX 47 56 56 57 70 58 45 59 46 60 55 62 71 63 48 64 37 65 38 66
REMARK SMILES IDX 42 67 39 68 41 69 40 70 59 71 60 72 64 73 61 74 63 75 62 76
REMARK SMILES IDX 49 77 50 78 54 79 51 80 53 81 52 82
REMARK H PARENT 20 6 25 31 69 50 47 61
REMARK Flexibility Score: inf
ROOT
ATOM      1  C   UNL A   1      36.421  21.591  24.539  1.00  0.00     0.023 C 
ENDROOT
BRANCH   1   2
ATOM      2  C   UNL A   1      35.313  20.848  25.302  1.00  0.00     0.116 C 
BRANCH   2   3
ATOM      3  N   UNL A   1      34.986  21.453  26.579  1.00  0.00    -0.355 N 
ATOM      4  C   UNL A   1      33.816  21.988  27.031  1.00  0.00     0.240 C 
ATOM      5  O   UNL A   1      33.761  22.296  28.227  1.00  0.00    -0.273 OA
ATOM      6  H   UNL A   1      35.728  21.482  27.224  1.00  0.00     0.163 HD
BRANCH   4   7
ATOM      7  C   UNL A   1      32.575  22.119  26.144  1.00  0.00     0.227 C 
BRANCH   7   8
ATOM      8  N   UNL A   1      32.432  23.417  25.478  1.00  0.00    -0.283 N 
ATOM      9  N   UNL A   1      31.779  25.719  25.589  1.00  0.00    -0.254 N 
ATOM     10  C   UNL A   1      32.066  25.970  24.237  1.00  0.00     0.274 A 
ATOM     11  C   UNL A   1      31.921  24.483  26.220  1.00  0.00     0.332 A 
ATOM     12  O   UNL A   1      31.866  27.048  23.704  1.00  0.00    -0.268 OA
ATOM     13  C   UNL A   1      32.569  24.809  23.543  1.00  0.00     0.116 A 
ATOM     14  O   UNL A   1      31.549  24.304  27.383  1.00  0.00    -0.247 OA
ATOM     15  S   UNL A   1      32.944  24.805  21.885  1.00  0.00    -0.136 S 
ATOM     16  C   UNL A   1      32.753  23.589  24.132  1.00  0.00     0.070 A 
ATOM     17  C   UNL A   1      33.383  23.150  21.939  1.00  0.00     0.068 A 
ATOM     18  C   UNL A   1      33.248  22.623  23.207  1.00  0.00     0.039 A 
BRANCH   9  19
ATOM     19  C   UNL A   1      31.144  26.794  26.352  1.00  0.00     0.166 C 
BRANCH  19  20
ATOM     20  C   UNL A   1      32.026  28.004  26.587  1.00  0.00    -0.028 A 
ATOM     21  C   UNL A   1      31.751  31.807  26.795  1.00  0.00     0.044 C 
ATOM     22  C   UNL A   1      32.314  30.417  26.790  1.00  0.00    -0.051 A 
ATOM     23  C   UNL A   1      33.676  30.231  27.054  1.00  0.00     0.003 A 
ATOM     24  C   UNL A   1      31.501  29.302  26.527  1.00  0.00     0.009 A 
ATOM     25  C   UNL A   1      34.211  28.950  27.112  1.00  0.00     0.001 A 
ATOM     26  C   UNL A   1      33.385  27.848  26.907  1.00  0.00     0.005 A 
ENDBRANCH  19  20
ENDBRANCH   9  19
ENDBRANCH   7   8
ENDBRANCH   4   7
ENDBRANCH   2   3
ENDBRANCH   1   2
BRANCH   1  27
ATOM     27  C   UNL A   1      37.837  21.405  25.093  1.00  0.00     0.023 C 
BRANCH  27  28
ATOM     28  C   UNL A   1      38.346  22.594  25.892  1.00  0.00     0.116 C 
BRANCH  28  29
ATOM     29  N   UNL A   1      39.756  22.554  26.247  1.00  0.00    -0.352 N 
ATOM     30  C   UNL A   1      40.594  23.586  26.638  1.00  0.00     0.251 C 
ATOM     31  H   UNL A   1      40.177  21.666  26.202  1.00  0.00     0.163 HD
ATOM     32  O   UNL A   1      41.794  23.367  26.778  1.00  0.00    -0.269 OA
BRANCH  30  33
ATOM     33  C   UNL A   1      40.036  24.908  27.037  1.00  0.00     0.039 A 
ATOM     34  C   UNL A   1      40.480  26.039  26.338  1.00  0.00     0.014 A 
ATOM     35  C   UNL A   1      39.289  25.072  28.198  1.00  0.00     0.014 A 
ATOM     36  C   UNL A   1      40.430  27.289  26.950  1.00  0.00     0.010 A 
ATOM     37  C   UNL A   1      39.345  26.280  28.862  1.00  0.00     0.010 A 
ATOM     38  C   UNL A   1      39.979  27.369  28.265  1.00  0.00    -0.014 A 
BRANCH  38  39
ATOM     39  C   UNL A   1      40.221  28.512  29.132  1.00  0.00     0.031 A 
ATOM     40  C   UNL A   1      39.170  29.523  29.336  1.00  0.00     0.074 A 
ATOM     41  C   UNL A   1      41.394  28.615  29.791  1.00  0.00     0.049 A 
ATOM     42  N   UNL A   1      39.406  30.758  29.626  1.00  0.00    -0.248 NA
ATOM     43  C   UNL A   1      37.752  29.222  29.187  1.00  0.00     0.031 C 
ATOM     44  C   UNL A   1      41.741  29.539  30.867  1.00  0.00     0.029 A 
ATOM     45  N   UNL A   1      42.600  28.012  29.482  1.00  0.00    -0.354 N 
ATOM     46  C   UNL A   1      38.208  31.324  29.992  1.00  0.00     0.074 A 
ATOM     47  C   UNL A   1      37.200  30.359  29.619  1.00  0.00     0.031 C 
ATOM     48  C   UNL A   1      43.080  29.620  30.957  1.00  0.00     0.029 A 
ATOM     49  C   UNL A   1      43.643  28.861  29.851  1.00  0.00     0.049 A 
ATOM     50  H   UNL A   1      42.705  27.126  29.067  1.00  0.00     0.167 HD
ATOM     51  C   UNL A   1      38.202  32.479  30.714  1.00  0.00     0.031 A 
ATOM     52  C   UNL A   1      44.490  29.376  28.909  1.00  0.00     0.031 A 
ATOM     53  C   UNL A   1      39.554  32.980  30.947  1.00  0.00     0.049 A 
ATOM     54  C   UNL A   1      44.380  30.882  28.758  1.00  0.00     0.074 A 
ATOM     55  C   UNL A   1      40.412  32.890  32.032  1.00  0.00     0.029 A 
ATOM     56  N   UNL A   1      40.326  33.394  29.868  1.00  0.00    -0.354 N 
ATOM     57  N   UNL A   1      43.391  31.592  29.227  1.00  0.00    -0.248 NA
ATOM     58  C   UNL A   1      45.355  31.701  28.042  1.00  0.00     0.031 C 
ATOM     59  C   UNL A   1      41.726  33.175  31.577  1.00  0.00     0.029 A 
ATOM     60  C   UNL A   1      41.659  33.471  30.226  1.00  0.00     0.049 A 
ATOM     61  H   UNL A   1      39.972  33.602  28.974  1.00  0.00     0.167 HD
ATOM     62  C   UNL A   1      43.567  32.910  28.896  1.00  0.00     0.074 A 
ATOM     63  C   UNL A   1      44.820  32.930  28.164  1.00  0.00     0.031 C 
ATOM     64  C   UNL A   1      42.660  33.869  29.246  1.00  0.00     0.031 A 
BRANCH  51  65
ATOM     65  C   UNL A   1      36.985  32.965  31.460  1.00  0.00    -0.014 A 
ATOM     66  C   UNL A   1      36.626  32.357  32.678  1.00  0.00     0.009 A 
ATOM     67  C   UNL A   1      36.126  33.976  30.998  1.00  0.00     0.009 A 
ATOM     68  C   UNL A   1      35.429  32.666  33.337  1.00  0.00     0.001 A 
ATOM     69  C   UNL A   1      34.907  34.260  31.628  1.00  0.00     0.001 A 
ATOM     70  C   UNL A   1      34.553  33.595  32.794  1.00  0.00     0.000 A 
ENDBRANCH  51  65
BRANCH  52  71
ATOM     71  C   UNL A   1      44.778  28.422  27.799  1.00  0.00    -0.014 A 
ATOM     72  C   UNL A   1      45.425  27.212  28.126  1.00  0.00     0.009 A 
ATOM     73  C   UNL A   1      44.091  28.503  26.580  1.00  0.00     0.009 A 
ATOM     74  C   UNL A   1      45.273  26.078  27.323  1.00  0.00     0.001 A 
ATOM     75  C   UNL A   1      43.953  27.366  25.772  1.00  0.00     0.001 A 
ATOM     76  C   UNL A   1      44.507  26.146  26.163  1.00  0.00     0.000 A 
ENDBRANCH  52  71
BRANCH  64  77
ATOM     77  C   UNL A   1      42.644  35.300  28.764  1.00  0.00    -0.014 A 
ATOM     78  C   UNL A   1      43.132  36.387  29.499  1.00  0.00     0.009 A 
ATOM     79  C   UNL A   1      42.242  35.564  27.434  1.00  0.00     0.009 A 
ATOM     80  C   UNL A   1      43.177  37.677  28.948  1.00  0.00     0.001 A 
ATOM     81  C   UNL A   1      42.330  36.837  26.866  1.00  0.00     0.001 A 
ATOM     82  C   UNL A   1      42.788  37.898  27.630  1.00  0.00     0.000 A 
ENDBRANCH  64  77
ENDBRANCH  38  39
ENDBRANCH  30  33
ENDBRANCH  28  29
ENDBRANCH  27  28
ENDBRANCH   1  27
TORSDOF 14
ENDMDL
MODEL 2
REMARK VINA RESULT:     -11.9      1.823      3.153
REMARK SMILES Cc1cccc(Cn2c(=O)c3sccc3n(CC(=O)NCCCCNC(=O)c3ccc(-c4c5nc(c(-c6ccccc6)c6ccc([nH]6)c(-c6ccccc6)c6nc(c(-c7ccccc7)c7ccc4[nH]7)C=C6)C=C5)cc3)c2=O)c1
REMARK SMILES IDX 22 1 21 2 20 3 18 4 19 5 17 7 16 8 8 9 9 10 76 11 10 12
REMARK SMILES IDX 11 13 77 14 12 15 15 16 13 17 14 18 7 19 6 20 1 21 2 22 3 23
REMARK SMILES IDX 78 24 4 25 5 26 23 27 24 28 25 29 26 30 27 32 28 33 29 34
REMARK SMILES IDX 75 35 30 36 74 37 31 38 32 39 33 40 68 41 34 42 73 43 67 44
REMARK SMILES IDX 69 45 35 46 72 47 66 48 65 49 36 51 58 52 43 53 57 54 44 55
REMARK SMILES IDX 47 56 56 57 70 58 45 59 46 60 55 62 71 63 48 64 37 65 38 66
REMARK SMILES IDX 42 67 39 68 41 69 40 70 59 71 60 72 64 73 61 74 63 75 62 76
REMARK SMILES IDX 49 77 50 78 54 79 51 80 53 81 52 82
REMARK H PARENT 20 6 25 31 69 50 47 61
REMARK Flexibility Score: inf
ROOT
ATOM      1  C   UNL A   1      36.793  23.288  26.126  1.00  0.00     0.023 C 
ENDROOT
BRANCH   1   2
ATOM      2  C   UNL A   1      35.468  22.532  25.932  1.00  0.00     0.116 C 
BRANCH   2   3
ATOM      3  N   UNL A   1      34.630  22.523  27.116  1.00  0.00    -0.355 N 
ATOM      4  C   UNL A   1      33.273  22.495  27.239  1.00  0.00     0.240 C 
ATOM      5  O   UNL A   1      32.812  22.329  28.374  1.00  0.00    -0.273 OA
ATOM      6  H   UNL A   1      35.121  22.538  27.968  1.00  0.00     0.163 HD
BRANCH   4   7
ATOM      7  C   UNL A   1      32.336  22.561  26.029  1.00  0.00     0.227 C 
BRANCH   7   8
ATOM      8  N   UNL A   1      32.259  23.876  25.386  1.00  0.00    -0.283 N 
ATOM      9  N   UNL A   1      31.699  26.201  25.528  1.00  0.00    -0.254 N 
ATOM     10  C   UNL A   1      32.021  26.464  24.187  1.00  0.00     0.274 A 
ATOM     11  C   UNL A   1      31.779  24.949  26.139  1.00  0.00     0.332 A 
ATOM     12  O   UNL A   1      31.875  27.559  23.671  1.00  0.00    -0.268 OA
ATOM     13  C   UNL A   1      32.488  25.296  23.479  1.00  0.00     0.116 A 
ATOM     14  O   UNL A   1      31.379  24.764  27.291  1.00  0.00    -0.247 OA
ATOM     15  S   UNL A   1      32.892  25.307  21.829  1.00  0.00    -0.136 S 
ATOM     16  C   UNL A   1      32.611  24.059  24.049  1.00  0.00     0.070 A 
ATOM     17  C   UNL A   1      33.262  23.634  21.859  1.00  0.00     0.068 A 
ATOM     18  C   UNL A   1      33.083  23.090  23.115  1.00  0.00     0.039 A 
BRANCH   9  19
ATOM     19  C   UNL A   1      31.095  27.287  26.301  1.00  0.00     0.166 C 
BRANCH  19  20
ATOM     20  C   UNL A   1      32.040  28.428  26.625  1.00  0.00    -0.028 A 
ATOM     21  C   UNL A   1      35.680  28.992  27.632  1.00  0.00     0.044 C 
ATOM     22  C   UNL A   1      34.245  29.242  27.274  1.00  0.00    -0.051 A 
ATOM     23  C   UNL A   1      33.781  30.560  27.193  1.00  0.00     0.003 A 
ATOM     24  C   UNL A   1      33.362  28.180  27.019  1.00  0.00     0.009 A 
ATOM     25  C   UNL A   1      32.472  30.820  26.807  1.00  0.00     0.001 A 
ATOM     26  C   UNL A   1      31.620  29.762  26.500  1.00  0.00     0.005 A 
ENDBRANCH  19  20
ENDBRANCH   9  19
ENDBRANCH   7   8
ENDBRANCH   4   7
ENDBRANCH   2   3
ENDBRANCH   1   2
BRANCH   1  27
ATOM     27  C   UNL A   1      38.012  22.661  25.442  1.00  0.00     0.023 C 
BRANCH  27  28
ATOM     28  C   UNL A   1      39.198  22.453  26.370  1.00  0.00     0.116 C 
BRANCH  28  29
ATOM     29  N   UNL A   1      40.021  21.288  26.083  1.00  0.00    -0.352 N 
ATOM     30  C   UNL A   1      41.396  21.143  26.160  1.00  0.00     0.251 C 
ATOM     31  H   UNL A   1      39.530  20.486  25.793  1.00  0.00     0.163 HD
ATOM     32  O   UNL A   1      41.917  20.106  25.755  1.00  0.00    -0.269 OA
BRANCH  30  33
ATOM     33  C   UNL A   1      42.230  22.158  26.862  1.00  0.00     0.039 A 
ATOM     34  C   UNL A   1      42.296  22.092  28.260  1.00  0.00     0.014 A 
ATOM     35  C   UNL A   1      42.739  23.274  26.206  1.00  0.00     0.014 A 
ATOM     36  C   UNL A   1      42.591  23.240  28.991  1.00  0.00     0.010 A 
ATOM     37  C   UNL A   1      42.912  24.443  26.917  1.00  0.00     0.010 A 
ATOM     38  C   UNL A   1      42.768  24.438  28.303  1.00  0.00    -0.014 A 
BRANCH  38  39
ATOM     39  C   UNL A   1      42.707  25.747  28.937  1.00  0.00     0.031 A 
ATOM     40  C   UNL A   1      41.507  26.586  28.789  1.00  0.00     0.074 A 
ATOM     41  C   UNL A   1      43.736  26.167  29.703  1.00  0.00     0.049 A 
ATOM     42  N   UNL A   1      41.518  27.875  28.843  1.00  0.00    -0.248 NA
ATOM     43  C   UNL A   1      40.186  26.027  28.528  1.00  0.00     0.031 C 
ATOM     44  C   UNL A   1      43.775  27.321  30.597  1.00  0.00     0.029 A 
ATOM     45  N   UNL A   1      45.047  25.730  29.682  1.00  0.00    -0.354 N 
ATOM     46  C   UNL A   1      40.210  28.289  28.928  1.00  0.00     0.074 A 
ATOM     47  C   UNL A   1      39.418  27.115  28.640  1.00  0.00     0.031 C 
ATOM     48  C   UNL A   1      45.058  27.642  30.838  1.00  0.00     0.029 A 
ATOM     49  C   UNL A   1      45.889  26.796  29.995  1.00  0.00     0.049 A 
ATOM     50  H   UNL A   1      45.340  24.812  29.477  1.00  0.00     0.167 HD
ATOM     51  C   UNL A   1      39.928  29.540  29.386  1.00  0.00     0.031 A 
ATOM     52  C   UNL A   1      46.794  27.262  29.082  1.00  0.00     0.031 A 
ATOM     53  C   UNL A   1      41.143  30.297  29.679  1.00  0.00     0.049 A 
ATOM     54  C   UNL A   1      46.500  28.673  28.607  1.00  0.00     0.074 A 
ATOM     55  C   UNL A   1      41.822  30.557  30.859  1.00  0.00     0.029 A 
ATOM     56  N   UNL A   1      42.010  30.627  28.644  1.00  0.00    -0.354 N 
ATOM     57  N   UNL A   1      45.360  29.281  28.788  1.00  0.00    -0.248 NA
ATOM     58  C   UNL A   1      47.451  29.497  27.865  1.00  0.00     0.031 C 
ATOM     59  C   UNL A   1      43.139  30.970  30.525  1.00  0.00     0.029 A 
ATOM     60  C   UNL A   1      43.245  30.993  29.145  1.00  0.00     0.049 A 
ATOM     61  H   UNL A   1      41.776  30.603  27.689  1.00  0.00     0.167 HD
ATOM     62  C   UNL A   1      45.399  30.525  28.215  1.00  0.00     0.074 A 
ATOM     63  C   UNL A   1      46.737  30.620  27.660  1.00  0.00     0.031 C 
ATOM     64  C   UNL A   1      44.324  31.365  28.239  1.00  0.00     0.031 A 
BRANCH  51  65
ATOM     65  C   UNL A   1      38.553  29.945  29.854  1.00  0.00    -0.014 A 
ATOM     66  C   UNL A   1      38.022  31.188  29.464  1.00  0.00     0.009 A 
ATOM     67  C   UNL A   1      37.754  29.175  30.716  1.00  0.00     0.009 A 
ATOM     68  C   UNL A   1      36.818  31.678  29.986  1.00  0.00     0.001 A 
ATOM     69  C   UNL A   1      36.570  29.675  31.277  1.00  0.00     0.001 A 
ATOM     70  C   UNL A   1      36.108  30.934  30.919  1.00  0.00     0.000 A 
ENDBRANCH  51  65
BRANCH  52  71
ATOM     71  C   UNL A   1      47.385  26.181  28.241  1.00  0.00    -0.014 A 
ATOM     72  C   UNL A   1      46.810  25.946  26.975  1.00  0.00     0.009 A 
ATOM     73  C   UNL A   1      48.680  25.702  28.485  1.00  0.00     0.009 A 
ATOM     74  C   UNL A   1      47.558  25.373  25.943  1.00  0.00     0.001 A 
ATOM     75  C   UNL A   1      49.421  25.116  27.449  1.00  0.00     0.001 A 
ATOM     76  C   UNL A   1      48.876  24.990  26.171  1.00  0.00     0.000 A 
ENDBRANCH  52  71
BRANCH  64  77
ATOM     77  C   UNL A   1      44.183  32.658  27.471  1.00  0.00    -0.014 A 
ATOM     78  C   UNL A   1      44.248  32.759  26.076  1.00  0.00     0.009 A 
ATOM     79  C   UNL A   1      43.825  33.831  28.175  1.00  0.00     0.009 A 
ATOM     80  C   UNL A   1      44.010  33.977  25.422  1.00  0.00     0.001 A 
ATOM     81  C   UNL A   1      43.539  35.034  27.525  1.00  0.00     0.001 A 
ATOM     82  C   UNL A   1      43.643  35.110  26.146  1.00  0.00     0.000 A 
ENDBRANCH  64  77
ENDBRANCH  38  39
ENDBRANCH  30  33
ENDBRANCH  28  29
ENDBRANCH  27  28
ENDBRANCH   1  27
TORSDOF 14
ENDMDL
MODEL 3
REMARK VINA RESULT:     -11.8      3.651      8.513
REMARK SMILES Cc1cccc(Cn2c(=O)c3sccc3n(CC(=O)NCCCCNC(=O)c3ccc(-c4c5nc(c(-c6ccccc6)c6ccc([nH]6)c(-c6ccccc6)c6nc(c(-c7ccccc7)c7ccc4[nH]7)C=C6)C=C5)cc3)c2=O)c1
REMARK SMILES IDX 22 1 21 2 20 3 18 4 19 5 17 7 16 8 8 9 9 10 76 11 10 12
REMARK SMILES IDX 11 13 77 14 12 15 15 16 13 17 14 18 7 19 6 20 1 21 2 22 3 23
REMARK SMILES IDX 78 24 4 25 5 26 23 27 24 28 25 29 26 30 27 32 28 33 29 34
REMARK SMILES IDX 75 35 30 36 74 37 31 38 32 39 33 40 68 41 34 42 73 43 67 44
REMARK SMILES IDX 69 45 35 46 72 47 66 48 65 49 36 51 58 52 43 53 57 54 44 55
REMARK SMILES IDX 47 56 56 57 70 58 45 59 46 60 55 62 71 63 48 64 37 65 38 66
REMARK SMILES IDX 42 67 39 68 41 69 40 70 59 71 60 72 64 73 61 74 63 75 62 76
REMARK SMILES IDX 49 77 50 78 54 79 51 80 53 81 52 82
REMARK H PARENT 20 6 25 31 69 50 47 61
REMARK Flexibility Score: inf
ROOT
ATOM      1  C   UNL A   1      34.825  30.841  28.003  1.00  0.00     0.023 C 
ENDROOT
BRANCH   1   2
ATOM      2  C   UNL A   1      33.528  30.886  27.179  1.00  0.00     0.116 C 
BRANCH   2   3
ATOM      3  N   UNL A   1      32.547  29.901  27.592  1.00  0.00    -0.355 N 
ATOM      4  C   UNL A   1      32.500  28.556  27.379  1.00  0.00     0.240 C 
ATOM      5  O   UNL A   1      31.628  27.918  27.981  1.00  0.00    -0.273 OA
ATOM      6  H   UNL A   1      31.792  30.263  28.109  1.00  0.00     0.163 HD
BRANCH   4   7
ATOM      7  C   UNL A   1      33.533  27.823  26.518  1.00  0.00     0.227 C 
BRANCH   7   8
ATOM      8  N   UNL A   1      32.985  27.174  25.323  1.00  0.00    -0.283 N 
ATOM      9  N   UNL A   1      32.031  27.375  23.135  1.00  0.00    -0.254 N 
ATOM     10  C   UNL A   1      31.849  25.991  22.977  1.00  0.00     0.274 A 
ATOM     11  C   UNL A   1      32.557  27.988  24.273  1.00  0.00     0.332 A 
ATOM     12  O   UNL A   1      31.324  25.498  21.994  1.00  0.00    -0.268 OA
ATOM     13  C   UNL A   1      32.300  25.230  24.118  1.00  0.00     0.116 A 
ATOM     14  O   UNL A   1      32.590  29.216  24.389  1.00  0.00    -0.247 OA
ATOM     15  S   UNL A   1      32.149  23.541  24.229  1.00  0.00    -0.136 S 
ATOM     16  C   UNL A   1      32.850  25.789  25.238  1.00  0.00     0.070 A 
ATOM     17  C   UNL A   1      32.847  23.533  25.793  1.00  0.00     0.068 A 
ATOM     18  C   UNL A   1      33.191  24.803  26.209  1.00  0.00     0.039 A 
BRANCH   9  19
ATOM     19  C   UNL A   1      31.491  28.247  22.091  1.00  0.00     0.166 C 
BRANCH  19  20
ATOM     20  C   UNL A   1      30.108  28.796  22.384  1.00  0.00    -0.028 A 
ATOM     21  C   UNL A   1      28.036  31.941  21.756  1.00  0.00     0.044 C 
ATOM     22  C   UNL A   1      28.454  30.580  22.228  1.00  0.00    -0.051 A 
ATOM     23  C   UNL A   1      27.530  29.782  22.913  1.00  0.00     0.003 A 
ATOM     24  C   UNL A   1      29.750  30.093  21.994  1.00  0.00     0.009 A 
ATOM     25  C   UNL A   1      27.873  28.495  23.309  1.00  0.00     0.001 A 
ATOM     26  C   UNL A   1      29.143  28.001  23.022  1.00  0.00     0.005 A 
ENDBRANCH  19  20
ENDBRANCH   9  19
ENDBRANCH   7   8
ENDBRANCH   4   7
ENDBRANCH   2   3
ENDBRANCH   1   2
BRANCH   1  27
ATOM     27  C   UNL A   1      34.863  31.771  29.219  1.00  0.00     0.023 C 
BRANCH  27  28
ATOM     28  C   UNL A   1      34.611  33.232  28.884  1.00  0.00     0.116 C 
BRANCH  28  29
ATOM     29  N   UNL A   1      33.854  33.982  29.875  1.00  0.00    -0.352 N 
ATOM     30  C   UNL A   1      34.154  34.236  31.203  1.00  0.00     0.251 C 
ATOM     31  H   UNL A   1      33.005  34.364  29.555  1.00  0.00     0.163 HD
ATOM     32  O   UNL A   1      33.319  34.791  31.913  1.00  0.00    -0.269 OA
BRANCH  30  33
ATOM     33  C   UNL A   1      35.522  33.985  31.735  1.00  0.00     0.039 A 
ATOM     34  C   UNL A   1      36.583  34.706  31.170  1.00  0.00     0.014 A 
ATOM     35  C   UNL A   1      35.797  32.920  32.586  1.00  0.00     0.014 A 
ATOM     36  C   UNL A   1      37.874  34.187  31.222  1.00  0.00     0.010 A 
ATOM     37  C   UNL A   1      37.045  32.335  32.540  1.00  0.00     0.010 A 
ATOM     38  C   UNL A   1      38.063  32.933  31.799  1.00  0.00    -0.014 A 
BRANCH  38  39
ATOM     39  C   UNL A   1      39.253  32.123  31.592  1.00  0.00     0.031 A 
ATOM     40  C   UNL A   1      39.187  30.905  30.767  1.00  0.00     0.074 A 
ATOM     41  C   UNL A   1      40.432  32.519  32.117  1.00  0.00     0.049 A 
ATOM     42  N   UNL A   1      39.965  29.888  30.919  1.00  0.00    -0.248 NA
ATOM     43  C   UNL A   1      38.194  30.724  29.714  1.00  0.00     0.031 C 
ATOM     44  C   UNL A   1      41.762  31.986  31.839  1.00  0.00     0.029 A 
ATOM     45  N   UNL A   1      40.645  33.381  33.177  1.00  0.00    -0.354 N 
ATOM     46  C   UNL A   1      39.787  29.073  29.826  1.00  0.00     0.074 A 
ATOM     47  C   UNL A   1      38.618  29.588  29.153  1.00  0.00     0.031 C 
ATOM     48  C   UNL A   1      42.591  32.336  32.838  1.00  0.00     0.029 A 
ATOM     49  C   UNL A   1      41.790  32.985  33.866  1.00  0.00     0.049 A 
ATOM     50  H   UNL A   1      40.077  34.152  33.408  1.00  0.00     0.167 HD
ATOM     51  C   UNL A   1      40.736  28.146  29.517  1.00  0.00     0.031 A 
ATOM     52  C   UNL A   1      41.713  32.568  35.166  1.00  0.00     0.031 A 
ATOM     53  C   UNL A   1      41.826  28.139  30.489  1.00  0.00     0.049 A 
ATOM     54  C   UNL A   1      42.060  31.103  35.352  1.00  0.00     0.074 A 
ATOM     55  C   UNL A   1      43.090  28.707  30.484  1.00  0.00     0.029 A 
ATOM     56  N   UNL A   1      41.567  27.765  31.803  1.00  0.00    -0.354 N 
ATOM     57  N   UNL A   1      42.126  30.238  34.376  1.00  0.00    -0.248 NA
ATOM     58  C   UNL A   1      42.331  30.489  36.649  1.00  0.00     0.031 C 
ATOM     59  C   UNL A   1      43.559  28.747  31.823  1.00  0.00     0.029 A 
ATOM     60  C   UNL A   1      42.595  28.172  32.633  1.00  0.00     0.049 A 
ATOM     61  H   UNL A   1      40.765  27.279  32.099  1.00  0.00     0.167 HD
ATOM     62  C   UNL A   1      42.427  28.998  34.873  1.00  0.00     0.074 A 
ATOM     63  C   UNL A   1      42.560  29.208  36.302  1.00  0.00     0.031 C 
ATOM     64  C   UNL A   1      42.533  27.903  34.064  1.00  0.00     0.031 A 
BRANCH  51  65
ATOM     65  C   UNL A   1      40.810  27.479  28.166  1.00  0.00    -0.014 A 
ATOM     66  C   UNL A   1      40.008  26.354  27.900  1.00  0.00     0.009 A 
ATOM     67  C   UNL A   1      41.681  27.874  27.137  1.00  0.00     0.009 A 
ATOM     68  C   UNL A   1      40.142  25.608  26.722  1.00  0.00     0.001 A 
ATOM     69  C   UNL A   1      41.853  27.109  25.974  1.00  0.00     0.001 A 
ATOM     70  C   UNL A   1      41.089  25.968  25.772  1.00  0.00     0.000 A 
ENDBRANCH  51  65
BRANCH  52  71
ATOM     71  C   UNL A   1      40.692  33.314  35.958  1.00  0.00    -0.014 A 
ATOM     72  C   UNL A   1      39.422  32.722  36.112  1.00  0.00     0.009 A 
ATOM     73  C   UNL A   1      41.069  34.327  36.850  1.00  0.00     0.009 A 
ATOM     74  C   UNL A   1      38.611  33.039  37.206  1.00  0.00     0.001 A 
ATOM     75  C   UNL A   1      40.247  34.650  37.938  1.00  0.00     0.001 A 
ATOM     76  C   UNL A   1      39.040  33.978  38.139  1.00  0.00     0.000 A 
ENDBRANCH  52  71
BRANCH  64  77
ATOM     77  C   UNL A   1      42.653  26.468  34.516  1.00  0.00    -0.014 A 
ATOM     78  C   UNL A   1      41.674  25.784  35.248  1.00  0.00     0.009 A 
ATOM     79  C   UNL A   1      43.754  25.703  34.065  1.00  0.00     0.009 A 
ATOM     80  C   UNL A   1      41.809  24.421  35.549  1.00  0.00     0.001 A 
ATOM     81  C   UNL A   1      43.869  24.335  34.321  1.00  0.00     0.001 A 
ATOM     82  C   UNL A   1      42.898  23.695  35.075  1.00  0.00     0.000 A 
ENDBRANCH  64  77
ENDBRANCH  38  39
ENDBRANCH  30  33
ENDBRANCH  28  29
ENDBRANCH  27  28
ENDBRANCH   1  27
TORSDOF 14
ENDMDL
