MODEL 1
REMARK VINA RESULT:     -13.1      0.000      0.000
REMARK SMILES O=C(NCCCCNC(=O)[C@@H]1CCCN1S(=O)(=O)c1ccc2c3c(cccc13)C(=O)N2)c1ccc(-c2c3nc(c(-c4ccccc4)c4ccc([nH]4)c(-c4ccccc4)c4nc(c(-c5ccccc5)c5ccc2[nH]5)C=C4)C=C3)cc1
REMARK SMILES IDX 5 1 4 2 3 3 1 4 2 5 32 7 33 8 79 9 34 10 78 11 35 12 36 13
REMARK SMILES IDX 37 14 72 15 38 16 77 17 71 18 73 19 39 20 76 21 70 22 69 23
REMARK SMILES IDX 40 25 62 26 47 27 61 28 48 29 51 30 60 31 74 32 49 33 50 34
REMARK SMILES IDX 59 36 75 37 52 38 41 39 42 40 46 41 43 42 45 43 44 44 63 45
REMARK SMILES IDX 64 46 68 47 65 48 67 49 66 50 53 51 54 52 58 53 55 54 57 55
REMARK SMILES IDX 56 56 6 57 7 58 8 59 9 60 10 62 11 63 12 64 15 65 13 66
REMARK SMILES IDX 14 67 16 68 17 69 18 70 19 71 20 72 28 73 21 74 23 75 27 76
REMARK SMILES IDX 22 77 24 78 26 79 31 80 25 81 29 82 30 84
REMARK H PARENT 3 6 73 24 51 35 8 61 31 83
REMARK Flexibility Score: inf
ROOT
ATOM      1  C   UNL A   1      37.819  19.758  24.806  1.00  0.00     0.023 C 
ENDROOT
BRANCH   1   2
ATOM      2  C   UNL A   1      38.951  20.200  25.731  1.00  0.00     0.116 C 
BRANCH   2   3
ATOM      3  N   UNL A   1      40.041  19.238  25.776  1.00  0.00    -0.352 N 
ATOM      4  O   UNL A   1      42.187  18.552  25.900  1.00  0.00    -0.269 OA
ATOM      5  C   UNL A   1      41.366  19.447  26.066  1.00  0.00     0.251 C 
ATOM      6  H   UNL A   1      39.794  18.308  25.570  1.00  0.00     0.163 HD
BRANCH   5   7
ATOM      7  C   UNL A   1      41.801  20.768  26.557  1.00  0.00     0.039 A 
ATOM      8  C   UNL A   1      41.784  21.056  27.925  1.00  0.00     0.014 A 
ATOM      9  C   UNL A   1      42.230  21.726  25.635  1.00  0.00     0.014 A 
ATOM     10  C   UNL A   1      42.087  22.342  28.362  1.00  0.00     0.010 A 
ATOM     11  C   UNL A   1      42.582  23.001  26.079  1.00  0.00     0.010 A 
ATOM     12  C   UNL A   1      42.484  23.326  27.441  1.00  0.00    -0.014 A 
BRANCH  12  13
ATOM     13  C   UNL A   1      42.815  24.689  27.919  1.00  0.00     0.031 A 
ATOM     14  C   UNL A   1      44.244  25.099  28.136  1.00  0.00     0.074 A 
ATOM     15  C   UNL A   1      41.818  25.569  28.131  1.00  0.00     0.049 A 
ATOM     16  N   UNL A   1      44.712  26.258  28.525  1.00  0.00    -0.248 NA
ATOM     17  C   UNL A   1      45.281  24.086  27.881  1.00  0.00     0.031 C 
ATOM     18  C   UNL A   1      40.394  25.289  27.937  1.00  0.00     0.029 A 
ATOM     19  N   UNL A   1      41.850  26.878  28.540  1.00  0.00    -0.354 N 
ATOM     20  C   UNL A   1      46.092  26.116  28.560  1.00  0.00     0.074 A 
ATOM     21  C   UNL A   1      46.390  24.751  28.183  1.00  0.00     0.031 C 
ATOM     22  C   UNL A   1      39.691  26.401  28.197  1.00  0.00     0.029 A 
ATOM     23  C   UNL A   1      40.608  27.457  28.620  1.00  0.00     0.049 A 
ATOM     24  H   UNL A   1      42.684  27.355  28.756  1.00  0.00     0.167 HD
ATOM     25  C   UNL A   1      47.025  27.046  28.867  1.00  0.00     0.031 A 
ATOM     26  C   UNL A   1      40.242  28.696  28.998  1.00  0.00     0.031 A 
ATOM     27  C   UNL A   1      46.728  28.403  29.243  1.00  0.00     0.049 A 
ATOM     28  C   UNL A   1      41.295  29.688  29.397  1.00  0.00     0.074 A 
ATOM     29  C   UNL A   1      47.617  29.418  29.549  1.00  0.00     0.029 A 
ATOM     30  N   UNL A   1      45.454  28.930  29.366  1.00  0.00    -0.354 N 
ATOM     31  N   UNL A   1      42.598  29.544  29.401  1.00  0.00    -0.248 NA
ATOM     32  C   UNL A   1      40.833  31.011  29.842  1.00  0.00     0.031 C 
ATOM     33  C   UNL A   1      46.881  30.547  29.910  1.00  0.00     0.029 A 
ATOM     34  C   UNL A   1      45.534  30.252  29.772  1.00  0.00     0.049 A 
ATOM     35  H   UNL A   1      44.619  28.440  29.193  1.00  0.00     0.167 HD
ATOM     36  C   UNL A   1      43.112  30.761  29.829  1.00  0.00     0.074 A 
ATOM     37  C   UNL A   1      41.983  31.635  30.067  1.00  0.00     0.031 C 
ATOM     38  C   UNL A   1      44.406  31.114  30.004  1.00  0.00     0.031 A 
BRANCH  25  39
ATOM     39  C   UNL A   1      48.472  26.651  28.811  1.00  0.00    -0.014 A 
ATOM     40  C   UNL A   1      49.098  26.063  29.921  1.00  0.00     0.009 A 
ATOM     41  C   UNL A   1      49.172  26.736  27.597  1.00  0.00     0.009 A 
ATOM     42  C   UNL A   1      50.398  25.565  29.814  1.00  0.00     0.001 A 
ATOM     43  C   UNL A   1      50.464  26.218  27.488  1.00  0.00     0.001 A 
ATOM     44  C   UNL A   1      51.075  25.633  28.596  1.00  0.00     0.000 A 
ENDBRANCH  25  39
BRANCH  26  45
ATOM     45  C   UNL A   1      38.802  29.057  28.999  1.00  0.00    -0.014 A 
ATOM     46  C   UNL A   1      38.047  28.960  30.177  1.00  0.00     0.009 A 
ATOM     47  C   UNL A   1      38.192  29.557  27.838  1.00  0.00     0.009 A 
ATOM     48  C   UNL A   1      36.708  29.356  30.191  1.00  0.00     0.001 A 
ATOM     49  C   UNL A   1      36.860  29.974  27.861  1.00  0.00     0.001 A 
ATOM     50  C   UNL A   1      36.118  29.871  29.036  1.00  0.00     0.000 A 
ENDBRANCH  26  45
BRANCH  38  51
ATOM     51  C   UNL A   1      44.702  32.513  30.463  1.00  0.00    -0.014 A 
ATOM     52  C   UNL A   1      44.878  32.802  31.824  1.00  0.00     0.009 A 
ATOM     53  C   UNL A   1      44.941  33.519  29.513  1.00  0.00     0.009 A 
ATOM     54  C   UNL A   1      45.288  34.076  32.224  1.00  0.00     0.001 A 
ATOM     55  C   UNL A   1      45.374  34.783  29.915  1.00  0.00     0.001 A 
ATOM     56  C   UNL A   1      45.546  35.059  31.270  1.00  0.00     0.000 A 
ENDBRANCH  38  51
ENDBRANCH  12  13
ENDBRANCH   5   7
ENDBRANCH   2   3
ENDBRANCH   1   2
BRANCH   1  57
ATOM     57  C   UNL A   1      36.480  20.478  25.014  1.00  0.00     0.023 C 
BRANCH  57  58
ATOM     58  C   UNL A   1      36.593  21.889  25.579  1.00  0.00     0.116 C 
BRANCH  58  59
ATOM     59  N   UNL A   1      35.506  22.227  26.476  1.00  0.00    -0.355 N 
ATOM     60  C   UNL A   1      34.180  22.329  26.175  1.00  0.00     0.238 C 
ATOM     61  H   UNL A   1      35.754  22.403  27.412  1.00  0.00     0.163 HD
ATOM     62  O   UNL A   1      33.402  21.876  27.019  1.00  0.00    -0.273 OA
BRANCH  60  63
ATOM     63  C   UNL A   1      33.681  22.846  24.838  1.00  0.00     0.162 C 
ATOM     64  C   UNL A   1      34.658  23.442  23.829  1.00  0.00     0.032 C 
ATOM     65  N   UNL A   1      32.545  23.850  24.832  1.00  0.00    -0.185 NA
ATOM     66  C   UNL A   1      33.733  23.909  22.712  1.00  0.00     0.019 C 
ATOM     67  C   UNL A   1      32.362  24.115  23.359  1.00  0.00     0.103 C 
BRANCH  65  68
ATOM     68  S   UNL A   1      32.668  25.339  25.709  1.00  0.00     0.244 S 
ATOM     69  O   UNL A   1      31.679  25.299  26.769  1.00  0.00    -0.207 OA
ATOM     70  O   UNL A   1      34.064  25.477  26.076  1.00  0.00    -0.207 OA
BRANCH  68  71
ATOM     71  C   UNL A   1      32.241  26.718  24.662  1.00  0.00     0.090 A 
ATOM     72  C   UNL A   1      33.331  27.411  24.059  1.00  0.00     0.024 A 
ATOM     73  C   UNL A   1      30.895  26.999  24.250  1.00  0.00     0.005 A 
ATOM     74  C   UNL A   1      33.146  28.498  23.189  1.00  0.00     0.028 A 
ATOM     75  C   UNL A   1      30.786  28.040  23.368  1.00  0.00     0.019 A 
ATOM     76  C   UNL A   1      29.643  26.385  24.546  1.00  0.00     0.010 A 
ATOM     77  C   UNL A   1      31.836  28.782  22.873  1.00  0.00     0.050 A 
ATOM     78  C   UNL A   1      29.622  28.508  22.771  1.00  0.00     0.050 A 
ATOM     79  C   UNL A   1      28.441  26.808  23.930  1.00  0.00     0.002 A 
ATOM     80  N   UNL A   1      31.313  29.738  22.022  1.00  0.00    -0.321 N 
ATOM     81  C   UNL A   1      28.409  27.881  23.030  1.00  0.00     0.014 A 
ATOM     82  C   UNL A   1      29.926  29.626  21.901  1.00  0.00     0.256 C 
ATOM     83  H   UNL A   1      31.854  30.415  21.557  1.00  0.00     0.170 HD
ATOM     84  O   UNL A   1      29.229  30.343  21.193  1.00  0.00    -0.269 OA
ENDBRANCH  68  71
ENDBRANCH  65  68
ENDBRANCH  60  63
ENDBRANCH  58  59
ENDBRANCH  57  58
ENDBRANCH   1  57
TORSDOF 13
ENDMDL
MODEL 2
REMARK VINA RESULT:     -13.1      0.379      5.744
REMARK SMILES O=C(NCCCCNC(=O)[C@@H]1CCCN1S(=O)(=O)c1ccc2c3c(cccc13)C(=O)N2)c1ccc(-c2c3nc(c(-c4ccccc4)c4ccc([nH]4)c(-c4ccccc4)c4nc(c(-c5ccccc5)c5ccc2[nH]5)C=C4)C=C3)cc1
REMARK SMILES IDX 5 1 4 2 3 3 1 4 2 5 32 7 33 8 79 9 34 10 78 11 35 12 36 13
REMARK SMILES IDX 37 14 72 15 38 16 77 17 71 18 73 19 39 20 76 21 70 22 69 23
REMARK SMILES IDX 40 25 62 26 47 27 61 28 48 29 51 30 60 31 74 32 49 33 50 34
REMARK SMILES IDX 59 36 75 37 52 38 41 39 42 40 46 41 43 42 45 43 44 44 63 45
REMARK SMILES IDX 64 46 68 47 65 48 67 49 66 50 53 51 54 52 58 53 55 54 57 55
REMARK SMILES IDX 56 56 6 57 7 58 8 59 9 60 10 62 11 63 12 64 15 65 13 66
REMARK SMILES IDX 14 67 16 68 17 69 18 70 19 71 20 72 28 73 21 74 23 75 27 76
REMARK SMILES IDX 22 77 24 78 26 79 31 80 25 81 29 82 30 84
REMARK H PARENT 3 6 73 24 51 35 8 61 31 83
REMARK Flexibility Score: inf
ROOT
ATOM      1  C   UNL A   1      37.829  19.823  24.793  1.00  0.00     0.023 C 
ENDROOT
BRANCH   1   2
ATOM      2  C   UNL A   1      38.945  20.263  25.738  1.00  0.00     0.116 C 
BRANCH   2   3
ATOM      3  N   UNL A   1      40.029  19.296  25.808  1.00  0.00    -0.352 N 
ATOM      4  O   UNL A   1      42.168  18.598  25.983  1.00  0.00    -0.269 OA
ATOM      5  C   UNL A   1      41.348  19.497  26.131  1.00  0.00     0.251 C 
ATOM      6  H   UNL A   1      39.783  18.367  25.594  1.00  0.00     0.163 HD
BRANCH   5   7
ATOM      7  C   UNL A   1      41.777  20.816  26.635  1.00  0.00     0.039 A 
ATOM      8  C   UNL A   1      41.647  21.133  27.990  1.00  0.00     0.014 A 
ATOM      9  C   UNL A   1      42.314  21.742  25.737  1.00  0.00     0.014 A 
ATOM     10  C   UNL A   1      41.949  22.418  28.428  1.00  0.00     0.010 A 
ATOM     11  C   UNL A   1      42.664  23.015  26.188  1.00  0.00     0.010 A 
ATOM     12  C   UNL A   1      42.455  23.371  27.529  1.00  0.00    -0.014 A 
BRANCH  12  13
ATOM     13  C   UNL A   1      42.784  24.734  28.010  1.00  0.00     0.031 A 
ATOM     14  C   UNL A   1      41.706  25.763  28.193  1.00  0.00     0.074 A 
ATOM     15  C   UNL A   1      44.063  25.032  28.310  1.00  0.00     0.049 A 
ATOM     16  N   UNL A   1      41.814  26.992  28.629  1.00  0.00    -0.248 NA
ATOM     17  C   UNL A   1      40.330  25.365  27.848  1.00  0.00     0.031 C 
ATOM     18  C   UNL A   1      45.192  24.108  28.189  1.00  0.00     0.029 A 
ATOM     19  N   UNL A   1      44.624  26.187  28.790  1.00  0.00    -0.354 N 
ATOM     20  C   UNL A   1      40.527  27.513  28.614  1.00  0.00     0.074 A 
ATOM     21  C   UNL A   1      39.655  26.481  28.097  1.00  0.00     0.031 C 
ATOM     22  C   UNL A   1      46.306  24.723  28.614  1.00  0.00     0.029 A 
ATOM     23  C   UNL A   1      45.978  26.095  28.993  1.00  0.00     0.049 A 
ATOM     24  H   UNL A   1      44.105  27.004  28.972  1.00  0.00     0.167 HD
ATOM     25  C   UNL A   1      40.113  28.739  29.008  1.00  0.00     0.031 A 
ATOM     26  C   UNL A   1      46.864  27.011  29.427  1.00  0.00     0.031 A 
ATOM     27  C   UNL A   1      40.981  29.765  29.521  1.00  0.00     0.049 A 
ATOM     28  C   UNL A   1      46.385  28.384  29.794  1.00  0.00     0.074 A 
ATOM     29  C   UNL A   1      40.638  31.031  29.965  1.00  0.00     0.029 A 
ATOM     30  N   UNL A   1      42.353  29.649  29.654  1.00  0.00    -0.354 N 
ATOM     31  N   UNL A   1      45.162  28.853  29.797  1.00  0.00    -0.248 NA
ATOM     32  C   UNL A   1      47.404  29.356  30.220  1.00  0.00     0.031 C 
ATOM     33  C   UNL A   1      41.810  31.700  30.317  1.00  0.00     0.029 A 
ATOM     34  C   UNL A   1      42.876  30.831  30.149  1.00  0.00     0.049 A 
ATOM     35  H   UNL A   1      42.878  28.847  29.431  1.00  0.00     0.167 HD
ATOM     36  C   UNL A   1      45.259  30.165  30.241  1.00  0.00     0.074 A 
ATOM     37  C   UNL A   1      46.659  30.417  30.507  1.00  0.00     0.031 C 
ATOM     38  C   UNL A   1      44.270  31.073  30.413  1.00  0.00     0.031 A 
BRANCH  25  39
ATOM     39  C   UNL A   1      38.649  29.062  28.915  1.00  0.00    -0.014 A 
ATOM     40  C   UNL A   1      37.821  28.966  30.044  1.00  0.00     0.009 A 
ATOM     41  C   UNL A   1      38.128  29.600  27.728  1.00  0.00     0.009 A 
ATOM     42  C   UNL A   1      36.498  29.407  29.985  1.00  0.00     0.001 A 
ATOM     43  C   UNL A   1      36.810  30.060  27.680  1.00  0.00     0.001 A 
ATOM     44  C   UNL A   1      35.997  29.963  28.808  1.00  0.00     0.000 A 
ENDBRANCH  25  39
BRANCH  26  45
ATOM     45  C   UNL A   1      48.297  26.636  29.543  1.00  0.00    -0.014 A 
ATOM     46  C   UNL A   1      48.784  26.049  30.719  1.00  0.00     0.009 A 
ATOM     47  C   UNL A   1      49.168  26.809  28.455  1.00  0.00     0.009 A 
ATOM     48  C   UNL A   1      50.117  25.643  30.804  1.00  0.00     0.001 A 
ATOM     49  C   UNL A   1      50.494  26.381  28.536  1.00  0.00     0.001 A 
ATOM     50  C   UNL A   1      50.968  25.801  29.710  1.00  0.00     0.000 A 
ENDBRANCH  26  45
BRANCH  38  51
ATOM     51  C   UNL A   1      44.639  32.434  30.928  1.00  0.00    -0.014 A 
ATOM     52  C   UNL A   1      44.869  33.500  30.047  1.00  0.00     0.009 A 
ATOM     53  C   UNL A   1      44.623  32.680  32.311  1.00  0.00     0.009 A 
ATOM     54  C   UNL A   1      45.076  34.789  30.542  1.00  0.00     0.001 A 
ATOM     55  C   UNL A   1      44.805  33.974  32.801  1.00  0.00     0.001 A 
ATOM     56  C   UNL A   1      45.032  35.026  31.915  1.00  0.00     0.000 A 
ENDBRANCH  38  51
ENDBRANCH  12  13
ENDBRANCH   5   7
ENDBRANCH   2   3
ENDBRANCH   1   2
BRANCH   1  57
ATOM     57  C   UNL A   1      36.473  20.505  25.013  1.00  0.00     0.023 C 
BRANCH  57  58
ATOM     58  C   UNL A   1      36.552  21.916  25.586  1.00  0.00     0.116 C 
BRANCH  58  59
ATOM     59  N   UNL A   1      35.452  22.226  26.478  1.00  0.00    -0.355 N 
ATOM     60  C   UNL A   1      34.126  22.306  26.168  1.00  0.00     0.238 C 
ATOM     61  H   UNL A   1      35.690  22.398  27.417  1.00  0.00     0.163 HD
ATOM     62  O   UNL A   1      33.351  21.831  27.003  1.00  0.00    -0.273 OA
BRANCH  60  63
ATOM     63  C   UNL A   1      33.628  22.826  24.833  1.00  0.00     0.162 C 
ATOM     64  C   UNL A   1      34.606  23.411  23.818  1.00  0.00     0.032 C 
ATOM     65  N   UNL A   1      32.502  23.841  24.830  1.00  0.00    -0.185 NA
ATOM     66  C   UNL A   1      33.681  23.885  22.705  1.00  0.00     0.019 C 
ATOM     67  C   UNL A   1      32.314  24.105  23.357  1.00  0.00     0.103 C 
BRANCH  65  68
ATOM     68  S   UNL A   1      32.642  25.330  25.704  1.00  0.00     0.244 S 
ATOM     69  O   UNL A   1      31.662  25.297  26.773  1.00  0.00    -0.207 OA
ATOM     70  O   UNL A   1      34.042  25.459  26.057  1.00  0.00    -0.207 OA
BRANCH  68  71
ATOM     71  C   UNL A   1      32.215  26.710  24.659  1.00  0.00     0.090 A 
ATOM     72  C   UNL A   1      33.303  27.402  24.053  1.00  0.00     0.024 A 
ATOM     73  C   UNL A   1      30.868  26.995  24.252  1.00  0.00     0.005 A 
ATOM     74  C   UNL A   1      33.118  28.490  23.184  1.00  0.00     0.028 A 
ATOM     75  C   UNL A   1      30.758  28.036  23.371  1.00  0.00     0.019 A 
ATOM     76  C   UNL A   1      29.615  26.383  24.551  1.00  0.00     0.010 A 
ATOM     77  C   UNL A   1      31.808  28.776  22.873  1.00  0.00     0.050 A 
ATOM     78  C   UNL A   1      29.593  28.508  22.778  1.00  0.00     0.050 A 
ATOM     79  C   UNL A   1      28.413  26.809  23.940  1.00  0.00     0.002 A 
ATOM     80  N   UNL A   1      31.284  29.734  22.025  1.00  0.00    -0.321 N 
ATOM     81  C   UNL A   1      28.380  27.883  23.040  1.00  0.00     0.014 A 
ATOM     82  C   UNL A   1      29.896  29.625  21.908  1.00  0.00     0.256 C 
ATOM     83  H   UNL A   1      31.825  30.411  21.558  1.00  0.00     0.170 HD
ATOM     84  O   UNL A   1      29.198  30.344  21.203  1.00  0.00    -0.269 OA
ENDBRANCH  68  71
ENDBRANCH  65  68
ENDBRANCH  60  63
ENDBRANCH  58  59
ENDBRANCH  57  58
ENDBRANCH   1  57
TORSDOF 13
ENDMDL
MODEL 3
REMARK VINA RESULT:     -12.9      4.110      9.609
REMARK SMILES O=C(NCCCCNC(=O)[C@@H]1CCCN1S(=O)(=O)c1ccc2c3c(cccc13)C(=O)N2)c1ccc(-c2c3nc(c(-c4ccccc4)c4ccc([nH]4)c(-c4ccccc4)c4nc(c(-c5ccccc5)c5ccc2[nH]5)C=C4)C=C3)cc1
REMARK SMILES IDX 5 1 4 2 3 3 1 4 2 5 32 7 33 8 79 9 34 10 78 11 35 12 36 13
REMARK SMILES IDX 37 14 72 15 38 16 77 17 71 18 73 19 39 20 76 21 70 22 69 23
REMARK SMILES IDX 40 25 62 26 47 27 61 28 48 29 51 30 60 31 74 32 49 33 50 34
REMARK SMILES IDX 59 36 75 37 52 38 41 39 42 40 46 41 43 42 45 43 44 44 63 45
REMARK SMILES IDX 64 46 68 47 65 48 67 49 66 50 53 51 54 52 58 53 55 54 57 55
REMARK SMILES IDX 56 56 6 57 7 58 8 59 9 60 10 62 11 63 12 64 15 65 13 66
REMARK SMILES IDX 14 67 16 68 17 69 18 70 19 71 20 72 28 73 21 74 23 75 27 76
REMARK SMILES IDX 22 77 24 78 26 79 31 80 25 81 29 82 30 84
REMARK H PARENT 3 6 73 24 51 35 8 61 31 83
REMARK Flexibility Score: inf
ROOT
ATOM      1  C   UNL A   1      31.364  32.150  26.686  1.00  0.00     0.023 C 
ENDROOT
BRANCH   1   2
ATOM      2  C   UNL A   1      32.635  32.871  27.127  1.00  0.00     0.116 C 
BRANCH   2   3
ATOM      3  N   UNL A   1      32.372  34.213  27.622  1.00  0.00    -0.352 N 
ATOM      4  O   UNL A   1      32.556  35.972  29.022  1.00  0.00    -0.269 OA
ATOM      5  C   UNL A   1      33.010  34.908  28.618  1.00  0.00     0.251 C 
ATOM      6  H   UNL A   1      31.634  34.690  27.179  1.00  0.00     0.163 HD
BRANCH   5   7
ATOM      7  C   UNL A   1      34.237  34.350  29.220  1.00  0.00     0.039 A 
ATOM      8  C   UNL A   1      35.487  34.613  28.652  1.00  0.00     0.014 A 
ATOM      9  C   UNL A   1      34.129  33.554  30.363  1.00  0.00     0.014 A 
ATOM     10  C   UNL A   1      36.620  33.988  29.163  1.00  0.00     0.010 A 
ATOM     11  C   UNL A   1      35.273  32.967  30.904  1.00  0.00     0.010 A 
ATOM     12  C   UNL A   1      36.521  33.156  30.290  1.00  0.00    -0.014 A 
BRANCH  12  13
ATOM     13  C   UNL A   1      37.736  32.503  30.831  1.00  0.00     0.031 A 
ATOM     14  C   UNL A   1      38.383  33.010  32.088  1.00  0.00     0.074 A 
ATOM     15  C   UNL A   1      38.241  31.428  30.195  1.00  0.00     0.049 A 
ATOM     16  N   UNL A   1      39.434  32.542  32.713  1.00  0.00    -0.248 NA
ATOM     17  C   UNL A   1      37.775  34.187  32.731  1.00  0.00     0.031 C 
ATOM     18  C   UNL A   1      37.687  30.836  28.976  1.00  0.00     0.029 A 
ATOM     19  N   UNL A   1      39.320  30.636  30.493  1.00  0.00    -0.354 N 
ATOM     20  C   UNL A   1      39.612  33.362  33.819  1.00  0.00     0.074 A 
ATOM     21  C   UNL A   1      38.582  34.376  33.768  1.00  0.00     0.031 C 
ATOM     22  C   UNL A   1      38.412  29.756  28.648  1.00  0.00     0.029 A 
ATOM     23  C   UNL A   1      39.506  29.607  29.604  1.00  0.00     0.049 A 
ATOM     24  H   UNL A   1      39.904  30.791  31.270  1.00  0.00     0.167 HD
ATOM     25  C   UNL A   1      40.544  33.266  34.795  1.00  0.00     0.031 A 
ATOM     26  C   UNL A   1      40.454  28.652  29.555  1.00  0.00     0.031 A 
ATOM     27  C   UNL A   1      41.569  32.257  34.844  1.00  0.00     0.049 A 
ATOM     28  C   UNL A   1      41.515  28.610  30.614  1.00  0.00     0.074 A 
ATOM     29  C   UNL A   1      42.541  32.074  35.812  1.00  0.00     0.029 A 
ATOM     30  N   UNL A   1      41.755  31.270  33.892  1.00  0.00    -0.354 N 
ATOM     31  N   UNL A   1      41.655  29.379  31.667  1.00  0.00    -0.248 NA
ATOM     32  C   UNL A   1      42.549  27.573  30.484  1.00  0.00     0.031 C 
ATOM     33  C   UNL A   1      43.351  31.009  35.418  1.00  0.00     0.029 A 
ATOM     34  C   UNL A   1      42.846  30.490  34.237  1.00  0.00     0.049 A 
ATOM     35  H   UNL A   1      41.197  31.141  33.092  1.00  0.00     0.167 HD
ATOM     36  C   UNL A   1      42.777  28.907  32.334  1.00  0.00     0.074 A 
ATOM     37  C   UNL A   1      43.277  27.781  31.574  1.00  0.00     0.031 C 
ATOM     38  C   UNL A   1      43.336  29.371  33.476  1.00  0.00     0.031 A 
BRANCH  25  39
ATOM     39  C   UNL A   1      40.516  34.270  35.910  1.00  0.00    -0.014 A 
ATOM     40  C   UNL A   1      41.185  35.497  35.786  1.00  0.00     0.009 A 
ATOM     41  C   UNL A   1      39.699  34.047  37.030  1.00  0.00     0.009 A 
ATOM     42  C   UNL A   1      41.034  36.484  36.763  1.00  0.00     0.001 A 
ATOM     43  C   UNL A   1      39.533  35.044  37.993  1.00  0.00     0.001 A 
ATOM     44  C   UNL A   1      40.200  36.261  37.858  1.00  0.00     0.000 A 
ENDBRANCH  25  39
BRANCH  26  45
ATOM     45  C   UNL A   1      40.420  27.654  28.456  1.00  0.00    -0.014 A 
ATOM     46  C   UNL A   1      41.093  27.900  27.252  1.00  0.00     0.009 A 
ATOM     47  C   UNL A   1      39.764  26.425  28.631  1.00  0.00     0.009 A 
ATOM     48  C   UNL A   1      41.109  26.935  26.242  1.00  0.00     0.001 A 
ATOM     49  C   UNL A   1      39.802  25.453  27.630  1.00  0.00     0.001 A 
ATOM     50  C   UNL A   1      40.472  25.709  26.436  1.00  0.00     0.000 A 
ENDBRANCH  26  45
BRANCH  38  51
ATOM     51  C   UNL A   1      44.550  28.666  34.008  1.00  0.00    -0.014 A 
ATOM     52  C   UNL A   1      44.424  27.559  34.859  1.00  0.00     0.009 A 
ATOM     53  C   UNL A   1      45.824  29.030  33.543  1.00  0.00     0.009 A 
ATOM     54  C   UNL A   1      45.554  26.829  35.234  1.00  0.00     0.001 A 
ATOM     55  C   UNL A   1      46.948  28.284  33.900  1.00  0.00     0.001 A 
ATOM     56  C   UNL A   1      46.811  27.185  34.747  1.00  0.00     0.000 A 
ENDBRANCH  38  51
ENDBRANCH  12  13
ENDBRANCH   5   7
ENDBRANCH   2   3
ENDBRANCH   1   2
BRANCH   1  57
ATOM     57  C   UNL A   1      31.522  30.652  26.399  1.00  0.00     0.023 C 
BRANCH  57  58
ATOM     58  C   UNL A   1      31.082  30.217  25.005  1.00  0.00     0.116 C 
BRANCH  58  59
ATOM     59  N   UNL A   1      32.148  29.593  24.246  1.00  0.00    -0.355 N 
ATOM     60  C   UNL A   1      32.123  28.383  23.617  1.00  0.00     0.238 C 
ATOM     61  H   UNL A   1      32.987  30.102  24.177  1.00  0.00     0.163 HD
ATOM     62  O   UNL A   1      32.674  28.341  22.514  1.00  0.00    -0.273 OA
BRANCH  60  63
ATOM     63  C   UNL A   1      31.364  27.190  24.167  1.00  0.00     0.162 C 
ATOM     64  C   UNL A   1      31.186  27.015  25.672  1.00  0.00     0.032 C 
ATOM     65  N   UNL A   1      31.780  25.803  23.719  1.00  0.00    -0.185 NA
ATOM     66  C   UNL A   1      30.474  25.672  25.766  1.00  0.00     0.019 C 
ATOM     67  C   UNL A   1      30.819  24.922  24.477  1.00  0.00     0.103 C 
BRANCH  65  68
ATOM     68  S   UNL A   1      33.408  25.250  23.929  1.00  0.00     0.244 S 
ATOM     69  O   UNL A   1      33.991  25.112  22.607  1.00  0.00    -0.207 OA
ATOM     70  O   UNL A   1      34.029  26.169  24.862  1.00  0.00    -0.207 OA
BRANCH  68  71
ATOM     71  C   UNL A   1      33.427  23.627  24.669  1.00  0.00     0.090 A 
ATOM     72  C   UNL A   1      33.686  23.578  26.069  1.00  0.00     0.024 A 
ATOM     73  C   UNL A   1      32.992  22.448  23.977  1.00  0.00     0.005 A 
ATOM     74  C   UNL A   1      33.704  22.374  26.792  1.00  0.00     0.028 A 
ATOM     75  C   UNL A   1      32.989  21.317  24.747  1.00  0.00     0.019 A 
ATOM     76  C   UNL A   1      32.520  22.220  22.650  1.00  0.00     0.010 A 
ATOM     77  C   UNL A   1      33.349  21.253  26.076  1.00  0.00     0.050 A 
ATOM     78  C   UNL A   1      32.581  20.046  24.360  1.00  0.00     0.050 A 
ATOM     79  C   UNL A   1      32.061  20.950  22.230  1.00  0.00     0.002 A 
ATOM     80  N   UNL A   1      33.218  19.939  26.486  1.00  0.00    -0.321 N 
ATOM     81  C   UNL A   1      32.084  19.836  23.080  1.00  0.00     0.014 A 
ATOM     82  C   UNL A   1      32.733  19.119  25.464  1.00  0.00     0.256 C 
ATOM     83  H   UNL A   1      33.439  19.620  27.390  1.00  0.00     0.170 HD
ATOM     84  O   UNL A   1      32.512  17.919  25.579  1.00  0.00    -0.269 OA
ENDBRANCH  68  71
ENDBRANCH  65  68
ENDBRANCH  60  63
ENDBRANCH  58  59
ENDBRANCH  57  58
ENDBRANCH   1  57
TORSDOF 13
ENDMDL
