MODEL 1
REMARK VINA RESULT:      -9.9      0.000      0.000
REMARK SMILES O=Cc1[nH]nc2cc(C(=O)NCCCCNC(=O)c3ccc(-c4c5nc(c(-c6ccccc6)c6ccc([nH]6)c(-c6ccccc6)c6nc(c(-c7ccccc7)c7ccc4[nH]7)C=C6)C=C5)cc3)ccc12
REMARK SMILES IDX 14 1 13 2 12 3 11 4 9 5 10 6 8 8 3 9 4 10 69 11 5 12 6 14
REMARK SMILES IDX 68 15 7 16 67 17 2 18 1 19 15 20 16 21 17 22 18 24 19 25
REMARK SMILES IDX 20 26 66 27 21 28 65 29 22 30 23 31 24 32 59 33 25 34 64 35
REMARK SMILES IDX 58 36 60 37 26 38 63 39 57 40 56 41 27 43 49 44 34 45 48 46
REMARK SMILES IDX 35 47 38 48 47 49 61 50 36 51 37 52 46 54 62 55 39 56 28 57
REMARK SMILES IDX 29 58 33 59 30 60 32 61 31 62 50 63 51 64 55 65 52 66 54 67
REMARK SMILES IDX 53 68 40 69 41 70 45 71 42 72 44 73 43 74
REMARK H PARENT 11 7 4 13 16 23 60 42 38 53
REMARK Flexibility Score: inf
ROOT
ATOM      1  C   UNL A   1      44.406  18.616  25.281  1.00  0.00     0.023 C 
ENDROOT
BRANCH   1   2
ATOM      2  C   UNL A   1      45.807  19.128  25.638  1.00  0.00     0.023 C 
BRANCH   2   3
ATOM      3  C   UNL A   1      46.012  20.623  25.385  1.00  0.00     0.116 C 
BRANCH   3   4
ATOM      4  N   UNL A   1      45.184  21.070  24.284  1.00  0.00    -0.352 N 
ATOM      5  C   UNL A   1      44.866  22.303  23.778  1.00  0.00     0.251 C 
ATOM      6  O   UNL A   1      44.102  22.308  22.810  1.00  0.00    -0.269 OA
ATOM      7  H   UNL A   1      44.760  20.328  23.794  1.00  0.00     0.163 HD
BRANCH   5   8
ATOM      8  C   UNL A   1      45.396  23.610  24.284  1.00  0.00     0.042 A 
ATOM      9  C   UNL A   1      46.436  27.313  25.709  1.00  0.00     0.105 A 
ATOM     10  N   UNL A   1      45.154  27.706  25.992  1.00  0.00    -0.274 N 
ATOM     11  C   UNL A   1      46.284  26.039  25.215  1.00  0.00     0.030 A 
ATOM     12  N   UNL A   1      44.203  26.812  25.674  1.00  0.00    -0.175 NA
ATOM     13  H   UNL A   1      44.945  28.578  26.398  1.00  0.00     0.190 HD
ATOM     14  C   UNL A   1      44.873  25.756  25.186  1.00  0.00     0.094 A 
ATOM     15  C   UNL A   1      47.302  25.177  24.826  1.00  0.00     0.013 A 
ATOM     16  C   UNL A   1      44.394  24.528  24.704  1.00  0.00     0.044 A 
ATOM     17  C   UNL A   1      46.790  23.933  24.388  1.00  0.00     0.015 A 
BRANCH   9  18
ATOM     18  C   UNL A   1      47.592  28.137  25.924  1.00  0.00     0.280 C 
ATOM     19  O   UNL A   1      47.572  29.310  26.284  1.00  0.00    -0.296 OA
ENDBRANCH   9  18
ENDBRANCH   5   8
ENDBRANCH   3   4
ENDBRANCH   2   3
ENDBRANCH   1   2
BRANCH   1  20
ATOM     20  C   UNL A   1      43.391  18.660  26.420  1.00  0.00     0.116 C 
BRANCH  20  21
ATOM     21  N   UNL A   1      42.016  18.490  25.978  1.00  0.00    -0.352 N 
ATOM     22  C   UNL A   1      40.977  19.390  26.046  1.00  0.00     0.251 C 
ATOM     23  H   UNL A   1      41.800  17.618  25.577  1.00  0.00     0.163 HD
ATOM     24  O   UNL A   1      39.848  19.064  25.712  1.00  0.00    -0.269 OA
BRANCH  22  25
ATOM     25  C   UNL A   1      41.236  20.744  26.574  1.00  0.00     0.039 A 
ATOM     26  C   UNL A   1      41.173  20.949  27.955  1.00  0.00     0.014 A 
ATOM     27  C   UNL A   1      41.575  21.793  25.716  1.00  0.00     0.014 A 
ATOM     28  C   UNL A   1      41.520  22.192  28.483  1.00  0.00     0.010 A 
ATOM     29  C   UNL A   1      41.982  23.012  26.248  1.00  0.00     0.010 A 
ATOM     30  C   UNL A   1      41.965  23.220  27.636  1.00  0.00    -0.014 A 
BRANCH  30  31
ATOM     31  C   UNL A   1      42.430  24.520  28.182  1.00  0.00     0.031 A 
ATOM     32  C   UNL A   1      41.454  25.641  28.394  1.00  0.00     0.074 A 
ATOM     33  C   UNL A   1      43.744  24.713  28.407  1.00  0.00     0.049 A 
ATOM     34  N   UNL A   1      41.682  26.871  28.779  1.00  0.00    -0.248 NA
ATOM     35  C   UNL A   1      40.038  25.352  28.108  1.00  0.00     0.031 C 
ATOM     36  C   UNL A   1      44.798  23.719  28.195  1.00  0.00     0.029 A 
ATOM     37  N   UNL A   1      44.419  25.823  28.850  1.00  0.00    -0.354 N 
ATOM     38  C   UNL A   1      40.447  27.507  28.758  1.00  0.00     0.074 A 
ATOM     39  C   UNL A   1      39.480  26.540  28.285  1.00  0.00     0.031 C 
ATOM     40  C   UNL A   1      45.983  24.258  28.525  1.00  0.00     0.029 A 
ATOM     41  C   UNL A   1      45.778  25.643  28.935  1.00  0.00     0.049 A 
ATOM     42  H   UNL A   1      43.971  26.667  29.085  1.00  0.00     0.167 HD
ATOM     43  C   UNL A   1      40.143  28.777  29.114  1.00  0.00     0.031 A 
ATOM     44  C   UNL A   1      46.751  26.500  29.295  1.00  0.00     0.031 A 
ATOM     45  C   UNL A   1      41.100  29.731  29.605  1.00  0.00     0.049 A 
ATOM     46  C   UNL A   1      46.385  27.901  29.699  1.00  0.00     0.074 A 
ATOM     47  C   UNL A   1      40.878  31.020  30.057  1.00  0.00     0.029 A 
ATOM     48  N   UNL A   1      42.463  29.499  29.708  1.00  0.00    -0.354 N 
ATOM     49  N   UNL A   1      45.202  28.464  29.745  1.00  0.00    -0.248 NA
ATOM     50  C   UNL A   1      47.488  28.780  30.112  1.00  0.00     0.031 C 
ATOM     51  C   UNL A   1      42.113  31.583  30.394  1.00  0.00     0.029 A 
ATOM     52  C   UNL A   1      43.096  30.628  30.198  1.00  0.00     0.049 A 
ATOM     53  H   UNL A   1      42.913  28.657  29.468  1.00  0.00     0.167 HD
ATOM     54  C   UNL A   1      45.415  29.751  30.219  1.00  0.00     0.074 A 
ATOM     55  C   UNL A   1      46.837  29.882  30.458  1.00  0.00     0.031 C 
ATOM     56  C   UNL A   1      44.511  30.738  30.436  1.00  0.00     0.031 A 
BRANCH  43  57
ATOM     57  C   UNL A   1      38.711  29.210  28.981  1.00  0.00    -0.014 A 
ATOM     58  C   UNL A   1      38.208  29.696  27.764  1.00  0.00     0.009 A 
ATOM     59  C   UNL A   1      37.843  29.095  30.078  1.00  0.00     0.009 A 
ATOM     60  C   UNL A   1      36.872  30.091  27.658  1.00  0.00     0.001 A 
ATOM     61  C   UNL A   1      36.501  29.464  29.962  1.00  0.00     0.001 A 
ATOM     62  C   UNL A   1      36.020  29.970  28.755  1.00  0.00     0.000 A 
ENDBRANCH  43  57
BRANCH  44  63
ATOM     63  C   UNL A   1      48.169  26.057  29.303  1.00  0.00    -0.014 A 
ATOM     64  C   UNL A   1      48.790  25.683  30.505  1.00  0.00     0.009 A 
ATOM     65  C   UNL A   1      48.912  26.014  28.113  1.00  0.00     0.009 A 
ATOM     66  C   UNL A   1      50.135  25.304  30.519  1.00  0.00     0.001 A 
ATOM     67  C   UNL A   1      50.248  25.608  28.126  1.00  0.00     0.001 A 
ATOM     68  C   UNL A   1      50.861  25.263  29.330  1.00  0.00     0.000 A 
ENDBRANCH  44  63
BRANCH  56  69
ATOM     69  C   UNL A   1      45.029  32.031  30.999  1.00  0.00    -0.014 A 
ATOM     70  C   UNL A   1      45.146  32.228  32.383  1.00  0.00     0.009 A 
ATOM     71  C   UNL A   1      45.448  33.047  30.126  1.00  0.00     0.009 A 
ATOM     72  C   UNL A   1      45.648  33.432  32.881  1.00  0.00     0.001 A 
ATOM     73  C   UNL A   1      45.974  34.237  30.627  1.00  0.00     0.001 A 
ATOM     74  C   UNL A   1      46.066  34.432  32.004  1.00  0.00     0.000 A 
ENDBRANCH  56  69
ENDBRANCH  30  31
ENDBRANCH  22  25
ENDBRANCH  20  21
ENDBRANCH   1  20
TORSDOF 12
ENDMDL
MODEL 2
REMARK VINA RESULT:      -9.7      0.442      6.188
REMARK SMILES O=Cc1[nH]nc2cc(C(=O)NCCCCNC(=O)c3ccc(-c4c5nc(c(-c6ccccc6)c6ccc([nH]6)c(-c6ccccc6)c6nc(c(-c7ccccc7)c7ccc4[nH]7)C=C6)C=C5)cc3)ccc12
REMARK SMILES IDX 14 1 13 2 12 3 11 4 9 5 10 6 8 8 3 9 4 10 69 11 5 12 6 14
REMARK SMILES IDX 68 15 7 16 67 17 2 18 1 19 15 20 16 21 17 22 18 24 19 25
REMARK SMILES IDX 20 26 66 27 21 28 65 29 22 30 23 31 24 32 59 33 25 34 64 35
REMARK SMILES IDX 58 36 60 37 26 38 63 39 57 40 56 41 27 43 49 44 34 45 48 46
REMARK SMILES IDX 35 47 38 48 47 49 61 50 36 51 37 52 46 54 62 55 39 56 28 57
REMARK SMILES IDX 29 58 33 59 30 60 32 61 31 62 50 63 51 64 55 65 52 66 54 67
REMARK SMILES IDX 53 68 40 69 41 70 45 71 42 72 44 73 43 74
REMARK H PARENT 11 7 4 13 16 23 60 42 38 53
REMARK Flexibility Score: inf
ROOT
ATOM      1  C   UNL A   1      44.679  18.784  25.103  1.00  0.00     0.023 C 
ENDROOT
BRANCH   1   2
ATOM      2  C   UNL A   1      46.113  19.256  25.378  1.00  0.00     0.023 C 
BRANCH   2   3
ATOM      3  C   UNL A   1      46.365  20.727  25.038  1.00  0.00     0.116 C 
BRANCH   3   4
ATOM      4  N   UNL A   1      45.353  21.219  24.127  1.00  0.00    -0.352 N 
ATOM      5  C   UNL A   1      44.864  22.466  23.840  1.00  0.00     0.251 C 
ATOM      6  O   UNL A   1      43.970  22.512  22.991  1.00  0.00    -0.269 OA
ATOM      7  H   UNL A   1      44.926  20.503  23.601  1.00  0.00     0.163 HD
BRANCH   5   8
ATOM      8  C   UNL A   1      45.351  23.748  24.443  1.00  0.00     0.042 A 
ATOM      9  C   UNL A   1      46.276  27.398  26.069  1.00  0.00     0.105 A 
ATOM     10  N   UNL A   1      44.980  27.837  26.144  1.00  0.00    -0.274 N 
ATOM     11  C   UNL A   1      46.161  26.134  25.540  1.00  0.00     0.030 A 
ATOM     12  N   UNL A   1      44.062  26.982  25.663  1.00  0.00    -0.175 NA
ATOM     13  H   UNL A   1      44.739  28.713  26.523  1.00  0.00     0.190 HD
ATOM     14  C   UNL A   1      44.764  25.905  25.277  1.00  0.00     0.094 A 
ATOM     15  C   UNL A   1      47.197  25.238  25.311  1.00  0.00     0.013 A 
ATOM     16  C   UNL A   1      44.327  24.700  24.707  1.00  0.00     0.044 A 
ATOM     17  C   UNL A   1      46.719  24.017  24.778  1.00  0.00     0.015 A 
BRANCH   9  18
ATOM     18  C   UNL A   1      47.410  28.176  26.482  1.00  0.00     0.280 C 
ATOM     19  O   UNL A   1      47.977  29.024  25.800  1.00  0.00    -0.296 OA
ENDBRANCH   9  18
ENDBRANCH   5   8
ENDBRANCH   3   4
ENDBRANCH   2   3
ENDBRANCH   1   2
BRANCH   1  20
ATOM     20  C   UNL A   1      43.731  18.864  26.296  1.00  0.00     0.116 C 
BRANCH  20  21
ATOM     21  N   UNL A   1      42.350  18.553  25.961  1.00  0.00    -0.352 N 
ATOM     22  C   UNL A   1      41.238  19.353  26.087  1.00  0.00     0.251 C 
ATOM     23  H   UNL A   1      42.191  17.654  25.596  1.00  0.00     0.163 HD
ATOM     24  O   UNL A   1      40.124  18.915  25.845  1.00  0.00    -0.269 OA
BRANCH  22  25
ATOM     25  C   UNL A   1      41.404  20.741  26.566  1.00  0.00     0.039 A 
ATOM     26  C   UNL A   1      41.338  20.988  27.939  1.00  0.00     0.014 A 
ATOM     27  C   UNL A   1      41.660  21.780  25.669  1.00  0.00     0.014 A 
ATOM     28  C   UNL A   1      41.600  22.271  28.421  1.00  0.00     0.010 A 
ATOM     29  C   UNL A   1      41.984  23.043  26.155  1.00  0.00     0.010 A 
ATOM     30  C   UNL A   1      41.963  23.298  27.536  1.00  0.00    -0.014 A 
BRANCH  30  31
ATOM     31  C   UNL A   1      42.339  24.645  28.031  1.00  0.00     0.031 A 
ATOM     32  C   UNL A   1      43.755  24.928  28.442  1.00  0.00     0.074 A 
ATOM     33  C   UNL A   1      41.386  25.585  28.188  1.00  0.00     0.049 A 
ATOM     34  N   UNL A   1      44.257  26.012  28.978  1.00  0.00    -0.248 NA
ATOM     35  C   UNL A   1      44.731  23.841  28.254  1.00  0.00     0.031 C 
ATOM     36  C   UNL A   1      39.967  25.417  27.870  1.00  0.00     0.029 A 
ATOM     37  N   UNL A   1      41.469  26.867  28.671  1.00  0.00    -0.354 N 
ATOM     38  C   UNL A   1      45.597  25.730  29.213  1.00  0.00     0.074 A 
ATOM     39  C   UNL A   1      45.821  24.362  28.799  1.00  0.00     0.031 C 
ATOM     40  C   UNL A   1      39.316  26.558  28.150  1.00  0.00     0.029 A 
ATOM     41  C   UNL A   1      40.263  27.523  28.699  1.00  0.00     0.049 A 
ATOM     42  H   UNL A   1      42.314  27.276  28.967  1.00  0.00     0.167 HD
ATOM     43  C   UNL A   1      46.557  26.542  29.714  1.00  0.00     0.031 A 
ATOM     44  C   UNL A   1      39.953  28.760  29.129  1.00  0.00     0.031 A 
ATOM     45  C   UNL A   1      46.339  27.908  30.104  1.00  0.00     0.049 A 
ATOM     46  C   UNL A   1      41.040  29.646  29.669  1.00  0.00     0.074 A 
ATOM     47  C   UNL A   1      47.264  28.833  30.558  1.00  0.00     0.029 A 
ATOM     48  N   UNL A   1      45.109  28.547  30.087  1.00  0.00    -0.354 N 
ATOM     49  N   UNL A   1      42.317  29.389  29.814  1.00  0.00    -0.248 NA
ATOM     50  C   UNL A   1      40.645  30.997  30.091  1.00  0.00     0.031 C 
ATOM     51  C   UNL A   1      46.585  30.019  30.856  1.00  0.00     0.029 A 
ATOM     52  C   UNL A   1      45.247  29.847  30.541  1.00  0.00     0.049 A 
ATOM     53  H   UNL A   1      44.263  28.136  29.796  1.00  0.00     0.167 HD
ATOM     54  C   UNL A   1      42.882  30.553  30.317  1.00  0.00     0.074 A 
ATOM     55  C   UNL A   1      41.812  31.521  30.440  1.00  0.00     0.031 C 
ATOM     56  C   UNL A   1      44.173  30.798  30.649  1.00  0.00     0.031 A 
BRANCH  43  57
ATOM     57  C   UNL A   1      47.936  25.968  29.872  1.00  0.00    -0.014 A 
ATOM     58  C   UNL A   1      48.762  25.741  28.759  1.00  0.00     0.009 A 
ATOM     59  C   UNL A   1      48.431  25.684  31.154  1.00  0.00     0.009 A 
ATOM     60  C   UNL A   1      50.043  25.210  28.926  1.00  0.00     0.001 A 
ATOM     61  C   UNL A   1      49.722  25.180  31.320  1.00  0.00     0.001 A 
ATOM     62  C   UNL A   1      50.523  24.935  30.206  1.00  0.00     0.000 A 
ENDBRANCH  43  57
BRANCH  44  63
ATOM     63  C   UNL A   1      38.550  29.244  29.056  1.00  0.00    -0.014 A 
ATOM     64  C   UNL A   1      38.046  29.786  27.863  1.00  0.00     0.009 A 
ATOM     65  C   UNL A   1      37.711  29.177  30.179  1.00  0.00     0.009 A 
ATOM     66  C   UNL A   1      36.739  30.277  27.804  1.00  0.00     0.001 A 
ATOM     67  C   UNL A   1      36.396  29.643  30.109  1.00  0.00     0.001 A 
ATOM     68  C   UNL A   1      35.915  30.202  28.926  1.00  0.00     0.000 A 
ENDBRANCH  44  63
BRANCH  56  69
ATOM     69  C   UNL A   1      44.507  32.179  31.136  1.00  0.00    -0.014 A 
ATOM     70  C   UNL A   1      44.831  33.209  30.240  1.00  0.00     0.009 A 
ATOM     71  C   UNL A   1      44.448  32.462  32.509  1.00  0.00     0.009 A 
ATOM     72  C   UNL A   1      45.119  34.490  30.715  1.00  0.00     0.001 A 
ATOM     73  C   UNL A   1      44.709  33.749  32.978  1.00  0.00     0.001 A 
ATOM     74  C   UNL A   1      45.053  34.760  32.082  1.00  0.00     0.000 A 
ENDBRANCH  56  69
ENDBRANCH  30  31
ENDBRANCH  22  25
ENDBRANCH  20  21
ENDBRANCH   1  20
TORSDOF 12
ENDMDL
MODEL 3
REMARK VINA RESULT:      -9.1      3.670      9.744
REMARK SMILES O=Cc1[nH]nc2cc(C(=O)NCCCCNC(=O)c3ccc(-c4c5nc(c(-c6ccccc6)c6ccc([nH]6)c(-c6ccccc6)c6nc(c(-c7ccccc7)c7ccc4[nH]7)C=C6)C=C5)cc3)ccc12
REMARK SMILES IDX 14 1 13 2 12 3 11 4 9 5 10 6 8 8 3 9 4 10 69 11 5 12 6 14
REMARK SMILES IDX 68 15 7 16 67 17 2 18 1 19 15 20 16 21 17 22 18 24 19 25
REMARK SMILES IDX 20 26 66 27 21 28 65 29 22 30 23 31 24 32 59 33 25 34 64 35
REMARK SMILES IDX 58 36 60 37 26 38 63 39 57 40 56 41 27 43 49 44 34 45 48 46
REMARK SMILES IDX 35 47 38 48 47 49 61 50 36 51 37 52 46 54 62 55 39 56 28 57
REMARK SMILES IDX 29 58 33 59 30 60 32 61 31 62 50 63 51 64 55 65 52 66 54 67
REMARK SMILES IDX 53 68 40 69 41 70 45 71 42 72 44 73 43 74
REMARK H PARENT 11 7 4 13 16 23 60 42 38 53
REMARK Flexibility Score: inf
ROOT
ATOM      1  C   UNL A   1      35.723  33.425  29.843  1.00  0.00     0.023 C 
ENDROOT
BRANCH   1   2
ATOM      2  C   UNL A   1      37.188  33.245  30.262  1.00  0.00     0.023 C 
BRANCH   2   3
ATOM      3  C   UNL A   1      37.624  34.144  31.421  1.00  0.00     0.116 C 
BRANCH   3   4
ATOM      4  N   UNL A   1      36.859  33.843  32.613  1.00  0.00    -0.352 N 
ATOM      5  C   UNL A   1      36.949  32.870  33.574  1.00  0.00     0.251 C 
ATOM      6  O   UNL A   1      36.098  32.914  34.467  1.00  0.00    -0.269 OA
ATOM      7  H   UNL A   1      36.116  34.471  32.765  1.00  0.00     0.163 HD
BRANCH   5   8
ATOM      8  C   UNL A   1      38.003  31.807  33.636  1.00  0.00     0.042 A 
ATOM      9  C   UNL A   1      40.584  28.620  33.671  1.00  0.00     0.105 A 
ATOM     10  N   UNL A   1      39.700  27.733  33.114  1.00  0.00    -0.274 N 
ATOM     11  C   UNL A   1      39.873  29.795  33.727  1.00  0.00     0.030 A 
ATOM     12  N   UNL A   1      38.479  28.232  32.861  1.00  0.00    -0.175 NA
ATOM     13  H   UNL A   1      39.941  26.800  32.915  1.00  0.00     0.190 HD
ATOM     14  C   UNL A   1      38.551  29.520  33.230  1.00  0.00     0.094 A 
ATOM     15  C   UNL A   1      40.346  31.025  34.169  1.00  0.00     0.013 A 
ATOM     16  C   UNL A   1      37.575  30.527  33.185  1.00  0.00     0.044 A 
ATOM     17  C   UNL A   1      39.352  32.028  34.068  1.00  0.00     0.015 A 
BRANCH   9  18
ATOM     18  C   UNL A   1      41.922  28.277  34.063  1.00  0.00     0.280 C 
ATOM     19  O   UNL A   1      42.844  28.015  33.296  1.00  0.00    -0.296 OA
ENDBRANCH   9  18
ENDBRANCH   5   8
ENDBRANCH   3   4
ENDBRANCH   2   3
ENDBRANCH   1   2
BRANCH   1  20
ATOM     20  C   UNL A   1      35.458  33.303  28.345  1.00  0.00     0.116 C 
BRANCH  20  21
ATOM     21  N   UNL A   1      34.402  32.357  28.019  1.00  0.00    -0.352 N 
ATOM     22  C   UNL A   1      34.483  30.988  27.909  1.00  0.00     0.251 C 
ATOM     23  H   UNL A   1      33.514  32.747  27.856  1.00  0.00     0.163 HD
ATOM     24  O   UNL A   1      33.521  30.334  27.536  1.00  0.00    -0.269 OA
BRANCH  22  25
ATOM     25  C   UNL A   1      35.768  30.320  28.203  1.00  0.00     0.039 A 
ATOM     26  C   UNL A   1      36.766  30.328  27.226  1.00  0.00     0.014 A 
ATOM     27  C   UNL A   1      35.996  29.726  29.446  1.00  0.00     0.014 A 
ATOM     28  C   UNL A   1      38.023  29.800  27.522  1.00  0.00     0.010 A 
ATOM     29  C   UNL A   1      37.267  29.258  29.761  1.00  0.00     0.010 A 
ATOM     30  C   UNL A   1      38.294  29.297  28.804  1.00  0.00    -0.014 A 
BRANCH  30  31
ATOM     31  C   UNL A   1      39.649  28.817  29.172  1.00  0.00     0.031 A 
ATOM     32  C   UNL A   1      40.603  29.731  29.887  1.00  0.00     0.074 A 
ATOM     33  C   UNL A   1      40.046  27.588  28.789  1.00  0.00     0.049 A 
ATOM     34  N   UNL A   1      41.853  29.524  30.217  1.00  0.00    -0.248 NA
ATOM     35  C   UNL A   1      40.096  31.063  30.256  1.00  0.00     0.031 C 
ATOM     36  C   UNL A   1      39.230  26.624  28.048  1.00  0.00     0.029 A 
ATOM     37  N   UNL A   1      41.247  26.946  28.958  1.00  0.00    -0.354 N 
ATOM     38  C   UNL A   1      42.287  30.704  30.806  1.00  0.00     0.074 A 
ATOM     39  C   UNL A   1      41.181  31.635  30.755  1.00  0.00     0.031 C 
ATOM     40  C   UNL A   1      39.947  25.508  27.842  1.00  0.00     0.029 A 
ATOM     41  C   UNL A   1      41.282  25.690  28.402  1.00  0.00     0.049 A 
ATOM     42  H   UNL A   1      42.010  27.347  29.433  1.00  0.00     0.167 HD
ATOM     43  C   UNL A   1      43.493  30.981  31.355  1.00  0.00     0.031 A 
ATOM     44  C   UNL A   1      42.281  24.790  28.342  1.00  0.00     0.031 A 
ATOM     45  C   UNL A   1      44.584  30.049  31.426  1.00  0.00     0.049 A 
ATOM     46  C   UNL A   1      43.606  25.118  28.970  1.00  0.00     0.074 A 
ATOM     47  C   UNL A   1      45.822  30.213  32.024  1.00  0.00     0.029 A 
ATOM     48  N   UNL A   1      44.569  28.774  30.880  1.00  0.00    -0.354 N 
ATOM     49  N   UNL A   1      43.977  26.212  29.591  1.00  0.00    -0.248 NA
ATOM     50  C   UNL A   1      44.646  24.083  28.901  1.00  0.00     0.031 C 
ATOM     51  C   UNL A   1      46.571  29.053  31.803  1.00  0.00     0.029 A 
ATOM     52  C   UNL A   1      45.782  28.150  31.110  1.00  0.00     0.049 A 
ATOM     53  H   UNL A   1      43.808  28.374  30.400  1.00  0.00     0.167 HD
ATOM     54  C   UNL A   1      45.280  25.986  30.010  1.00  0.00     0.074 A 
ATOM     55  C   UNL A   1      45.632  24.647  29.585  1.00  0.00     0.031 C 
ATOM     56  C   UNL A   1      46.112  26.814  30.687  1.00  0.00     0.031 A 
BRANCH  43  57
ATOM     57  C   UNL A   1      43.696  32.359  31.920  1.00  0.00    -0.014 A 
ATOM     58  C   UNL A   1      43.443  32.634  33.273  1.00  0.00     0.009 A 
ATOM     59  C   UNL A   1      44.182  33.386  31.097  1.00  0.00     0.009 A 
ATOM     60  C   UNL A   1      43.641  33.919  33.782  1.00  0.00     0.001 A 
ATOM     61  C   UNL A   1      44.407  34.663  31.615  1.00  0.00     0.001 A 
ATOM     62  C   UNL A   1      44.127  34.930  32.954  1.00  0.00     0.000 A 
ENDBRANCH  43  57
BRANCH  44  63
ATOM     63  C   UNL A   1      42.066  23.482  27.672  1.00  0.00    -0.014 A 
ATOM     64  C   UNL A   1      42.518  23.272  26.359  1.00  0.00     0.009 A 
ATOM     65  C   UNL A   1      41.401  22.439  28.336  1.00  0.00     0.009 A 
ATOM     66  C   UNL A   1      42.283  22.055  25.715  1.00  0.00     0.001 A 
ATOM     67  C   UNL A   1      41.192  21.214  27.699  1.00  0.00     0.001 A 
ATOM     68  C   UNL A   1      41.623  21.027  26.386  1.00  0.00     0.000 A 
ENDBRANCH  44  63
BRANCH  56  69
ATOM     69  C   UNL A   1      47.470  26.281  31.047  1.00  0.00    -0.014 A 
ATOM     70  C   UNL A   1      48.542  26.351  30.145  1.00  0.00     0.009 A 
ATOM     71  C   UNL A   1      47.686  25.743  32.325  1.00  0.00     0.009 A 
ATOM     72  C   UNL A   1      49.799  25.866  30.509  1.00  0.00     0.001 A 
ATOM     73  C   UNL A   1      48.950  25.284  32.695  1.00  0.00     0.001 A 
ATOM     74  C   UNL A   1      50.003  25.338  31.784  1.00  0.00     0.000 A 
ENDBRANCH  56  69
ENDBRANCH  30  31
ENDBRANCH  22  25
ENDBRANCH  20  21
ENDBRANCH   1  20
TORSDOF 12
ENDMDL
