MODEL 1
REMARK VINA RESULT:     -11.7      0.000      0.000
REMARK SMILES CC1=C2C(CSc3c(Cl)cccc3Cl)=CC(=O)N=C2S[C@H]1C(=O)NCCCCNC(=O)c1ccc(-c2c3nc(c(-c4ccccc4)c4ccc([nH]4)c(-c4ccccc4)c4nc(c(-c5ccccc5)c5ccc2[nH]5)C=C4)C=C3)cc1
REMARK SMILES IDX 26 1 25 2 24 3 22 4 23 5 21 7 1 8 2 9 3 10 4 11 19 12 20 13
REMARK SMILES IDX 15 14 18 15 16 16 17 17 5 18 6 19 7 20 8 21 13 22 9 23 10 24
REMARK SMILES IDX 12 25 14 26 11 27 27 28 28 29 29 30 30 31 31 33 32 34 33 35
REMARK SMILES IDX 79 36 34 37 78 38 35 39 36 40 37 41 72 42 38 43 77 44 71 45
REMARK SMILES IDX 73 46 39 47 76 48 70 49 69 50 40 52 62 53 47 54 61 55 48 56
REMARK SMILES IDX 51 57 60 58 74 59 49 60 50 61 59 63 75 64 52 65 41 66 42 67
REMARK SMILES IDX 46 68 43 69 45 70 44 71 63 72 64 73 68 74 65 75 67 76 66 77
REMARK SMILES IDX 53 78 54 79 58 80 55 81 57 82 56 83
REMARK H PARENT 24 6 29 32 73 51 51 62
REMARK Flexibility Score: inf
ROOT
ATOM      1  C   UNL A   1      31.762  27.824  26.572  1.00  0.00     0.023 C 
ENDROOT
BRANCH   1   2
ATOM      2  C   UNL A   1      32.743  26.885  25.870  1.00  0.00     0.116 C 
BRANCH   2   3
ATOM      3  N   UNL A   1      33.374  27.357  24.653  1.00  0.00    -0.355 N 
ATOM      4  C   UNL A   1      33.047  27.172  23.332  1.00  0.00     0.237 C 
ATOM      5  O   UNL A   1      33.812  27.723  22.523  1.00  0.00    -0.273 OA
ATOM      6  H   UNL A   1      34.178  27.907  24.799  1.00  0.00     0.163 HD
BRANCH   4   7
ATOM      7  C   UNL A   1      31.910  26.253  22.764  1.00  0.00     0.168 C 
ATOM      8  C   UNL A   1      33.228  24.323  21.728  1.00  0.00     0.042 C 
ATOM      9  C   UNL A   1      32.296  24.785  22.807  1.00  0.00    -0.040 C 
ATOM     10  C   UNL A   1      31.800  24.091  23.848  1.00  0.00     0.012 C 
ATOM     11  C   UNL A   1      32.118  22.823  24.484  1.00  0.00    -0.022 C 
ATOM     12  C   UNL A   1      30.697  24.866  24.486  1.00  0.00     0.109 C 
ATOM     13  S   UNL A   1      30.323  26.334  23.614  1.00  0.00    -0.088 SA
ATOM     14  C   UNL A   1      31.515  22.601  25.674  1.00  0.00     0.079 C 
ATOM     15  N   UNL A   1      30.134  24.625  25.615  1.00  0.00    -0.202 NA
ATOM     16  C   UNL A   1      30.650  23.601  26.361  1.00  0.00     0.271 C 
ATOM     17  O   UNL A   1      30.473  23.496  27.571  1.00  0.00    -0.267 OA
BRANCH  11  18
ATOM     18  C   UNL A   1      33.134  21.830  23.945  1.00  0.00     0.111 C 
BRANCH  18  19
ATOM     19  S   UNL A   1      34.055  20.935  25.286  1.00  0.00    -0.118 SA
BRANCH  19  20
ATOM     20  C   UNL A   1      35.708  21.681  25.364  1.00  0.00     0.045 A 
ATOM     21  C   UNL A   1      35.934  23.013  25.744  1.00  0.00     0.056 A 
ATOM     22  C   UNL A   1      36.865  20.886  25.228  1.00  0.00     0.056 A 
ATOM     23  Cl  UNL A   1      34.679  24.051  26.212  1.00  0.00    -0.083 Cl
ATOM     24  C   UNL A   1      37.215  23.563  25.889  1.00  0.00     0.022 A 
ATOM     25  C   UNL A   1      38.154  21.422  25.422  1.00  0.00     0.022 A 
ATOM     26  Cl  UNL A   1      36.796  19.194  24.862  1.00  0.00    -0.083 Cl
ATOM     27  C   UNL A   1      38.331  22.765  25.737  1.00  0.00     0.003 A 
ENDBRANCH  19  20
ENDBRANCH  18  19
ENDBRANCH  11  18
ENDBRANCH   4   7
ENDBRANCH   2   3
ENDBRANCH   1   2
BRANCH   1  28
ATOM     28  C   UNL A   1      32.333  28.781  27.592  1.00  0.00     0.023 C 
BRANCH  28  29
ATOM     29  C   UNL A   1      33.413  29.704  27.067  1.00  0.00     0.116 C 
BRANCH  29  30
ATOM     30  N   UNL A   1      33.662  30.880  27.895  1.00  0.00    -0.352 N 
ATOM     31  C   UNL A   1      34.788  31.221  28.613  1.00  0.00     0.251 C 
ATOM     32  H   UNL A   1      32.918  31.523  27.949  1.00  0.00     0.163 HD
ATOM     33  O   UNL A   1      34.833  32.240  29.292  1.00  0.00    -0.269 OA
BRANCH  31  34
ATOM     34  C   UNL A   1      35.932  30.291  28.613  1.00  0.00     0.039 A 
ATOM     35  C   UNL A   1      36.804  30.301  27.524  1.00  0.00     0.014 A 
ATOM     36  C   UNL A   1      36.222  29.545  29.753  1.00  0.00     0.014 A 
ATOM     37  C   UNL A   1      38.043  29.676  27.643  1.00  0.00     0.010 A 
ATOM     38  C   UNL A   1      37.506  29.051  29.920  1.00  0.00     0.010 A 
ATOM     39  C   UNL A   1      38.437  29.123  28.873  1.00  0.00    -0.014 A 
BRANCH  39  40
ATOM     40  C   UNL A   1      39.826  28.650  29.102  1.00  0.00     0.031 A 
ATOM     41  C   UNL A   1      40.847  29.582  29.691  1.00  0.00     0.074 A 
ATOM     42  C   UNL A   1      40.187  27.414  28.698  1.00  0.00     0.049 A 
ATOM     43  N   UNL A   1      42.124  29.384  29.893  1.00  0.00    -0.248 NA
ATOM     44  C   UNL A   1      40.382  30.927  30.071  1.00  0.00     0.031 C 
ATOM     45  C   UNL A   1      39.306  26.433  28.056  1.00  0.00     0.029 A 
ATOM     46  N   UNL A   1      41.398  26.770  28.764  1.00  0.00    -0.354 N 
ATOM     47  C   UNL A   1      42.613  30.580  30.401  1.00  0.00     0.074 A 
ATOM     48  C   UNL A   1      41.515  31.519  30.416  1.00  0.00     0.031 C 
ATOM     49  C   UNL A   1      39.994  25.303  27.828  1.00  0.00     0.029 A 
ATOM     50  C   UNL A   1      41.374  25.494  28.252  1.00  0.00     0.049 A 
ATOM     51  H   UNL A   1      42.208  27.185  29.141  1.00  0.00     0.167 HD
ATOM     52  C   UNL A   1      43.860  30.865  30.841  1.00  0.00     0.031 A 
ATOM     53  C   UNL A   1      42.358  24.581  28.130  1.00  0.00     0.031 A 
ATOM     54  C   UNL A   1      44.947  29.925  30.840  1.00  0.00     0.049 A 
ATOM     55  C   UNL A   1      43.739  24.932  28.611  1.00  0.00     0.074 A 
ATOM     56  C   UNL A   1      46.230  30.094  31.331  1.00  0.00     0.029 A 
ATOM     57  N   UNL A   1      44.880  28.643  30.321  1.00  0.00    -0.354 N 
ATOM     58  N   UNL A   1      44.163  26.038  29.171  1.00  0.00    -0.248 NA
ATOM     59  C   UNL A   1      44.778  23.905  28.445  1.00  0.00     0.031 C 
ATOM     60  C   UNL A   1      46.960  28.936  31.045  1.00  0.00     0.029 A 
ATOM     61  C   UNL A   1      46.112  28.022  30.441  1.00  0.00     0.049 A 
ATOM     62  H   UNL A   1      44.078  28.234  29.923  1.00  0.00     0.167 HD
ATOM     63  C   UNL A   1      45.509  25.834  29.444  1.00  0.00     0.074 A 
ATOM     64  C   UNL A   1      45.824  24.487  29.013  1.00  0.00     0.031 C 
ATOM     65  C   UNL A   1      46.407  26.685  29.998  1.00  0.00     0.031 A 
BRANCH  52  66
ATOM     66  C   UNL A   1      44.114  32.254  31.359  1.00  0.00    -0.014 A 
ATOM     67  C   UNL A   1      44.540  33.284  30.506  1.00  0.00     0.009 A 
ATOM     68  C   UNL A   1      43.888  32.545  32.713  1.00  0.00     0.009 A 
ATOM     69  C   UNL A   1      44.765  34.569  31.004  1.00  0.00     0.001 A 
ATOM     70  C   UNL A   1      44.083  33.837  33.202  1.00  0.00     0.001 A 
ATOM     71  C   UNL A   1      44.529  34.845  32.350  1.00  0.00     0.000 A 
ENDBRANCH  52  66
BRANCH  53  72
ATOM     72  C   UNL A   1      42.080  23.250  27.524  1.00  0.00    -0.014 A 
ATOM     73  C   UNL A   1      41.522  22.216  28.293  1.00  0.00     0.009 A 
ATOM     74  C   UNL A   1      42.392  22.998  26.179  1.00  0.00     0.009 A 
ATOM     75  C   UNL A   1      41.315  20.951  27.737  1.00  0.00     0.001 A 
ATOM     76  C   UNL A   1      42.152  21.742  25.616  1.00  0.00     0.001 A 
ATOM     77  C   UNL A   1      41.625  20.717  26.398  1.00  0.00     0.000 A 
ENDBRANCH  53  72
BRANCH  65  78
ATOM     78  C   UNL A   1      47.809  26.176  30.188  1.00  0.00    -0.014 A 
ATOM     79  C   UNL A   1      48.706  26.098  29.111  1.00  0.00     0.009 A 
ATOM     80  C   UNL A   1      48.252  25.816  31.470  1.00  0.00     0.009 A 
ATOM     81  C   UNL A   1      50.008  25.635  29.310  1.00  0.00     0.001 A 
ATOM     82  C   UNL A   1      49.563  25.388  31.673  1.00  0.00     0.001 A 
ATOM     83  C   UNL A   1      50.437  25.287  30.591  1.00  0.00     0.000 A 
ENDBRANCH  65  78
ENDBRANCH  39  40
ENDBRANCH  31  34
ENDBRANCH  29  30
ENDBRANCH  28  29
ENDBRANCH   1  28
TORSDOF 14
ENDMDL
MODEL 2
REMARK VINA RESULT:     -11.6      2.711      8.040
REMARK SMILES CC1=C2C(CSc3c(Cl)cccc3Cl)=CC(=O)N=C2S[C@H]1C(=O)NCCCCNC(=O)c1ccc(-c2c3nc(c(-c4ccccc4)c4ccc([nH]4)c(-c4ccccc4)c4nc(c(-c5ccccc5)c5ccc2[nH]5)C=C4)C=C3)cc1
REMARK SMILES IDX 26 1 25 2 24 3 22 4 23 5 21 7 1 8 2 9 3 10 4 11 19 12 20 13
REMARK SMILES IDX 15 14 18 15 16 16 17 17 5 18 6 19 7 20 8 21 13 22 9 23 10 24
REMARK SMILES IDX 12 25 14 26 11 27 27 28 28 29 29 30 30 31 31 33 32 34 33 35
REMARK SMILES IDX 79 36 34 37 78 38 35 39 36 40 37 41 72 42 38 43 77 44 71 45
REMARK SMILES IDX 73 46 39 47 76 48 70 49 69 50 40 52 62 53 47 54 61 55 48 56
REMARK SMILES IDX 51 57 60 58 74 59 49 60 50 61 59 63 75 64 52 65 41 66 42 67
REMARK SMILES IDX 46 68 43 69 45 70 44 71 63 72 64 73 68 74 65 75 67 76 66 77
REMARK SMILES IDX 53 78 54 79 58 80 55 81 57 82 56 83
REMARK H PARENT 24 6 29 32 73 51 51 62
REMARK Flexibility Score: inf
ROOT
ATOM      1  C   UNL A   1      36.128  20.798  24.998  1.00  0.00     0.023 C 
ENDROOT
BRANCH   1   2
ATOM      2  C   UNL A   1      34.682  21.150  25.349  1.00  0.00     0.116 C 
BRANCH   2   3
ATOM      3  N   UNL A   1      34.432  22.444  25.953  1.00  0.00    -0.355 N 
ATOM      4  C   UNL A   1      33.318  23.248  25.945  1.00  0.00     0.237 C 
ATOM      5  O   UNL A   1      33.439  24.313  26.573  1.00  0.00    -0.273 OA
ATOM      6  H   UNL A   1      35.194  22.811  26.457  1.00  0.00     0.163 HD
BRANCH   4   7
ATOM      7  C   UNL A   1      31.994  23.014  25.137  1.00  0.00     0.168 C 
ATOM      8  C   UNL A   1      30.424  24.769  26.131  1.00  0.00     0.042 C 
ATOM      9  C   UNL A   1      31.214  24.302  24.946  1.00  0.00    -0.040 C 
ATOM     10  C   UNL A   1      31.376  24.900  23.751  1.00  0.00     0.012 C 
ATOM     11  C   UNL A   1      31.128  26.232  23.226  1.00  0.00    -0.022 C 
ATOM     12  C   UNL A   1      31.997  23.941  22.792  1.00  0.00     0.109 C 
ATOM     13  S   UNL A   1      32.185  22.343  23.475  1.00  0.00    -0.088 SA
ATOM     14  C   UNL A   1      31.662  26.488  22.009  1.00  0.00     0.079 C 
ATOM     15  N   UNL A   1      32.487  24.210  21.636  1.00  0.00    -0.202 NA
ATOM     16  C   UNL A   1      32.530  25.528  21.270  1.00  0.00     0.271 C 
ATOM     17  O   UNL A   1      33.279  25.960  20.400  1.00  0.00    -0.267 OA
BRANCH  11  18
ATOM     18  C   UNL A   1      30.416  27.333  23.993  1.00  0.00     0.111 C 
BRANCH  18  19
ATOM     19  S   UNL A   1      31.186  29.004  23.747  1.00  0.00    -0.118 SA
BRANCH  19  20
ATOM     20  C   UNL A   1      32.203  29.325  25.215  1.00  0.00     0.045 A 
ATOM     21  C   UNL A   1      33.362  28.596  25.524  1.00  0.00     0.056 A 
ATOM     22  C   UNL A   1      31.975  30.463  26.016  1.00  0.00     0.056 A 
ATOM     23  Cl  UNL A   1      33.951  27.360  24.525  1.00  0.00    -0.083 Cl
ATOM     24  C   UNL A   1      34.195  28.901  26.609  1.00  0.00     0.022 A 
ATOM     25  C   UNL A   1      32.838  30.803  27.077  1.00  0.00     0.022 A 
ATOM     26  Cl  UNL A   1      30.655  31.551  25.736  1.00  0.00    -0.083 Cl
ATOM     27  C   UNL A   1      33.940  30.013  27.385  1.00  0.00     0.003 A 
ENDBRANCH  19  20
ENDBRANCH  18  19
ENDBRANCH  11  18
ENDBRANCH   4   7
ENDBRANCH   2   3
ENDBRANCH   1   2
BRANCH   1  28
ATOM     28  C   UNL A   1      36.947  21.858  24.301  1.00  0.00     0.023 C 
BRANCH  28  29
ATOM     29  C   UNL A   1      37.754  22.749  25.222  1.00  0.00     0.116 C 
BRANCH  29  30
ATOM     30  N   UNL A   1      39.037  22.190  25.638  1.00  0.00    -0.352 N 
ATOM     31  C   UNL A   1      40.032  22.759  26.403  1.00  0.00     0.251 C 
ATOM     32  H   UNL A   1      39.217  21.273  25.327  1.00  0.00     0.163 HD
ATOM     33  O   UNL A   1      41.076  22.165  26.644  1.00  0.00    -0.269 OA
BRANCH  31  34
ATOM     34  C   UNL A   1      39.852  24.143  26.875  1.00  0.00     0.039 A 
ATOM     35  C   UNL A   1      39.215  24.358  28.098  1.00  0.00     0.014 A 
ATOM     36  C   UNL A   1      40.459  25.196  26.192  1.00  0.00     0.014 A 
ATOM     37  C   UNL A   1      39.316  25.608  28.705  1.00  0.00     0.010 A 
ATOM     38  C   UNL A   1      40.680  26.389  26.863  1.00  0.00     0.010 A 
ATOM     39  C   UNL A   1      40.125  26.604  28.133  1.00  0.00    -0.014 A 
BRANCH  39  40
ATOM     40  C   UNL A   1      40.436  27.862  28.858  1.00  0.00     0.031 A 
ATOM     41  C   UNL A   1      41.740  27.999  29.592  1.00  0.00     0.074 A 
ATOM     42  C   UNL A   1      39.510  28.840  28.928  1.00  0.00     0.049 A 
ATOM     43  N   UNL A   1      42.161  28.982  30.347  1.00  0.00    -0.248 NA
ATOM     44  C   UNL A   1      42.682  26.871  29.498  1.00  0.00     0.031 C 
ATOM     45  C   UNL A   1      38.180  28.805  28.311  1.00  0.00     0.029 A 
ATOM     46  N   UNL A   1      39.544  30.060  29.557  1.00  0.00    -0.354 N 
ATOM     47  C   UNL A   1      43.400  28.580  30.828  1.00  0.00     0.074 A 
ATOM     48  C   UNL A   1      43.636  27.242  30.338  1.00  0.00     0.031 C 
ATOM     49  C   UNL A   1      37.547  29.962  28.556  1.00  0.00     0.029 A 
ATOM     50  C   UNL A   1      38.397  30.800  29.393  1.00  0.00     0.049 A 
ATOM     51  H   UNL A   1      40.318  30.375  30.080  1.00  0.00     0.167 HD
ATOM     52  C   UNL A   1      44.276  29.274  31.590  1.00  0.00     0.031 A 
ATOM     53  C   UNL A   1      38.062  32.015  29.870  1.00  0.00     0.031 A 
ATOM     54  C   UNL A   1      44.047  30.611  32.064  1.00  0.00     0.049 A 
ATOM     55  C   UNL A   1      39.049  32.755  30.730  1.00  0.00     0.074 A 
ATOM     56  C   UNL A   1      44.903  31.427  32.783  1.00  0.00     0.029 A 
ATOM     57  N   UNL A   1      42.877  31.326  31.870  1.00  0.00    -0.354 N 
ATOM     58  N   UNL A   1      40.253  32.396  31.103  1.00  0.00    -0.248 NA
ATOM     59  C   UNL A   1      38.630  34.071  31.233  1.00  0.00     0.031 C 
ATOM     60  C   UNL A   1      44.223  32.611  33.083  1.00  0.00     0.029 A 
ATOM     61  C   UNL A   1      42.971  32.559  32.491  1.00  0.00     0.049 A 
ATOM     62  H   UNL A   1      42.094  31.005  31.367  1.00  0.00     0.167 HD
ATOM     63  C   UNL A   1      40.744  33.449  31.864  1.00  0.00     0.074 A 
ATOM     64  C   UNL A   1      39.717  34.471  31.878  1.00  0.00     0.031 C 
ATOM     65  C   UNL A   1      41.936  33.560  32.500  1.00  0.00     0.031 A 
BRANCH  52  66
ATOM     66  C   UNL A   1      45.565  28.594  31.960  1.00  0.00    -0.014 A 
ATOM     67  C   UNL A   1      46.708  28.706  31.152  1.00  0.00     0.009 A 
ATOM     68  C   UNL A   1      45.649  27.860  33.154  1.00  0.00     0.009 A 
ATOM     69  C   UNL A   1      47.898  28.072  31.516  1.00  0.00     0.001 A 
ATOM     70  C   UNL A   1      46.847  27.254  33.531  1.00  0.00     0.001 A 
ATOM     71  C   UNL A   1      47.968  27.353  32.708  1.00  0.00     0.000 A 
ENDBRANCH  52  66
BRANCH  53  72
ATOM     72  C   UNL A   1      36.734  32.609  29.554  1.00  0.00    -0.014 A 
ATOM     73  C   UNL A   1      35.663  32.487  30.453  1.00  0.00     0.009 A 
ATOM     74  C   UNL A   1      36.523  33.282  28.340  1.00  0.00     0.009 A 
ATOM     75  C   UNL A   1      34.403  32.997  30.129  1.00  0.00     0.001 A 
ATOM     76  C   UNL A   1      35.271  33.821  28.034  1.00  0.00     0.001 A 
ATOM     77  C   UNL A   1      34.209  33.667  28.922  1.00  0.00     0.000 A 
ENDBRANCH  53  72
BRANCH  65  78
ATOM     78  C   UNL A   1      42.201  34.838  33.245  1.00  0.00    -0.014 A 
ATOM     79  C   UNL A   1      41.744  35.021  34.560  1.00  0.00     0.009 A 
ATOM     80  C   UNL A   1      42.958  35.853  32.640  1.00  0.00     0.009 A 
ATOM     81  C   UNL A   1      42.012  36.211  35.240  1.00  0.00     0.001 A 
ATOM     82  C   UNL A   1      43.254  37.026  33.334  1.00  0.00     0.001 A 
ATOM     83  C   UNL A   1      42.772  37.209  34.629  1.00  0.00     0.000 A 
ENDBRANCH  65  78
ENDBRANCH  39  40
ENDBRANCH  31  34
ENDBRANCH  29  30
ENDBRANCH  28  29
ENDBRANCH   1  28
TORSDOF 14
ENDMDL
MODEL 3
REMARK VINA RESULT:     -11.4      2.383      3.604
REMARK SMILES CC1=C2C(CSc3c(Cl)cccc3Cl)=CC(=O)N=C2S[C@H]1C(=O)NCCCCNC(=O)c1ccc(-c2c3nc(c(-c4ccccc4)c4ccc([nH]4)c(-c4ccccc4)c4nc(c(-c5ccccc5)c5ccc2[nH]5)C=C4)C=C3)cc1
REMARK SMILES IDX 26 1 25 2 24 3 22 4 23 5 21 7 1 8 2 9 3 10 4 11 19 12 20 13
REMARK SMILES IDX 15 14 18 15 16 16 17 17 5 18 6 19 7 20 8 21 13 22 9 23 10 24
REMARK SMILES IDX 12 25 14 26 11 27 27 28 28 29 29 30 30 31 31 33 32 34 33 35
REMARK SMILES IDX 79 36 34 37 78 38 35 39 36 40 37 41 72 42 38 43 77 44 71 45
REMARK SMILES IDX 73 46 39 47 76 48 70 49 69 50 40 52 62 53 47 54 61 55 48 56
REMARK SMILES IDX 51 57 60 58 74 59 49 60 50 61 59 63 75 64 52 65 41 66 42 67
REMARK SMILES IDX 46 68 43 69 45 70 44 71 63 72 64 73 68 74 65 75 67 76 66 77
REMARK SMILES IDX 53 78 54 79 58 80 55 81 57 82 56 83
REMARK H PARENT 24 6 29 32 73 51 51 62
REMARK Flexibility Score: inf
ROOT
ATOM      1  C   UNL A   1      32.900  29.091  27.010  1.00  0.00     0.023 C 
ENDROOT
BRANCH   1   2
ATOM      2  C   UNL A   1      32.650  28.146  25.834  1.00  0.00     0.116 C 
BRANCH   2   3
ATOM      3  N   UNL A   1      33.381  28.390  24.607  1.00  0.00    -0.355 N 
ATOM      4  C   UNL A   1      33.000  28.293  23.290  1.00  0.00     0.237 C 
ATOM      5  O   UNL A   1      33.887  28.578  22.469  1.00  0.00    -0.273 OA
ATOM      6  H   UNL A   1      34.313  28.677  24.739  1.00  0.00     0.163 HD
BRANCH   4   7
ATOM      7  C   UNL A   1      31.635  27.747  22.744  1.00  0.00     0.168 C 
ATOM      8  C   UNL A   1      32.381  25.915  21.125  1.00  0.00     0.042 C 
ATOM      9  C   UNL A   1      31.708  26.266  22.418  1.00  0.00    -0.040 C 
ATOM     10  C   UNL A   1      31.211  25.445  23.361  1.00  0.00     0.012 C 
ATOM     11  C   UNL A   1      31.334  24.028  23.659  1.00  0.00    -0.022 C 
ATOM     12  C   UNL A   1      30.382  26.230  24.322  1.00  0.00     0.109 C 
ATOM     13  S   UNL A   1      30.218  27.904  23.847  1.00  0.00    -0.088 SA
ATOM     14  C   UNL A   1      30.850  23.641  24.861  1.00  0.00     0.079 C 
ATOM     15  N   UNL A   1      29.926  25.832  25.454  1.00  0.00    -0.202 NA
ATOM     16  C   UNL A   1      30.305  24.587  25.876  1.00  0.00     0.271 C 
ATOM     17  O   UNL A   1      30.262  24.233  27.050  1.00  0.00    -0.267 OA
BRANCH  11  18
ATOM     18  C   UNL A   1      32.045  23.027  22.764  1.00  0.00     0.111 C 
BRANCH  18  19
ATOM     19  S   UNL A   1      33.871  22.934  23.087  1.00  0.00    -0.118 SA
BRANCH  19  20
ATOM     20  C   UNL A   1      34.064  22.476  24.833  1.00  0.00     0.045 A 
ATOM     21  C   UNL A   1      34.379  23.401  25.840  1.00  0.00     0.056 A 
ATOM     22  C   UNL A   1      33.710  21.188  25.284  1.00  0.00     0.056 A 
ATOM     23  Cl  UNL A   1      34.573  25.056  25.528  1.00  0.00    -0.083 Cl
ATOM     24  C   UNL A   1      34.442  23.064  27.199  1.00  0.00     0.022 A 
ATOM     25  C   UNL A   1      33.723  20.858  26.654  1.00  0.00     0.022 A 
ATOM     26  Cl  UNL A   1      33.193  19.932  24.207  1.00  0.00    -0.083 Cl
ATOM     27  C   UNL A   1      34.104  21.791  27.612  1.00  0.00     0.003 A 
ENDBRANCH  19  20
ENDBRANCH  18  19
ENDBRANCH  11  18
ENDBRANCH   4   7
ENDBRANCH   2   3
ENDBRANCH   1   2
BRANCH   1  28
ATOM     28  C   UNL A   1      32.373  30.501  26.885  1.00  0.00     0.023 C 
BRANCH  28  29
ATOM     29  C   UNL A   1      33.353  31.586  27.281  1.00  0.00     0.116 C 
BRANCH  29  30
ATOM     30  N   UNL A   1      32.741  32.875  27.590  1.00  0.00    -0.352 N 
ATOM     31  C   UNL A   1      33.215  33.903  28.376  1.00  0.00     0.251 C 
ATOM     32  H   UNL A   1      31.861  33.033  27.177  1.00  0.00     0.163 HD
ATOM     33  O   UNL A   1      32.562  34.922  28.564  1.00  0.00    -0.269 OA
BRANCH  31  34
ATOM     34  C   UNL A   1      34.509  33.726  29.059  1.00  0.00     0.039 A 
ATOM     35  C   UNL A   1      34.538  33.045  30.276  1.00  0.00     0.014 A 
ATOM     36  C   UNL A   1      35.692  34.085  28.413  1.00  0.00     0.014 A 
ATOM     37  C   UNL A   1      35.760  32.594  30.772  1.00  0.00     0.010 A 
ATOM     38  C   UNL A   1      36.883  33.513  28.833  1.00  0.00     0.010 A 
ATOM     39  C   UNL A   1      36.929  32.749  30.008  1.00  0.00    -0.014 A 
BRANCH  39  40
ATOM     40  C   UNL A   1      38.202  32.089  30.396  1.00  0.00     0.031 A 
ATOM     41  C   UNL A   1      39.146  32.781  31.338  1.00  0.00     0.074 A 
ATOM     42  C   UNL A   1      38.545  30.913  29.832  1.00  0.00     0.049 A 
ATOM     43  N   UNL A   1      40.336  32.407  31.734  1.00  0.00    -0.248 NA
ATOM     44  C   UNL A   1      38.715  34.080  31.882  1.00  0.00     0.031 C 
ATOM     45  C   UNL A   1      37.745  30.168  28.854  1.00  0.00     0.029 A 
ATOM     46  N   UNL A   1      39.665  30.136  29.995  1.00  0.00    -0.354 N 
ATOM     47  C   UNL A   1      40.798  33.431  32.551  1.00  0.00     0.074 A 
ATOM     48  C   UNL A   1      39.793  34.469  32.544  1.00  0.00     0.031 C 
ATOM     49  C   UNL A   1      38.378  29.027  28.541  1.00  0.00     0.029 A 
ATOM     50  C   UNL A   1      39.652  28.982  29.247  1.00  0.00     0.049 A 
ATOM     51  H   UNL A   1      40.409  30.382  30.592  1.00  0.00     0.167 HD
ATOM     52  C   UNL A   1      41.945  33.490  33.265  1.00  0.00     0.031 A 
ATOM     53  C   UNL A   1      40.569  28.001  29.134  1.00  0.00     0.031 A 
ATOM     54  C   UNL A   1      42.936  32.449  33.283  1.00  0.00     0.049 A 
ATOM     55  C   UNL A   1      41.843  28.103  29.926  1.00  0.00     0.074 A 
ATOM     56  C   UNL A   1      44.099  32.383  34.030  1.00  0.00     0.029 A 
ATOM     57  N   UNL A   1      42.882  31.297  32.517  1.00  0.00    -0.354 N 
ATOM     58  N   UNL A   1      42.225  29.037  30.763  1.00  0.00    -0.248 NA
ATOM     59  C   UNL A   1      42.814  27.011  29.759  1.00  0.00     0.031 C 
ATOM     60  C   UNL A   1      44.783  31.220  33.663  1.00  0.00     0.029 A 
ATOM     61  C   UNL A   1      44.012  30.530  32.742  1.00  0.00     0.049 A 
ATOM     62  H   UNL A   1      42.150  31.058  31.904  1.00  0.00     0.167 HD
ATOM     63  C   UNL A   1      43.466  28.636  31.238  1.00  0.00     0.074 A 
ATOM     64  C   UNL A   1      43.762  27.362  30.616  1.00  0.00     0.031 C 
ATOM     65  C   UNL A   1      44.292  29.268  32.108  1.00  0.00     0.031 A 
BRANCH  52  66
ATOM     66  C   UNL A   1      42.190  34.727  34.085  1.00  0.00    -0.014 A 
ATOM     67  C   UNL A   1      41.827  34.789  35.440  1.00  0.00     0.009 A 
ATOM     68  C   UNL A   1      42.827  35.834  33.503  1.00  0.00     0.009 A 
ATOM     69  C   UNL A   1      42.067  35.944  36.186  1.00  0.00     0.001 A 
ATOM     70  C   UNL A   1      43.096  36.975  34.259  1.00  0.00     0.001 A 
ATOM     71  C   UNL A   1      42.708  37.033  35.596  1.00  0.00     0.000 A 
ENDBRANCH  52  66
BRANCH  53  72
ATOM     72  C   UNL A   1      40.323  26.839  28.236  1.00  0.00    -0.014 A 
ATOM     73  C   UNL A   1      40.823  26.831  26.924  1.00  0.00     0.009 A 
ATOM     74  C   UNL A   1      39.567  25.742  28.678  1.00  0.00     0.009 A 
ATOM     75  C   UNL A   1      40.543  25.765  26.065  1.00  0.00     0.001 A 
ATOM     76  C   UNL A   1      39.318  24.662  27.828  1.00  0.00     0.001 A 
ATOM     77  C   UNL A   1      39.795  24.679  26.519  1.00  0.00     0.000 A 
ENDBRANCH  53  72
BRANCH  65  78
ATOM     78  C   UNL A   1      45.583  28.580  32.454  1.00  0.00    -0.014 A 
ATOM     79  C   UNL A   1      46.751  28.809  31.710  1.00  0.00     0.009 A 
ATOM     80  C   UNL A   1      45.641  27.728  33.567  1.00  0.00     0.009 A 
ATOM     81  C   UNL A   1      47.943  28.169  32.055  1.00  0.00     0.001 A 
ATOM     82  C   UNL A   1      46.841  27.118  33.931  1.00  0.00     0.001 A 
ATOM     83  C   UNL A   1      47.988  27.330  33.169  1.00  0.00     0.000 A 
ENDBRANCH  65  78
ENDBRANCH  39  40
ENDBRANCH  31  34
ENDBRANCH  29  30
ENDBRANCH  28  29
ENDBRANCH   1  28
TORSDOF 14
ENDMDL
