MODEL 1
REMARK VINA RESULT:     -11.6      0.000      0.000
REMARK SMILES CCc1nc(N2CC[N@H+](CC=C(C)C)[C@H](C(=O)NCCCCNC(=O)c3ccc(-c4c5nc(c(-c6ccccc6)c6ccc([nH]6)c(-c6ccccc6)c6nc(c(-c7ccccc7)c7ccc4[nH]7)C=C6)C=C5)cc3)C2)no1
REMARK SMILES IDX 20 1 19 2 18 3 16 4 17 5 15 7 6 8 7 9 74 10 8 11 9 12 5 14
REMARK SMILES IDX 3 15 4 16 76 17 75 18 2 19 1 20 10 21 11 22 12 23 13 24
REMARK SMILES IDX 14 25 21 26 22 27 23 28 24 29 25 31 26 32 27 33 73 34 28 35
REMARK SMILES IDX 72 36 29 37 30 38 31 39 66 40 32 41 71 42 65 43 67 44 33 45
REMARK SMILES IDX 70 46 64 47 63 48 34 50 56 51 41 52 55 53 42 54 45 55 54 56
REMARK SMILES IDX 68 57 43 58 44 59 53 61 69 62 46 63 35 64 36 65 40 66 37 67
REMARK SMILES IDX 39 68 38 69 57 70 58 71 62 72 59 73 61 74 60 75 47 76 48 77
REMARK SMILES IDX 52 78 49 79 51 80 50 81
REMARK H PARENT 18 6 9 13 23 30 67 49 45 60
REMARK Flexibility Score: inf
ROOT
ATOM      1  C   UNL A   1      37.015  20.982  24.432  1.00  0.00     0.023 C 
ENDROOT
BRANCH   1   2
ATOM      2  C   UNL A   1      36.745  22.066  25.477  1.00  0.00     0.116 C 
BRANCH   2   3
ATOM      3  N   UNL A   1      35.825  21.603  26.501  1.00  0.00    -0.351 N 
ATOM      4  C   UNL A   1      34.465  21.764  26.557  1.00  0.00     0.280 C 
ATOM      5  O   UNL A   1      33.872  21.365  27.561  1.00  0.00    -0.268 OA
ATOM      6  H   UNL A   1      36.231  21.111  27.251  1.00  0.00     0.163 HD
BRANCH   4   7
ATOM      7  C   UNL A   1      33.737  22.385  25.358  1.00  0.00     0.294 C 
ATOM      8  N   UNL A   1      31.874  23.852  24.669  1.00  0.00    -0.326 N 
ATOM      9  C   UNL A   1      31.513  22.948  23.580  1.00  0.00     0.181 C 
ATOM     10  C   UNL A   1      32.573  23.283  25.824  1.00  0.00     0.195 C 
ATOM     11  C   UNL A   1      32.697  22.018  23.208  1.00  0.00     0.284 C 
ATOM     12  N   UNL A   1      33.405  21.356  24.325  1.00  0.00    -0.318 N 
ATOM     13  H   UNL A   1      34.300  20.978  24.013  1.00  0.00     0.349 HD
BRANCH   8  14
ATOM     14  C   UNL A   1      31.385  25.106  24.700  1.00  0.00     0.266 A 
ATOM     15  C   UNL A   1      31.237  27.059  25.416  1.00  0.00     0.227 A 
ATOM     16  N   UNL A   1      31.638  25.873  25.804  1.00  0.00    -0.176 NA
ATOM     17  O   UNL A   1      30.659  27.063  24.184  1.00  0.00    -0.337 OA
ATOM     18  N   UNL A   1      30.772  25.762  23.704  1.00  0.00    -0.038 NA
BRANCH  15  19
ATOM     19  C   UNL A   1      31.470  28.373  26.052  1.00  0.00     0.097 C 
ATOM     20  C   UNL A   1      31.488  28.220  27.567  1.00  0.00     0.014 C 
ENDBRANCH  15  19
ENDBRANCH   8  14
BRANCH  12  21
ATOM     21  C   UNL A   1      32.743  20.124  24.782  1.00  0.00     0.291 C 
BRANCH  21  22
ATOM     22  C   UNL A   1      33.489  18.837  24.571  1.00  0.00     0.032 C 
ATOM     23  C   UNL A   1      33.356  17.966  23.551  1.00  0.00    -0.075 C 
ATOM     24  C   UNL A   1      34.054  16.633  23.591  1.00  0.00     0.039 C 
ATOM     25  C   UNL A   1      32.460  18.195  22.367  1.00  0.00     0.039 C 
ENDBRANCH  21  22
ENDBRANCH  12  21
ENDBRANCH   4   7
ENDBRANCH   2   3
ENDBRANCH   1   2
BRANCH   1  26
ATOM     26  C   UNL A   1      37.872  19.813  24.934  1.00  0.00     0.023 C 
BRANCH  26  27
ATOM     27  C   UNL A   1      39.104  20.206  25.741  1.00  0.00     0.116 C 
BRANCH  27  28
ATOM     28  N   UNL A   1      40.080  19.134  25.848  1.00  0.00    -0.352 N 
ATOM     29  C   UNL A   1      41.431  19.205  26.092  1.00  0.00     0.251 C 
ATOM     30  H   UNL A   1      39.721  18.224  25.727  1.00  0.00     0.163 HD
ATOM     31  O   UNL A   1      42.124  18.198  26.011  1.00  0.00    -0.269 OA
BRANCH  29  32
ATOM     32  C   UNL A   1      42.059  20.506  26.420  1.00  0.00     0.039 A 
ATOM     33  C   UNL A   1      42.504  21.318  25.374  1.00  0.00     0.014 A 
ATOM     34  C   UNL A   1      42.208  20.926  27.744  1.00  0.00     0.014 A 
ATOM     35  C   UNL A   1      43.032  22.582  25.653  1.00  0.00     0.010 A 
ATOM     36  C   UNL A   1      42.663  22.214  28.016  1.00  0.00     0.010 A 
ATOM     37  C   UNL A   1      43.079  23.057  26.974  1.00  0.00    -0.014 A 
BRANCH  37  38
ATOM     38  C   UNL A   1      43.545  24.435  27.279  1.00  0.00     0.031 A 
ATOM     39  C   UNL A   1      42.567  25.490  27.722  1.00  0.00     0.074 A 
ATOM     40  C   UNL A   1      44.841  24.757  27.097  1.00  0.00     0.049 A 
ATOM     41  N   UNL A   1      42.780  26.756  27.982  1.00  0.00    -0.248 NA
ATOM     42  C   UNL A   1      41.164  25.076  27.870  1.00  0.00     0.031 C 
ATOM     43  C   UNL A   1      45.886  23.841  26.636  1.00  0.00     0.029 A 
ATOM     44  N   UNL A   1      45.500  25.949  27.274  1.00  0.00    -0.354 N 
ATOM     45  C   UNL A   1      41.539  27.289  28.310  1.00  0.00     0.074 A 
ATOM     46  C   UNL A   1      40.572  26.224  28.166  1.00  0.00     0.031 C 
ATOM     47  C   UNL A   1      47.057  24.495  26.595  1.00  0.00     0.029 A 
ATOM     48  C   UNL A   1      46.841  25.885  26.980  1.00  0.00     0.049 A 
ATOM     49  H   UNL A   1      45.054  26.771  27.582  1.00  0.00     0.167 HD
ATOM     50  C   UNL A   1      41.234  28.545  28.713  1.00  0.00     0.031 A 
ATOM     51  C   UNL A   1      47.790  26.841  27.007  1.00  0.00     0.031 A 
ATOM     52  C   UNL A   1      42.195  29.607  28.859  1.00  0.00     0.049 A 
ATOM     53  C   UNL A   1      47.419  28.236  27.429  1.00  0.00     0.074 A 
ATOM     54  C   UNL A   1      41.990  30.899  29.312  1.00  0.00     0.029 A 
ATOM     55  N   UNL A   1      43.542  29.502  28.548  1.00  0.00    -0.354 N 
ATOM     56  N   UNL A   1      46.254  28.704  27.805  1.00  0.00    -0.248 NA
ATOM     57  C   UNL A   1      48.500  29.232  27.439  1.00  0.00     0.031 C 
ATOM     58  C   UNL A   1      43.200  31.593  29.216  1.00  0.00     0.029 A 
ATOM     59  C   UNL A   1      44.174  30.714  28.769  1.00  0.00     0.049 A 
ATOM     60  H   UNL A   1      43.984  28.686  28.217  1.00  0.00     0.167 HD
ATOM     61  C   UNL A   1      46.468  30.039  28.125  1.00  0.00     0.074 A 
ATOM     62  C   UNL A   1      47.877  30.300  27.917  1.00  0.00     0.031 C 
ATOM     63  C   UNL A   1      45.576  30.964  28.557  1.00  0.00     0.031 A 
BRANCH  50  64
ATOM     64  C   UNL A   1      39.791  28.846  29.015  1.00  0.00    -0.014 A 
ATOM     65  C   UNL A   1      38.925  29.342  28.026  1.00  0.00     0.009 A 
ATOM     66  C   UNL A   1      39.279  28.593  30.298  1.00  0.00     0.009 A 
ATOM     67  C   UNL A   1      37.590  29.616  28.326  1.00  0.00     0.001 A 
ATOM     68  C   UNL A   1      37.934  28.837  30.585  1.00  0.00     0.001 A 
ATOM     69  C   UNL A   1      37.093  29.358  29.604  1.00  0.00     0.000 A 
ENDBRANCH  50  64
BRANCH  51  70
ATOM     70  C   UNL A   1      49.191  26.511  26.631  1.00  0.00    -0.014 A 
ATOM     71  C   UNL A   1      49.624  26.645  25.303  1.00  0.00     0.009 A 
ATOM     72  C   UNL A   1      50.100  26.049  27.596  1.00  0.00     0.009 A 
ATOM     73  C   UNL A   1      50.927  26.293  24.944  1.00  0.00     0.001 A 
ATOM     74  C   UNL A   1      51.412  25.729  27.240  1.00  0.00     0.001 A 
ATOM     75  C   UNL A   1      51.821  25.842  25.913  1.00  0.00     0.000 A 
ENDBRANCH  51  70
BRANCH  63  76
ATOM     76  C   UNL A   1      46.104  32.337  28.871  1.00  0.00    -0.014 A 
ATOM     77  C   UNL A   1      46.609  32.657  30.141  1.00  0.00     0.009 A 
ATOM     78  C   UNL A   1      46.132  33.314  27.863  1.00  0.00     0.009 A 
ATOM     79  C   UNL A   1      47.097  33.939  30.404  1.00  0.00     0.001 A 
ATOM     80  C   UNL A   1      46.651  34.585  28.120  1.00  0.00     0.001 A 
ATOM     81  C   UNL A   1      47.122  34.899  29.393  1.00  0.00     0.000 A 
ENDBRANCH  63  76
ENDBRANCH  37  38
ENDBRANCH  29  32
ENDBRANCH  27  28
ENDBRANCH  26  27
ENDBRANCH   1  26
TORSDOF 15
ENDMDL
MODEL 2
REMARK VINA RESULT:     -11.5      1.509      5.965
REMARK SMILES CCc1nc(N2CC[N@H+](CC=C(C)C)[C@H](C(=O)NCCCCNC(=O)c3ccc(-c4c5nc(c(-c6ccccc6)c6ccc([nH]6)c(-c6ccccc6)c6nc(c(-c7ccccc7)c7ccc4[nH]7)C=C6)C=C5)cc3)C2)no1
REMARK SMILES IDX 20 1 19 2 18 3 16 4 17 5 15 7 6 8 7 9 74 10 8 11 9 12 5 14
REMARK SMILES IDX 3 15 4 16 76 17 75 18 2 19 1 20 10 21 11 22 12 23 13 24
REMARK SMILES IDX 14 25 21 26 22 27 23 28 24 29 25 31 26 32 27 33 73 34 28 35
REMARK SMILES IDX 72 36 29 37 30 38 31 39 66 40 32 41 71 42 65 43 67 44 33 45
REMARK SMILES IDX 70 46 64 47 63 48 34 50 56 51 41 52 55 53 42 54 45 55 54 56
REMARK SMILES IDX 68 57 43 58 44 59 53 61 69 62 46 63 35 64 36 65 40 66 37 67
REMARK SMILES IDX 39 68 38 69 57 70 58 71 62 72 59 73 61 74 60 75 47 76 48 77
REMARK SMILES IDX 52 78 49 79 51 80 50 81
REMARK H PARENT 18 6 9 13 23 30 67 49 45 60
REMARK Flexibility Score: inf
ROOT
ATOM      1  C   UNL A   1      36.430  20.275  24.997  1.00  0.00     0.023 C 
ENDROOT
BRANCH   1   2
ATOM      2  C   UNL A   1      36.216  21.588  25.755  1.00  0.00     0.116 C 
BRANCH   2   3
ATOM      3  N   UNL A   1      35.233  21.438  26.813  1.00  0.00    -0.351 N 
ATOM      4  C   UNL A   1      33.949  21.914  26.853  1.00  0.00     0.280 C 
ATOM      5  O   UNL A   1      33.298  21.750  27.887  1.00  0.00    -0.268 OA
ATOM      6  H   UNL A   1      35.528  20.931  27.604  1.00  0.00     0.163 HD
BRANCH   4   7
ATOM      7  C   UNL A   1      33.361  22.584  25.604  1.00  0.00     0.294 C 
ATOM      8  N   UNL A   1      31.638  24.146  24.775  1.00  0.00    -0.326 N 
ATOM      9  C   UNL A   1      31.337  23.273  23.643  1.00  0.00     0.181 C 
ATOM     10  C   UNL A   1      32.203  23.530  25.978  1.00  0.00     0.195 C 
ATOM     11  C   UNL A   1      32.506  22.294  23.363  1.00  0.00     0.284 C 
ATOM     12  N   UNL A   1      33.079  21.585  24.528  1.00  0.00    -0.318 N 
ATOM     13  H   UNL A   1      33.980  21.170  24.292  1.00  0.00     0.349 HD
BRANCH   8  14
ATOM     14  C   UNL A   1      31.206  25.421  24.783  1.00  0.00     0.266 A 
ATOM     15  C   UNL A   1      31.262  27.431  25.335  1.00  0.00     0.227 A 
ATOM     16  N   UNL A   1      31.689  26.262  25.747  1.00  0.00    -0.176 NA
ATOM     17  O   UNL A   1      30.463  27.362  24.236  1.00  0.00    -0.337 OA
ATOM     18  N   UNL A   1      30.439  26.023  23.863  1.00  0.00    -0.038 NA
BRANCH  15  19
ATOM     19  C   UNL A   1      31.655  28.779  25.796  1.00  0.00     0.097 C 
ATOM     20  C   UNL A   1      31.715  28.810  27.317  1.00  0.00     0.014 C 
ENDBRANCH  15  19
ENDBRANCH   8  14
BRANCH  12  21
ATOM     21  C   UNL A   1      32.322  20.380  24.903  1.00  0.00     0.291 C 
BRANCH  21  22
ATOM     22  C   UNL A   1      33.037  19.065  24.774  1.00  0.00     0.032 C 
ATOM     23  C   UNL A   1      32.996  18.203  23.738  1.00  0.00    -0.075 C 
ATOM     24  C   UNL A   1      33.631  16.843  23.852  1.00  0.00     0.039 C 
ATOM     25  C   UNL A   1      32.261  18.472  22.455  1.00  0.00     0.039 C 
ENDBRANCH  21  22
ENDBRANCH  12  21
ENDBRANCH   4   7
ENDBRANCH   2   3
ENDBRANCH   1   2
BRANCH   1  26
ATOM     26  C   UNL A   1      37.890  19.985  24.628  1.00  0.00     0.023 C 
BRANCH  26  27
ATOM     27  C   UNL A   1      38.913  20.295  25.715  1.00  0.00     0.116 C 
BRANCH  27  28
ATOM     28  N   UNL A   1      40.000  19.331  25.763  1.00  0.00    -0.352 N 
ATOM     29  C   UNL A   1      41.318  19.518  26.110  1.00  0.00     0.251 C 
ATOM     30  H   UNL A   1      39.758  18.410  25.512  1.00  0.00     0.163 HD
ATOM     31  O   UNL A   1      42.127  18.612  25.960  1.00  0.00    -0.269 OA
BRANCH  29  32
ATOM     32  C   UNL A   1      41.769  20.829  26.632  1.00  0.00     0.039 A 
ATOM     33  C   UNL A   1      42.275  21.772  25.732  1.00  0.00     0.014 A 
ATOM     34  C   UNL A   1      41.694  21.132  27.993  1.00  0.00     0.014 A 
ATOM     35  C   UNL A   1      42.638  23.041  26.188  1.00  0.00     0.010 A 
ATOM     36  C   UNL A   1      41.984  22.421  28.434  1.00  0.00     0.010 A 
ATOM     37  C   UNL A   1      42.458  23.391  27.537  1.00  0.00    -0.014 A 
BRANCH  37  38
ATOM     38  C   UNL A   1      42.745  24.767  28.019  1.00  0.00     0.031 A 
ATOM     39  C   UNL A   1      44.144  25.164  28.404  1.00  0.00     0.074 A 
ATOM     40  C   UNL A   1      41.734  25.646  28.169  1.00  0.00     0.049 A 
ATOM     41  N   UNL A   1      44.575  26.301  28.892  1.00  0.00    -0.248 NA
ATOM     42  C   UNL A   1      45.193  24.145  28.242  1.00  0.00     0.031 C 
ATOM     43  C   UNL A   1      40.326  25.379  27.868  1.00  0.00     0.029 A 
ATOM     44  N   UNL A   1      41.736  26.943  28.619  1.00  0.00    -0.354 N 
ATOM     45  C   UNL A   1      45.937  26.128  29.107  1.00  0.00     0.074 A 
ATOM     46  C   UNL A   1      46.251  24.763  28.747  1.00  0.00     0.031 C 
ATOM     47  C   UNL A   1      39.607  26.485  28.114  1.00  0.00     0.029 A 
ATOM     48  C   UNL A   1      40.490  27.523  28.633  1.00  0.00     0.049 A 
ATOM     49  H   UNL A   1      42.552  27.413  28.906  1.00  0.00     0.167 HD
ATOM     50  C   UNL A   1      46.848  27.028  29.548  1.00  0.00     0.031 A 
ATOM     51  C   UNL A   1      40.099  28.750  29.027  1.00  0.00     0.031 A 
ATOM     52  C   UNL A   1      46.539  28.387  29.906  1.00  0.00     0.049 A 
ATOM     53  C   UNL A   1      41.126  29.721  29.541  1.00  0.00     0.074 A 
ATOM     54  C   UNL A   1      47.404  29.389  30.313  1.00  0.00     0.029 A 
ATOM     55  N   UNL A   1      45.265  28.934  29.909  1.00  0.00    -0.354 N 
ATOM     56  N   UNL A   1      42.421  29.564  29.670  1.00  0.00    -0.248 NA
ATOM     57  C   UNL A   1      40.636  31.043  29.955  1.00  0.00     0.031 C 
ATOM     58  C   UNL A   1      46.645  30.523  30.620  1.00  0.00     0.029 A 
ATOM     59  C   UNL A   1      45.316  30.249  30.339  1.00  0.00     0.049 A 
ATOM     60  H   UNL A   1      44.445  28.456  29.645  1.00  0.00     0.167 HD
ATOM     61  C   UNL A   1      42.903  30.776  30.149  1.00  0.00     0.074 A 
ATOM     62  C   UNL A   1      41.765  31.662  30.271  1.00  0.00     0.031 C 
ATOM     63  C   UNL A   1      44.177  31.122  30.457  1.00  0.00     0.031 A 
BRANCH  50  64
ATOM     64  C   UNL A   1      48.274  26.565  29.679  1.00  0.00    -0.014 A 
ATOM     65  C   UNL A   1      49.199  26.743  28.637  1.00  0.00     0.009 A 
ATOM     66  C   UNL A   1      48.709  25.975  30.876  1.00  0.00     0.009 A 
ATOM     67  C   UNL A   1      50.517  26.305  28.777  1.00  0.00     0.001 A 
ATOM     68  C   UNL A   1      50.037  25.569  31.025  1.00  0.00     0.001 A 
ATOM     69  C   UNL A   1      50.937  25.724  29.973  1.00  0.00     0.000 A 
ENDBRANCH  50  64
BRANCH  51  70
ATOM     70  C   UNL A   1      38.665  29.139  28.946  1.00  0.00    -0.014 A 
ATOM     71  C   UNL A   1      38.135  29.667  27.759  1.00  0.00     0.009 A 
ATOM     72  C   UNL A   1      37.822  28.997  30.059  1.00  0.00     0.009 A 
ATOM     73  C   UNL A   1      36.800  30.072  27.697  1.00  0.00     0.001 A 
ATOM     74  C   UNL A   1      36.479  29.372  29.985  1.00  0.00     0.001 A 
ATOM     75  C   UNL A   1      35.972  29.919  28.807  1.00  0.00     0.000 A 
ENDBRANCH  51  70
BRANCH  63  76
ATOM     76  C   UNL A   1      44.415  32.534  30.920  1.00  0.00    -0.014 A 
ATOM     77  C   UNL A   1      44.397  32.873  32.281  1.00  0.00     0.009 A 
ATOM     78  C   UNL A   1      44.702  33.532  29.975  1.00  0.00     0.009 A 
ATOM     79  C   UNL A   1      44.625  34.191  32.683  1.00  0.00     0.001 A 
ATOM     80  C   UNL A   1      44.962  34.842  30.382  1.00  0.00     0.001 A 
ATOM     81  C   UNL A   1      44.912  35.172  31.735  1.00  0.00     0.000 A 
ENDBRANCH  63  76
ENDBRANCH  37  38
ENDBRANCH  29  32
ENDBRANCH  27  28
ENDBRANCH  26  27
ENDBRANCH   1  26
TORSDOF 15
ENDMDL
MODEL 3
REMARK VINA RESULT:     -11.4      4.570      9.724
REMARK SMILES CCc1nc(N2CC[N@H+](CC=C(C)C)[C@H](C(=O)NCCCCNC(=O)c3ccc(-c4c5nc(c(-c6ccccc6)c6ccc([nH]6)c(-c6ccccc6)c6nc(c(-c7ccccc7)c7ccc4[nH]7)C=C6)C=C5)cc3)C2)no1
REMARK SMILES IDX 20 1 19 2 18 3 16 4 17 5 15 7 6 8 7 9 74 10 8 11 9 12 5 14
REMARK SMILES IDX 3 15 4 16 76 17 75 18 2 19 1 20 10 21 11 22 12 23 13 24
REMARK SMILES IDX 14 25 21 26 22 27 23 28 24 29 25 31 26 32 27 33 73 34 28 35
REMARK SMILES IDX 72 36 29 37 30 38 31 39 66 40 32 41 71 42 65 43 67 44 33 45
REMARK SMILES IDX 70 46 64 47 63 48 34 50 56 51 41 52 55 53 42 54 45 55 54 56
REMARK SMILES IDX 68 57 43 58 44 59 53 61 69 62 46 63 35 64 36 65 40 66 37 67
REMARK SMILES IDX 39 68 38 69 57 70 58 71 62 72 59 73 61 74 60 75 47 76 48 77
REMARK SMILES IDX 52 78 49 79 51 80 50 81
REMARK H PARENT 18 6 9 13 23 30 67 49 45 60
REMARK Flexibility Score: inf
ROOT
ATOM      1  C   UNL A   1      31.420  30.365  26.357  1.00  0.00     0.023 C 
ENDROOT
BRANCH   1   2
ATOM      2  C   UNL A   1      32.808  29.748  26.168  1.00  0.00     0.116 C 
BRANCH   2   3
ATOM      3  N   UNL A   1      33.267  29.879  24.797  1.00  0.00    -0.351 N 
ATOM      4  C   UNL A   1      33.189  28.960  23.783  1.00  0.00     0.280 C 
ATOM      5  O   UNL A   1      33.717  29.235  22.704  1.00  0.00    -0.268 OA
ATOM      6  H   UNL A   1      33.690  30.738  24.566  1.00  0.00     0.163 HD
BRANCH   4   7
ATOM      7  C   UNL A   1      32.413  27.657  24.015  1.00  0.00     0.294 C 
ATOM      8  N   UNL A   1      32.187  25.295  23.331  1.00  0.00    -0.326 N 
ATOM      9  C   UNL A   1      30.729  25.392  23.340  1.00  0.00     0.181 C 
ATOM     10  C   UNL A   1      32.950  26.527  23.114  1.00  0.00     0.195 C 
ATOM     11  C   UNL A   1      30.252  26.591  24.198  1.00  0.00     0.284 C 
ATOM     12  N   UNL A   1      30.936  27.884  23.981  1.00  0.00    -0.318 N 
ATOM     13  H   UNL A   1      30.737  28.532  24.743  1.00  0.00     0.349 HD
BRANCH   8  14
ATOM     14  C   UNL A   1      32.786  24.090  23.303  1.00  0.00     0.266 A 
ATOM     15  C   UNL A   1      34.195  22.667  23.886  1.00  0.00     0.227 A 
ATOM     16  N   UNL A   1      34.017  23.965  23.887  1.00  0.00    -0.176 NA
ATOM     17  O   UNL A   1      33.205  21.982  23.250  1.00  0.00    -0.337 OA
ATOM     18  N   UNL A   1      32.262  22.932  22.876  1.00  0.00    -0.038 NA
BRANCH  15  19
ATOM     19  C   UNL A   1      35.211  21.867  24.601  1.00  0.00     0.097 C 
ATOM     20  C   UNL A   1      36.587  22.121  24.000  1.00  0.00     0.014 C 
ENDBRANCH  15  19
ENDBRANCH   8  14
BRANCH  12  21
ATOM     21  C   UNL A   1      30.393  28.643  22.842  1.00  0.00     0.291 C 
BRANCH  21  22
ATOM     22  C   UNL A   1      29.601  29.877  23.168  1.00  0.00     0.032 C 
ATOM     23  C   UNL A   1      28.260  30.000  23.240  1.00  0.00    -0.075 C 
ATOM     24  C   UNL A   1      27.626  31.356  23.400  1.00  0.00     0.039 C 
ATOM     25  C   UNL A   1      27.305  28.851  23.081  1.00  0.00     0.039 C 
ENDBRANCH  21  22
ENDBRANCH  12  21
ENDBRANCH   4   7
ENDBRANCH   2   3
ENDBRANCH   1   2
BRANCH   1  26
ATOM     26  C   UNL A   1      31.418  31.890  26.514  1.00  0.00     0.023 C 
BRANCH  26  27
ATOM     27  C   UNL A   1      32.621  32.473  27.247  1.00  0.00     0.116 C 
BRANCH  27  28
ATOM     28  N   UNL A   1      32.408  33.841  27.691  1.00  0.00    -0.352 N 
ATOM     29  C   UNL A   1      33.139  34.593  28.580  1.00  0.00     0.251 C 
ATOM     30  H   UNL A   1      31.627  34.295  27.298  1.00  0.00     0.163 HD
ATOM     31  O   UNL A   1      32.729  35.690  28.939  1.00  0.00    -0.269 OA
BRANCH  29  32
ATOM     32  C   UNL A   1      34.407  34.064  29.133  1.00  0.00     0.039 A 
ATOM     33  C   UNL A   1      34.363  33.318  30.314  1.00  0.00     0.014 A 
ATOM     34  C   UNL A   1      35.629  34.298  28.499  1.00  0.00     0.014 A 
ATOM     35  C   UNL A   1      35.535  32.745  30.817  1.00  0.00     0.010 A 
ATOM     36  C   UNL A   1      36.781  33.665  28.958  1.00  0.00     0.010 A 
ATOM     37  C   UNL A   1      36.748  32.880  30.121  1.00  0.00    -0.014 A 
BRANCH  37  38
ATOM     38  C   UNL A   1      37.982  32.196  30.588  1.00  0.00     0.031 A 
ATOM     39  C   UNL A   1      38.832  32.809  31.668  1.00  0.00     0.074 A 
ATOM     40  C   UNL A   1      38.373  31.050  29.997  1.00  0.00     0.049 A 
ATOM     41  N   UNL A   1      39.966  32.384  32.167  1.00  0.00    -0.248 NA
ATOM     42  C   UNL A   1      38.359  34.076  32.247  1.00  0.00     0.031 C 
ATOM     43  C   UNL A   1      37.663  30.368  28.914  1.00  0.00     0.029 A 
ATOM     44  N   UNL A   1      39.472  30.258  30.221  1.00  0.00    -0.354 N 
ATOM     45  C   UNL A   1      40.347  33.336  33.105  1.00  0.00     0.074 A 
ATOM     46  C   UNL A   1      39.352  34.385  33.070  1.00  0.00     0.031 C 
ATOM     47  C   UNL A   1      38.326  29.247  28.589  1.00  0.00     0.029 A 
ATOM     48  C   UNL A   1      39.531  29.154  29.405  1.00  0.00     0.049 A 
ATOM     49  H   UNL A   1      40.153  30.461  30.902  1.00  0.00     0.167 HD
ATOM     50  C   UNL A   1      41.417  33.330  33.935  1.00  0.00     0.031 A 
ATOM     51  C   UNL A   1      40.456  28.179  29.315  1.00  0.00     0.031 A 
ATOM     52  C   UNL A   1      42.408  32.287  33.973  1.00  0.00     0.049 A 
ATOM     53  C   UNL A   1      41.652  28.211  30.227  1.00  0.00     0.074 A 
ATOM     54  C   UNL A   1      43.499  32.166  34.816  1.00  0.00     0.029 A 
ATOM     55  N   UNL A   1      42.433  31.188  33.128  1.00  0.00    -0.354 N 
ATOM     56  N   UNL A   1      41.958  29.082  31.158  1.00  0.00    -0.248 NA
ATOM     57  C   UNL A   1      42.624  27.119  30.080  1.00  0.00     0.031 C 
ATOM     58  C   UNL A   1      44.219  31.027  34.439  1.00  0.00     0.029 A 
ATOM     59  C   UNL A   1      43.538  30.402  33.408  1.00  0.00     0.049 A 
ATOM     60  H   UNL A   1      41.764  30.996  32.430  1.00  0.00     0.167 HD
ATOM     61  C   UNL A   1      43.140  28.625  31.729  1.00  0.00     0.074 A 
ATOM     62  C   UNL A   1      43.484  27.393  31.051  1.00  0.00     0.031 C 
ATOM     63  C   UNL A   1      43.872  29.177  32.727  1.00  0.00     0.031 A 
BRANCH  50  64
ATOM     64  C   UNL A   1      41.579  34.500  34.866  1.00  0.00    -0.014 A 
ATOM     65  C   UNL A   1      42.309  35.640  34.488  1.00  0.00     0.009 A 
ATOM     66  C   UNL A   1      40.962  34.479  36.127  1.00  0.00     0.009 A 
ATOM     67  C   UNL A   1      42.449  36.715  35.368  1.00  0.00     0.001 A 
ATOM     68  C   UNL A   1      41.077  35.571  36.991  1.00  0.00     0.001 A 
ATOM     69  C   UNL A   1      41.829  36.682  36.616  1.00  0.00     0.000 A 
ENDBRANCH  50  64
BRANCH  51  70
ATOM     70  C   UNL A   1      40.288  27.079  28.328  1.00  0.00    -0.014 A 
ATOM     71  C   UNL A   1      39.581  25.916  28.668  1.00  0.00     0.009 A 
ATOM     72  C   UNL A   1      40.845  27.180  27.043  1.00  0.00     0.009 A 
ATOM     73  C   UNL A   1      39.462  24.865  27.756  1.00  0.00     0.001 A 
ATOM     74  C   UNL A   1      40.696  26.143  26.121  1.00  0.00     0.001 A 
ATOM     75  C   UNL A   1      40.014  24.982  26.481  1.00  0.00     0.000 A 
ENDBRANCH  51  70
BRANCH  63  76
ATOM     76  C   UNL A   1      45.099  28.433  33.176  1.00  0.00    -0.014 A 
ATOM     77  C   UNL A   1      46.362  28.699  32.624  1.00  0.00     0.009 A 
ATOM     78  C   UNL A   1      44.993  27.476  34.198  1.00  0.00     0.009 A 
ATOM     79  C   UNL A   1      47.486  27.995  33.062  1.00  0.00     0.001 A 
ATOM     80  C   UNL A   1      46.124  26.797  34.656  1.00  0.00     0.001 A 
ATOM     81  C   UNL A   1      47.367  27.050  34.080  1.00  0.00     0.000 A 
ENDBRANCH  63  76
ENDBRANCH  37  38
ENDBRANCH  29  32
ENDBRANCH  27  28
ENDBRANCH  26  27
ENDBRANCH   1  26
TORSDOF 15
ENDMDL
