MODEL 1
REMARK VINA RESULT:     -10.8      0.000      0.000
REMARK SMILES O=C1NC[C@@H](CSc2ccnc(C(=O)NCCCCNC(=O)c3ccc(-c4c5nc(c(-c6ccccc6)c6ccc([nH]6)c(-c6ccccc6)c6nc(c(-c7ccccc7)c7ccc4[nH]7)C=C6)C=C5)cc3)c2)O1
REMARK SMILES IDX 17 1 16 2 15 3 13 4 14 5 12 7 8 8 9 9 71 10 10 11 11 12 7 13
REMARK SMILES IDX 6 14 5 15 1 16 2 17 3 18 72 19 4 20 18 22 19 23 20 24 21 25
REMARK SMILES IDX 22 27 23 28 24 29 70 30 25 31 69 32 26 33 27 34 28 35 63 36
REMARK SMILES IDX 29 37 68 38 62 39 64 40 30 41 67 42 61 43 60 44 31 46 53 47
REMARK SMILES IDX 38 48 52 49 39 50 42 51 51 52 65 53 40 54 41 55 50 57 66 58
REMARK SMILES IDX 43 59 32 60 33 61 37 62 34 63 36 64 35 65 54 66 55 67 59 68
REMARK SMILES IDX 56 69 58 70 57 71 44 72 45 73 49 74 46 75 48 76 47 77
REMARK H PARENT 15 6 3 21 20 26 64 45 42 56
REMARK Flexibility Score: inf
ROOT
ATOM      1  C   UNL A   1      31.763  30.324  26.540  1.00  0.00     0.023 C 
ENDROOT
BRANCH   1   2
ATOM      2  C   UNL A   1      33.004  30.076  25.678  1.00  0.00     0.116 C 
BRANCH   2   3
ATOM      3  N   UNL A   1      33.614  28.823  26.071  1.00  0.00    -0.351 N 
ATOM      4  C   UNL A   1      33.384  27.521  25.687  1.00  0.00     0.269 C 
ATOM      5  O   UNL A   1      33.994  26.646  26.304  1.00  0.00    -0.268 OA
ATOM      6  H   UNL A   1      34.330  28.921  26.740  1.00  0.00     0.163 HD
BRANCH   4   7
ATOM      7  C   UNL A   1      32.511  27.154  24.518  1.00  0.00     0.129 A 
ATOM      8  C   UNL A   1      30.475  27.229  23.273  1.00  0.00     0.011 A 
ATOM      9  C   UNL A   1      31.200  26.909  22.130  1.00  0.00     0.035 A 
ATOM     10  C   UNL A   1      31.132  27.309  24.499  1.00  0.00     0.049 A 
ATOM     11  C   UNL A   1      32.540  26.616  22.266  1.00  0.00     0.113 A 
ATOM     12  N   UNL A   1      33.207  26.742  23.426  1.00  0.00    -0.251 NA
BRANCH   8  13
ATOM     13  S   UNL A   1      28.777  27.743  23.132  1.00  0.00    -0.122 SA
BRANCH  13  14
ATOM     14  C   UNL A   1      28.890  29.554  23.383  1.00  0.00     0.122 C 
BRANCH  14  15
ATOM     15  C   UNL A   1      27.954  30.440  22.548  1.00  0.00     0.208 C 
ATOM     16  O   UNL A   1      28.407  33.857  22.756  1.00  0.00    -0.225 OA
ATOM     17  C   UNL A   1      28.297  32.686  22.430  1.00  0.00     0.407 C 
ATOM     18  N   UNL A   1      28.734  32.164  21.249  1.00  0.00    -0.318 N 
ATOM     19  O   UNL A   1      27.719  31.710  23.186  1.00  0.00    -0.443 OA
ATOM     20  C   UNL A   1      28.440  30.778  21.153  1.00  0.00     0.165 C 
ATOM     21  H   UNL A   1      29.195  32.682  20.550  1.00  0.00     0.167 HD
ENDBRANCH  14  15
ENDBRANCH  13  14
ENDBRANCH   8  13
ENDBRANCH   4   7
ENDBRANCH   2   3
ENDBRANCH   1   2
BRANCH   1  22
ATOM     22  C   UNL A   1      31.486  31.809  26.789  1.00  0.00     0.023 C 
BRANCH  22  23
ATOM     23  C   UNL A   1      32.700  32.608  27.245  1.00  0.00     0.116 C 
BRANCH  23  24
ATOM     24  N   UNL A   1      32.377  33.982  27.601  1.00  0.00    -0.352 N 
ATOM     25  C   UNL A   1      32.981  34.783  28.536  1.00  0.00     0.251 C 
ATOM     26  H   UNL A   1      31.629  34.388  27.107  1.00  0.00     0.163 HD
ATOM     27  O   UNL A   1      32.510  35.878  28.821  1.00  0.00    -0.269 OA
BRANCH  25  28
ATOM     28  C   UNL A   1      34.187  34.285  29.223  1.00  0.00     0.039 A 
ATOM     29  C   UNL A   1      34.034  33.527  30.383  1.00  0.00     0.014 A 
ATOM     30  C   UNL A   1      35.456  34.524  28.688  1.00  0.00     0.014 A 
ATOM     31  C   UNL A   1      35.157  32.955  30.977  1.00  0.00     0.010 A 
ATOM     32  C   UNL A   1      36.561  33.882  29.232  1.00  0.00     0.010 A 
ATOM     33  C   UNL A   1      36.424  33.098  30.386  1.00  0.00    -0.014 A 
BRANCH  33  34
ATOM     34  C   UNL A   1      37.611  32.427  30.967  1.00  0.00     0.031 A 
ATOM     35  C   UNL A   1      38.221  32.937  32.243  1.00  0.00     0.074 A 
ATOM     36  C   UNL A   1      38.160  31.377  30.324  1.00  0.00     0.049 A 
ATOM     37  N   UNL A   1      39.249  32.474  32.907  1.00  0.00    -0.248 NA
ATOM     38  C   UNL A   1      37.615  34.140  32.838  1.00  0.00     0.031 C 
ATOM     39  C   UNL A   1      37.692  30.822  29.053  1.00  0.00     0.029 A 
ATOM     40  N   UNL A   1      39.231  30.587  30.657  1.00  0.00    -0.354 N 
ATOM     41  C   UNL A   1      39.414  33.330  33.989  1.00  0.00     0.074 A 
ATOM     42  C   UNL A   1      38.425  34.376  33.858  1.00  0.00     0.031 C 
ATOM     43  C   UNL A   1      38.440  29.753  28.738  1.00  0.00     0.029 A 
ATOM     44  C   UNL A   1      39.467  29.575  29.759  1.00  0.00     0.049 A 
ATOM     45  H   UNL A   1      39.777  30.731  31.463  1.00  0.00     0.167 HD
ATOM     46  C   UNL A   1      40.295  33.239  35.013  1.00  0.00     0.031 A 
ATOM     47  C   UNL A   1      40.403  28.608  29.760  1.00  0.00     0.031 A 
ATOM     48  C   UNL A   1      41.279  32.198  35.141  1.00  0.00     0.049 A 
ATOM     49  C   UNL A   1      41.381  28.541  30.900  1.00  0.00     0.074 A 
ATOM     50  C   UNL A   1      42.182  31.987  36.167  1.00  0.00     0.029 A 
ATOM     51  N   UNL A   1      41.492  31.196  34.206  1.00  0.00    -0.354 N 
ATOM     52  N   UNL A   1      41.472  29.309  31.959  1.00  0.00    -0.248 NA
ATOM     53  C   UNL A   1      42.378  27.463  30.851  1.00  0.00     0.031 C 
ATOM     54  C   UNL A   1      42.985  30.894  35.823  1.00  0.00     0.029 A 
ATOM     55  C   UNL A   1      42.533  30.382  34.617  1.00  0.00     0.049 A 
ATOM     56  H   UNL A   1      40.979  31.081  33.374  1.00  0.00     0.167 HD
ATOM     57  C   UNL A   1      42.513  28.790  32.716  1.00  0.00     0.074 A 
ATOM     58  C   UNL A   1      43.008  27.628  32.005  1.00  0.00     0.031 C 
ATOM     59  C   UNL A   1      43.018  29.234  33.894  1.00  0.00     0.031 A 
BRANCH  46  60
ATOM     60  C   UNL A   1      40.235  34.306  36.074  1.00  0.00    -0.014 A 
ATOM     61  C   UNL A   1      41.008  35.475  35.979  1.00  0.00     0.009 A 
ATOM     62  C   UNL A   1      39.371  34.154  37.170  1.00  0.00     0.009 A 
ATOM     63  C   UNL A   1      40.945  36.450  36.977  1.00  0.00     0.001 A 
ATOM     64  C   UNL A   1      39.285  35.145  38.148  1.00  0.00     0.001 A 
ATOM     65  C   UNL A   1      40.080  36.287  38.057  1.00  0.00     0.000 A 
ENDBRANCH  46  60
BRANCH  47  66
ATOM     66  C   UNL A   1      40.454  27.613  28.655  1.00  0.00    -0.014 A 
ATOM     67  C   UNL A   1      41.179  27.880  27.484  1.00  0.00     0.009 A 
ATOM     68  C   UNL A   1      39.764  26.394  28.761  1.00  0.00     0.009 A 
ATOM     69  C   UNL A   1      41.185  26.965  26.429  1.00  0.00     0.001 A 
ATOM     70  C   UNL A   1      39.801  25.465  27.719  1.00  0.00     0.001 A 
ATOM     71  C   UNL A   1      40.500  25.757  26.549  1.00  0.00     0.000 A 
ENDBRANCH  47  66
BRANCH  59  72
ATOM     72  C   UNL A   1      44.138  28.436  34.503  1.00  0.00    -0.014 A 
ATOM     73  C   UNL A   1      45.483  28.725  34.219  1.00  0.00     0.009 A 
ATOM     74  C   UNL A   1      43.841  27.397  35.399  1.00  0.00     0.009 A 
ATOM     75  C   UNL A   1      46.504  27.958  34.785  1.00  0.00     0.001 A 
ATOM     76  C   UNL A   1      44.864  26.656  35.991  1.00  0.00     0.001 A 
ATOM     77  C   UNL A   1      46.193  26.929  35.673  1.00  0.00     0.000 A 
ENDBRANCH  59  72
ENDBRANCH  33  34
ENDBRANCH  25  28
ENDBRANCH  23  24
ENDBRANCH  22  23
ENDBRANCH   1  22
TORSDOF 14
ENDMDL
MODEL 2
REMARK VINA RESULT:     -10.8      1.548      2.065
REMARK SMILES O=C1NC[C@@H](CSc2ccnc(C(=O)NCCCCNC(=O)c3ccc(-c4c5nc(c(-c6ccccc6)c6ccc([nH]6)c(-c6ccccc6)c6nc(c(-c7ccccc7)c7ccc4[nH]7)C=C6)C=C5)cc3)c2)O1
REMARK SMILES IDX 17 1 16 2 15 3 13 4 14 5 12 7 8 8 9 9 71 10 10 11 11 12 7 13
REMARK SMILES IDX 6 14 5 15 1 16 2 17 3 18 72 19 4 20 18 22 19 23 20 24 21 25
REMARK SMILES IDX 22 27 23 28 24 29 70 30 25 31 69 32 26 33 27 34 28 35 63 36
REMARK SMILES IDX 29 37 68 38 62 39 64 40 30 41 67 42 61 43 60 44 31 46 53 47
REMARK SMILES IDX 38 48 52 49 39 50 42 51 51 52 65 53 40 54 41 55 50 57 66 58
REMARK SMILES IDX 43 59 32 60 33 61 37 62 34 63 36 64 35 65 54 66 55 67 59 68
REMARK SMILES IDX 56 69 58 70 57 71 44 72 45 73 49 74 46 75 48 76 47 77
REMARK H PARENT 15 6 3 21 20 26 64 45 42 56
REMARK Flexibility Score: inf
ROOT
ATOM      1  C   UNL A   1      33.997  31.555  27.853  1.00  0.00     0.023 C 
ENDROOT
BRANCH   1   2
ATOM      2  C   UNL A   1      33.690  30.388  26.911  1.00  0.00     0.116 C 
BRANCH   2   3
ATOM      3  N   UNL A   1      32.890  29.407  27.615  1.00  0.00    -0.351 N 
ATOM      4  C   UNL A   1      32.020  28.435  27.176  1.00  0.00     0.269 C 
ATOM      5  O   UNL A   1      31.386  27.827  28.041  1.00  0.00    -0.268 OA
ATOM      6  H   UNL A   1      32.989  29.440  28.594  1.00  0.00     0.163 HD
BRANCH   4   7
ATOM      7  C   UNL A   1      31.890  28.045  25.729  1.00  0.00     0.129 A 
ATOM      8  C   UNL A   1      31.228  28.433  23.468  1.00  0.00     0.011 A 
ATOM      9  C   UNL A   1      32.194  27.519  23.062  1.00  0.00     0.035 A 
ATOM     10  C   UNL A   1      31.040  28.668  24.828  1.00  0.00     0.049 A 
ATOM     11  C   UNL A   1      32.888  26.826  24.031  1.00  0.00     0.113 A 
ATOM     12  N   UNL A   1      32.764  27.077  25.345  1.00  0.00    -0.251 NA
BRANCH   8  13
ATOM     13  S   UNL A   1      30.402  29.445  22.260  1.00  0.00    -0.122 SA
BRANCH  13  14
ATOM     14  C   UNL A   1      28.668  29.430  22.852  1.00  0.00     0.122 C 
BRANCH  14  15
ATOM     15  C   UNL A   1      27.731  30.522  22.316  1.00  0.00     0.208 C 
ATOM     16  O   UNL A   1      28.637  33.804  22.894  1.00  0.00    -0.225 OA
ATOM     17  C   UNL A   1      28.331  32.714  22.440  1.00  0.00     0.407 C 
ATOM     18  N   UNL A   1      28.510  32.335  21.143  1.00  0.00    -0.318 N 
ATOM     19  O   UNL A   1      27.760  31.698  23.148  1.00  0.00    -0.443 OA
ATOM     20  C   UNL A   1      28.033  31.017  20.916  1.00  0.00     0.165 C 
ATOM     21  H   UNL A   1      28.918  32.903  20.450  1.00  0.00     0.167 HD
ENDBRANCH  14  15
ENDBRANCH  13  14
ENDBRANCH   8  13
ENDBRANCH   4   7
ENDBRANCH   2   3
ENDBRANCH   1   2
BRANCH   1  22
ATOM     22  C   UNL A   1      32.932  32.654  27.822  1.00  0.00     0.023 C 
BRANCH  22  23
ATOM     23  C   UNL A   1      33.479  34.066  27.994  1.00  0.00     0.116 C 
BRANCH  23  24
ATOM     24  N   UNL A   1      33.105  34.671  29.263  1.00  0.00    -0.352 N 
ATOM     25  C   UNL A   1      33.663  34.469  30.500  1.00  0.00     0.251 C 
ATOM     26  H   UNL A   1      32.354  35.307  29.231  1.00  0.00     0.163 HD
ATOM     27  O   UNL A   1      33.151  34.949  31.504  1.00  0.00    -0.269 OA
BRANCH  25  28
ATOM     28  C   UNL A   1      34.870  33.629  30.603  1.00  0.00     0.039 A 
ATOM     29  C   UNL A   1      36.029  34.034  29.943  1.00  0.00     0.014 A 
ATOM     30  C   UNL A   1      34.864  32.476  31.394  1.00  0.00     0.014 A 
ATOM     31  C   UNL A   1      37.207  33.311  30.125  1.00  0.00     0.010 A 
ATOM     32  C   UNL A   1      36.057  31.809  31.642  1.00  0.00     0.010 A 
ATOM     33  C   UNL A   1      37.238  32.215  31.005  1.00  0.00    -0.014 A 
BRANCH  33  34
ATOM     34  C   UNL A   1      38.505  31.490  31.265  1.00  0.00     0.031 A 
ATOM     35  C   UNL A   1      39.424  31.942  32.364  1.00  0.00     0.074 A 
ATOM     36  C   UNL A   1      38.841  30.444  30.484  1.00  0.00     0.049 A 
ATOM     37  N   UNL A   1      40.565  31.427  32.748  1.00  0.00    -0.248 NA
ATOM     38  C   UNL A   1      39.026  33.144  33.116  1.00  0.00     0.031 C 
ATOM     39  C   UNL A   1      38.057  29.942  29.353  1.00  0.00     0.029 A 
ATOM     40  N   UNL A   1      39.930  29.611  30.529  1.00  0.00    -0.354 N 
ATOM     41  C   UNL A   1      41.020  32.243  33.776  1.00  0.00     0.074 A 
ATOM     42  C   UNL A   1      40.069  33.323  33.913  1.00  0.00     0.031 C 
ATOM     43  C   UNL A   1      38.666  28.861  28.842  1.00  0.00     0.029 A 
ATOM     44  C   UNL A   1      39.902  28.619  29.578  1.00  0.00     0.049 A 
ATOM     45  H   UNL A   1      40.660  29.713  31.180  1.00  0.00     0.167 HD
ATOM     46  C   UNL A   1      42.119  32.094  34.552  1.00  0.00     0.031 A 
ATOM     47  C   UNL A   1      40.774  27.624  29.330  1.00  0.00     0.031 A 
ATOM     48  C   UNL A   1      43.064  31.019  34.413  1.00  0.00     0.049 A 
ATOM     49  C   UNL A   1      41.996  27.492  30.195  1.00  0.00     0.074 A 
ATOM     50  C   UNL A   1      44.181  30.748  35.184  1.00  0.00     0.029 A 
ATOM     51  N   UNL A   1      43.006  30.040  33.433  1.00  0.00    -0.354 N 
ATOM     52  N   UNL A   1      42.370  28.224  31.217  1.00  0.00    -0.248 NA
ATOM     53  C   UNL A   1      42.909  26.386  29.882  1.00  0.00     0.031 C 
ATOM     54  C   UNL A   1      44.834  29.642  34.630  1.00  0.00     0.029 A 
ATOM     55  C   UNL A   1      44.084  29.181  33.560  1.00  0.00     0.049 A 
ATOM     56  H   UNL A   1      42.302  29.967  32.749  1.00  0.00     0.167 HD
ATOM     57  C   UNL A   1      43.543  27.650  31.686  1.00  0.00     0.074 A 
ATOM     58  C   UNL A   1      43.807  26.496  30.851  1.00  0.00     0.031 C 
ATOM     59  C   UNL A   1      44.335  28.041  32.716  1.00  0.00     0.031 A 
BRANCH  46  60
ATOM     60  C   UNL A   1      42.358  33.129  35.619  1.00  0.00    -0.014 A 
ATOM     61  C   UNL A   1      41.831  32.980  36.912  1.00  0.00     0.009 A 
ATOM     62  C   UNL A   1      43.148  34.254  35.335  1.00  0.00     0.009 A 
ATOM     63  C   UNL A   1      42.058  33.955  37.887  1.00  0.00     0.001 A 
ATOM     64  C   UNL A   1      43.402  35.210  36.321  1.00  0.00     0.001 A 
ATOM     65  C   UNL A   1      42.847  35.065  37.592  1.00  0.00     0.000 A 
ENDBRANCH  46  60
BRANCH  47  66
ATOM     66  C   UNL A   1      40.517  26.662  28.224  1.00  0.00    -0.014 A 
ATOM     67  C   UNL A   1      41.122  26.836  26.970  1.00  0.00     0.009 A 
ATOM     68  C   UNL A   1      39.654  25.572  28.415  1.00  0.00     0.009 A 
ATOM     69  C   UNL A   1      40.841  25.959  25.920  1.00  0.00     0.001 A 
ATOM     70  C   UNL A   1      39.402  24.676  27.373  1.00  0.00     0.001 A 
ATOM     71  C   UNL A   1      39.986  24.877  26.123  1.00  0.00     0.000 A 
ENDBRANCH  47  66
BRANCH  59  72
ATOM     72  C   UNL A   1      45.539  27.191  33.016  1.00  0.00    -0.014 A 
ATOM     73  C   UNL A   1      46.792  27.466  32.444  1.00  0.00     0.009 A 
ATOM     74  C   UNL A   1      45.420  26.114  33.908  1.00  0.00     0.009 A 
ATOM     75  C   UNL A   1      47.890  26.650  32.727  1.00  0.00     0.001 A 
ATOM     76  C   UNL A   1      46.528  25.323  34.217  1.00  0.00     0.001 A 
ATOM     77  C   UNL A   1      47.758  25.584  33.615  1.00  0.00     0.000 A 
ENDBRANCH  59  72
ENDBRANCH  33  34
ENDBRANCH  25  28
ENDBRANCH  23  24
ENDBRANCH  22  23
ENDBRANCH   1  22
TORSDOF 14
ENDMDL
MODEL 3
REMARK VINA RESULT:     -10.8      1.371      6.177
REMARK SMILES O=C1NC[C@@H](CSc2ccnc(C(=O)NCCCCNC(=O)c3ccc(-c4c5nc(c(-c6ccccc6)c6ccc([nH]6)c(-c6ccccc6)c6nc(c(-c7ccccc7)c7ccc4[nH]7)C=C6)C=C5)cc3)c2)O1
REMARK SMILES IDX 17 1 16 2 15 3 13 4 14 5 12 7 8 8 9 9 71 10 10 11 11 12 7 13
REMARK SMILES IDX 6 14 5 15 1 16 2 17 3 18 72 19 4 20 18 22 19 23 20 24 21 25
REMARK SMILES IDX 22 27 23 28 24 29 70 30 25 31 69 32 26 33 27 34 28 35 63 36
REMARK SMILES IDX 29 37 68 38 62 39 64 40 30 41 67 42 61 43 60 44 31 46 53 47
REMARK SMILES IDX 38 48 52 49 39 50 42 51 51 52 65 53 40 54 41 55 50 57 66 58
REMARK SMILES IDX 43 59 32 60 33 61 37 62 34 63 36 64 35 65 54 66 55 67 59 68
REMARK SMILES IDX 56 69 58 70 57 71 44 72 45 73 49 74 46 75 48 76 47 77
REMARK H PARENT 15 6 3 21 20 26 64 45 42 56
REMARK Flexibility Score: inf
ROOT
ATOM      1  C   UNL A   1      34.641  30.608  27.651  1.00  0.00     0.023 C 
ENDROOT
BRANCH   1   2
ATOM      2  C   UNL A   1      34.367  29.233  27.037  1.00  0.00     0.116 C 
BRANCH   2   3
ATOM      3  N   UNL A   1      33.234  28.630  27.708  1.00  0.00    -0.351 N 
ATOM      4  C   UNL A   1      32.100  28.009  27.233  1.00  0.00     0.269 C 
ATOM      5  O   UNL A   1      31.246  27.704  28.067  1.00  0.00    -0.268 OA
ATOM      6  H   UNL A   1      33.285  28.671  28.690  1.00  0.00     0.163 HD
BRANCH   4   7
ATOM      7  C   UNL A   1      31.921  27.625  25.790  1.00  0.00     0.129 A 
ATOM      8  C   UNL A   1      31.233  28.046  23.542  1.00  0.00     0.011 A 
ATOM      9  C   UNL A   1      32.141  27.081  23.118  1.00  0.00     0.035 A 
ATOM     10  C   UNL A   1      31.085  28.292  24.905  1.00  0.00     0.049 A 
ATOM     11  C   UNL A   1      32.817  26.354  24.074  1.00  0.00     0.113 A 
ATOM     12  N   UNL A   1      32.734  26.612  25.390  1.00  0.00    -0.251 NA
BRANCH   8  13
ATOM     13  S   UNL A   1      30.436  29.099  22.350  1.00  0.00    -0.122 SA
BRANCH  13  14
ATOM     14  C   UNL A   1      28.810  29.421  23.132  1.00  0.00     0.122 C 
BRANCH  14  15
ATOM     15  C   UNL A   1      27.876  30.415  22.428  1.00  0.00     0.208 C 
ATOM     16  O   UNL A   1      28.540  33.778  22.845  1.00  0.00    -0.225 OA
ATOM     17  C   UNL A   1      28.341  32.642  22.445  1.00  0.00     0.407 C 
ATOM     18  N   UNL A   1      28.669  32.187  21.203  1.00  0.00    -0.318 N 
ATOM     19  O   UNL A   1      27.757  31.645  23.168  1.00  0.00    -0.443 OA
ATOM     20  C   UNL A   1      28.290  30.830  21.030  1.00  0.00     0.165 C 
ATOM     21  H   UNL A   1      29.115  32.730  20.513  1.00  0.00     0.167 HD
ENDBRANCH  14  15
ENDBRANCH  13  14
ENDBRANCH   8  13
ENDBRANCH   4   7
ENDBRANCH   2   3
ENDBRANCH   1   2
BRANCH   1  22
ATOM     22  C   UNL A   1      33.407  31.515  27.680  1.00  0.00     0.023 C 
BRANCH  22  23
ATOM     23  C   UNL A   1      33.669  32.948  27.233  1.00  0.00     0.116 C 
BRANCH  23  24
ATOM     24  N   UNL A   1      33.040  33.937  28.095  1.00  0.00    -0.352 N 
ATOM     25  C   UNL A   1      33.434  34.352  29.342  1.00  0.00     0.251 C 
ATOM     26  H   UNL A   1      32.226  34.362  27.739  1.00  0.00     0.163 HD
ATOM     27  O   UNL A   1      32.725  35.098  30.007  1.00  0.00    -0.269 OA
BRANCH  25  28
ATOM     28  C   UNL A   1      34.711  33.853  29.884  1.00  0.00     0.039 A 
ATOM     29  C   UNL A   1      34.681  32.913  30.913  1.00  0.00     0.014 A 
ATOM     30  C   UNL A   1      35.925  34.275  29.337  1.00  0.00     0.014 A 
ATOM     31  C   UNL A   1      35.876  32.348  31.356  1.00  0.00     0.010 A 
ATOM     32  C   UNL A   1      37.105  33.648  29.719  1.00  0.00     0.010 A 
ATOM     33  C   UNL A   1      37.093  32.685  30.738  1.00  0.00    -0.014 A 
BRANCH  33  34
ATOM     34  C   UNL A   1      38.357  32.030  31.149  1.00  0.00     0.031 A 
ATOM     35  C   UNL A   1      38.822  30.778  30.459  1.00  0.00     0.074 A 
ATOM     36  C   UNL A   1      39.068  32.546  32.171  1.00  0.00     0.049 A 
ATOM     37  N   UNL A   1      39.904  30.074  30.671  1.00  0.00    -0.248 NA
ATOM     38  C   UNL A   1      37.946  30.230  29.410  1.00  0.00     0.031 C 
ATOM     39  C   UNL A   1      38.695  33.726  32.954  1.00  0.00     0.029 A 
ATOM     40  N   UNL A   1      40.259  32.145  32.722  1.00  0.00    -0.354 N 
ATOM     41  C   UNL A   1      39.834  29.002  29.791  1.00  0.00     0.074 A 
ATOM     42  C   UNL A   1      38.575  29.110  29.089  1.00  0.00     0.031 C 
ATOM     43  C   UNL A   1      39.659  33.981  33.852  1.00  0.00     0.029 A 
ATOM     44  C   UNL A   1      40.695  32.960  33.739  1.00  0.00     0.049 A 
ATOM     45  H   UNL A   1      40.753  31.351  32.418  1.00  0.00     0.167 HD
ATOM     46  C   UNL A   1      40.748  28.027  29.569  1.00  0.00     0.031 A 
ATOM     47  C   UNL A   1      41.808  32.894  34.493  1.00  0.00     0.031 A 
ATOM     48  C   UNL A   1      41.999  27.921  30.269  1.00  0.00     0.049 A 
ATOM     49  C   UNL A   1      42.797  31.790  34.239  1.00  0.00     0.074 A 
ATOM     50  C   UNL A   1      43.017  27.002  30.082  1.00  0.00     0.029 A 
ATOM     51  N   UNL A   1      42.401  28.760  31.298  1.00  0.00    -0.354 N 
ATOM     52  N   UNL A   1      42.755  30.831  33.346  1.00  0.00    -0.248 NA
ATOM     53  C   UNL A   1      43.995  31.771  35.089  1.00  0.00     0.031 C 
ATOM     54  C   UNL A   1      44.005  27.246  31.040  1.00  0.00     0.029 A 
ATOM     55  C   UNL A   1      43.637  28.361  31.776  1.00  0.00     0.049 A 
ATOM     56  H   UNL A   1      41.883  29.525  31.637  1.00  0.00     0.167 HD
ATOM     57  C   UNL A   1      43.932  30.113  33.506  1.00  0.00     0.074 A 
ATOM     58  C   UNL A   1      44.677  30.761  34.566  1.00  0.00     0.031 C 
ATOM     59  C   UNL A   1      44.361  29.014  32.837  1.00  0.00     0.031 A 
BRANCH  46  60
ATOM     60  C   UNL A   1      40.416  26.992  28.527  1.00  0.00    -0.014 A 
ATOM     61  C   UNL A   1      39.621  25.875  28.834  1.00  0.00     0.009 A 
ATOM     62  C   UNL A   1      40.881  27.151  27.212  1.00  0.00     0.009 A 
ATOM     63  C   UNL A   1      39.331  24.921  27.856  1.00  0.00     0.001 A 
ATOM     64  C   UNL A   1      40.561  26.213  26.229  1.00  0.00     0.001 A 
ATOM     65  C   UNL A   1      39.795  25.094  26.554  1.00  0.00     0.000 A 
ENDBRANCH  46  60
BRANCH  47  66
ATOM     66  C   UNL A   1      42.058  33.911  35.550  1.00  0.00    -0.014 A 
ATOM     67  C   UNL A   1      42.761  35.090  35.256  1.00  0.00     0.009 A 
ATOM     68  C   UNL A   1      41.606  33.702  36.862  1.00  0.00     0.009 A 
ATOM     69  C   UNL A   1      43.035  36.021  36.260  1.00  0.00     0.001 A 
ATOM     70  C   UNL A   1      41.851  34.651  37.857  1.00  0.00     0.001 A 
ATOM     71  C   UNL A   1      42.576  35.804  37.558  1.00  0.00     0.000 A 
ENDBRANCH  47  66
BRANCH  59  72
ATOM     72  C   UNL A   1      45.713  28.469  33.209  1.00  0.00    -0.014 A 
ATOM     73  C   UNL A   1      46.886  28.932  32.591  1.00  0.00     0.009 A 
ATOM     74  C   UNL A   1      45.814  27.495  34.215  1.00  0.00     0.009 A 
ATOM     75  C   UNL A   1      48.127  28.397  32.944  1.00  0.00     0.001 A 
ATOM     76  C   UNL A   1      47.058  26.989  34.591  1.00  0.00     0.001 A 
ATOM     77  C   UNL A   1      48.212  27.431  33.945  1.00  0.00     0.000 A 
ENDBRANCH  59  72
ENDBRANCH  33  34
ENDBRANCH  25  28
ENDBRANCH  23  24
ENDBRANCH  22  23
ENDBRANCH   1  22
TORSDOF 14
ENDMDL
