MODEL 1
REMARK VINA RESULT:     -11.9      0.000      0.000
REMARK SMILES CC(=O)C1=C(c2ccccc2)NC(=S)N[C@@H]1c1cc(Cl)ccc1OCC(=O)NCCCCNC(=O)c1ccc(-c2c3nc(c(-c4ccccc4)c4ccc([nH]4)c(-c4ccccc4)c4nc(c(-c5ccccc5)c5ccc2[nH]5)C=C4)C=C3)cc1
REMARK SMILES IDX 29 1 28 2 26 3 27 4 25 6 24 7 23 8 17 9 18 10 19 11 22 12
REMARK SMILES IDX 20 13 21 14 16 15 4 16 5 17 12 18 15 19 13 20 14 23 2 24
REMARK SMILES IDX 1 25 3 26 6 27 7 28 11 29 8 30 10 31 9 32 30 33 31 34 32 35
REMARK SMILES IDX 33 36 34 37 35 39 36 40 37 41 83 42 38 43 82 44 39 45 40 46
REMARK SMILES IDX 41 47 76 48 42 49 81 50 75 51 77 52 43 53 80 54 74 55 73 56
REMARK SMILES IDX 44 58 66 59 51 60 65 61 52 62 55 63 64 64 78 65 53 66 54 67
REMARK SMILES IDX 63 69 79 70 56 71 45 72 46 73 50 74 47 75 49 76 48 77 67 78
REMARK SMILES IDX 68 79 72 80 69 81 71 82 70 83 57 84 58 85 62 86 59 87 61 88
REMARK SMILES IDX 60 89
REMARK H PARENT 28 5 12 21 15 22 33 38 77 57 55 68
REMARK Flexibility Score: inf
ROOT
ATOM      1  C   UNL A   1      36.105  21.028  25.006  1.00  0.00     0.116 C 
ENDROOT
BRANCH   1   2
ATOM      2  N   UNL A   1      35.289  21.769  24.061  1.00  0.00    -0.353 N 
ATOM      3  C   UNL A   1      35.356  23.103  23.758  1.00  0.00     0.257 C 
ATOM      4  O   UNL A   1      34.867  23.503  22.699  1.00  0.00    -0.271 OA
ATOM      5  H   UNL A   1      34.605  21.249  23.580  1.00  0.00     0.163 HD
BRANCH   3   6
ATOM      6  C   UNL A   1      36.006  24.086  24.735  1.00  0.00     0.329 C 
BRANCH   6   7
ATOM      7  O   UNL A   1      35.161  24.696  25.681  1.00  0.00    -0.483 OA
BRANCH   7   8
ATOM      8  C   UNL A   1      33.831  24.446  25.853  1.00  0.00     0.125 A 
ATOM      9  C   UNL A   1      32.684  24.968  25.215  1.00  0.00     0.023 A 
ATOM     10  C   UNL A   1      31.446  24.327  25.494  1.00  0.00     0.030 A 
ATOM     11  C   UNL A   1      31.334  23.276  26.406  1.00  0.00     0.041 A 
ATOM     12  C   UNL A   1      33.690  23.375  26.763  1.00  0.00     0.048 A 
ATOM     13  Cl  UNL A   1      29.804  22.551  26.701  1.00  0.00    -0.084 Cl
ATOM     14  C   UNL A   1      32.457  22.799  27.050  1.00  0.00     0.024 A 
BRANCH   9  15
ATOM     15  C   UNL A   1      32.694  26.046  24.131  1.00  0.00     0.152 C 
ATOM     16  C   UNL A   1      31.632  27.132  24.171  1.00  0.00     0.046 C 
ATOM     17  C   UNL A   1      31.021  27.553  23.044  1.00  0.00     0.057 C 
ATOM     18  N   UNL A   1      31.401  27.004  21.838  1.00  0.00    -0.332 N 
ATOM     19  N   UNL A   1      32.645  25.355  22.850  1.00  0.00    -0.351 N 
ATOM     20  C   UNL A   1      32.180  25.906  21.705  1.00  0.00     0.171 C 
ATOM     21  H   UNL A   1      31.082  27.442  21.016  1.00  0.00     0.169 HD
ATOM     22  H   UNL A   1      32.972  24.427  22.814  1.00  0.00     0.163 HD
ATOM     23  S   UNL A   1      32.463  25.218  20.220  1.00  0.00    -0.041 S 
BRANCH  16  24
ATOM     24  C   UNL A   1      31.303  27.753  25.486  1.00  0.00     0.160 C 
ATOM     25  C   UNL A   1      31.855  29.125  25.770  1.00  0.00     0.093 C 
ATOM     26  O   UNL A   1      30.625  27.151  26.315  1.00  0.00    -0.295 OA
ENDBRANCH  16  24
BRANCH  17  27
ATOM     27  C   UNL A   1      29.903  28.512  22.935  1.00  0.00    -0.002 A 
ATOM     28  C   UNL A   1      28.612  28.025  23.211  1.00  0.00     0.010 A 
ATOM     29  C   UNL A   1      30.050  29.836  22.515  1.00  0.00     0.010 A 
ATOM     30  C   UNL A   1      27.489  28.835  23.061  1.00  0.00     0.001 A 
ATOM     31  C   UNL A   1      28.923  30.654  22.376  1.00  0.00     0.001 A 
ATOM     32  C   UNL A   1      27.646  30.153  22.642  1.00  0.00     0.000 A 
ENDBRANCH  17  27
ENDBRANCH   9  15
ENDBRANCH   7   8
ENDBRANCH   6   7
ENDBRANCH   3   6
ENDBRANCH   1   2
BRANCH   1  33
ATOM     33  C   UNL A   1      37.590  20.951  24.649  1.00  0.00     0.023 C 
BRANCH  33  34
ATOM     34  C   UNL A   1      38.296  19.617  24.894  1.00  0.00     0.023 C 
BRANCH  34  35
ATOM     35  C   UNL A   1      39.191  19.529  26.126  1.00  0.00     0.116 C 
BRANCH  35  36
ATOM     36  N   UNL A   1      40.511  18.986  25.843  1.00  0.00    -0.352 N 
ATOM     37  C   UNL A   1      41.749  19.568  25.941  1.00  0.00     0.251 C 
ATOM     38  H   UNL A   1      40.515  18.052  25.532  1.00  0.00     0.163 HD
ATOM     39  O   UNL A   1      42.739  18.943  25.563  1.00  0.00    -0.269 OA
BRANCH  37  40
ATOM     40  C   UNL A   1      41.911  20.947  26.458  1.00  0.00     0.039 A 
ATOM     41  C   UNL A   1      41.852  21.150  27.841  1.00  0.00     0.014 A 
ATOM     42  C   UNL A   1      42.097  22.038  25.606  1.00  0.00     0.014 A 
ATOM     43  C   UNL A   1      42.048  22.428  28.371  1.00  0.00     0.010 A 
ATOM     44  C   UNL A   1      42.370  23.298  26.138  1.00  0.00     0.010 A 
ATOM     45  C   UNL A   1      42.348  23.508  27.526  1.00  0.00    -0.014 A 
BRANCH  45  46
ATOM     46  C   UNL A   1      42.645  24.857  28.078  1.00  0.00     0.031 A 
ATOM     47  C   UNL A   1      44.039  25.214  28.517  1.00  0.00     0.074 A 
ATOM     48  C   UNL A   1      41.646  25.749  28.233  1.00  0.00     0.049 A 
ATOM     49  N   UNL A   1      44.477  26.324  29.058  1.00  0.00    -0.248 NA
ATOM     50  C   UNL A   1      45.075  24.182  28.346  1.00  0.00     0.031 C 
ATOM     51  C   UNL A   1      40.243  25.523  27.881  1.00  0.00     0.029 A 
ATOM     52  N   UNL A   1      41.659  27.029  28.732  1.00  0.00    -0.354 N 
ATOM     53  C   UNL A   1      45.830  26.119  29.301  1.00  0.00     0.074 A 
ATOM     54  C   UNL A   1      46.129  24.761  28.900  1.00  0.00     0.031 C 
ATOM     55  C   UNL A   1      39.538  26.634  28.146  1.00  0.00     0.029 A 
ATOM     56  C   UNL A   1      40.426  27.635  28.728  1.00  0.00     0.049 A 
ATOM     57  H   UNL A   1      42.475  27.471  29.061  1.00  0.00     0.167 HD
ATOM     58  C   UNL A   1      46.747  26.986  29.793  1.00  0.00     0.031 A 
ATOM     59  C   UNL A   1      40.048  28.856  29.153  1.00  0.00     0.031 A 
ATOM     60  C   UNL A   1      46.453  28.336  30.196  1.00  0.00     0.049 A 
ATOM     61  C   UNL A   1      41.079  29.788  29.727  1.00  0.00     0.074 A 
ATOM     62  C   UNL A   1      47.323  29.305  30.668  1.00  0.00     0.029 A 
ATOM     63  N   UNL A   1      45.190  28.909  30.181  1.00  0.00    -0.354 N 
ATOM     64  N   UNL A   1      42.367  29.601  29.886  1.00  0.00    -0.248 NA
ATOM     65  C   UNL A   1      40.603  31.107  30.167  1.00  0.00     0.031 C 
ATOM     66  C   UNL A   1      46.578  30.443  30.992  1.00  0.00     0.029 A 
ATOM     67  C   UNL A   1      45.255  30.207  30.658  1.00  0.00     0.049 A 
ATOM     68  H   UNL A   1      44.369  28.458  29.876  1.00  0.00     0.167 HD
ATOM     69  C   UNL A   1      42.860  30.788  30.413  1.00  0.00     0.074 A 
ATOM     70  C   UNL A   1      41.736  31.695  30.528  1.00  0.00     0.031 C 
ATOM     71  C   UNL A   1      44.130  31.101  30.766  1.00  0.00     0.031 A 
BRANCH  58  72
ATOM     72  C   UNL A   1      48.162  26.492  29.933  1.00  0.00    -0.014 A 
ATOM     73  C   UNL A   1      48.594  25.841  31.100  1.00  0.00     0.009 A 
ATOM     74  C   UNL A   1      49.066  26.648  28.871  1.00  0.00     0.009 A 
ATOM     75  C   UNL A   1      49.913  25.393  31.215  1.00  0.00     0.001 A 
ATOM     76  C   UNL A   1      50.374  26.171  28.976  1.00  0.00     0.001 A 
ATOM     77  C   UNL A   1      50.799  25.553  30.152  1.00  0.00     0.000 A 
ENDBRANCH  58  72
BRANCH  59  78
ATOM     78  C   UNL A   1      38.626  29.280  29.043  1.00  0.00    -0.014 A 
ATOM     79  C   UNL A   1      37.747  29.112  30.125  1.00  0.00     0.009 A 
ATOM     80  C   UNL A   1      38.134  29.832  27.850  1.00  0.00     0.009 A 
ATOM     81  C   UNL A   1      36.398  29.456  30.003  1.00  0.00     0.001 A 
ATOM     82  C   UNL A   1      36.793  30.207  27.743  1.00  0.00     0.001 A 
ATOM     83  C   UNL A   1      35.923  30.007  28.813  1.00  0.00     0.000 A 
ENDBRANCH  59  78
BRANCH  71  84
ATOM     84  C   UNL A   1      44.383  32.498  31.266  1.00  0.00    -0.014 A 
ATOM     85  C   UNL A   1      44.380  32.800  32.636  1.00  0.00     0.009 A 
ATOM     86  C   UNL A   1      44.656  33.523  30.346  1.00  0.00     0.009 A 
ATOM     87  C   UNL A   1      44.605  34.108  33.071  1.00  0.00     0.001 A 
ATOM     88  C   UNL A   1      44.914  34.821  30.785  1.00  0.00     0.001 A 
ATOM     89  C   UNL A   1      44.877  35.116  32.147  1.00  0.00     0.000 A 
ENDBRANCH  71  84
ENDBRANCH  45  46
ENDBRANCH  37  40
ENDBRANCH  35  36
ENDBRANCH  34  35
ENDBRANCH  33  34
ENDBRANCH   1  33
TORSDOF 16
ENDMDL
MODEL 2
REMARK VINA RESULT:     -11.5      3.864      9.202
REMARK SMILES CC(=O)C1=C(c2ccccc2)NC(=S)N[C@@H]1c1cc(Cl)ccc1OCC(=O)NCCCCNC(=O)c1ccc(-c2c3nc(c(-c4ccccc4)c4ccc([nH]4)c(-c4ccccc4)c4nc(c(-c5ccccc5)c5ccc2[nH]5)C=C4)C=C3)cc1
REMARK SMILES IDX 29 1 28 2 26 3 27 4 25 6 24 7 23 8 17 9 18 10 19 11 22 12
REMARK SMILES IDX 20 13 21 14 16 15 4 16 5 17 12 18 15 19 13 20 14 23 2 24
REMARK SMILES IDX 1 25 3 26 6 27 7 28 11 29 8 30 10 31 9 32 30 33 31 34 32 35
REMARK SMILES IDX 33 36 34 37 35 39 36 40 37 41 83 42 38 43 82 44 39 45 40 46
REMARK SMILES IDX 41 47 76 48 42 49 81 50 75 51 77 52 43 53 80 54 74 55 73 56
REMARK SMILES IDX 44 58 66 59 51 60 65 61 52 62 55 63 64 64 78 65 53 66 54 67
REMARK SMILES IDX 63 69 79 70 56 71 45 72 46 73 50 74 47 75 49 76 48 77 67 78
REMARK SMILES IDX 68 79 72 80 69 81 71 82 70 83 57 84 58 85 62 86 59 87 61 88
REMARK SMILES IDX 60 89
REMARK H PARENT 28 5 12 21 15 22 33 38 77 57 55 68
REMARK Flexibility Score: inf
ROOT
ATOM      1  C   UNL A   1      34.827  30.952  27.724  1.00  0.00     0.116 C 
ENDROOT
BRANCH   1   2
ATOM      2  N   UNL A   1      33.518  30.329  27.635  1.00  0.00    -0.353 N 
ATOM      3  C   UNL A   1      33.218  29.062  27.212  1.00  0.00     0.257 C 
ATOM      4  O   UNL A   1      32.138  28.562  27.535  1.00  0.00    -0.271 OA
ATOM      5  H   UNL A   1      32.755  30.886  27.913  1.00  0.00     0.163 HD
BRANCH   3   6
ATOM      6  C   UNL A   1      34.200  28.289  26.329  1.00  0.00     0.329 C 
BRANCH   6   7
ATOM      7  O   UNL A   1      33.864  26.958  26.016  1.00  0.00    -0.483 OA
BRANCH   7   8
ATOM      8  C   UNL A   1      33.588  26.468  24.774  1.00  0.00     0.125 A 
ATOM      9  C   UNL A   1      33.245  25.173  24.326  1.00  0.00     0.023 A 
ATOM     10  C   UNL A   1      32.811  25.054  22.977  1.00  0.00     0.030 A 
ATOM     11  C   UNL A   1      32.785  26.137  22.098  1.00  0.00     0.041 A 
ATOM     12  C   UNL A   1      33.542  27.549  23.865  1.00  0.00     0.048 A 
ATOM     13  Cl  UNL A   1      32.256  25.920  20.478  1.00  0.00    -0.084 Cl
ATOM     14  C   UNL A   1      33.157  27.391  22.538  1.00  0.00     0.024 A 
BRANCH   9  15
ATOM     15  C   UNL A   1      33.143  23.934  25.215  1.00  0.00     0.152 C 
ATOM     16  C   UNL A   1      33.528  22.584  24.633  1.00  0.00     0.046 C 
ATOM     17  C   UNL A   1      32.795  21.479  24.887  1.00  0.00     0.057 C 
ATOM     18  N   UNL A   1      31.700  21.586  25.718  1.00  0.00    -0.332 N 
ATOM     19  N   UNL A   1      31.775  23.884  25.713  1.00  0.00    -0.351 N 
ATOM     20  C   UNL A   1      31.155  22.755  26.125  1.00  0.00     0.171 C 
ATOM     21  H   UNL A   1      31.286  20.751  26.037  1.00  0.00     0.169 HD
ATOM     22  H   UNL A   1      31.268  24.728  25.752  1.00  0.00     0.163 HD
ATOM     23  S   UNL A   1      29.743  22.796  26.999  1.00  0.00    -0.041 S 
BRANCH  16  24
ATOM     24  C   UNL A   1      34.761  22.497  23.801  1.00  0.00     0.160 C 
ATOM     25  C   UNL A   1      36.043  22.105  24.487  1.00  0.00     0.093 C 
ATOM     26  O   UNL A   1      34.732  22.762  22.601  1.00  0.00    -0.295 OA
ENDBRANCH  16  24
BRANCH  17  27
ATOM     27  C   UNL A   1      32.977  20.132  24.311  1.00  0.00    -0.002 A 
ATOM     28  C   UNL A   1      32.307  19.854  23.105  1.00  0.00     0.010 A 
ATOM     29  C   UNL A   1      33.711  19.114  24.925  1.00  0.00     0.010 A 
ATOM     30  C   UNL A   1      32.358  18.587  22.528  1.00  0.00     0.001 A 
ATOM     31  C   UNL A   1      33.772  17.845  24.338  1.00  0.00     0.001 A 
ATOM     32  C   UNL A   1      33.092  17.581  23.147  1.00  0.00     0.000 A 
ENDBRANCH  17  27
ENDBRANCH   9  15
ENDBRANCH   7   8
ENDBRANCH   6   7
ENDBRANCH   3   6
ENDBRANCH   1   2
BRANCH   1  33
ATOM     33  C   UNL A   1      34.806  32.475  27.853  1.00  0.00     0.023 C 
BRANCH  33  34
ATOM     34  C   UNL A   1      33.542  33.107  28.438  1.00  0.00     0.023 C 
BRANCH  34  35
ATOM     35  C   UNL A   1      33.587  34.605  28.716  1.00  0.00     0.116 C 
BRANCH  35  36
ATOM     36  N   UNL A   1      33.137  34.959  30.053  1.00  0.00    -0.352 N 
ATOM     37  C   UNL A   1      33.628  34.592  31.281  1.00  0.00     0.251 C 
ATOM     38  H   UNL A   1      32.355  35.556  30.081  1.00  0.00     0.163 HD
ATOM     39  O   UNL A   1      33.030  34.944  32.297  1.00  0.00    -0.269 OA
BRANCH  37  40
ATOM     40  C   UNL A   1      34.841  33.750  31.402  1.00  0.00     0.039 A 
ATOM     41  C   UNL A   1      36.051  34.255  30.915  1.00  0.00     0.014 A 
ATOM     42  C   UNL A   1      34.800  32.473  31.965  1.00  0.00     0.014 A 
ATOM     43  C   UNL A   1      37.227  33.512  31.055  1.00  0.00     0.010 A 
ATOM     44  C   UNL A   1      35.984  31.766  32.174  1.00  0.00     0.010 A 
ATOM     45  C   UNL A   1      37.210  32.276  31.721  1.00  0.00    -0.014 A 
BRANCH  45  46
ATOM     46  C   UNL A   1      38.466  31.512  31.955  1.00  0.00     0.031 A 
ATOM     47  C   UNL A   1      39.365  31.856  33.111  1.00  0.00     0.074 A 
ATOM     48  C   UNL A   1      38.823  30.538  31.095  1.00  0.00     0.049 A 
ATOM     49  N   UNL A   1      40.516  31.327  33.448  1.00  0.00    -0.248 NA
ATOM     50  C   UNL A   1      38.927  32.950  33.993  1.00  0.00     0.031 C 
ATOM     51  C   UNL A   1      38.063  30.125  29.915  1.00  0.00     0.029 A 
ATOM     52  N   UNL A   1      39.926  29.718  31.080  1.00  0.00    -0.354 N 
ATOM     53  C   UNL A   1      40.942  32.030  34.569  1.00  0.00     0.074 A 
ATOM     54  C   UNL A   1      39.955  33.057  34.822  1.00  0.00     0.031 C 
ATOM     55  C   UNL A   1      38.703  29.112  29.309  1.00  0.00     0.029 A 
ATOM     56  C   UNL A   1      39.941  28.833  30.029  1.00  0.00     0.049 A 
ATOM     57  H   UNL A   1      40.637  29.760  31.760  1.00  0.00     0.167 HD
ATOM     58  C   UNL A   1      42.042  31.829  35.332  1.00  0.00     0.031 A 
ATOM     59  C   UNL A   1      40.852  27.906  29.678  1.00  0.00     0.031 A 
ATOM     60  C   UNL A   1      43.028  30.811  35.082  1.00  0.00     0.049 A 
ATOM     61  C   UNL A   1      42.083  27.725  30.523  1.00  0.00     0.074 A 
ATOM     62  C   UNL A   1      44.156  30.501  35.824  1.00  0.00     0.029 A 
ATOM     63  N   UNL A   1      43.009  29.938  34.004  1.00  0.00    -0.354 N 
ATOM     64  N   UNL A   1      42.435  28.353  31.618  1.00  0.00    -0.248 NA
ATOM     65  C   UNL A   1      43.036  26.693  30.088  1.00  0.00     0.031 C 
ATOM     66  C   UNL A   1      44.849  29.481  35.163  1.00  0.00     0.029 A 
ATOM     67  C   UNL A   1      44.117  29.109  34.048  1.00  0.00     0.049 A 
ATOM     68  H   UNL A   1      42.310  29.914  33.311  1.00  0.00     0.167 HD
ATOM     69  C   UNL A   1      43.630  27.771  32.021  1.00  0.00     0.074 A 
ATOM     70  C   UNL A   1      43.933  26.728  31.064  1.00  0.00     0.031 C 
ATOM     71  C   UNL A   1      44.407  28.073  33.090  1.00  0.00     0.031 A 
BRANCH  58  72
ATOM     72  C   UNL A   1      42.243  32.741  36.513  1.00  0.00    -0.014 A 
ATOM     73  C   UNL A   1      41.643  32.469  37.753  1.00  0.00     0.009 A 
ATOM     74  C   UNL A   1      43.070  33.869  36.395  1.00  0.00     0.009 A 
ATOM     75  C   UNL A   1      41.836  33.328  38.838  1.00  0.00     0.001 A 
ATOM     76  C   UNL A   1      43.288  34.708  37.489  1.00  0.00     0.001 A 
ATOM     77  C   UNL A   1      42.662  34.443  38.706  1.00  0.00     0.000 A 
ENDBRANCH  58  72
BRANCH  59  78
ATOM     78  C   UNL A   1      40.636  27.063  28.471  1.00  0.00    -0.014 A 
ATOM     79  C   UNL A   1      41.172  27.444  27.230  1.00  0.00     0.009 A 
ATOM     80  C   UNL A   1      39.872  25.888  28.546  1.00  0.00     0.009 A 
ATOM     81  C   UNL A   1      40.920  26.684  26.085  1.00  0.00     0.001 A 
ATOM     82  C   UNL A   1      39.650  25.112  27.406  1.00  0.00     0.001 A 
ATOM     83  C   UNL A   1      40.162  25.516  26.175  1.00  0.00     0.000 A 
ENDBRANCH  59  78
BRANCH  71  84
ATOM     84  C   UNL A   1      45.635  27.231  33.310  1.00  0.00    -0.014 A 
ATOM     85  C   UNL A   1      46.881  27.596  32.778  1.00  0.00     0.009 A 
ATOM     86  C   UNL A   1      45.544  26.065  34.088  1.00  0.00     0.009 A 
ATOM     87  C   UNL A   1      48.002  26.788  32.987  1.00  0.00     0.001 A 
ATOM     88  C   UNL A   1      46.672  25.279  34.323  1.00  0.00     0.001 A 
ATOM     89  C   UNL A   1      47.898  25.634  33.763  1.00  0.00     0.000 A 
ENDBRANCH  71  84
ENDBRANCH  45  46
ENDBRANCH  37  40
ENDBRANCH  35  36
ENDBRANCH  34  35
ENDBRANCH  33  34
ENDBRANCH   1  33
TORSDOF 16
ENDMDL
MODEL 3
REMARK VINA RESULT:     -11.3      0.624      5.662
REMARK SMILES CC(=O)C1=C(c2ccccc2)NC(=S)N[C@@H]1c1cc(Cl)ccc1OCC(=O)NCCCCNC(=O)c1ccc(-c2c3nc(c(-c4ccccc4)c4ccc([nH]4)c(-c4ccccc4)c4nc(c(-c5ccccc5)c5ccc2[nH]5)C=C4)C=C3)cc1
REMARK SMILES IDX 29 1 28 2 26 3 27 4 25 6 24 7 23 8 17 9 18 10 19 11 22 12
REMARK SMILES IDX 20 13 21 14 16 15 4 16 5 17 12 18 15 19 13 20 14 23 2 24
REMARK SMILES IDX 1 25 3 26 6 27 7 28 11 29 8 30 10 31 9 32 30 33 31 34 32 35
REMARK SMILES IDX 33 36 34 37 35 39 36 40 37 41 83 42 38 43 82 44 39 45 40 46
REMARK SMILES IDX 41 47 76 48 42 49 81 50 75 51 77 52 43 53 80 54 74 55 73 56
REMARK SMILES IDX 44 58 66 59 51 60 65 61 52 62 55 63 64 64 78 65 53 66 54 67
REMARK SMILES IDX 63 69 79 70 56 71 45 72 46 73 50 74 47 75 49 76 48 77 67 78
REMARK SMILES IDX 68 79 72 80 69 81 71 82 70 83 57 84 58 85 62 86 59 87 61 88
REMARK SMILES IDX 60 89
REMARK H PARENT 28 5 12 21 15 22 33 38 77 57 55 68
REMARK Flexibility Score: inf
ROOT
ATOM      1  C   UNL A   1      36.255  21.073  25.099  1.00  0.00     0.116 C 
ENDROOT
BRANCH   1   2
ATOM      2  N   UNL A   1      35.368  21.670  24.118  1.00  0.00    -0.353 N 
ATOM      3  C   UNL A   1      35.369  22.961  23.659  1.00  0.00     0.257 C 
ATOM      4  O   UNL A   1      34.818  23.217  22.587  1.00  0.00    -0.271 OA
ATOM      5  H   UNL A   1      34.684  21.075  23.735  1.00  0.00     0.163 HD
BRANCH   3   6
ATOM      6  C   UNL A   1      36.024  24.073  24.483  1.00  0.00     0.329 C 
BRANCH   6   7
ATOM      7  O   UNL A   1      35.306  24.549  25.595  1.00  0.00    -0.483 OA
BRANCH   7   8
ATOM      8  C   UNL A   1      33.974  24.374  25.829  1.00  0.00     0.125 A 
ATOM      9  C   UNL A   1      32.829  24.935  25.220  1.00  0.00     0.023 A 
ATOM     10  C   UNL A   1      31.573  24.367  25.571  1.00  0.00     0.030 A 
ATOM     11  C   UNL A   1      31.446  23.353  26.521  1.00  0.00     0.041 A 
ATOM     12  C   UNL A   1      33.817  23.341  26.779  1.00  0.00     0.048 A 
ATOM     13  Cl  UNL A   1      29.895  22.718  26.902  1.00  0.00    -0.084 Cl
ATOM     14  C   UNL A   1      32.570  22.839  27.135  1.00  0.00     0.024 A 
BRANCH   9  15
ATOM     15  C   UNL A   1      32.848  25.976  24.101  1.00  0.00     0.152 C 
ATOM     16  C   UNL A   1      31.824  27.099  24.131  1.00  0.00     0.046 C 
ATOM     17  C   UNL A   1      31.200  27.505  23.006  1.00  0.00     0.057 C 
ATOM     18  N   UNL A   1      31.530  26.904  21.810  1.00  0.00    -0.332 N 
ATOM     19  N   UNL A   1      32.743  25.246  22.845  1.00  0.00    -0.351 N 
ATOM     20  C   UNL A   1      32.268  25.775  21.694  1.00  0.00     0.171 C 
ATOM     21  H   UNL A   1      31.205  27.326  20.982  1.00  0.00     0.169 HD
ATOM     22  H   UNL A   1      33.037  24.306  22.832  1.00  0.00     0.163 HD
ATOM     23  S   UNL A   1      32.490  25.030  20.227  1.00  0.00    -0.041 S 
BRANCH  16  24
ATOM     24  C   UNL A   1      31.550  27.773  25.432  1.00  0.00     0.160 C 
ATOM     25  C   UNL A   1      30.538  27.139  26.350  1.00  0.00     0.093 C 
ATOM     26  O   UNL A   1      32.116  28.822  25.730  1.00  0.00    -0.295 OA
ENDBRANCH  16  24
BRANCH  17  27
ATOM     27  C   UNL A   1      30.112  28.497  22.893  1.00  0.00    -0.002 A 
ATOM     28  C   UNL A   1      28.801  28.041  23.121  1.00  0.00     0.010 A 
ATOM     29  C   UNL A   1      30.308  29.827  22.512  1.00  0.00     0.010 A 
ATOM     30  C   UNL A   1      27.706  28.887  22.961  1.00  0.00     0.001 A 
ATOM     31  C   UNL A   1      29.208  30.680  22.365  1.00  0.00     0.001 A 
ATOM     32  C   UNL A   1      27.911  30.210  22.583  1.00  0.00     0.000 A 
ENDBRANCH  17  27
ENDBRANCH   9  15
ENDBRANCH   7   8
ENDBRANCH   6   7
ENDBRANCH   3   6
ENDBRANCH   1   2
BRANCH   1  33
ATOM     33  C   UNL A   1      37.703  20.904  24.638  1.00  0.00     0.023 C 
BRANCH  33  34
ATOM     34  C   UNL A   1      38.404  19.597  25.011  1.00  0.00     0.023 C 
BRANCH  34  35
ATOM     35  C   UNL A   1      39.389  19.653  26.174  1.00  0.00     0.116 C 
BRANCH  35  36
ATOM     36  N   UNL A   1      40.676  19.048  25.870  1.00  0.00    -0.352 N 
ATOM     37  C   UNL A   1      41.942  19.575  25.935  1.00  0.00     0.251 C 
ATOM     38  H   UNL A   1      40.633  18.112  25.569  1.00  0.00     0.163 HD
ATOM     39  O   UNL A   1      42.895  18.903  25.543  1.00  0.00    -0.269 OA
BRANCH  37  40
ATOM     40  C   UNL A   1      42.175  20.951  26.434  1.00  0.00     0.039 A 
ATOM     41  C   UNL A   1      42.174  21.166  27.816  1.00  0.00     0.014 A 
ATOM     42  C   UNL A   1      42.374  22.027  25.566  1.00  0.00     0.014 A 
ATOM     43  C   UNL A   1      42.439  22.440  28.326  1.00  0.00     0.010 A 
ATOM     44  C   UNL A   1      42.715  23.280  26.076  1.00  0.00     0.010 A 
ATOM     45  C   UNL A   1      42.750  23.501  27.461  1.00  0.00    -0.014 A 
BRANCH  45  46
ATOM     46  C   UNL A   1      43.119  24.842  27.991  1.00  0.00     0.031 A 
ATOM     47  C   UNL A   1      42.063  25.883  28.240  1.00  0.00     0.074 A 
ATOM     48  C   UNL A   1      44.417  25.140  28.203  1.00  0.00     0.049 A 
ATOM     49  N   UNL A   1      42.201  27.117  28.661  1.00  0.00    -0.248 NA
ATOM     50  C   UNL A   1      40.670  25.498  27.960  1.00  0.00     0.031 C 
ATOM     51  C   UNL A   1      45.545  24.237  27.971  1.00  0.00     0.029 A 
ATOM     52  N   UNL A   1      45.006  26.294  28.658  1.00  0.00    -0.354 N 
ATOM     53  C   UNL A   1      40.920  27.655  28.684  1.00  0.00     0.074 A 
ATOM     54  C   UNL A   1      40.025  26.634  28.184  1.00  0.00     0.031 C 
ATOM     55  C   UNL A   1      46.685  24.858  28.314  1.00  0.00     0.029 A 
ATOM     56  C   UNL A   1      46.376  26.217  28.745  1.00  0.00     0.049 A 
ATOM     57  H   UNL A   1      44.496  27.101  28.900  1.00  0.00     0.167 HD
ATOM     58  C   UNL A   1      40.518  28.879  29.102  1.00  0.00     0.031 A 
ATOM     59  C   UNL A   1      47.283  27.139  29.122  1.00  0.00     0.031 A 
ATOM     60  C   UNL A   1      41.406  29.898  29.597  1.00  0.00     0.049 A 
ATOM     61  C   UNL A   1      46.815  28.503  29.549  1.00  0.00     0.074 A 
ATOM     62  C   UNL A   1      41.089  31.156  30.084  1.00  0.00     0.029 A 
ATOM     63  N   UNL A   1      42.786  29.782  29.665  1.00  0.00    -0.354 N 
ATOM     64  N   UNL A   1      45.593  28.970  29.629  1.00  0.00    -0.248 NA
ATOM     65  C   UNL A   1      47.854  29.460  29.953  1.00  0.00     0.031 C 
ATOM     66  C   UNL A   1      42.280  31.820  30.391  1.00  0.00     0.029 A 
ATOM     67  C   UNL A   1      43.335  30.952  30.161  1.00  0.00     0.049 A 
ATOM     68  H   UNL A   1      43.299  28.984  29.398  1.00  0.00     0.167 HD
ATOM     69  C   UNL A   1      45.714  30.263  30.123  1.00  0.00     0.074 A 
ATOM     70  C   UNL A   1      47.126  30.498  30.342  1.00  0.00     0.031 C 
ATOM     71  C   UNL A   1      44.742  31.174  30.376  1.00  0.00     0.031 A 
BRANCH  58  72
ATOM     72  C   UNL A   1      39.047  29.187  29.032  1.00  0.00    -0.014 A 
ATOM     73  C   UNL A   1      38.463  29.687  27.857  1.00  0.00     0.009 A 
ATOM     74  C   UNL A   1      38.226  28.941  30.144  1.00  0.00     0.009 A 
ATOM     75  C   UNL A   1      37.096  29.972  27.810  1.00  0.00     0.001 A 
ATOM     76  C   UNL A   1      36.854  29.196  30.084  1.00  0.00     0.001 A 
ATOM     77  C   UNL A   1      36.292  29.721  28.921  1.00  0.00     0.000 A 
ENDBRANCH  58  72
BRANCH  59  78
ATOM     78  C   UNL A   1      48.733  26.805  29.123  1.00  0.00    -0.014 A 
ATOM     79  C   UNL A   1      49.503  26.968  27.961  1.00  0.00     0.009 A 
ATOM     80  C   UNL A   1      49.349  26.299  30.278  1.00  0.00     0.009 A 
ATOM     81  C   UNL A   1      50.851  26.599  27.946  1.00  0.00     0.001 A 
ATOM     82  C   UNL A   1      50.704  25.963  30.270  1.00  0.00     0.001 A 
ATOM     83  C   UNL A   1      51.451  26.100  29.102  1.00  0.00     0.000 A 
ENDBRANCH  59  78
BRANCH  71  84
ATOM     84  C   UNL A   1      45.168  32.492  30.964  1.00  0.00    -0.014 A 
ATOM     85  C   UNL A   1      45.038  32.762  32.335  1.00  0.00     0.009 A 
ATOM     86  C   UNL A   1      45.737  33.469  30.131  1.00  0.00     0.009 A 
ATOM     87  C   UNL A   1      45.430  33.999  32.851  1.00  0.00     0.001 A 
ATOM     88  C   UNL A   1      46.160  34.691  30.656  1.00  0.00     0.001 A 
ATOM     89  C   UNL A   1      45.995  34.959  32.013  1.00  0.00     0.000 A 
ENDBRANCH  71  84
ENDBRANCH  45  46
ENDBRANCH  37  40
ENDBRANCH  35  36
ENDBRANCH  34  35
ENDBRANCH  33  34
ENDBRANCH   1  33
TORSDOF 16
ENDMDL
