MODEL 1
REMARK VINA RESULT:     -11.2      0.000      0.000
REMARK SMILES C[C@@]1(O)N(CC(=O)NCCCCNC(=O)c2ccc(-c3c4nc(c(-c5ccccc5)c5ccc([nH]5)c(-c5ccccc5)c5nc(c(-c6ccccc6)c6ccc3[nH]6)C=C5)C=C4)cc2)C(=O)OC12CCCCC2
REMARK SMILES IDX 10 1 9 2 8 3 6 4 7 5 5 7 4 8 1 9 2 10 67 11 64 12 66 13
REMARK SMILES IDX 68 14 72 15 65 16 69 17 71 18 70 19 3 20 11 22 12 23 13 24
REMARK SMILES IDX 14 25 15 27 16 28 17 29 63 30 18 31 62 32 19 33 20 34 21 35
REMARK SMILES IDX 56 36 22 37 61 38 55 39 57 40 23 41 60 42 54 43 53 44 24 46
REMARK SMILES IDX 46 47 31 48 45 49 32 50 35 51 44 52 58 53 33 54 34 55 43 57
REMARK SMILES IDX 59 58 36 59 25 60 26 61 30 62 27 63 29 64 28 65 47 66 48 67
REMARK SMILES IDX 52 68 49 69 51 70 50 71 37 72 38 73 42 74 39 75 41 76 40 77
REMARK H PARENT 8 6 3 21 13 26 57 45 35 56
REMARK Flexibility Score: inf
ROOT
ATOM      1  C   UNL A   1      36.695  20.946  24.675  1.00  0.00     0.023 C 
ENDROOT
BRANCH   1   2
ATOM      2  C   UNL A   1      35.316  20.635  25.249  1.00  0.00     0.116 C 
BRANCH   2   3
ATOM      3  N   UNL A   1      35.075  21.326  26.501  1.00  0.00    -0.355 N 
ATOM      4  C   UNL A   1      34.030  22.136  26.843  1.00  0.00     0.239 C 
ATOM      5  O   UNL A   1      33.951  22.538  28.005  1.00  0.00    -0.273 OA
ATOM      6  H   UNL A   1      35.757  21.191  27.199  1.00  0.00     0.163 HD
BRANCH   4   7
ATOM      7  C   UNL A   1      32.958  22.463  25.811  1.00  0.00     0.226 C 
BRANCH   7   8
ATOM      8  N   UNL A   1      32.614  23.877  25.711  1.00  0.00    -0.267 N 
ATOM      9  C   UNL A   1      34.847  24.691  25.028  1.00  0.00     0.072 C 
ATOM     10  C   UNL A   1      33.331  24.835  24.916  1.00  0.00     0.181 C 
ATOM     11  C   UNL A   1      32.731  26.200  25.405  1.00  0.00     0.161 C 
ATOM     12  C   UNL A   1      31.718  24.468  26.552  1.00  0.00     0.413 C 
ATOM     13  O   UNL A   1      31.732  25.814  26.388  1.00  0.00    -0.438 OA
ATOM     14  C   UNL A   1      33.748  27.105  26.127  1.00  0.00     0.054 C 
ATOM     15  C   UNL A   1      31.957  26.986  24.325  1.00  0.00     0.054 C 
ATOM     16  O   UNL A   1      30.989  23.897  27.348  1.00  0.00    -0.224 OA
ATOM     17  C   UNL A   1      33.153  28.424  26.614  1.00  0.00     0.004 C 
ATOM     18  C   UNL A   1      31.372  28.300  24.854  1.00  0.00     0.004 C 
ATOM     19  C   UNL A   1      32.446  29.169  25.491  1.00  0.00     0.000 C 
BRANCH  10  20
ATOM     20  O   UNL A   1      33.028  24.573  23.556  1.00  0.00    -0.367 OA
ATOM     21  H   UNL A   1      33.846  24.591  23.034  1.00  0.00     0.213 HD
ENDBRANCH  10  20
ENDBRANCH   7   8
ENDBRANCH   4   7
ENDBRANCH   2   3
ENDBRANCH   1   2
BRANCH   1  22
ATOM     22  C   UNL A   1      37.750  19.875  24.957  1.00  0.00     0.023 C 
BRANCH  22  23
ATOM     23  C   UNL A   1      38.962  20.392  25.720  1.00  0.00     0.116 C 
BRANCH  23  24
ATOM     24  N   UNL A   1      40.039  19.414  25.763  1.00  0.00    -0.352 N 
ATOM     25  C   UNL A   1      41.365  19.602  26.063  1.00  0.00     0.251 C 
ATOM     26  H   UNL A   1      39.781  18.488  25.548  1.00  0.00     0.163 HD
ATOM     27  O   UNL A   1      42.180  18.708  25.867  1.00  0.00    -0.269 OA
BRANCH  25  28
ATOM     28  C   UNL A   1      41.803  20.903  26.602  1.00  0.00     0.039 A 
ATOM     29  C   UNL A   1      42.274  21.876  25.720  1.00  0.00     0.014 A 
ATOM     30  C   UNL A   1      41.719  21.166  27.972  1.00  0.00     0.014 A 
ATOM     31  C   UNL A   1      42.608  23.139  26.208  1.00  0.00     0.010 A 
ATOM     32  C   UNL A   1      41.966  22.450  28.441  1.00  0.00     0.010 A 
ATOM     33  C   UNL A   1      42.420  23.446  27.566  1.00  0.00    -0.014 A 
BRANCH  33  34
ATOM     34  C   UNL A   1      42.699  24.805  28.091  1.00  0.00     0.031 A 
ATOM     35  C   UNL A   1      44.090  25.175  28.524  1.00  0.00     0.074 A 
ATOM     36  C   UNL A   1      41.688  25.683  28.231  1.00  0.00     0.049 A 
ATOM     37  N   UNL A   1      44.520  26.296  29.047  1.00  0.00    -0.248 NA
ATOM     38  C   UNL A   1      45.131  24.145  28.375  1.00  0.00     0.031 C 
ATOM     39  C   UNL A   1      40.286  25.429  27.885  1.00  0.00     0.029 A 
ATOM     40  N   UNL A   1      41.683  26.970  28.704  1.00  0.00    -0.354 N 
ATOM     41  C   UNL A   1      45.871  26.098  29.301  1.00  0.00     0.074 A 
ATOM     42  C   UNL A   1      46.178  24.734  28.931  1.00  0.00     0.031 C 
ATOM     43  C   UNL A   1      39.567  26.536  28.124  1.00  0.00     0.029 A 
ATOM     44  C   UNL A   1      40.442  27.560  28.684  1.00  0.00     0.049 A 
ATOM     45  H   UNL A   1      42.492  27.428  29.028  1.00  0.00     0.167 HD
ATOM     46  C   UNL A   1      46.781  26.979  29.777  1.00  0.00     0.031 A 
ATOM     47  C   UNL A   1      40.052  28.787  29.079  1.00  0.00     0.031 A 
ATOM     48  C   UNL A   1      46.474  28.337  30.143  1.00  0.00     0.049 A 
ATOM     49  C   UNL A   1      41.077  29.737  29.633  1.00  0.00     0.074 A 
ATOM     50  C   UNL A   1      47.334  29.325  30.588  1.00  0.00     0.029 A 
ATOM     51  N   UNL A   1      45.204  28.893  30.113  1.00  0.00    -0.354 N 
ATOM     52  N   UNL A   1      42.365  29.560  29.797  1.00  0.00    -0.248 NA
ATOM     53  C   UNL A   1      40.593  31.062  30.044  1.00  0.00     0.031 C 
ATOM     54  C   UNL A   1      46.575  30.460  30.887  1.00  0.00     0.029 A 
ATOM     55  C   UNL A   1      45.253  30.203  30.559  1.00  0.00     0.049 A 
ATOM     56  H   UNL A   1      44.390  28.427  29.817  1.00  0.00     0.167 HD
ATOM     57  C   UNL A   1      42.851  30.760  30.301  1.00  0.00     0.074 A 
ATOM     58  C   UNL A   1      41.722  31.661  30.396  1.00  0.00     0.031 C 
ATOM     59  C   UNL A   1      44.120  31.086  30.651  1.00  0.00     0.031 A 
BRANCH  46  60
ATOM     60  C   UNL A   1      48.195  26.494  29.942  1.00  0.00    -0.014 A 
ATOM     61  C   UNL A   1      48.626  25.885  31.132  1.00  0.00     0.009 A 
ATOM     62  C   UNL A   1      49.104  26.619  28.879  1.00  0.00     0.009 A 
ATOM     63  C   UNL A   1      49.945  25.448  31.269  1.00  0.00     0.001 A 
ATOM     64  C   UNL A   1      50.413  26.151  29.006  1.00  0.00     0.001 A 
ATOM     65  C   UNL A   1      50.836  25.576  30.204  1.00  0.00     0.000 A 
ENDBRANCH  46  60
BRANCH  47  66
ATOM     66  C   UNL A   1      38.627  29.193  28.955  1.00  0.00    -0.014 A 
ATOM     67  C   UNL A   1      37.756  29.086  30.049  1.00  0.00     0.009 A 
ATOM     68  C   UNL A   1      38.126  29.680  27.736  1.00  0.00     0.009 A 
ATOM     69  C   UNL A   1      36.407  29.426  29.918  1.00  0.00     0.001 A 
ATOM     70  C   UNL A   1      36.785  30.051  27.618  1.00  0.00     0.001 A 
ATOM     71  C   UNL A   1      35.924  29.912  28.704  1.00  0.00     0.000 A 
ENDBRANCH  47  66
BRANCH  59  72
ATOM     72  C   UNL A   1      44.361  32.491  31.131  1.00  0.00    -0.014 A 
ATOM     73  C   UNL A   1      44.333  32.815  32.497  1.00  0.00     0.009 A 
ATOM     74  C   UNL A   1      44.660  33.499  30.200  1.00  0.00     0.009 A 
ATOM     75  C   UNL A   1      44.561  34.128  32.916  1.00  0.00     0.001 A 
ATOM     76  C   UNL A   1      44.923  34.801  30.625  1.00  0.00     0.001 A 
ATOM     77  C   UNL A   1      44.862  35.117  31.980  1.00  0.00     0.000 A 
ENDBRANCH  59  72
ENDBRANCH  33  34
ENDBRANCH  25  28
ENDBRANCH  23  24
ENDBRANCH  22  23
ENDBRANCH   1  22
TORSDOF 13
ENDMDL
MODEL 2
REMARK VINA RESULT:     -11.1      3.258      8.835
REMARK SMILES C[C@@]1(O)N(CC(=O)NCCCCNC(=O)c2ccc(-c3c4nc(c(-c5ccccc5)c5ccc([nH]5)c(-c5ccccc5)c5nc(c(-c6ccccc6)c6ccc3[nH]6)C=C5)C=C4)cc2)C(=O)OC12CCCCC2
REMARK SMILES IDX 10 1 9 2 8 3 6 4 7 5 5 7 4 8 1 9 2 10 67 11 64 12 66 13
REMARK SMILES IDX 68 14 72 15 65 16 69 17 71 18 70 19 3 20 11 22 12 23 13 24
REMARK SMILES IDX 14 25 15 27 16 28 17 29 63 30 18 31 62 32 19 33 20 34 21 35
REMARK SMILES IDX 56 36 22 37 61 38 55 39 57 40 23 41 60 42 54 43 53 44 24 46
REMARK SMILES IDX 46 47 31 48 45 49 32 50 35 51 44 52 58 53 33 54 34 55 43 57
REMARK SMILES IDX 59 58 36 59 25 60 26 61 30 62 27 63 29 64 28 65 47 66 48 67
REMARK SMILES IDX 52 68 49 69 51 70 50 71 37 72 38 73 42 74 39 75 41 76 40 77
REMARK H PARENT 8 6 3 21 13 26 57 45 35 56
REMARK Flexibility Score: inf
ROOT
ATOM      1  C   UNL A   1      31.767  30.242  26.551  1.00  0.00     0.023 C 
ENDROOT
BRANCH   1   2
ATOM      2  C   UNL A   1      31.477  29.757  25.133  1.00  0.00     0.116 C 
BRANCH   2   3
ATOM      3  N   UNL A   1      32.679  29.674  24.325  1.00  0.00    -0.355 N 
ATOM      4  C   UNL A   1      33.028  28.724  23.408  1.00  0.00     0.239 C 
ATOM      5  O   UNL A   1      34.048  28.897  22.740  1.00  0.00    -0.273 OA
ATOM      6  H   UNL A   1      33.329  30.402  24.455  1.00  0.00     0.163 HD
BRANCH   4   7
ATOM      7  C   UNL A   1      32.122  27.519  23.185  1.00  0.00     0.226 C 
BRANCH   7   8
ATOM      8  N   UNL A   1      32.767  26.225  23.367  1.00  0.00    -0.267 N 
ATOM      9  C   UNL A   1      33.344  26.501  25.756  1.00  0.00     0.072 C 
ATOM     10  C   UNL A   1      32.915  25.560  24.632  1.00  0.00     0.181 C 
ATOM     11  C   UNL A   1      33.910  24.396  24.291  1.00  0.00     0.161 C 
ATOM     12  C   UNL A   1      33.500  25.632  22.382  1.00  0.00     0.413 C 
ATOM     13  O   UNL A   1      34.158  24.550  22.867  1.00  0.00    -0.438 OA
ATOM     14  C   UNL A   1      35.273  24.513  25.001  1.00  0.00     0.054 C 
ATOM     15  C   UNL A   1      33.321  22.978  24.451  1.00  0.00     0.054 C 
ATOM     16  O   UNL A   1      33.574  25.996  21.219  1.00  0.00    -0.224 OA
ATOM     17  C   UNL A   1      36.242  23.386  24.651  1.00  0.00     0.004 C 
ATOM     18  C   UNL A   1      34.321  21.876  24.087  1.00  0.00     0.004 C 
ATOM     19  C   UNL A   1      35.615  22.017  24.876  1.00  0.00     0.000 C 
BRANCH  10  20
ATOM     20  O   UNL A   1      31.637  25.078  25.014  1.00  0.00    -0.367 OA
ATOM     21  H   UNL A   1      31.462  24.236  24.565  1.00  0.00     0.213 HD
ENDBRANCH  10  20
ENDBRANCH   7   8
ENDBRANCH   4   7
ENDBRANCH   2   3
ENDBRANCH   1   2
BRANCH   1  22
ATOM     22  C   UNL A   1      31.551  31.741  26.760  1.00  0.00     0.023 C 
BRANCH  22  23
ATOM     23  C   UNL A   1      32.827  32.507  27.079  1.00  0.00     0.116 C 
BRANCH  23  24
ATOM     24  N   UNL A   1      32.550  33.829  27.623  1.00  0.00    -0.352 N 
ATOM     25  C   UNL A   1      33.213  34.514  28.610  1.00  0.00     0.251 C 
ATOM     26  H   UNL A   1      31.779  34.298  27.227  1.00  0.00     0.163 HD
ATOM     27  O   UNL A   1      32.736  35.538  29.085  1.00  0.00    -0.269 OA
BRANCH  25  28
ATOM     28  C   UNL A   1      34.497  33.989  29.110  1.00  0.00     0.039 A 
ATOM     29  C   UNL A   1      34.503  33.205  30.265  1.00  0.00     0.014 A 
ATOM     30  C   UNL A   1      35.685  34.250  28.422  1.00  0.00     0.014 A 
ATOM     31  C   UNL A   1      35.698  32.632  30.697  1.00  0.00     0.010 A 
ATOM     32  C   UNL A   1      36.855  33.606  28.803  1.00  0.00     0.010 A 
ATOM     33  C   UNL A   1      36.876  32.798  29.948  1.00  0.00    -0.014 A 
BRANCH  33  34
ATOM     34  C   UNL A   1      38.140  32.135  30.350  1.00  0.00     0.031 A 
ATOM     35  C   UNL A   1      39.063  32.804  31.331  1.00  0.00     0.074 A 
ATOM     36  C   UNL A   1      38.484  30.961  29.786  1.00  0.00     0.049 A 
ATOM     37  N   UNL A   1      40.229  32.404  31.770  1.00  0.00    -0.248 NA
ATOM     38  C   UNL A   1      38.632  34.104  31.870  1.00  0.00     0.031 C 
ATOM     39  C   UNL A   1      37.693  30.232  28.791  1.00  0.00     0.029 A 
ATOM     40  N   UNL A   1      39.591  30.173  29.970  1.00  0.00    -0.354 N 
ATOM     41  C   UNL A   1      40.674  33.407  32.622  1.00  0.00     0.074 A 
ATOM     42  C   UNL A   1      39.683  34.460  32.592  1.00  0.00     0.031 C 
ATOM     43  C   UNL A   1      38.324  29.089  28.481  1.00  0.00     0.029 A 
ATOM     44  C   UNL A   1      39.583  29.026  29.215  1.00  0.00     0.049 A 
ATOM     45  H   UNL A   1      40.324  30.409  30.585  1.00  0.00     0.167 HD
ATOM     46  C   UNL A   1      41.795  33.440  33.379  1.00  0.00     0.031 A 
ATOM     47  C   UNL A   1      40.491  28.036  29.120  1.00  0.00     0.031 A 
ATOM     48  C   UNL A   1      42.779  32.390  33.408  1.00  0.00     0.049 A 
ATOM     49  C   UNL A   1      41.743  28.111  29.949  1.00  0.00     0.074 A 
ATOM     50  C   UNL A   1      43.924  32.304  34.180  1.00  0.00     0.029 A 
ATOM     51  N   UNL A   1      42.736  31.247  32.624  1.00  0.00    -0.354 N 
ATOM     52  N   UNL A   1      42.114  29.032  30.806  1.00  0.00    -0.248 NA
ATOM     53  C   UNL A   1      42.696  27.002  29.806  1.00  0.00     0.031 C 
ATOM     54  C   UNL A   1      44.607  31.140  33.816  1.00  0.00     0.029 A 
ATOM     55  C   UNL A   1      43.850  30.464  32.872  1.00  0.00     0.049 A 
ATOM     56  H   UNL A   1      42.019  31.025  31.987  1.00  0.00     0.167 HD
ATOM     57  C   UNL A   1      43.326  28.597  31.326  1.00  0.00     0.074 A 
ATOM     58  C   UNL A   1      43.617  27.323  30.703  1.00  0.00     0.031 C 
ATOM     59  C   UNL A   1      44.126  29.200  32.241  1.00  0.00     0.031 A 
BRANCH  46  60
ATOM     60  C   UNL A   1      42.022  34.660  34.229  1.00  0.00    -0.014 A 
ATOM     61  C   UNL A   1      41.591  34.711  35.565  1.00  0.00     0.009 A 
ATOM     62  C   UNL A   1      42.706  35.764  33.697  1.00  0.00     0.009 A 
ATOM     63  C   UNL A   1      41.803  35.855  36.336  1.00  0.00     0.001 A 
ATOM     64  C   UNL A   1      42.947  36.895  34.480  1.00  0.00     0.001 A 
ATOM     65  C   UNL A   1      42.486  36.944  35.795  1.00  0.00     0.000 A 
ENDBRANCH  46  60
BRANCH  47  66
ATOM     66  C   UNL A   1      40.247  26.884  28.213  1.00  0.00    -0.014 A 
ATOM     67  C   UNL A   1      39.486  25.786  28.642  1.00  0.00     0.009 A 
ATOM     68  C   UNL A   1      40.784  26.869  26.916  1.00  0.00     0.009 A 
ATOM     69  C   UNL A   1      39.295  24.685  27.805  1.00  0.00     0.001 A 
ATOM     70  C   UNL A   1      40.563  25.781  26.068  1.00  0.00     0.001 A 
ATOM     71  C   UNL A   1      39.829  24.685  26.518  1.00  0.00     0.000 A 
ENDBRANCH  47  66
BRANCH  59  72
ATOM     72  C   UNL A   1      45.373  28.466  32.652  1.00  0.00    -0.014 A 
ATOM     73  C   UNL A   1      46.593  28.658  31.982  1.00  0.00     0.009 A 
ATOM     74  C   UNL A   1      45.333  27.599  33.756  1.00  0.00     0.009 A 
ATOM     75  C   UNL A   1      47.736  27.964  32.387  1.00  0.00     0.001 A 
ATOM     76  C   UNL A   1      46.486  26.935  34.179  1.00  0.00     0.001 A 
ATOM     77  C   UNL A   1      47.682  27.109  33.487  1.00  0.00     0.000 A 
ENDBRANCH  59  72
ENDBRANCH  33  34
ENDBRANCH  25  28
ENDBRANCH  23  24
ENDBRANCH  22  23
ENDBRANCH   1  22
TORSDOF 13
ENDMDL
MODEL 3
REMARK VINA RESULT:     -11.0      0.930      1.158
REMARK SMILES C[C@@]1(O)N(CC(=O)NCCCCNC(=O)c2ccc(-c3c4nc(c(-c5ccccc5)c5ccc([nH]5)c(-c5ccccc5)c5nc(c(-c6ccccc6)c6ccc3[nH]6)C=C5)C=C4)cc2)C(=O)OC12CCCCC2
REMARK SMILES IDX 10 1 9 2 8 3 6 4 7 5 5 7 4 8 1 9 2 10 67 11 64 12 66 13
REMARK SMILES IDX 68 14 72 15 65 16 69 17 71 18 70 19 3 20 11 22 12 23 13 24
REMARK SMILES IDX 14 25 15 27 16 28 17 29 63 30 18 31 62 32 19 33 20 34 21 35
REMARK SMILES IDX 56 36 22 37 61 38 55 39 57 40 23 41 60 42 54 43 53 44 24 46
REMARK SMILES IDX 46 47 31 48 45 49 32 50 35 51 44 52 58 53 33 54 34 55 43 57
REMARK SMILES IDX 59 58 36 59 25 60 26 61 30 62 27 63 29 64 28 65 47 66 48 67
REMARK SMILES IDX 52 68 49 69 51 70 50 71 37 72 38 73 42 74 39 75 41 76 40 77
REMARK H PARENT 8 6 3 21 13 26 57 45 35 56
REMARK Flexibility Score: inf
ROOT
ATOM      1  C   UNL A   1      36.825  20.827  24.605  1.00  0.00     0.023 C 
ENDROOT
BRANCH   1   2
ATOM      2  C   UNL A   1      35.764  21.105  25.666  1.00  0.00     0.116 C 
BRANCH   2   3
ATOM      3  N   UNL A   1      34.479  20.527  25.321  1.00  0.00    -0.355 N 
ATOM      4  C   UNL A   1      33.237  20.873  25.771  1.00  0.00     0.239 C 
ATOM      5  O   UNL A   1      32.254  20.330  25.265  1.00  0.00    -0.273 OA
ATOM      6  H   UNL A   1      34.507  19.785  24.673  1.00  0.00     0.163 HD
BRANCH   4   7
ATOM      7  C   UNL A   1      33.092  21.961  26.828  1.00  0.00     0.226 C 
BRANCH   7   8
ATOM      8  N   UNL A   1      32.454  23.187  26.362  1.00  0.00    -0.267 N 
ATOM      9  C   UNL A   1      34.521  24.496  26.004  1.00  0.00     0.072 C 
ATOM     10  C   UNL A   1      33.096  24.182  25.550  1.00  0.00     0.181 C 
ATOM     11  C   UNL A   1      32.078  25.374  25.603  1.00  0.00     0.161 C 
ATOM     12  C   UNL A   1      31.255  23.613  26.853  1.00  0.00     0.413 C 
ATOM     13  O   UNL A   1      30.984  24.868  26.414  1.00  0.00    -0.438 OA
ATOM     14  C   UNL A   1      32.623  26.628  26.313  1.00  0.00     0.054 C 
ATOM     15  C   UNL A   1      31.442  25.738  24.243  1.00  0.00     0.054 C 
ATOM     16  O   UNL A   1      30.506  22.981  27.582  1.00  0.00    -0.224 OA
ATOM     17  C   UNL A   1      31.620  27.779  26.375  1.00  0.00     0.004 C 
ATOM     18  C   UNL A   1      30.440  26.892  24.348  1.00  0.00     0.004 C 
ATOM     19  C   UNL A   1      31.069  28.117  24.997  1.00  0.00     0.000 C 
BRANCH  10  20
ATOM     20  O   UNL A   1      33.229  23.647  24.244  1.00  0.00    -0.367 OA
ATOM     21  H   UNL A   1      33.624  24.314  23.660  1.00  0.00     0.213 HD
ENDBRANCH  10  20
ENDBRANCH   7   8
ENDBRANCH   4   7
ENDBRANCH   2   3
ENDBRANCH   1   2
BRANCH   1  22
ATOM     22  C   UNL A   1      37.830  19.741  24.990  1.00  0.00     0.023 C 
BRANCH  22  23
ATOM     23  C   UNL A   1      39.046  20.266  25.740  1.00  0.00     0.116 C 
BRANCH  23  24
ATOM     24  N   UNL A   1      40.093  19.261  25.857  1.00  0.00    -0.352 N 
ATOM     25  C   UNL A   1      41.424  19.430  26.146  1.00  0.00     0.251 C 
ATOM     26  H   UNL A   1      39.807  18.331  25.708  1.00  0.00     0.163 HD
ATOM     27  O   UNL A   1      42.211  18.500  26.018  1.00  0.00    -0.269 OA
BRANCH  25  28
ATOM     28  C   UNL A   1      41.900  20.753  26.592  1.00  0.00     0.039 A 
ATOM     29  C   UNL A   1      42.355  21.664  25.638  1.00  0.00     0.014 A 
ATOM     30  C   UNL A   1      41.870  21.097  27.946  1.00  0.00     0.014 A 
ATOM     31  C   UNL A   1      42.725  22.947  26.038  1.00  0.00     0.010 A 
ATOM     32  C   UNL A   1      42.153  22.401  28.329  1.00  0.00     0.010 A 
ATOM     33  C   UNL A   1      42.591  23.337  27.382  1.00  0.00    -0.014 A 
BRANCH  33  34
ATOM     34  C   UNL A   1      42.909  24.719  27.815  1.00  0.00     0.031 A 
ATOM     35  C   UNL A   1      44.338  25.127  28.046  1.00  0.00     0.074 A 
ATOM     36  C   UNL A   1      41.908  25.587  28.056  1.00  0.00     0.049 A 
ATOM     37  N   UNL A   1      44.810  26.273  28.466  1.00  0.00    -0.248 NA
ATOM     38  C   UNL A   1      45.370  24.107  27.798  1.00  0.00     0.031 C 
ATOM     39  C   UNL A   1      40.478  25.298  27.908  1.00  0.00     0.029 A 
ATOM     40  N   UNL A   1      41.939  26.891  28.479  1.00  0.00    -0.354 N 
ATOM     41  C   UNL A   1      46.186  26.106  28.546  1.00  0.00     0.074 A 
ATOM     42  C   UNL A   1      46.469  24.734  28.188  1.00  0.00     0.031 C 
ATOM     43  C   UNL A   1      39.775  26.403  28.201  1.00  0.00     0.029 A 
ATOM     44  C   UNL A   1      40.696  27.461  28.602  1.00  0.00     0.049 A 
ATOM     45  H   UNL A   1      42.775  27.373  28.676  1.00  0.00     0.167 HD
ATOM     46  C   UNL A   1      47.134  27.018  28.865  1.00  0.00     0.031 A 
ATOM     47  C   UNL A   1      40.336  28.696  29.000  1.00  0.00     0.031 A 
ATOM     48  C   UNL A   1      46.850  28.384  29.218  1.00  0.00     0.049 A 
ATOM     49  C   UNL A   1      41.406  29.682  29.378  1.00  0.00     0.074 A 
ATOM     50  C   UNL A   1      47.742  29.402  29.509  1.00  0.00     0.029 A 
ATOM     51  N   UNL A   1      45.577  28.920  29.336  1.00  0.00    -0.354 N 
ATOM     52  N   UNL A   1      42.708  29.530  29.377  1.00  0.00    -0.248 NA
ATOM     53  C   UNL A   1      40.954  31.015  29.802  1.00  0.00     0.031 C 
ATOM     54  C   UNL A   1      47.006  30.536  29.865  1.00  0.00     0.029 A 
ATOM     55  C   UNL A   1      45.658  30.247  29.725  1.00  0.00     0.049 A 
ATOM     56  H   UNL A   1      44.740  28.430  29.168  1.00  0.00     0.167 HD
ATOM     57  C   UNL A   1      43.232  30.757  29.767  1.00  0.00     0.074 A 
ATOM     58  C   UNL A   1      42.108  31.644  29.979  1.00  0.00     0.031 C 
ATOM     59  C   UNL A   1      44.529  31.115  29.934  1.00  0.00     0.031 A 
BRANCH  46  60
ATOM     60  C   UNL A   1      48.566  26.561  28.858  1.00  0.00    -0.014 A 
ATOM     61  C   UNL A   1      49.187  26.081  30.023  1.00  0.00     0.009 A 
ATOM     62  C   UNL A   1      49.299  26.581  27.660  1.00  0.00     0.009 A 
ATOM     63  C   UNL A   1      50.520  25.669  29.998  1.00  0.00     0.001 A 
ATOM     64  C   UNL A   1      50.623  26.137  27.631  1.00  0.00     0.001 A 
ATOM     65  C   UNL A   1      51.236  25.692  28.801  1.00  0.00     0.000 A 
ENDBRANCH  46  60
BRANCH  47  66
ATOM     66  C   UNL A   1      38.899  29.075  29.052  1.00  0.00    -0.014 A 
ATOM     67  C   UNL A   1      38.152  28.884  30.223  1.00  0.00     0.009 A 
ATOM     68  C   UNL A   1      38.263  29.620  27.925  1.00  0.00     0.009 A 
ATOM     69  C   UNL A   1      36.791  29.199  30.256  1.00  0.00     0.001 A 
ATOM     70  C   UNL A   1      36.911  29.967  27.971  1.00  0.00     0.001 A 
ATOM     71  C   UNL A   1      36.174  29.744  29.132  1.00  0.00     0.000 A 
ENDBRANCH  47  66
BRANCH  59  72
ATOM     72  C   UNL A   1      44.803  32.541  30.327  1.00  0.00    -0.014 A 
ATOM     73  C   UNL A   1      44.954  33.551  29.363  1.00  0.00     0.009 A 
ATOM     74  C   UNL A   1      44.871  32.884  31.687  1.00  0.00     0.009 A 
ATOM     75  C   UNL A   1      45.207  34.868  29.756  1.00  0.00     0.001 A 
ATOM     76  C   UNL A   1      45.088  34.206  32.075  1.00  0.00     0.001 A 
ATOM     77  C   UNL A   1      45.267  35.194  31.110  1.00  0.00     0.000 A 
ENDBRANCH  59  72
ENDBRANCH  33  34
ENDBRANCH  25  28
ENDBRANCH  23  24
ENDBRANCH  22  23
ENDBRANCH   1  22
TORSDOF 13
ENDMDL
