MODEL 1
REMARK VINA RESULT:     -11.5      0.000      0.000
REMARK SMILES Nc1ncc(C(=O)NCCCCNC(=O)c2ccc(-c3c4nc(c(-c5ccccc5)c5ccc([nH]5)c(-c5ccccc5)c5nc(c(-c6ccccc6)c6ccc3[nH]6)C=C5)C=C4)cc2)c(-c2ccccc2)n1
REMARK SMILES IDX 11 1 10 2 9 3 8 4 6 5 7 6 5 8 2 9 3 10 71 11 4 12 64 13 1 14
REMARK SMILES IDX 65 17 66 18 70 19 67 20 69 21 68 22 12 23 13 24 14 25 15 27
REMARK SMILES IDX 16 28 17 29 63 30 18 31 62 32 19 33 20 34 21 35 56 36 22 37
REMARK SMILES IDX 61 38 55 39 57 40 23 41 60 42 54 43 53 44 24 46 46 47 31 48
REMARK SMILES IDX 45 49 32 50 35 51 44 52 58 53 33 54 34 55 43 57 59 58 36 59
REMARK SMILES IDX 25 60 26 61 30 62 27 63 29 64 28 65 47 66 48 67 52 68 49 69
REMARK SMILES IDX 51 70 50 71 37 72 38 73 42 74 39 75 41 76 40 77
REMARK H PARENT 8 7 1 15 1 16 13 26 57 45 35 56
REMARK Flexibility Score: inf
ROOT
ATOM      1  C   UNL A   1      37.499  20.511  24.929  1.00  0.00     0.023 C 
ENDROOT
BRANCH   1   2
ATOM      2  C   UNL A   1      36.237  21.273  25.332  1.00  0.00     0.023 C 
BRANCH   2   3
ATOM      3  C   UNL A   1      36.095  22.698  24.820  1.00  0.00     0.116 C 
BRANCH   3   4
ATOM      4  N   UNL A   1      35.482  22.869  23.527  1.00  0.00    -0.352 N 
ATOM      5  C   UNL A   1      34.149  22.918  23.187  1.00  0.00     0.255 C 
ATOM      6  O   UNL A   1      33.888  23.157  22.005  1.00  0.00    -0.269 OA
ATOM      7  H   UNL A   1      36.109  22.964  22.775  1.00  0.00     0.163 HD
BRANCH   5   8
ATOM      8  C   UNL A   1      33.010  22.619  24.093  1.00  0.00     0.084 A 
ATOM      9  C   UNL A   1      30.919  22.496  25.866  1.00  0.00     0.220 A 
ATOM     10  N   UNL A   1      31.450  23.689  25.628  1.00  0.00    -0.221 NA
ATOM     11  N   UNL A   1      31.347  21.366  25.307  1.00  0.00    -0.212 NA
ATOM     12  C   UNL A   1      32.485  23.720  24.755  1.00  0.00     0.131 A 
ATOM     13  C   UNL A   1      32.398  21.423  24.439  1.00  0.00     0.089 A 
BRANCH   9  14
ATOM     14  N   UNL A   1      29.869  22.413  26.728  1.00  0.00    -0.368 N 
ATOM     15  H   UNL A   1      29.470  23.234  27.097  1.00  0.00     0.159 HD
ATOM     16  H   UNL A   1      29.509  21.533  26.983  1.00  0.00     0.159 HD
ENDBRANCH   9  14
BRANCH  13  17
ATOM     17  C   UNL A   1      32.732  20.081  23.946  1.00  0.00     0.001 A 
ATOM     18  C   UNL A   1      32.157  19.536  22.789  1.00  0.00     0.010 A 
ATOM     19  C   UNL A   1      33.673  19.303  24.655  1.00  0.00     0.010 A 
ATOM     20  C   UNL A   1      32.463  18.226  22.397  1.00  0.00     0.001 A 
ATOM     21  C   UNL A   1      33.962  17.992  24.276  1.00  0.00     0.001 A 
ATOM     22  C   UNL A   1      33.349  17.452  23.150  1.00  0.00     0.000 A 
ENDBRANCH  13  17
ENDBRANCH   5   8
ENDBRANCH   3   4
ENDBRANCH   2   3
ENDBRANCH   1   2
BRANCH   1  23
ATOM     23  C   UNL A   1      38.781  20.801  25.708  1.00  0.00     0.116 C 
BRANCH  23  24
ATOM     24  N   UNL A   1      39.789  19.750  25.643  1.00  0.00    -0.352 N 
ATOM     25  C   UNL A   1      41.116  19.743  26.016  1.00  0.00     0.251 C 
ATOM     26  H   UNL A   1      39.465  18.899  25.267  1.00  0.00     0.163 HD
ATOM     27  O   UNL A   1      41.792  18.737  25.858  1.00  0.00    -0.269 OA
BRANCH  25  28
ATOM     28  C   UNL A   1      41.743  20.970  26.558  1.00  0.00     0.039 A 
ATOM     29  C   UNL A   1      42.290  21.896  25.664  1.00  0.00     0.014 A 
ATOM     30  C   UNL A   1      41.752  21.233  27.927  1.00  0.00     0.014 A 
ATOM     31  C   UNL A   1      42.724  23.140  26.133  1.00  0.00     0.010 A 
ATOM     32  C   UNL A   1      42.095  22.504  28.380  1.00  0.00     0.010 A 
ATOM     33  C   UNL A   1      42.563  23.480  27.486  1.00  0.00    -0.014 A 
BRANCH  33  34
ATOM     34  C   UNL A   1      42.831  24.854  27.986  1.00  0.00     0.031 A 
ATOM     35  C   UNL A   1      44.213  25.240  28.438  1.00  0.00     0.074 A 
ATOM     36  C   UNL A   1      41.807  25.719  28.142  1.00  0.00     0.049 A 
ATOM     37  N   UNL A   1      44.613  26.340  29.024  1.00  0.00    -0.248 NA
ATOM     38  C   UNL A   1      45.277  24.245  28.235  1.00  0.00     0.031 C 
ATOM     39  C   UNL A   1      40.408  25.453  27.797  1.00  0.00     0.029 A 
ATOM     40  N   UNL A   1      41.784  26.995  28.647  1.00  0.00    -0.354 N 
ATOM     41  C   UNL A   1      45.963  26.153  29.294  1.00  0.00     0.074 A 
ATOM     42  C   UNL A   1      46.302  24.820  28.846  1.00  0.00     0.031 C 
ATOM     43  C   UNL A   1      39.671  26.540  28.073  1.00  0.00     0.029 A 
ATOM     44  C   UNL A   1      40.533  27.563  28.656  1.00  0.00     0.049 A 
ATOM     45  H   UNL A   1      42.588  27.460  28.974  1.00  0.00     0.167 HD
ATOM     46  C   UNL A   1      46.847  27.017  29.848  1.00  0.00     0.031 A 
ATOM     47  C   UNL A   1      40.120  28.768  29.091  1.00  0.00     0.031 A 
ATOM     48  C   UNL A   1      46.518  28.352  30.267  1.00  0.00     0.049 A 
ATOM     49  C   UNL A   1      41.123  29.718  29.682  1.00  0.00     0.074 A 
ATOM     50  C   UNL A   1      47.357  29.330  30.772  1.00  0.00     0.029 A 
ATOM     51  N   UNL A   1      45.245  28.901  30.223  1.00  0.00    -0.354 N 
ATOM     52  N   UNL A   1      42.409  29.548  29.870  1.00  0.00    -0.248 NA
ATOM     53  C   UNL A   1      40.618  31.030  30.114  1.00  0.00     0.031 C 
ATOM     54  C   UNL A   1      46.585  30.457  31.071  1.00  0.00     0.029 A 
ATOM     55  C   UNL A   1      45.273  30.197  30.707  1.00  0.00     0.049 A 
ATOM     56  H   UNL A   1      44.441  28.436  29.895  1.00  0.00     0.167 HD
ATOM     57  C   UNL A   1      42.872  30.738  30.414  1.00  0.00     0.074 A 
ATOM     58  C   UNL A   1      41.733  31.627  30.513  1.00  0.00     0.031 C 
ATOM     59  C   UNL A   1      44.130  31.067  30.795  1.00  0.00     0.031 A 
BRANCH  46  60
ATOM     60  C   UNL A   1      48.259  26.534  30.035  1.00  0.00    -0.014 A 
ATOM     61  C   UNL A   1      49.239  26.753  29.053  1.00  0.00     0.009 A 
ATOM     62  C   UNL A   1      48.619  25.868  31.217  1.00  0.00     0.009 A 
ATOM     63  C   UNL A   1      50.539  26.277  29.233  1.00  0.00     0.001 A 
ATOM     64  C   UNL A   1      49.928  25.420  31.407  1.00  0.00     0.001 A 
ATOM     65  C   UNL A   1      50.884  25.614  30.410  1.00  0.00     0.000 A 
ENDBRANCH  46  60
BRANCH  47  66
ATOM     66  C   UNL A   1      38.692  29.162  28.960  1.00  0.00    -0.014 A 
ATOM     67  C   UNL A   1      37.820  29.030  30.053  1.00  0.00     0.009 A 
ATOM     68  C   UNL A   1      38.192  29.668  27.751  1.00  0.00     0.009 A 
ATOM     69  C   UNL A   1      36.473  29.373  29.930  1.00  0.00     0.001 A 
ATOM     70  C   UNL A   1      36.849  30.036  27.639  1.00  0.00     0.001 A 
ATOM     71  C   UNL A   1      35.988  29.880  28.725  1.00  0.00     0.000 A 
ENDBRANCH  47  66
BRANCH  59  72
ATOM     72  C   UNL A   1      44.346  32.457  31.321  1.00  0.00    -0.014 A 
ATOM     73  C   UNL A   1      44.256  32.740  32.692  1.00  0.00     0.009 A 
ATOM     74  C   UNL A   1      44.684  33.489  30.431  1.00  0.00     0.009 A 
ATOM     75  C   UNL A   1      44.473  34.038  33.158  1.00  0.00     0.001 A 
ATOM     76  C   UNL A   1      44.926  34.780  30.904  1.00  0.00     0.001 A 
ATOM     77  C   UNL A   1      44.812  35.055  32.266  1.00  0.00     0.000 A 
ENDBRANCH  59  72
ENDBRANCH  33  34
ENDBRANCH  25  28
ENDBRANCH  23  24
ENDBRANCH   1  23
TORSDOF 13
ENDMDL
MODEL 2
REMARK VINA RESULT:     -11.5      0.526      6.108
REMARK SMILES Nc1ncc(C(=O)NCCCCNC(=O)c2ccc(-c3c4nc(c(-c5ccccc5)c5ccc([nH]5)c(-c5ccccc5)c5nc(c(-c6ccccc6)c6ccc3[nH]6)C=C5)C=C4)cc2)c(-c2ccccc2)n1
REMARK SMILES IDX 11 1 10 2 9 3 8 4 6 5 7 6 5 8 2 9 3 10 71 11 4 12 64 13 1 14
REMARK SMILES IDX 65 17 66 18 70 19 67 20 69 21 68 22 12 23 13 24 14 25 15 27
REMARK SMILES IDX 16 28 17 29 63 30 18 31 62 32 19 33 20 34 21 35 56 36 22 37
REMARK SMILES IDX 61 38 55 39 57 40 23 41 60 42 54 43 53 44 24 46 46 47 31 48
REMARK SMILES IDX 45 49 32 50 35 51 44 52 58 53 33 54 34 55 43 57 59 58 36 59
REMARK SMILES IDX 25 60 26 61 30 62 27 63 29 64 28 65 47 66 48 67 52 68 49 69
REMARK SMILES IDX 51 70 50 71 37 72 38 73 42 74 39 75 41 76 40 77
REMARK H PARENT 8 7 1 15 1 16 13 26 57 45 35 56
REMARK Flexibility Score: inf
ROOT
ATOM      1  C   UNL A   1      37.357  21.065  24.914  1.00  0.00     0.023 C 
ENDROOT
BRANCH   1   2
ATOM      2  C   UNL A   1      37.046  22.203  23.942  1.00  0.00     0.023 C 
BRANCH   2   3
ATOM      3  C   UNL A   1      35.707  22.906  24.104  1.00  0.00     0.116 C 
BRANCH   3   4
ATOM      4  N   UNL A   1      34.904  23.061  22.919  1.00  0.00    -0.352 N 
ATOM      5  C   UNL A   1      33.534  23.061  22.779  1.00  0.00     0.255 C 
ATOM      6  O   UNL A   1      33.093  23.296  21.652  1.00  0.00    -0.269 OA
ATOM      7  H   UNL A   1      35.409  23.185  22.083  1.00  0.00     0.163 HD
BRANCH   5   8
ATOM      8  C   UNL A   1      32.554  22.712  23.840  1.00  0.00     0.084 A 
ATOM      9  C   UNL A   1      30.685  22.503  25.838  1.00  0.00     0.220 A 
ATOM     10  N   UNL A   1      30.965  23.720  25.387  1.00  0.00    -0.221 NA
ATOM     11  N   UNL A   1      31.263  21.391  25.389  1.00  0.00    -0.212 NA
ATOM     12  C   UNL A   1      31.895  23.794  24.406  1.00  0.00     0.131 A 
ATOM     13  C   UNL A   1      32.206  21.495  24.408  1.00  0.00     0.089 A 
BRANCH   9  14
ATOM     14  N   UNL A   1      29.748  22.373  26.817  1.00  0.00    -0.368 N 
ATOM     15  H   UNL A   1      29.782  21.605  27.431  1.00  0.00     0.159 HD
ATOM     16  H   UNL A   1      29.035  23.046  26.910  1.00  0.00     0.159 HD
ENDBRANCH   9  14
BRANCH  13  17
ATOM     17  C   UNL A   1      32.736  20.171  24.061  1.00  0.00     0.001 A 
ATOM     18  C   UNL A   1      32.163  19.362  23.069  1.00  0.00     0.010 A 
ATOM     19  C   UNL A   1      33.872  19.685  24.745  1.00  0.00     0.010 A 
ATOM     20  C   UNL A   1      32.671  18.080  22.821  1.00  0.00     0.001 A 
ATOM     21  C   UNL A   1      34.364  18.401  24.513  1.00  0.00     0.001 A 
ATOM     22  C   UNL A   1      33.756  17.596  23.555  1.00  0.00     0.000 A 
ENDBRANCH  13  17
ENDBRANCH   5   8
ENDBRANCH   3   4
ENDBRANCH   2   3
ENDBRANCH   1   2
BRANCH   1  23
ATOM     23  C   UNL A   1      38.618  21.187  25.768  1.00  0.00     0.116 C 
BRANCH  23  24
ATOM     24  N   UNL A   1      39.546  20.070  25.653  1.00  0.00    -0.352 N 
ATOM     25  C   UNL A   1      40.870  19.950  26.021  1.00  0.00     0.251 C 
ATOM     26  H   UNL A   1      39.162  19.262  25.243  1.00  0.00     0.163 HD
ATOM     27  O   UNL A   1      41.471  18.906  25.816  1.00  0.00    -0.269 OA
BRANCH  25  28
ATOM     28  C   UNL A   1      41.585  21.104  26.612  1.00  0.00     0.039 A 
ATOM     29  C   UNL A   1      42.117  22.076  25.758  1.00  0.00     0.014 A 
ATOM     30  C   UNL A   1      41.692  21.257  27.994  1.00  0.00     0.014 A 
ATOM     31  C   UNL A   1      42.635  23.259  26.291  1.00  0.00     0.010 A 
ATOM     32  C   UNL A   1      42.121  22.473  28.519  1.00  0.00     0.010 A 
ATOM     33  C   UNL A   1      42.576  23.497  27.674  1.00  0.00    -0.014 A 
BRANCH  33  34
ATOM     34  C   UNL A   1      42.937  24.815  28.259  1.00  0.00     0.031 A 
ATOM     35  C   UNL A   1      41.877  25.857  28.490  1.00  0.00     0.074 A 
ATOM     36  C   UNL A   1      44.234  25.117  28.474  1.00  0.00     0.049 A 
ATOM     37  N   UNL A   1      42.012  27.104  28.864  1.00  0.00    -0.248 NA
ATOM     38  C   UNL A   1      40.485  25.453  28.233  1.00  0.00     0.031 C 
ATOM     39  C   UNL A   1      45.368  24.220  28.238  1.00  0.00     0.029 A 
ATOM     40  N   UNL A   1      44.819  26.274  28.926  1.00  0.00    -0.354 N 
ATOM     41  C   UNL A   1      40.730  27.642  28.850  1.00  0.00     0.074 A 
ATOM     42  C   UNL A   1      39.840  26.599  28.390  1.00  0.00     0.031 C 
ATOM     43  C   UNL A   1      46.505  24.847  28.575  1.00  0.00     0.029 A 
ATOM     44  C   UNL A   1      46.189  26.205  29.006  1.00  0.00     0.049 A 
ATOM     45  H   UNL A   1      44.305  27.078  29.170  1.00  0.00     0.167 HD
ATOM     46  C   UNL A   1      40.327  28.886  29.204  1.00  0.00     0.031 A 
ATOM     47  C   UNL A   1      47.094  27.131  29.376  1.00  0.00     0.031 A 
ATOM     48  C   UNL A   1      41.207  29.914  29.689  1.00  0.00     0.049 A 
ATOM     49  C   UNL A   1      46.619  28.497  29.785  1.00  0.00     0.074 A 
ATOM     50  C   UNL A   1      40.887  31.182  30.142  1.00  0.00     0.029 A 
ATOM     51  N   UNL A   1      42.585  29.789  29.790  1.00  0.00    -0.354 N 
ATOM     52  N   UNL A   1      45.397  28.968  29.828  1.00  0.00    -0.248 NA
ATOM     53  C   UNL A   1      47.651  29.457  30.206  1.00  0.00     0.031 C 
ATOM     54  C   UNL A   1      42.074  31.839  30.480  1.00  0.00     0.029 A 
ATOM     55  C   UNL A   1      43.129  30.962  30.282  1.00  0.00     0.049 A 
ATOM     56  H   UNL A   1      43.098  28.985  29.547  1.00  0.00     0.167 HD
ATOM     57  C   UNL A   1      45.509  30.266  30.306  1.00  0.00     0.074 A 
ATOM     58  C   UNL A   1      46.916  30.505  30.552  1.00  0.00     0.031 C 
ATOM     59  C   UNL A   1      44.532  31.180  30.524  1.00  0.00     0.031 A 
BRANCH  46  60
ATOM     60  C   UNL A   1      38.862  29.199  29.073  1.00  0.00    -0.014 A 
ATOM     61  C   UNL A   1      37.987  29.054  30.161  1.00  0.00     0.009 A 
ATOM     62  C   UNL A   1      38.353  29.664  27.850  1.00  0.00     0.009 A 
ATOM     63  C   UNL A   1      36.625  29.326  30.016  1.00  0.00     0.001 A 
ATOM     64  C   UNL A   1      36.996  29.965  27.716  1.00  0.00     0.001 A 
ATOM     65  C   UNL A   1      36.131  29.784  28.795  1.00  0.00     0.000 A 
ENDBRANCH  46  60
BRANCH  47  66
ATOM     66  C   UNL A   1      48.541  26.793  29.405  1.00  0.00    -0.014 A 
ATOM     67  C   UNL A   1      49.112  26.230  30.557  1.00  0.00     0.009 A 
ATOM     68  C   UNL A   1      49.358  27.030  28.289  1.00  0.00     0.009 A 
ATOM     69  C   UNL A   1      50.476  25.934  30.600  1.00  0.00     0.001 A 
ATOM     70  C   UNL A   1      50.718  26.708  28.326  1.00  0.00     0.001 A 
ATOM     71  C   UNL A   1      51.277  26.170  29.484  1.00  0.00     0.000 A 
ENDBRANCH  47  66
BRANCH  59  72
ATOM     72  C   UNL A   1      44.949  32.508  31.088  1.00  0.00    -0.014 A 
ATOM     73  C   UNL A   1      45.326  33.569  30.253  1.00  0.00     0.009 A 
ATOM     74  C   UNL A   1      44.922  32.707  32.478  1.00  0.00     0.009 A 
ATOM     75  C   UNL A   1      45.697  34.798  30.800  1.00  0.00     0.001 A 
ATOM     76  C   UNL A   1      45.269  33.945  33.021  1.00  0.00     0.001 A 
ATOM     77  C   UNL A   1      45.664  34.987  32.182  1.00  0.00     0.000 A 
ENDBRANCH  59  72
ENDBRANCH  33  34
ENDBRANCH  25  28
ENDBRANCH  23  24
ENDBRANCH   1  23
TORSDOF 13
ENDMDL
MODEL 3
REMARK VINA RESULT:     -11.5      4.264      9.174
REMARK SMILES Nc1ncc(C(=O)NCCCCNC(=O)c2ccc(-c3c4nc(c(-c5ccccc5)c5ccc([nH]5)c(-c5ccccc5)c5nc(c(-c6ccccc6)c6ccc3[nH]6)C=C5)C=C4)cc2)c(-c2ccccc2)n1
REMARK SMILES IDX 11 1 10 2 9 3 8 4 6 5 7 6 5 8 2 9 3 10 71 11 4 12 64 13 1 14
REMARK SMILES IDX 65 17 66 18 70 19 67 20 69 21 68 22 12 23 13 24 14 25 15 27
REMARK SMILES IDX 16 28 17 29 63 30 18 31 62 32 19 33 20 34 21 35 56 36 22 37
REMARK SMILES IDX 61 38 55 39 57 40 23 41 60 42 54 43 53 44 24 46 46 47 31 48
REMARK SMILES IDX 45 49 32 50 35 51 44 52 58 53 33 54 34 55 43 57 59 58 36 59
REMARK SMILES IDX 25 60 26 61 30 62 27 63 29 64 28 65 47 66 48 67 52 68 49 69
REMARK SMILES IDX 51 70 50 71 37 72 38 73 42 74 39 75 41 76 40 77
REMARK H PARENT 8 7 1 15 1 16 13 26 57 45 35 56
REMARK Flexibility Score: inf
ROOT
ATOM      1  C   UNL A   1      32.133  30.711  26.488  1.00  0.00     0.023 C 
ENDROOT
BRANCH   1   2
ATOM      2  C   UNL A   1      31.782  29.440  27.260  1.00  0.00     0.023 C 
BRANCH   2   3
ATOM      3  C   UNL A   1      32.015  28.113  26.554  1.00  0.00     0.116 C 
BRANCH   3   4
ATOM      4  N   UNL A   1      30.972  27.125  26.659  1.00  0.00    -0.352 N 
ATOM      5  C   UNL A   1      30.493  26.250  25.711  1.00  0.00     0.255 C 
ATOM      6  O   UNL A   1      29.639  25.442  26.084  1.00  0.00    -0.269 OA
ATOM      7  H   UNL A   1      30.536  27.068  27.539  1.00  0.00     0.163 HD
BRANCH   5   8
ATOM      8  C   UNL A   1      30.844  26.257  24.267  1.00  0.00     0.084 A 
ATOM      9  C   UNL A   1      31.768  25.939  21.703  1.00  0.00     0.220 A 
ATOM     10  N   UNL A   1      32.220  25.098  22.625  1.00  0.00    -0.221 NA
ATOM     11  N   UNL A   1      30.910  26.926  21.953  1.00  0.00    -0.212 NA
ATOM     12  C   UNL A   1      31.754  25.282  23.882  1.00  0.00     0.131 A 
ATOM     13  C   UNL A   1      30.463  27.096  23.230  1.00  0.00     0.089 A 
BRANCH   9  14
ATOM     14  N   UNL A   1      32.199  25.790  20.421  1.00  0.00    -0.368 N 
ATOM     15  H   UNL A   1      31.603  25.391  19.745  1.00  0.00     0.159 HD
ATOM     16  H   UNL A   1      33.105  26.079  20.167  1.00  0.00     0.159 HD
ENDBRANCH   9  14
BRANCH  13  17
ATOM     17  C   UNL A   1      29.544  28.238  23.307  1.00  0.00     0.001 A 
ATOM     18  C   UNL A   1      28.157  28.106  23.145  1.00  0.00     0.010 A 
ATOM     19  C   UNL A   1      30.067  29.525  23.559  1.00  0.00     0.010 A 
ATOM     20  C   UNL A   1      27.332  29.237  23.164  1.00  0.00     0.001 A 
ATOM     21  C   UNL A   1      29.247  30.654  23.557  1.00  0.00     0.001 A 
ATOM     22  C   UNL A   1      27.879  30.508  23.351  1.00  0.00     0.000 A 
ENDBRANCH  13  17
ENDBRANCH   5   8
ENDBRANCH   3   4
ENDBRANCH   2   3
ENDBRANCH   1   2
BRANCH   1  23
ATOM     23  C   UNL A   1      33.177  31.645  27.097  1.00  0.00     0.116 C 
BRANCH  23  24
ATOM     24  N   UNL A   1      32.661  32.934  27.540  1.00  0.00    -0.352 N 
ATOM     25  C   UNL A   1      33.205  33.889  28.373  1.00  0.00     0.251 C 
ATOM     26  H   UNL A   1      31.773  33.161  27.182  1.00  0.00     0.163 HD
ATOM     27  O   UNL A   1      32.581  34.910  28.623  1.00  0.00    -0.269 OA
BRANCH  25  28
ATOM     28  C   UNL A   1      34.519  33.657  29.014  1.00  0.00     0.039 A 
ATOM     29  C   UNL A   1      34.573  32.883  30.177  1.00  0.00     0.014 A 
ATOM     30  C   UNL A   1      35.695  34.153  28.452  1.00  0.00     0.014 A 
ATOM     31  C   UNL A   1      35.813  32.499  30.698  1.00  0.00     0.010 A 
ATOM     32  C   UNL A   1      36.924  33.694  28.914  1.00  0.00     0.010 A 
ATOM     33  C   UNL A   1      36.997  32.843  30.028  1.00  0.00    -0.014 A 
BRANCH  33  34
ATOM     34  C   UNL A   1      38.317  32.295  30.439  1.00  0.00     0.031 A 
ATOM     35  C   UNL A   1      38.819  31.006  29.849  1.00  0.00     0.074 A 
ATOM     36  C   UNL A   1      39.012  32.897  31.427  1.00  0.00     0.049 A 
ATOM     37  N   UNL A   1      39.874  30.304  30.175  1.00  0.00    -0.248 NA
ATOM     38  C   UNL A   1      38.007  30.409  28.776  1.00  0.00     0.031 C 
ATOM     39  C   UNL A   1      38.612  34.121  32.125  1.00  0.00     0.029 A 
ATOM     40  N   UNL A   1      40.196  32.548  32.027  1.00  0.00    -0.354 N 
ATOM     41  C   UNL A   1      39.832  29.168  29.375  1.00  0.00     0.074 A 
ATOM     42  C   UNL A   1      38.626  29.254  28.582  1.00  0.00     0.031 C 
ATOM     43  C   UNL A   1      39.547  34.437  33.035  1.00  0.00     0.029 A 
ATOM     44  C   UNL A   1      40.589  33.415  33.019  1.00  0.00     0.049 A 
ATOM     45  H   UNL A   1      40.716  31.751  31.772  1.00  0.00     0.167 HD
ATOM     46  C   UNL A   1      40.724  28.151  29.294  1.00  0.00     0.031 A 
ATOM     47  C   UNL A   1      41.662  33.389  33.831  1.00  0.00     0.031 A 
ATOM     48  C   UNL A   1      41.938  28.079  30.061  1.00  0.00     0.049 A 
ATOM     49  C   UNL A   1      42.649  32.263  33.708  1.00  0.00     0.074 A 
ATOM     50  C   UNL A   1      42.942  27.128  29.999  1.00  0.00     0.029 A 
ATOM     51  N   UNL A   1      42.316  28.998  31.028  1.00  0.00    -0.354 N 
ATOM     52  N   UNL A   1      42.626  31.230  32.901  1.00  0.00    -0.248 NA
ATOM     53  C   UNL A   1      43.815  32.303  34.603  1.00  0.00     0.031 C 
ATOM     54  C   UNL A   1      43.909  27.451  30.957  1.00  0.00     0.029 A 
ATOM     55  C   UNL A   1      43.529  28.629  31.581  1.00  0.00     0.049 A 
ATOM     56  H   UNL A   1      41.797  29.796  31.283  1.00  0.00     0.167 HD
ATOM     57  C   UNL A   1      43.785  30.515  33.170  1.00  0.00     0.074 A 
ATOM     58  C   UNL A   1      44.495  31.237  34.204  1.00  0.00     0.031 C 
ATOM     59  C   UNL A   1      44.223  29.362  32.608  1.00  0.00     0.031 A 
BRANCH  46  60
ATOM     60  C   UNL A   1      40.411  27.033  28.340  1.00  0.00    -0.014 A 
ATOM     61  C   UNL A   1      40.911  27.034  27.028  1.00  0.00     0.009 A 
ATOM     62  C   UNL A   1      39.621  25.953  28.764  1.00  0.00     0.009 A 
ATOM     63  C   UNL A   1      40.590  25.999  26.147  1.00  0.00     0.001 A 
ATOM     64  C   UNL A   1      39.327  24.904  27.890  1.00  0.00     0.001 A 
ATOM     65  C   UNL A   1      39.801  24.933  26.579  1.00  0.00     0.000 A 
ENDBRANCH  46  60
BRANCH  47  66
ATOM     66  C   UNL A   1      41.878  34.479  34.819  1.00  0.00    -0.014 A 
ATOM     67  C   UNL A   1      41.347  34.374  36.114  1.00  0.00     0.009 A 
ATOM     68  C   UNL A   1      42.612  35.625  34.477  1.00  0.00     0.009 A 
ATOM     69  C   UNL A   1      41.524  35.405  37.039  1.00  0.00     0.001 A 
ATOM     70  C   UNL A   1      42.810  36.644  35.413  1.00  0.00     0.001 A 
ATOM     71  C   UNL A   1      42.259  36.538  36.690  1.00  0.00     0.000 A 
ENDBRANCH  47  66
BRANCH  59  72
ATOM     72  C   UNL A   1      45.548  28.832  33.075  1.00  0.00    -0.014 A 
ATOM     73  C   UNL A   1      45.634  27.919  34.136  1.00  0.00     0.009 A 
ATOM     74  C   UNL A   1      46.723  29.225  32.414  1.00  0.00     0.009 A 
ATOM     75  C   UNL A   1      46.876  27.430  34.545  1.00  0.00     0.001 A 
ATOM     76  C   UNL A   1      47.960  28.714  32.808  1.00  0.00     0.001 A 
ATOM     77  C   UNL A   1      48.037  27.824  33.878  1.00  0.00     0.000 A 
ENDBRANCH  59  72
ENDBRANCH  33  34
ENDBRANCH  25  28
ENDBRANCH  23  24
ENDBRANCH   1  23
TORSDOF 13
ENDMDL
