MODEL 1
REMARK VINA RESULT:     -13.0      0.000      0.000
REMARK SMILES Cc1ccc(S(=O)(=O)n2cc(C(=O)C(=O)N[C@H](Cc3c[nH]c4ccccc34)C(=O)NCC(=O)NCCCCNC(=O)c3ccc(-c4c5nc(c(-c6ccccc6)c6ccc([nH]6)c(-c6ccccc6)c6nc(c(-c7ccccc7)c7ccc4[nH]7)C=C6)C=C5)cc3)c3ccccc32)cc1
REMARK SMILES IDX 32 1 33 2 34 3 31 5 30 6 28 7 29 8 17 10 16 11 14 12 15 13
REMARK SMILES IDX 12 15 13 16 11 17 9 18 10 19 95 20 90 21 94 22 91 23 93 24
REMARK SMILES IDX 92 25 6 26 7 27 8 28 5 29 1 30 2 31 3 32 97 33 4 34 96 35
REMARK SMILES IDX 18 36 19 37 20 38 27 39 21 40 22 41 26 42 23 44 25 45 24 46
REMARK SMILES IDX 35 47 36 48 37 49 38 50 39 51 40 52 41 54 42 55 43 56 89 57
REMARK SMILES IDX 44 58 88 59 45 60 46 61 47 62 82 63 48 64 87 65 81 66 83 67
REMARK SMILES IDX 49 68 86 69 80 70 79 71 50 73 72 74 57 75 71 76 58 77 61 78
REMARK SMILES IDX 70 79 84 80 59 81 60 82 69 84 85 85 62 86 51 87 52 88 56 89
REMARK SMILES IDX 53 90 55 91 54 92 73 93 74 94 78 95 75 96 77 97 76 98 63 99
REMARK SMILES IDX 64 100 68 101 65 102 67 103 66 104
REMARK H PARENT 34 4 30 9 16 14 21 43 39 53 83 72 61 83
REMARK Flexibility Score: inf
ROOT
ATOM      1  C   UNL A   1      36.431  22.903  25.904  1.00  0.00     0.239 C 
ATOM      2  O   UNL A   1      35.872  21.801  25.900  1.00  0.00    -0.273 OA
ATOM      3  N   UNL A   1      37.655  22.968  26.505  1.00  0.00    -0.355 N 
ATOM      4  H   UNL A   1      37.904  22.168  27.020  1.00  0.00     0.163 HD
ENDROOT
BRANCH   1   5
ATOM      5  C   UNL A   1      35.810  24.073  25.122  1.00  0.00     0.216 C 
BRANCH   5   6
ATOM      6  N   UNL A   1      35.337  23.781  23.790  1.00  0.00    -0.345 N 
ATOM      7  C   UNL A   1      34.156  23.385  23.270  1.00  0.00     0.243 C 
ATOM      8  O   UNL A   1      34.138  23.401  22.030  1.00  0.00    -0.273 OA
ATOM      9  H   UNL A   1      36.034  23.897  23.104  1.00  0.00     0.164 HD
BRANCH   7  10
ATOM     10  C   UNL A   1      32.893  22.889  24.046  1.00  0.00     0.176 C 
BRANCH  10  11
ATOM     11  N   UNL A   1      32.977  22.492  25.490  1.00  0.00    -0.337 N 
ATOM     12  C   UNL A   1      32.512  23.026  26.684  1.00  0.00     0.293 C 
ATOM     13  O   UNL A   1      32.845  22.510  27.747  1.00  0.00    -0.265 OA
ATOM     14  H   UNL A   1      33.481  21.657  25.623  1.00  0.00     0.164 HD
BRANCH  12  15
ATOM     15  C   UNL A   1      31.563  24.225  26.685  1.00  0.00     0.252 C 
ATOM     16  O   UNL A   1      30.459  24.011  27.190  1.00  0.00    -0.283 OA
BRANCH  15  17
ATOM     17  C   UNL A   1      31.852  25.566  26.144  1.00  0.00     0.054 A 
ATOM     18  N   UNL A   1      32.611  27.609  25.550  1.00  0.00    -0.240 N 
ATOM     19  C   UNL A   1      32.917  26.457  26.297  1.00  0.00     0.117 A 
ATOM     20  C   UNL A   1      31.640  27.237  24.622  1.00  0.00     0.065 A 
ATOM     21  C   UNL A   1      30.930  26.241  25.281  1.00  0.00     0.012 A 
ATOM     22  C   UNL A   1      31.156  27.848  23.456  1.00  0.00     0.028 A 
ATOM     23  C   UNL A   1      29.573  26.065  24.960  1.00  0.00     0.011 A 
ATOM     24  C   UNL A   1      29.820  27.594  23.116  1.00  0.00     0.002 A 
ATOM     25  C   UNL A   1      29.016  26.778  23.905  1.00  0.00     0.001 A 
BRANCH  18  26
ATOM     26  S   UNL A   1      32.255  29.138  26.403  1.00  0.00     0.268 S 
ATOM     27  O   UNL A   1      31.583  28.737  27.624  1.00  0.00    -0.201 OA
ATOM     28  O   UNL A   1      31.592  29.973  25.414  1.00  0.00    -0.201 OA
BRANCH  26  29
ATOM     29  C   UNL A   1      33.713  30.033  26.873  1.00  0.00     0.088 A 
ATOM     30  C   UNL A   1      36.815  32.242  28.910  1.00  0.00     0.044 C 
ATOM     31  C   UNL A   1      35.757  31.466  28.177  1.00  0.00    -0.051 A 
ATOM     32  C   UNL A   1      34.523  32.071  27.940  1.00  0.00     0.005 A 
ATOM     33  C   UNL A   1      35.970  30.152  27.721  1.00  0.00     0.005 A 
ATOM     34  C   UNL A   1      33.511  31.360  27.298  1.00  0.00     0.022 A 
ATOM     35  C   UNL A   1      34.949  29.425  27.077  1.00  0.00     0.022 A 
ENDBRANCH  26  29
ENDBRANCH  18  26
ENDBRANCH  15  17
ENDBRANCH  12  15
ENDBRANCH  10  11
BRANCH  10  36
ATOM     36  C   UNL A   1      31.780  22.161  23.224  1.00  0.00     0.072 C 
BRANCH  36  37
ATOM     37  C   UNL A   1      31.995  20.743  22.748  1.00  0.00    -0.020 A 
ATOM     38  C   UNL A   1      31.857  20.311  21.437  1.00  0.00     0.087 A 
ATOM     39  C   UNL A   1      32.454  19.599  23.496  1.00  0.00     0.003 A 
ATOM     40  N   UNL A   1      32.138  18.972  21.384  1.00  0.00    -0.361 N 
ATOM     41  C   UNL A   1      32.463  18.503  22.630  1.00  0.00     0.046 A 
ATOM     42  C   UNL A   1      32.832  19.373  24.836  1.00  0.00     0.010 A 
ATOM     43  H   UNL A   1      32.111  18.424  20.567  1.00  0.00     0.166 HD
ATOM     44  C   UNL A   1      32.757  17.196  23.041  1.00  0.00     0.026 A 
ATOM     45  C   UNL A   1      33.141  18.073  25.264  1.00  0.00     0.001 A 
ATOM     46  C   UNL A   1      33.087  16.999  24.381  1.00  0.00     0.002 A 
ENDBRANCH  36  37
ENDBRANCH  10  36
ENDBRANCH   7  10
ENDBRANCH   5   6
ENDBRANCH   1   5
BRANCH   3  47
ATOM     47  C   UNL A   1      38.648  24.027  26.510  1.00  0.00     0.116 C 
BRANCH  47  48
ATOM     48  C   UNL A   1      40.079  23.499  26.504  1.00  0.00     0.023 C 
BRANCH  48  49
ATOM     49  C   UNL A   1      40.456  22.594  27.681  1.00  0.00     0.023 C 
BRANCH  49  50
ATOM     50  C   UNL A   1      40.818  21.158  27.342  1.00  0.00     0.116 C 
BRANCH  50  51
ATOM     51  N   UNL A   1      42.238  20.852  27.302  1.00  0.00    -0.352 N 
ATOM     52  C   UNL A   1      43.028  21.491  26.344  1.00  0.00     0.251 C 
ATOM     53  H   UNL A   1      42.632  20.210  27.935  1.00  0.00     0.163 HD
ATOM     54  O   UNL A   1      43.002  21.312  25.147  1.00  0.00    -0.269 OA
BRANCH  52  55
ATOM     55  C   UNL A   1      43.842  22.554  26.976  1.00  0.00     0.039 A 
ATOM     56  C   UNL A   1      44.023  22.617  28.358  1.00  0.00     0.014 A 
ATOM     57  C   UNL A   1      44.057  23.662  26.154  1.00  0.00     0.014 A 
ATOM     58  C   UNL A   1      44.254  23.866  28.937  1.00  0.00     0.010 A 
ATOM     59  C   UNL A   1      44.186  24.895  26.736  1.00  0.00     0.010 A 
ATOM     60  C   UNL A   1      44.240  25.009  28.131  1.00  0.00    -0.014 A 
BRANCH  60  61
ATOM     61  C   UNL A   1      44.082  26.375  28.621  1.00  0.00     0.031 A 
ATOM     62  C   UNL A   1      42.739  26.978  28.791  1.00  0.00     0.074 A 
ATOM     63  C   UNL A   1      45.155  26.958  29.203  1.00  0.00     0.049 A 
ATOM     64  N   UNL A   1      42.524  28.222  29.064  1.00  0.00    -0.248 NA
ATOM     65  C   UNL A   1      41.505  26.214  28.624  1.00  0.00     0.031 C 
ATOM     66  C   UNL A   1      45.158  28.046  30.176  1.00  0.00     0.029 A 
ATOM     67  N   UNL A   1      46.500  26.807  28.845  1.00  0.00    -0.354 N 
ATOM     68  C   UNL A   1      41.207  28.337  29.446  1.00  0.00     0.074 A 
ATOM     69  C   UNL A   1      40.595  27.093  29.048  1.00  0.00     0.031 C 
ATOM     70  C   UNL A   1      46.355  28.651  30.141  1.00  0.00     0.029 A 
ATOM     71  C   UNL A   1      47.090  28.076  29.028  1.00  0.00     0.049 A 
ATOM     72  H   UNL A   1      46.942  25.986  28.530  1.00  0.00     0.167 HD
ATOM     73  C   UNL A   1      40.824  29.405  30.204  1.00  0.00     0.031 A 
ATOM     74  C   UNL A   1      47.571  28.788  27.968  1.00  0.00     0.031 A 
ATOM     75  C   UNL A   1      41.887  30.405  30.311  1.00  0.00     0.049 A 
ATOM     76  C   UNL A   1      46.902  30.131  27.761  1.00  0.00     0.074 A 
ATOM     77  C   UNL A   1      42.751  30.784  31.326  1.00  0.00     0.029 A 
ATOM     78  N   UNL A   1      42.362  31.008  29.151  1.00  0.00    -0.354 N 
ATOM     79  N   UNL A   1      45.792  30.493  28.343  1.00  0.00    -0.248 NA
ATOM     80  C   UNL A   1      47.402  31.155  26.844  1.00  0.00     0.031 C 
ATOM     81  C   UNL A   1      43.798  31.552  30.750  1.00  0.00     0.029 A 
ATOM     82  C   UNL A   1      43.554  31.660  29.393  1.00  0.00     0.049 A 
ATOM     83  H   UNL A   1      41.910  30.973  28.277  1.00  0.00     0.167 HD
ATOM     84  C   UNL A   1      45.413  31.728  27.890  1.00  0.00     0.074 A 
ATOM     85  C   UNL A   1      46.466  32.113  26.970  1.00  0.00     0.031 C 
ATOM     86  C   UNL A   1      44.251  32.317  28.296  1.00  0.00     0.031 A 
BRANCH  73  87
ATOM     87  C   UNL A   1      39.587  29.412  31.081  1.00  0.00    -0.014 A 
ATOM     88  C   UNL A   1      38.315  29.279  30.490  1.00  0.00     0.009 A 
ATOM     89  C   UNL A   1      39.586  29.625  32.470  1.00  0.00     0.009 A 
ATOM     90  C   UNL A   1      37.128  29.444  31.219  1.00  0.00     0.001 A 
ATOM     91  C   UNL A   1      38.405  29.816  33.204  1.00  0.00     0.001 A 
ATOM     92  C   UNL A   1      37.173  29.740  32.575  1.00  0.00     0.000 A 
ENDBRANCH  73  87
BRANCH  74  93
ATOM     93  C   UNL A   1      48.135  27.939  26.885  1.00  0.00    -0.014 A 
ATOM     94  C   UNL A   1      47.365  27.747  25.719  1.00  0.00     0.009 A 
ATOM     95  C   UNL A   1      49.502  27.632  26.841  1.00  0.00     0.009 A 
ATOM     96  C   UNL A   1      47.964  27.350  24.520  1.00  0.00     0.001 A 
ATOM     97  C   UNL A   1      50.097  27.224  25.639  1.00  0.00     0.001 A 
ATOM     98  C   UNL A   1      49.334  27.111  24.476  1.00  0.00     0.000 A 
ENDBRANCH  74  93
BRANCH  86  99
ATOM     99  C   UNL A   1      43.652  33.584  27.738  1.00  0.00    -0.014 A 
ATOM    100  C   UNL A   1      43.093  34.604  28.517  1.00  0.00     0.009 A 
ATOM    101  C   UNL A   1      43.782  33.839  26.353  1.00  0.00     0.009 A 
ATOM    102  C   UNL A   1      42.649  35.801  27.936  1.00  0.00     0.001 A 
ATOM    103  C   UNL A   1      43.379  35.046  25.778  1.00  0.00     0.001 A 
ATOM    104  C   UNL A   1      42.801  36.025  26.570  1.00  0.00     0.000 A 
ENDBRANCH  86  99
ENDBRANCH  60  61
ENDBRANCH  52  55
ENDBRANCH  50  51
ENDBRANCH  49  50
ENDBRANCH  48  49
ENDBRANCH  47  48
ENDBRANCH   3  47
TORSDOF 20
ENDMDL
MODEL 2
REMARK VINA RESULT:     -12.2      4.450      7.446
REMARK SMILES Cc1ccc(S(=O)(=O)n2cc(C(=O)C(=O)N[C@H](Cc3c[nH]c4ccccc34)C(=O)NCC(=O)NCCCCNC(=O)c3ccc(-c4c5nc(c(-c6ccccc6)c6ccc([nH]6)c(-c6ccccc6)c6nc(c(-c7ccccc7)c7ccc4[nH]7)C=C6)C=C5)cc3)c3ccccc32)cc1
REMARK SMILES IDX 32 1 33 2 34 3 31 5 30 6 28 7 29 8 17 10 16 11 14 12 15 13
REMARK SMILES IDX 12 15 13 16 11 17 9 18 10 19 95 20 90 21 94 22 91 23 93 24
REMARK SMILES IDX 92 25 6 26 7 27 8 28 5 29 1 30 2 31 3 32 97 33 4 34 96 35
REMARK SMILES IDX 18 36 19 37 20 38 27 39 21 40 22 41 26 42 23 44 25 45 24 46
REMARK SMILES IDX 35 47 36 48 37 49 38 50 39 51 40 52 41 54 42 55 43 56 89 57
REMARK SMILES IDX 44 58 88 59 45 60 46 61 47 62 82 63 48 64 87 65 81 66 83 67
REMARK SMILES IDX 49 68 86 69 80 70 79 71 50 73 72 74 57 75 71 76 58 77 61 78
REMARK SMILES IDX 70 79 84 80 59 81 60 82 69 84 85 85 62 86 51 87 52 88 56 89
REMARK SMILES IDX 53 90 55 91 54 92 73 93 74 94 78 95 75 96 77 97 76 98 63 99
REMARK SMILES IDX 64 100 68 101 65 102 67 103 66 104
REMARK H PARENT 34 4 30 9 16 14 21 43 39 53 83 72 61 83
REMARK Flexibility Score: inf
ROOT
ATOM      1  C   UNL A   1      40.043  22.923  27.243  1.00  0.00     0.239 C 
ATOM      2  O   UNL A   1      40.545  21.938  27.794  1.00  0.00    -0.273 OA
ATOM      3  N   UNL A   1      40.648  24.126  27.467  1.00  0.00    -0.355 N 
ATOM      4  H   UNL A   1      41.330  24.118  28.175  1.00  0.00     0.163 HD
ENDROOT
BRANCH   1   5
ATOM      5  C   UNL A   1      38.892  22.729  26.240  1.00  0.00     0.216 C 
BRANCH   5   6
ATOM      6  N   UNL A   1      38.639  21.379  25.800  1.00  0.00    -0.345 N 
ATOM      7  C   UNL A   1      37.553  20.719  25.345  1.00  0.00     0.243 C 
ATOM      8  O   UNL A   1      37.812  19.583  24.921  1.00  0.00    -0.273 OA
ATOM      9  H   UNL A   1      39.440  20.808  25.841  1.00  0.00     0.164 HD
BRANCH   7  10
ATOM     10  C   UNL A   1      36.070  21.212  25.347  1.00  0.00     0.176 C 
BRANCH  10  11
ATOM     11  N   UNL A   1      35.398  21.646  26.617  1.00  0.00    -0.337 N 
ATOM     12  C   UNL A   1      34.791  22.814  27.058  1.00  0.00     0.293 C 
ATOM     13  O   UNL A   1      34.418  22.898  28.224  1.00  0.00    -0.265 OA
ATOM     14  H   UNL A   1      35.387  20.935  27.299  1.00  0.00     0.164 HD
BRANCH  12  15
ATOM     15  C   UNL A   1      34.550  23.979  26.097  1.00  0.00     0.252 C 
ATOM     16  O   UNL A   1      35.565  24.424  25.559  1.00  0.00    -0.283 OA
BRANCH  15  17
ATOM     17  C   UNL A   1      33.246  24.592  25.779  1.00  0.00     0.054 A 
ATOM     18  N   UNL A   1      31.159  25.178  25.146  1.00  0.00    -0.240 N 
ATOM     19  C   UNL A   1      32.052  24.096  25.252  1.00  0.00     0.117 A 
ATOM     20  C   UNL A   1      31.630  26.170  26.005  1.00  0.00     0.065 A 
ATOM     21  C   UNL A   1      33.007  25.990  25.980  1.00  0.00     0.012 A 
ATOM     22  C   UNL A   1      31.042  27.328  26.533  1.00  0.00     0.028 A 
ATOM     23  C   UNL A   1      33.831  27.109  26.193  1.00  0.00     0.011 A 
ATOM     24  C   UNL A   1      31.897  28.404  26.809  1.00  0.00     0.002 A 
ATOM     25  C   UNL A   1      33.264  28.322  26.565  1.00  0.00     0.001 A 
BRANCH  18  26
ATOM     26  S   UNL A   1      30.694  25.776  23.529  1.00  0.00     0.268 S 
ATOM     27  O   UNL A   1      29.864  24.728  22.967  1.00  0.00    -0.201 OA
ATOM     28  O   UNL A   1      31.944  26.169  22.900  1.00  0.00    -0.201 OA
BRANCH  26  29
ATOM     29  C   UNL A   1      29.711  27.253  23.584  1.00  0.00     0.088 A 
ATOM     30  C   UNL A   1      27.607  30.934  22.767  1.00  0.00     0.044 C 
ATOM     31  C   UNL A   1      28.320  29.648  23.078  1.00  0.00    -0.051 A 
ATOM     32  C   UNL A   1      29.714  29.647  23.123  1.00  0.00     0.005 A 
ATOM     33  C   UNL A   1      27.630  28.448  23.327  1.00  0.00     0.005 A 
ATOM     34  C   UNL A   1      30.402  28.461  23.370  1.00  0.00     0.022 A 
ATOM     35  C   UNL A   1      28.319  27.243  23.570  1.00  0.00     0.022 A 
ENDBRANCH  26  29
ENDBRANCH  18  26
ENDBRANCH  15  17
ENDBRANCH  12  15
ENDBRANCH  10  11
BRANCH  10  36
ATOM     36  C   UNL A   1      35.111  20.625  24.261  1.00  0.00     0.072 C 
BRANCH  36  37
ATOM     37  C   UNL A   1      34.020  19.657  24.658  1.00  0.00    -0.020 A 
ATOM     38  C   UNL A   1      32.699  19.999  24.906  1.00  0.00     0.087 A 
ATOM     39  C   UNL A   1      34.086  18.222  24.776  1.00  0.00     0.003 A 
ATOM     40  N   UNL A   1      32.004  18.866  25.231  1.00  0.00    -0.361 N 
ATOM     41  C   UNL A   1      32.833  17.774  25.201  1.00  0.00     0.046 A 
ATOM     42  C   UNL A   1      35.096  17.253  24.597  1.00  0.00     0.010 A 
ATOM     43  H   UNL A   1      31.046  18.837  25.453  1.00  0.00     0.166 HD
ATOM     44  C   UNL A   1      32.558  16.438  25.522  1.00  0.00     0.026 A 
ATOM     45  C   UNL A   1      34.838  15.909  24.903  1.00  0.00     0.001 A 
ATOM     46  C   UNL A   1      33.590  15.512  25.374  1.00  0.00     0.002 A 
ENDBRANCH  36  37
ENDBRANCH  10  36
ENDBRANCH   7  10
ENDBRANCH   5   6
ENDBRANCH   1   5
BRANCH   3  47
ATOM     47  C   UNL A   1      40.447  25.415  26.830  1.00  0.00     0.116 C 
BRANCH  47  48
ATOM     48  C   UNL A   1      40.285  26.553  27.834  1.00  0.00     0.023 C 
BRANCH  48  49
ATOM     49  C   UNL A   1      40.958  27.875  27.451  1.00  0.00     0.023 C 
BRANCH  49  50
ATOM     50  C   UNL A   1      40.717  29.052  28.381  1.00  0.00     0.116 C 
BRANCH  50  51
ATOM     51  N   UNL A   1      39.552  29.868  28.087  1.00  0.00    -0.352 N 
ATOM     52  C   UNL A   1      38.444  29.774  28.931  1.00  0.00     0.251 C 
ATOM     53  H   UNL A   1      39.545  30.473  27.310  1.00  0.00     0.163 HD
ATOM     54  O   UNL A   1      37.696  28.829  29.042  1.00  0.00    -0.269 OA
BRANCH  52  55
ATOM     55  C   UNL A   1      38.365  30.964  29.808  1.00  0.00     0.039 A 
ATOM     56  C   UNL A   1      38.493  32.258  29.304  1.00  0.00     0.014 A 
ATOM     57  C   UNL A   1      38.555  30.678  31.162  1.00  0.00     0.014 A 
ATOM     58  C   UNL A   1      38.994  33.250  30.150  1.00  0.00     0.010 A 
ATOM     59  C   UNL A   1      39.137  31.630  31.957  1.00  0.00     0.010 A 
ATOM     60  C   UNL A   1      39.401  32.907  31.444  1.00  0.00    -0.014 A 
BRANCH  60  61
ATOM     61  C   UNL A   1      40.276  33.715  32.287  1.00  0.00     0.031 A 
ATOM     62  C   UNL A   1      39.753  34.424  33.478  1.00  0.00     0.074 A 
ATOM     63  C   UNL A   1      41.610  33.552  32.138  1.00  0.00     0.049 A 
ATOM     64  N   UNL A   1      40.425  35.279  34.175  1.00  0.00    -0.248 NA
ATOM     65  C   UNL A   1      38.387  34.247  33.964  1.00  0.00     0.031 C 
ATOM     66  C   UNL A   1      42.655  33.823  33.121  1.00  0.00     0.029 A 
ATOM     67  N   UNL A   1      42.307  33.301  30.950  1.00  0.00    -0.354 N 
ATOM     68  C   UNL A   1      39.739  35.481  35.351  1.00  0.00     0.074 A 
ATOM     69  C   UNL A   1      38.434  34.910  35.122  1.00  0.00     0.031 C 
ATOM     70  C   UNL A   1      43.817  34.004  32.476  1.00  0.00     0.029 A 
ATOM     71  C   UNL A   1      43.516  34.022  31.055  1.00  0.00     0.049 A 
ATOM     72  H   UNL A   1      42.014  32.738  30.197  1.00  0.00     0.167 HD
ATOM     73  C   UNL A   1      40.406  35.961  36.439  1.00  0.00     0.031 A 
ATOM     74  C   UNL A   1      43.787  35.067  30.219  1.00  0.00     0.031 A 
ATOM     75  C   UNL A   1      41.760  36.399  36.096  1.00  0.00     0.049 A 
ATOM     76  C   UNL A   1      43.985  36.394  30.921  1.00  0.00     0.074 A 
ATOM     77  C   UNL A   1      43.025  35.879  36.323  1.00  0.00     0.029 A 
ATOM     78  N   UNL A   1      41.921  37.419  35.164  1.00  0.00    -0.354 N 
ATOM     79  N   UNL A   1      43.671  36.617  32.167  1.00  0.00    -0.248 NA
ATOM     80  C   UNL A   1      44.508  37.590  30.263  1.00  0.00     0.031 C 
ATOM     81  C   UNL A   1      43.936  36.540  35.456  1.00  0.00     0.029 A 
ATOM     82  C   UNL A   1      43.228  37.477  34.724  1.00  0.00     0.049 A 
ATOM     83  H   UNL A   1      41.201  38.018  34.859  1.00  0.00     0.167 HD
ATOM     84  C   UNL A   1      43.903  37.931  32.475  1.00  0.00     0.074 A 
ATOM     85  C   UNL A   1      44.450  38.496  31.256  1.00  0.00     0.031 C 
ATOM     86  C   UNL A   1      43.602  38.445  33.703  1.00  0.00     0.031 A 
BRANCH  73  87
ATOM     87  C   UNL A   1      39.934  35.771  37.867  1.00  0.00    -0.014 A 
ATOM     88  C   UNL A   1      39.709  34.470  38.357  1.00  0.00     0.009 A 
ATOM     89  C   UNL A   1      39.613  36.813  38.755  1.00  0.00     0.009 A 
ATOM     90  C   UNL A   1      39.116  34.230  39.605  1.00  0.00     0.001 A 
ATOM     91  C   UNL A   1      38.997  36.585  39.995  1.00  0.00     0.001 A 
ATOM     92  C   UNL A   1      38.735  35.291  40.415  1.00  0.00     0.000 A 
ENDBRANCH  73  87
BRANCH  74  93
ATOM     93  C   UNL A   1      43.224  34.899  28.852  1.00  0.00    -0.014 A 
ATOM     94  C   UNL A   1      42.145  35.722  28.470  1.00  0.00     0.009 A 
ATOM     95  C   UNL A   1      43.938  34.226  27.852  1.00  0.00     0.009 A 
ATOM     96  C   UNL A   1      41.849  35.939  27.122  1.00  0.00     0.001 A 
ATOM     97  C   UNL A   1      43.632  34.438  26.501  1.00  0.00     0.001 A 
ATOM     98  C   UNL A   1      42.609  35.314  26.137  1.00  0.00     0.000 A 
ENDBRANCH  74  93
BRANCH  86  99
ATOM     99  C   UNL A   1      43.653  39.900  34.096  1.00  0.00    -0.014 A 
ATOM    100  C   UNL A   1      42.828  40.894  33.557  1.00  0.00     0.009 A 
ATOM    101  C   UNL A   1      44.484  40.280  35.176  1.00  0.00     0.009 A 
ATOM    102  C   UNL A   1      42.860  42.208  34.046  1.00  0.00     0.001 A 
ATOM    103  C   UNL A   1      44.489  41.577  35.692  1.00  0.00     0.001 A 
ATOM    104  C   UNL A   1      43.682  42.547  35.118  1.00  0.00     0.000 A 
ENDBRANCH  86  99
ENDBRANCH  60  61
ENDBRANCH  52  55
ENDBRANCH  50  51
ENDBRANCH  49  50
ENDBRANCH  48  49
ENDBRANCH  47  48
ENDBRANCH   3  47
TORSDOF 20
ENDMDL
MODEL 3
REMARK VINA RESULT:     -12.1      3.758      7.788
REMARK SMILES Cc1ccc(S(=O)(=O)n2cc(C(=O)C(=O)N[C@H](Cc3c[nH]c4ccccc34)C(=O)NCC(=O)NCCCCNC(=O)c3ccc(-c4c5nc(c(-c6ccccc6)c6ccc([nH]6)c(-c6ccccc6)c6nc(c(-c7ccccc7)c7ccc4[nH]7)C=C6)C=C5)cc3)c3ccccc32)cc1
REMARK SMILES IDX 32 1 33 2 34 3 31 5 30 6 28 7 29 8 17 10 16 11 14 12 15 13
REMARK SMILES IDX 12 15 13 16 11 17 9 18 10 19 95 20 90 21 94 22 91 23 93 24
REMARK SMILES IDX 92 25 6 26 7 27 8 28 5 29 1 30 2 31 3 32 97 33 4 34 96 35
REMARK SMILES IDX 18 36 19 37 20 38 27 39 21 40 22 41 26 42 23 44 25 45 24 46
REMARK SMILES IDX 35 47 36 48 37 49 38 50 39 51 40 52 41 54 42 55 43 56 89 57
REMARK SMILES IDX 44 58 88 59 45 60 46 61 47 62 82 63 48 64 87 65 81 66 83 67
REMARK SMILES IDX 49 68 86 69 80 70 79 71 50 73 72 74 57 75 71 76 58 77 61 78
REMARK SMILES IDX 70 79 84 80 59 81 60 82 69 84 85 85 62 86 51 87 52 88 56 89
REMARK SMILES IDX 53 90 55 91 54 92 73 93 74 94 78 95 75 96 77 97 76 98 63 99
REMARK SMILES IDX 64 100 68 101 65 102 67 103 66 104
REMARK H PARENT 34 4 30 9 16 14 21 43 39 53 83 72 61 83
REMARK Flexibility Score: inf
ROOT
ATOM      1  C   UNL A   1      36.250  23.418  23.647  1.00  0.00     0.239 C 
ATOM      2  O   UNL A   1      36.329  22.970  22.498  1.00  0.00    -0.273 OA
ATOM      3  N   UNL A   1      37.277  23.118  24.495  1.00  0.00    -0.355 N 
ATOM      4  H   UNL A   1      37.904  22.439  24.158  1.00  0.00     0.163 HD
ENDROOT
BRANCH   1   5
ATOM      5  C   UNL A   1      35.112  24.388  24.008  1.00  0.00     0.216 C 
BRANCH   5   6
ATOM      6  N   UNL A   1      33.792  24.040  23.540  1.00  0.00    -0.345 N 
ATOM      7  C   UNL A   1      32.888  23.095  23.872  1.00  0.00     0.243 C 
ATOM      8  O   UNL A   1      31.792  23.248  23.313  1.00  0.00    -0.273 OA
ATOM      9  H   UNL A   1      33.480  24.626  22.812  1.00  0.00     0.164 HD
BRANCH   7  10
ATOM     10  C   UNL A   1      33.101  21.863  24.810  1.00  0.00     0.176 C 
BRANCH  10  11
ATOM     11  N   UNL A   1      33.108  22.016  26.303  1.00  0.00    -0.337 N 
ATOM     12  C   UNL A   1      32.523  22.896  27.203  1.00  0.00     0.293 C 
ATOM     13  O   UNL A   1      32.814  22.825  28.393  1.00  0.00    -0.265 OA
ATOM     14  H   UNL A   1      33.657  21.331  26.749  1.00  0.00     0.164 HD
BRANCH  12  15
ATOM     15  C   UNL A   1      31.496  23.926  26.731  1.00  0.00     0.252 C 
ATOM     16  O   UNL A   1      30.323  23.556  26.800  1.00  0.00    -0.283 OA
BRANCH  15  17
ATOM     17  C   UNL A   1      31.790  25.276  26.214  1.00  0.00     0.054 A 
ATOM     18  N   UNL A   1      32.557  27.325  25.653  1.00  0.00    -0.240 N 
ATOM     19  C   UNL A   1      32.863  26.155  26.372  1.00  0.00     0.117 A 
ATOM     20  C   UNL A   1      31.572  26.980  24.730  1.00  0.00     0.065 A 
ATOM     21  C   UNL A   1      30.862  25.976  25.376  1.00  0.00     0.012 A 
ATOM     22  C   UNL A   1      31.078  27.618  23.583  1.00  0.00     0.028 A 
ATOM     23  C   UNL A   1      29.500  25.817  25.069  1.00  0.00     0.011 A 
ATOM     24  C   UNL A   1      29.736  27.382  23.254  1.00  0.00     0.002 A 
ATOM     25  C   UNL A   1      28.935  26.556  24.036  1.00  0.00     0.001 A 
BRANCH  18  26
ATOM     26  S   UNL A   1      32.224  28.838  26.541  1.00  0.00     0.268 S 
ATOM     27  O   UNL A   1      31.641  28.413  27.799  1.00  0.00    -0.201 OA
ATOM     28  O   UNL A   1      31.482  29.667  25.606  1.00  0.00    -0.201 OA
BRANCH  26  29
ATOM     29  C   UNL A   1      33.690  29.761  26.926  1.00  0.00     0.088 A 
ATOM     30  C   UNL A   1      36.852  32.050  28.775  1.00  0.00     0.044 C 
ATOM     31  C   UNL A   1      35.773  31.246  28.106  1.00  0.00    -0.051 A 
ATOM     32  C   UNL A   1      34.521  31.830  27.914  1.00  0.00     0.005 A 
ATOM     33  C   UNL A   1      35.982  29.925  27.667  1.00  0.00     0.005 A 
ATOM     34  C   UNL A   1      33.490  31.094  27.334  1.00  0.00     0.022 A 
ATOM     35  C   UNL A   1      34.942  29.173  27.085  1.00  0.00     0.022 A 
ENDBRANCH  26  29
ENDBRANCH  18  26
ENDBRANCH  15  17
ENDBRANCH  12  15
ENDBRANCH  10  11
BRANCH  10  36
ATOM     36  C   UNL A   1      33.963  20.679  24.264  1.00  0.00     0.072 C 
BRANCH  36  37
ATOM     37  C   UNL A   1      33.391  19.279  24.229  1.00  0.00    -0.020 A 
ATOM     38  C   UNL A   1      32.115  18.948  23.799  1.00  0.00     0.087 A 
ATOM     39  C   UNL A   1      34.042  18.031  24.537  1.00  0.00     0.003 A 
ATOM     40  N   UNL A   1      31.954  17.593  23.903  1.00  0.00    -0.361 N 
ATOM     41  C   UNL A   1      33.097  17.013  24.390  1.00  0.00     0.046 A 
ATOM     42  C   UNL A   1      35.335  17.660  24.963  1.00  0.00     0.010 A 
ATOM     43  H   UNL A   1      31.135  17.103  23.661  1.00  0.00     0.166 HD
ATOM     44  C   UNL A   1      33.349  15.672  24.708  1.00  0.00     0.026 A 
ATOM     45  C   UNL A   1      35.611  16.321  25.276  1.00  0.00     0.001 A 
ATOM     46  C   UNL A   1      34.625  15.345  25.165  1.00  0.00     0.002 A 
ENDBRANCH  36  37
ENDBRANCH  10  36
ENDBRANCH   7  10
ENDBRANCH   5   6
ENDBRANCH   1   5
BRANCH   3  47
ATOM     47  C   UNL A   1      37.594  23.637  25.813  1.00  0.00     0.116 C 
BRANCH  47  48
ATOM     48  C   UNL A   1      38.812  22.964  26.439  1.00  0.00     0.023 C 
BRANCH  48  49
ATOM     49  C   UNL A   1      39.667  23.854  27.346  1.00  0.00     0.023 C 
BRANCH  49  50
ATOM     50  C   UNL A   1      39.148  25.259  27.600  1.00  0.00     0.116 C 
BRANCH  50  51
ATOM     51  N   UNL A   1      40.113  26.333  27.439  1.00  0.00    -0.352 N 
ATOM     52  C   UNL A   1      40.944  26.648  28.516  1.00  0.00     0.251 C 
ATOM     53  H   UNL A   1      40.179  26.826  26.589  1.00  0.00     0.163 HD
ATOM     54  O   UNL A   1      40.612  27.165  29.559  1.00  0.00    -0.269 OA
BRANCH  52  55
ATOM     55  C   UNL A   1      42.311  26.132  28.277  1.00  0.00     0.039 A 
ATOM     56  C   UNL A   1      42.723  24.892  28.762  1.00  0.00     0.014 A 
ATOM     57  C   UNL A   1      43.226  27.119  27.903  1.00  0.00     0.014 A 
ATOM     58  C   UNL A   1      44.080  24.709  29.040  1.00  0.00     0.010 A 
ATOM     59  C   UNL A   1      44.538  26.968  28.268  1.00  0.00     0.010 A 
ATOM     60  C   UNL A   1      44.964  25.781  28.878  1.00  0.00    -0.014 A 
BRANCH  60  61
ATOM     61  C   UNL A   1      46.294  25.865  29.475  1.00  0.00     0.031 A 
ATOM     62  C   UNL A   1      47.502  25.476  28.711  1.00  0.00     0.074 A 
ATOM     63  C   UNL A   1      46.423  26.588  30.610  1.00  0.00     0.049 A 
ATOM     64  N   UNL A   1      48.686  25.371  29.217  1.00  0.00    -0.248 NA
ATOM     65  C   UNL A   1      47.461  25.130  27.293  1.00  0.00     0.031 C 
ATOM     66  C   UNL A   1      47.629  27.233  31.122  1.00  0.00     0.029 A 
ATOM     67  N   UNL A   1      45.500  26.697  31.656  1.00  0.00    -0.354 N 
ATOM     68  C   UNL A   1      49.576  25.301  28.171  1.00  0.00     0.074 A 
ATOM     69  C   UNL A   1      48.762  25.042  27.008  1.00  0.00     0.031 C 
ATOM     70  C   UNL A   1      47.491  27.418  32.443  1.00  0.00     0.029 A 
ATOM     71  C   UNL A   1      46.267  26.746  32.841  1.00  0.00     0.049 A 
ATOM     72  H   UNL A   1      44.519  26.732  31.582  1.00  0.00     0.167 HD
ATOM     73  C   UNL A   1      50.881  25.635  28.382  1.00  0.00     0.031 A 
ATOM     74  C   UNL A   1      46.199  25.743  33.764  1.00  0.00     0.031 A 
ATOM     75  C   UNL A   1      51.172  25.818  29.804  1.00  0.00     0.049 A 
ATOM     76  C   UNL A   1      47.514  25.034  34.016  1.00  0.00     0.074 A 
ATOM     77  C   UNL A   1      51.404  26.928  30.602  1.00  0.00     0.029 A 
ATOM     78  N   UNL A   1      50.986  24.747  30.672  1.00  0.00    -0.354 N 
ATOM     79  N   UNL A   1      48.567  25.154  33.254  1.00  0.00    -0.248 NA
ATOM     80  C   UNL A   1      47.734  24.097  35.116  1.00  0.00     0.031 C 
ATOM     81  C   UNL A   1      51.273  26.530  31.960  1.00  0.00     0.029 A 
ATOM     82  C   UNL A   1      50.987  25.176  31.984  1.00  0.00     0.049 A 
ATOM     83  H   UNL A   1      50.868  23.812  30.389  1.00  0.00     0.167 HD
ATOM     84  C   UNL A   1      49.562  24.331  33.708  1.00  0.00     0.074 A 
ATOM     85  C   UNL A   1      49.002  23.706  34.892  1.00  0.00     0.031 C 
ATOM     86  C   UNL A   1      50.755  24.218  33.055  1.00  0.00     0.031 A 
BRANCH  73  87
ATOM     87  C   UNL A   1      51.827  26.072  27.280  1.00  0.00    -0.014 A 
ATOM     88  C   UNL A   1      52.108  27.442  27.108  1.00  0.00     0.009 A 
ATOM     89  C   UNL A   1      52.409  25.215  26.330  1.00  0.00     0.009 A 
ATOM     90  C   UNL A   1      52.837  27.927  26.013  1.00  0.00     0.001 A 
ATOM     91  C   UNL A   1      53.118  25.692  25.217  1.00  0.00     0.001 A 
ATOM     92  C   UNL A   1      53.320  27.052  25.050  1.00  0.00     0.000 A 
ENDBRANCH  73  87
BRANCH  74  93
ATOM     93  C   UNL A   1      44.856  25.111  33.863  1.00  0.00    -0.014 A 
ATOM     94  C   UNL A   1      44.680  23.830  33.301  1.00  0.00     0.009 A 
ATOM     95  C   UNL A   1      43.900  25.579  34.774  1.00  0.00     0.009 A 
ATOM     96  C   UNL A   1      43.629  23.005  33.710  1.00  0.00     0.001 A 
ATOM     97  C   UNL A   1      42.841  24.752  35.175  1.00  0.00     0.001 A 
ATOM     98  C   UNL A   1      42.723  23.458  34.665  1.00  0.00     0.000 A 
ENDBRANCH  74  93
BRANCH  86  99
ATOM     99  C   UNL A   1      51.848  23.225  33.362  1.00  0.00    -0.014 A 
ATOM    100  C   UNL A   1      52.726  23.325  34.447  1.00  0.00     0.009 A 
ATOM    101  C   UNL A   1      51.915  22.037  32.597  1.00  0.00     0.009 A 
ATOM    102  C   UNL A   1      53.650  22.309  34.730  1.00  0.00     0.001 A 
ATOM    103  C   UNL A   1      52.805  21.005  32.901  1.00  0.00     0.001 A 
ATOM    104  C   UNL A   1      53.683  21.146  33.964  1.00  0.00     0.000 A 
ENDBRANCH  86  99
ENDBRANCH  60  61
ENDBRANCH  52  55
ENDBRANCH  50  51
ENDBRANCH  49  50
ENDBRANCH  48  49
ENDBRANCH  47  48
ENDBRANCH   3  47
TORSDOF 20
ENDMDL
