MODEL 1
REMARK VINA RESULT:     -11.0      0.000      0.000
REMARK SMILES Cc1c(Br)cc(C(=O)NCCCCNC(=O)c2ccc(-c3c4nc(c(-c5ccccc5)c5ccc([nH]5)c(-c5ccccc5)c5nc(c(-c6ccccc6)c6ccc3[nH]6)C=C5)C=C4)cc2)c(C)c1C
REMARK SMILES IDX 12 1 11 2 10 3 9 4 7 5 8 6 6 8 1 9 2 10 3 11 67 12 4 13 5 14
REMARK SMILES IDX 65 15 68 16 66 17 13 18 14 19 15 20 16 22 17 23 18 24 64 25
REMARK SMILES IDX 19 26 63 27 20 28 21 29 22 30 57 31 23 32 62 33 56 34 58 35
REMARK SMILES IDX 24 36 61 37 55 38 54 39 25 41 47 42 32 43 46 44 33 45 36 46
REMARK SMILES IDX 45 47 59 48 34 49 35 50 44 52 60 53 37 54 26 55 27 56 31 57
REMARK SMILES IDX 28 58 30 59 29 60 48 61 49 62 53 63 50 64 52 65 51 66 38 67
REMARK SMILES IDX 39 68 43 69 40 70 42 71 41 72
REMARK H PARENT 9 7 14 21 58 40 36 51
REMARK Flexibility Score: inf
ROOT
ATOM      1  C   UNL A   1      37.910  20.303  24.975  1.00  0.00     0.023 C 
ENDROOT
BRANCH   1   2
ATOM      2  C   UNL A   1      37.314  21.634  24.520  1.00  0.00     0.023 C 
BRANCH   2   3
ATOM      3  C   UNL A   1      37.026  22.619  25.655  1.00  0.00     0.116 C 
BRANCH   3   4
ATOM      4  N   UNL A   1      35.889  22.217  26.451  1.00  0.00    -0.352 N 
ATOM      5  C   UNL A   1      34.712  21.537  26.353  1.00  0.00     0.251 C 
ATOM      6  O   UNL A   1      34.151  21.477  27.460  1.00  0.00    -0.269 OA
ATOM      7  H   UNL A   1      36.002  22.544  27.372  1.00  0.00     0.163 HD
BRANCH   5   8
ATOM      8  C   UNL A   1      34.000  20.890  25.178  1.00  0.00     0.044 A 
ATOM      9  C   UNL A   1      32.073  18.225  22.252  1.00  0.00     0.046 C 
ATOM     10  C   UNL A   1      32.726  19.137  23.262  1.00  0.00    -0.034 A 
ATOM     11  C   UNL A   1      33.439  18.622  24.344  1.00  0.00     0.021 A 
ATOM     12  C   UNL A   1      32.592  20.545  23.165  1.00  0.00    -0.043 A 
ATOM     13  Br  UNL A   1      33.612  16.756  24.681  1.00  0.00    -0.051 Br
ATOM     14  C   UNL A   1      34.045  19.478  25.267  1.00  0.00     0.030 A 
ATOM     15  C   UNL A   1      33.284  21.424  24.078  1.00  0.00    -0.035 A 
ATOM     16  C   UNL A   1      31.712  21.134  22.076  1.00  0.00     0.045 C 
ATOM     17  C   UNL A   1      33.238  22.891  23.791  1.00  0.00     0.045 C 
ENDBRANCH   5   8
ENDBRANCH   3   4
ENDBRANCH   2   3
ENDBRANCH   1   2
BRANCH   1  18
ATOM     18  C   UNL A   1      39.073  20.426  25.953  1.00  0.00     0.116 C 
BRANCH  18  19
ATOM     19  N   UNL A   1      40.057  19.362  25.836  1.00  0.00    -0.352 N 
ATOM     20  C   UNL A   1      41.409  19.444  26.098  1.00  0.00     0.251 C 
ATOM     21  H   UNL A   1      39.722  18.486  25.538  1.00  0.00     0.163 HD
ATOM     22  O   UNL A   1      42.154  18.502  25.927  1.00  0.00    -0.269 OA
BRANCH  20  23
ATOM     23  C   UNL A   1      41.931  20.748  26.553  1.00  0.00     0.039 A 
ATOM     24  C   UNL A   1      42.341  21.674  25.593  1.00  0.00     0.014 A 
ATOM     25  C   UNL A   1      41.899  21.077  27.912  1.00  0.00     0.014 A 
ATOM     26  C   UNL A   1      42.664  22.969  25.993  1.00  0.00     0.010 A 
ATOM     27  C   UNL A   1      42.183  22.380  28.302  1.00  0.00     0.010 A 
ATOM     28  C   UNL A   1      42.559  23.335  27.345  1.00  0.00    -0.014 A 
BRANCH  28  29
ATOM     29  C   UNL A   1      42.861  24.715  27.783  1.00  0.00     0.031 A 
ATOM     30  C   UNL A   1      44.286  25.125  27.996  1.00  0.00     0.074 A 
ATOM     31  C   UNL A   1      41.857  25.577  28.030  1.00  0.00     0.049 A 
ATOM     32  N   UNL A   1      44.758  26.259  28.444  1.00  0.00    -0.248 NA
ATOM     33  C   UNL A   1      45.317  24.121  27.682  1.00  0.00     0.031 C 
ATOM     34  C   UNL A   1      40.430  25.289  27.874  1.00  0.00     0.029 A 
ATOM     35  N   UNL A   1      41.890  26.876  28.469  1.00  0.00    -0.354 N 
ATOM     36  C   UNL A   1      46.135  26.102  28.478  1.00  0.00     0.074 A 
ATOM     37  C   UNL A   1      46.425  24.755  28.037  1.00  0.00     0.031 C 
ATOM     38  C   UNL A   1      39.725  26.389  28.187  1.00  0.00     0.029 A 
ATOM     39  C   UNL A   1      40.648  27.447  28.591  1.00  0.00     0.049 A 
ATOM     40  H   UNL A   1      42.726  27.354  28.674  1.00  0.00     0.167 HD
ATOM     41  C   UNL A   1      47.078  27.005  28.830  1.00  0.00     0.031 A 
ATOM     42  C   UNL A   1      40.294  28.684  28.985  1.00  0.00     0.031 A 
ATOM     43  C   UNL A   1      46.797  28.349  29.250  1.00  0.00     0.049 A 
ATOM     44  C   UNL A   1      41.359  29.667  29.380  1.00  0.00     0.074 A 
ATOM     45  C   UNL A   1      47.689  29.346  29.599  1.00  0.00     0.029 A 
ATOM     46  N   UNL A   1      45.524  28.884  29.368  1.00  0.00    -0.354 N 
ATOM     47  N   UNL A   1      42.659  29.508  29.396  1.00  0.00    -0.248 NA
ATOM     48  C   UNL A   1      40.906  30.999  29.809  1.00  0.00     0.031 C 
ATOM     49  C   UNL A   1      46.954  30.483  29.948  1.00  0.00     0.029 A 
ATOM     50  C   UNL A   1      45.607  30.198  29.790  1.00  0.00     0.049 A 
ATOM     51  H   UNL A   1      44.687  28.402  29.179  1.00  0.00     0.167 HD
ATOM     52  C   UNL A   1      43.183  30.719  29.823  1.00  0.00     0.074 A 
ATOM     53  C   UNL A   1      42.061  31.608  30.050  1.00  0.00     0.031 C 
ATOM     54  C   UNL A   1      44.479  31.064  30.011  1.00  0.00     0.031 A 
BRANCH  41  55
ATOM     55  C   UNL A   1      48.507  26.562  28.767  1.00  0.00    -0.014 A 
ATOM     56  C   UNL A   1      49.238  26.669  27.574  1.00  0.00     0.009 A 
ATOM     57  C   UNL A   1      49.136  26.059  29.915  1.00  0.00     0.009 A 
ATOM     58  C   UNL A   1      50.571  26.257  27.526  1.00  0.00     0.001 A 
ATOM     59  C   UNL A   1      50.474  25.665  29.868  1.00  0.00     0.001 A 
ATOM     60  C   UNL A   1      51.188  25.759  28.674  1.00  0.00     0.000 A 
ENDBRANCH  41  55
BRANCH  42  61
ATOM     61  C   UNL A   1      38.862  29.069  29.001  1.00  0.00    -0.014 A 
ATOM     62  C   UNL A   1      38.268  29.612  27.852  1.00  0.00     0.009 A 
ATOM     63  C   UNL A   1      38.080  28.878  30.149  1.00  0.00     0.009 A 
ATOM     64  C   UNL A   1      36.917  29.967  27.856  1.00  0.00     0.001 A 
ATOM     65  C   UNL A   1      36.726  29.220  30.145  1.00  0.00     0.001 A 
ATOM     66  C   UNL A   1      36.147  29.767  29.000  1.00  0.00     0.000 A 
ENDBRANCH  42  61
BRANCH  54  67
ATOM     67  C   UNL A   1      44.765  32.461  30.470  1.00  0.00    -0.014 A 
ATOM     68  C   UNL A   1      44.908  33.504  29.544  1.00  0.00     0.009 A 
ATOM     69  C   UNL A   1      44.797  32.750  31.843  1.00  0.00     0.009 A 
ATOM     70  C   UNL A   1      45.084  34.815  29.988  1.00  0.00     0.001 A 
ATOM     71  C   UNL A   1      44.958  34.064  32.282  1.00  0.00     0.001 A 
ATOM     72  C   UNL A   1      45.103  35.095  31.354  1.00  0.00     0.000 A 
ENDBRANCH  54  67
ENDBRANCH  28  29
ENDBRANCH  20  23
ENDBRANCH  18  19
ENDBRANCH   1  18
TORSDOF 11
ENDMDL
MODEL 2
REMARK VINA RESULT:     -11.0      0.599      6.182
REMARK SMILES Cc1c(Br)cc(C(=O)NCCCCNC(=O)c2ccc(-c3c4nc(c(-c5ccccc5)c5ccc([nH]5)c(-c5ccccc5)c5nc(c(-c6ccccc6)c6ccc3[nH]6)C=C5)C=C4)cc2)c(C)c1C
REMARK SMILES IDX 12 1 11 2 10 3 9 4 7 5 8 6 6 8 1 9 2 10 3 11 67 12 4 13 5 14
REMARK SMILES IDX 65 15 68 16 66 17 13 18 14 19 15 20 16 22 17 23 18 24 64 25
REMARK SMILES IDX 19 26 63 27 20 28 21 29 22 30 57 31 23 32 62 33 56 34 58 35
REMARK SMILES IDX 24 36 61 37 55 38 54 39 25 41 47 42 32 43 46 44 33 45 36 46
REMARK SMILES IDX 45 47 59 48 34 49 35 50 44 52 60 53 37 54 26 55 27 56 31 57
REMARK SMILES IDX 28 58 30 59 29 60 48 61 49 62 53 63 50 64 52 65 51 66 38 67
REMARK SMILES IDX 39 68 43 69 40 70 42 71 41 72
REMARK H PARENT 9 7 14 21 58 40 36 51
REMARK Flexibility Score: inf
ROOT
ATOM      1  C   UNL A   1      37.530  21.099  24.758  1.00  0.00     0.023 C 
ENDROOT
BRANCH   1   2
ATOM      2  C   UNL A   1      36.867  22.456  24.520  1.00  0.00     0.023 C 
BRANCH   2   3
ATOM      3  C   UNL A   1      36.537  23.232  25.797  1.00  0.00     0.116 C 
BRANCH   3   4
ATOM      4  N   UNL A   1      35.534  22.567  26.596  1.00  0.00    -0.352 N 
ATOM      5  C   UNL A   1      34.506  21.679  26.486  1.00  0.00     0.251 C 
ATOM      6  O   UNL A   1      34.016  21.440  27.602  1.00  0.00    -0.269 OA
ATOM      7  H   UNL A   1      35.623  22.849  27.535  1.00  0.00     0.163 HD
BRANCH   5   8
ATOM      8  C   UNL A   1      33.881  20.982  25.291  1.00  0.00     0.044 A 
ATOM      9  C   UNL A   1      32.168  18.195  22.346  1.00  0.00     0.046 C 
ATOM     10  C   UNL A   1      32.747  19.149  23.361  1.00  0.00    -0.034 A 
ATOM     11  C   UNL A   1      33.378  18.681  24.514  1.00  0.00     0.021 A 
ATOM     12  C   UNL A   1      32.624  20.552  23.196  1.00  0.00    -0.043 A 
ATOM     13  Br  UNL A   1      33.522  16.831  24.940  1.00  0.00    -0.051 Br
ATOM     14  C   UNL A   1      33.916  19.575  25.442  1.00  0.00     0.030 A 
ATOM     15  C   UNL A   1      33.249  21.469  24.120  1.00  0.00    -0.035 A 
ATOM     16  C   UNL A   1      31.827  21.093  22.021  1.00  0.00     0.045 C 
ATOM     17  C   UNL A   1      33.227  22.922  23.768  1.00  0.00     0.045 C 
ENDBRANCH   5   8
ENDBRANCH   3   4
ENDBRANCH   2   3
ENDBRANCH   1   2
BRANCH   1  18
ATOM     18  C   UNL A   1      38.708  21.126  25.726  1.00  0.00     0.116 C 
BRANCH  18  19
ATOM     19  N   UNL A   1      39.579  19.966  25.626  1.00  0.00    -0.352 N 
ATOM     20  C   UNL A   1      40.902  19.883  26.008  1.00  0.00     0.251 C 
ATOM     21  H   UNL A   1      39.181  19.151  25.245  1.00  0.00     0.163 HD
ATOM     22  O   UNL A   1      41.555  18.874  25.842  1.00  0.00    -0.269 OA
BRANCH  20  23
ATOM     23  C   UNL A   1      41.516  21.094  26.587  1.00  0.00     0.039 A 
ATOM     24  C   UNL A   1      42.025  22.063  25.722  1.00  0.00     0.014 A 
ATOM     25  C   UNL A   1      41.475  21.304  27.969  1.00  0.00     0.014 A 
ATOM     26  C   UNL A   1      42.442  23.287  26.241  1.00  0.00     0.010 A 
ATOM     27  C   UNL A   1      41.854  22.540  28.479  1.00  0.00     0.010 A 
ATOM     28  C   UNL A   1      42.331  23.540  27.619  1.00  0.00    -0.014 A 
BRANCH  28  29
ATOM     29  C   UNL A   1      42.732  24.847  28.184  1.00  0.00     0.031 A 
ATOM     30  C   UNL A   1      41.696  25.909  28.394  1.00  0.00     0.074 A 
ATOM     31  C   UNL A   1      44.026  25.091  28.463  1.00  0.00     0.049 A 
ATOM     32  N   UNL A   1      41.850  27.138  28.809  1.00  0.00    -0.248 NA
ATOM     33  C   UNL A   1      40.304  25.545  28.079  1.00  0.00     0.031 C 
ATOM     34  C   UNL A   1      45.128  24.142  28.286  1.00  0.00     0.029 A 
ATOM     35  N   UNL A   1      44.632  26.219  28.954  1.00  0.00    -0.354 N 
ATOM     36  C   UNL A   1      40.582  27.700  28.792  1.00  0.00     0.074 A 
ATOM     37  C   UNL A   1      39.672  26.689  28.297  1.00  0.00     0.031 C 
ATOM     38  C   UNL A   1      46.271  24.721  28.689  1.00  0.00     0.029 A 
ATOM     39  C   UNL A   1      45.987  26.086  29.124  1.00  0.00     0.049 A 
ATOM     40  H   UNL A   1      44.140  27.045  29.167  1.00  0.00     0.167 HD
ATOM     41  C   UNL A   1      40.204  28.941  29.172  1.00  0.00     0.031 A 
ATOM     42  C   UNL A   1      46.898  26.966  29.580  1.00  0.00     0.031 A 
ATOM     43  C   UNL A   1      41.100  29.940  29.681  1.00  0.00     0.049 A 
ATOM     44  C   UNL A   1      46.455  28.343  29.987  1.00  0.00     0.074 A 
ATOM     45  C   UNL A   1      40.804  31.219  30.118  1.00  0.00     0.029 A 
ATOM     46  N   UNL A   1      42.467  29.767  29.830  1.00  0.00    -0.354 N 
ATOM     47  N   UNL A   1      45.250  28.855  29.976  1.00  0.00    -0.248 NA
ATOM     48  C   UNL A   1      47.499  29.260  30.468  1.00  0.00     0.031 C 
ATOM     49  C   UNL A   1      41.999  31.829  30.514  1.00  0.00     0.029 A 
ATOM     50  C   UNL A   1      43.030  30.918  30.348  1.00  0.00     0.049 A 
ATOM     51  H   UNL A   1      42.962  28.948  29.601  1.00  0.00     0.167 HD
ATOM     52  C   UNL A   1      45.385  30.148  30.460  1.00  0.00     0.074 A 
ATOM     53  C   UNL A   1      46.789  30.341  30.762  1.00  0.00     0.031 C 
ATOM     54  C   UNL A   1      44.429  31.091  30.638  1.00  0.00     0.031 A 
BRANCH  41  55
ATOM     55  C   UNL A   1      38.751  29.280  29.051  1.00  0.00    -0.014 A 
ATOM     56  C   UNL A   1      38.222  29.739  27.834  1.00  0.00     0.009 A 
ATOM     57  C   UNL A   1      37.898  29.114  30.150  1.00  0.00     0.009 A 
ATOM     58  C   UNL A   1      36.865  30.049  27.729  1.00  0.00     0.001 A 
ATOM     59  C   UNL A   1      36.538  29.407  30.037  1.00  0.00     0.001 A 
ATOM     60  C   UNL A   1      36.025  29.879  28.829  1.00  0.00     0.000 A 
ENDBRANCH  41  55
BRANCH  42  61
ATOM     61  C   UNL A   1      48.318  26.559  29.699  1.00  0.00    -0.014 A 
ATOM     62  C   UNL A   1      49.217  26.829  28.657  1.00  0.00     0.009 A 
ATOM     63  C   UNL A   1      48.787  25.920  30.857  1.00  0.00     0.009 A 
ATOM     64  C   UNL A   1      50.559  26.459  28.768  1.00  0.00     0.001 A 
ATOM     65  C   UNL A   1      50.133  25.564  30.971  1.00  0.00     0.001 A 
ATOM     66  C   UNL A   1      51.016  25.831  29.925  1.00  0.00     0.000 A 
ENDBRANCH  42  61
BRANCH  54  67
ATOM     67  C   UNL A   1      44.856  32.414  31.197  1.00  0.00    -0.014 A 
ATOM     68  C   UNL A   1      45.198  33.474  30.345  1.00  0.00     0.009 A 
ATOM     69  C   UNL A   1      44.823  32.628  32.583  1.00  0.00     0.009 A 
ATOM     70  C   UNL A   1      45.507  34.727  30.875  1.00  0.00     0.001 A 
ATOM     71  C   UNL A   1      45.117  33.887  33.108  1.00  0.00     0.001 A 
ATOM     72  C   UNL A   1      45.460  34.934  32.254  1.00  0.00     0.000 A 
ENDBRANCH  54  67
ENDBRANCH  28  29
ENDBRANCH  20  23
ENDBRANCH  18  19
ENDBRANCH   1  18
TORSDOF 11
ENDMDL
MODEL 3
REMARK VINA RESULT:     -11.0      2.009      2.782
REMARK SMILES Cc1c(Br)cc(C(=O)NCCCCNC(=O)c2ccc(-c3c4nc(c(-c5ccccc5)c5ccc([nH]5)c(-c5ccccc5)c5nc(c(-c6ccccc6)c6ccc3[nH]6)C=C5)C=C4)cc2)c(C)c1C
REMARK SMILES IDX 12 1 11 2 10 3 9 4 7 5 8 6 6 8 1 9 2 10 3 11 67 12 4 13 5 14
REMARK SMILES IDX 65 15 68 16 66 17 13 18 14 19 15 20 16 22 17 23 18 24 64 25
REMARK SMILES IDX 19 26 63 27 20 28 21 29 22 30 57 31 23 32 62 33 56 34 58 35
REMARK SMILES IDX 24 36 61 37 55 38 54 39 25 41 47 42 32 43 46 44 33 45 36 46
REMARK SMILES IDX 45 47 59 48 34 49 35 50 44 52 60 53 37 54 26 55 27 56 31 57
REMARK SMILES IDX 28 58 30 59 29 60 48 61 49 62 53 63 50 64 52 65 51 66 38 67
REMARK SMILES IDX 39 68 43 69 40 70 42 71 41 72
REMARK H PARENT 9 7 14 21 58 40 36 51
REMARK Flexibility Score: inf
ROOT
ATOM      1  C   UNL A   1      37.862  20.358  24.972  1.00  0.00     0.023 C 
ENDROOT
BRANCH   1   2
ATOM      2  C   UNL A   1      37.251  21.675  24.495  1.00  0.00     0.023 C 
BRANCH   2   3
ATOM      3  C   UNL A   1      37.263  22.793  25.540  1.00  0.00     0.116 C 
BRANCH   3   4
ATOM      4  N   UNL A   1      36.009  22.887  26.253  1.00  0.00    -0.352 N 
ATOM      5  C   UNL A   1      34.791  23.495  26.183  1.00  0.00     0.251 C 
ATOM      6  O   UNL A   1      34.065  23.123  27.118  1.00  0.00    -0.269 OA
ATOM      7  H   UNL A   1      36.047  22.324  27.059  1.00  0.00     0.163 HD
BRANCH   5   8
ATOM      8  C   UNL A   1      34.210  24.511  25.215  1.00  0.00     0.044 A 
ATOM      9  C   UNL A   1      32.760  28.071  23.071  1.00  0.00     0.046 C 
ATOM     10  C   UNL A   1      33.267  26.854  23.805  1.00  0.00    -0.034 A 
ATOM     11  C   UNL A   1      33.670  26.931  25.138  1.00  0.00     0.021 A 
ATOM     12  C   UNL A   1      33.393  25.605  23.145  1.00  0.00    -0.043 A 
ATOM     13  Br  UNL A   1      33.672  28.555  26.130  1.00  0.00    -0.051 Br
ATOM     14  C   UNL A   1      34.130  25.794  25.807  1.00  0.00     0.030 A 
ATOM     15  C   UNL A   1      33.796  24.420  23.863  1.00  0.00    -0.035 A 
ATOM     16  C   UNL A   1      33.090  25.518  21.658  1.00  0.00     0.045 C 
ATOM     17  C   UNL A   1      33.723  23.115  23.136  1.00  0.00     0.045 C 
ENDBRANCH   5   8
ENDBRANCH   3   4
ENDBRANCH   2   3
ENDBRANCH   1   2
BRANCH   1  18
ATOM     18  C   UNL A   1      39.050  20.510  25.916  1.00  0.00     0.116 C 
BRANCH  18  19
ATOM     19  N   UNL A   1      40.047  19.461  25.782  1.00  0.00    -0.352 N 
ATOM     20  C   UNL A   1      41.391  19.546  26.082  1.00  0.00     0.251 C 
ATOM     21  H   UNL A   1      39.729  18.595  25.440  1.00  0.00     0.163 HD
ATOM     22  O   UNL A   1      42.150  18.618  25.892  1.00  0.00    -0.269 OA
BRANCH  20  23
ATOM     23  C   UNL A   1      41.887  20.835  26.602  1.00  0.00     0.039 A 
ATOM     24  C   UNL A   1      42.300  21.807  25.691  1.00  0.00     0.014 A 
ATOM     25  C   UNL A   1      41.829  21.103  27.973  1.00  0.00     0.014 A 
ATOM     26  C   UNL A   1      42.599  23.088  26.151  1.00  0.00     0.010 A 
ATOM     27  C   UNL A   1      42.089  22.391  28.425  1.00  0.00     0.010 A 
ATOM     28  C   UNL A   1      42.467  23.392  27.517  1.00  0.00    -0.014 A 
BRANCH  28  29
ATOM     29  C   UNL A   1      42.742  24.756  28.020  1.00  0.00     0.031 A 
ATOM     30  C   UNL A   1      44.147  25.142  28.371  1.00  0.00     0.074 A 
ATOM     31  C   UNL A   1      41.730  25.624  28.201  1.00  0.00     0.049 A 
ATOM     32  N   UNL A   1      44.588  26.256  28.892  1.00  0.00    -0.248 NA
ATOM     33  C   UNL A   1      45.191  24.134  28.121  1.00  0.00     0.031 C 
ATOM     34  C   UNL A   1      40.320  25.358  27.910  1.00  0.00     0.029 A 
ATOM     35  N   UNL A   1      41.737  26.909  28.679  1.00  0.00    -0.354 N 
ATOM     36  C   UNL A   1      45.956  26.081  29.044  1.00  0.00     0.074 A 
ATOM     37  C   UNL A   1      46.270  24.743  28.591  1.00  0.00     0.031 C 
ATOM     38  C   UNL A   1      39.601  26.458  28.191  1.00  0.00     0.029 A 
ATOM     39  C   UNL A   1      40.494  27.492  28.706  1.00  0.00     0.049 A 
ATOM     40  H   UNL A   1      42.555  27.371  28.972  1.00  0.00     0.167 HD
ATOM     41  C   UNL A   1      46.873  26.962  29.504  1.00  0.00     0.031 A 
ATOM     42  C   UNL A   1      40.119  28.722  29.103  1.00  0.00     0.031 A 
ATOM     43  C   UNL A   1      46.568  28.296  29.936  1.00  0.00     0.049 A 
ATOM     44  C   UNL A   1      41.154  29.680  29.619  1.00  0.00     0.074 A 
ATOM     45  C   UNL A   1      47.437  29.273  30.392  1.00  0.00     0.029 A 
ATOM     46  N   UNL A   1      45.296  28.845  29.956  1.00  0.00    -0.354 N 
ATOM     47  N   UNL A   1      42.446  29.504  29.747  1.00  0.00    -0.248 NA
ATOM     48  C   UNL A   1      40.679  31.005  30.045  1.00  0.00     0.031 C 
ATOM     49  C   UNL A   1      46.684  30.408  30.707  1.00  0.00     0.029 A 
ATOM     50  C   UNL A   1      45.354  30.145  30.421  1.00  0.00     0.049 A 
ATOM     51  H   UNL A   1      44.474  28.378  29.680  1.00  0.00     0.167 HD
ATOM     52  C   UNL A   1      42.942  30.696  30.254  1.00  0.00     0.074 A 
ATOM     53  C   UNL A   1      41.814  31.592  30.405  1.00  0.00     0.031 C 
ATOM     54  C   UNL A   1      44.220  31.019  30.566  1.00  0.00     0.031 A 
BRANCH  41  55
ATOM     55  C   UNL A   1      48.296  26.502  29.556  1.00  0.00    -0.014 A 
ATOM     56  C   UNL A   1      49.179  26.785  28.502  1.00  0.00     0.009 A 
ATOM     57  C   UNL A   1      48.768  25.805  30.678  1.00  0.00     0.009 A 
ATOM     58  C   UNL A   1      50.506  26.357  28.562  1.00  0.00     0.001 A 
ATOM     59  C   UNL A   1      50.100  25.394  30.742  1.00  0.00     0.001 A 
ATOM     60  C   UNL A   1      50.965  25.665  29.682  1.00  0.00     0.000 A 
ENDBRANCH  41  55
BRANCH  42  61
ATOM     61  C   UNL A   1      38.696  29.125  29.002  1.00  0.00    -0.014 A 
ATOM     62  C   UNL A   1      37.842  28.973  30.104  1.00  0.00     0.009 A 
ATOM     63  C   UNL A   1      38.190  29.680  27.817  1.00  0.00     0.009 A 
ATOM     64  C   UNL A   1      36.503  29.361  30.019  1.00  0.00     0.001 A 
ATOM     65  C   UNL A   1      36.854  30.080  27.741  1.00  0.00     0.001 A 
ATOM     66  C   UNL A   1      36.011  29.917  28.840  1.00  0.00     0.000 A 
ENDBRANCH  42  61
BRANCH  54  67
ATOM     67  C   UNL A   1      44.479  32.399  31.089  1.00  0.00    -0.014 A 
ATOM     68  C   UNL A   1      44.715  33.465  30.210  1.00  0.00     0.009 A 
ATOM     69  C   UNL A   1      44.389  32.649  32.467  1.00  0.00     0.009 A 
ATOM     70  C   UNL A   1      44.864  34.761  30.706  1.00  0.00     0.001 A 
ATOM     71  C   UNL A   1      44.524  33.948  32.956  1.00  0.00     0.001 A 
ATOM     72  C   UNL A   1      44.763  35.002  32.075  1.00  0.00     0.000 A 
ENDBRANCH  54  67
ENDBRANCH  28  29
ENDBRANCH  20  23
ENDBRANCH  18  19
ENDBRANCH   1  18
TORSDOF 11
ENDMDL
