MODEL 1
REMARK VINA RESULT:     -11.1      0.000      0.000
REMARK SMILES C[C@@H]1CCC[C@H](S[C@@H]2CCC[C@]([NH2+]C3CC3)(C(=O)NCCCCNC(=O)c3ccc(-c4c5nc(c(-c6ccccc6)c6ccc([nH]6)c(-c6ccccc6)c6nc(c(-c7ccccc7)c7ccc4[nH]7)C=C6)C=C5)cc3)C2)C1
REMARK SMILES IDX 21 1 20 2 19 3 17 4 18 5 12 7 8 8 9 9 75 10 10 11 11 12 7 13
REMARK SMILES IDX 6 14 1 15 2 16 3 17 76 18 4 19 5 20 13 21 14 24 15 25 16 26
REMARK SMILES IDX 22 27 23 28 24 29 25 30 26 32 27 33 28 34 74 35 29 36 73 37
REMARK SMILES IDX 30 38 31 39 32 40 67 41 33 42 72 43 66 44 68 45 34 46 71 47
REMARK SMILES IDX 65 48 64 49 35 51 57 52 42 53 56 54 43 55 46 56 55 57 69 58
REMARK SMILES IDX 44 59 45 60 54 62 70 63 47 64 36 65 37 66 41 67 38 68 40 69
REMARK SMILES IDX 39 70 58 71 59 72 63 73 60 74 62 75 61 76 48 77 49 78 53 79
REMARK SMILES IDX 50 80 52 81 51 82
REMARK H PARENT 19 6 13 22 13 23 24 31 68 50 46 61
REMARK Flexibility Score: inf
ROOT
ATOM      1  C   UNL A   1      36.664  21.822  24.348  1.00  0.00     0.023 C 
ENDROOT
BRANCH   1   2
ATOM      2  C   UNL A   1      36.399  22.898  25.397  1.00  0.00     0.116 C 
BRANCH   2   3
ATOM      3  N   UNL A   1      35.680  22.411  26.557  1.00  0.00    -0.351 N 
ATOM      4  C   UNL A   1      34.377  22.538  26.959  1.00  0.00     0.281 C 
ATOM      5  O   UNL A   1      34.084  21.936  27.997  1.00  0.00    -0.268 OA
ATOM      6  H   UNL A   1      36.237  21.887  27.178  1.00  0.00     0.163 HD
BRANCH   4   7
ATOM      7  C   UNL A   1      33.323  23.359  26.148  1.00  0.00     0.176 C 
ATOM      8  C   UNL A   1      32.659  25.805  25.523  1.00  0.00     0.053 C 
ATOM      9  C   UNL A   1      31.309  25.680  26.227  1.00  0.00     0.015 C 
ATOM     10  C   UNL A   1      33.742  24.847  26.011  1.00  0.00     0.093 C 
ATOM     11  C   UNL A   1      30.895  24.222  26.387  1.00  0.00     0.008 C 
ATOM     12  C   UNL A   1      32.009  23.373  26.987  1.00  0.00     0.079 C 
BRANCH   8  13
ATOM     13  S   UNL A   1      33.243  27.550  25.305  1.00  0.00    -0.155 SA
BRANCH  13  14
ATOM     14  C   UNL A   1      33.104  28.089  23.535  1.00  0.00     0.047 C 
ATOM     15  C   UNL A   1      29.727  27.086  23.437  1.00  0.00     0.007 C 
ATOM     16  C   UNL A   1      30.784  27.577  22.444  1.00  0.00    -0.013 C 
ATOM     17  C   UNL A   1      31.472  26.475  21.612  1.00  0.00     0.003 C 
ATOM     18  C   UNL A   1      31.719  28.594  23.104  1.00  0.00     0.017 C 
ATOM     19  C   UNL A   1      32.956  26.184  21.839  1.00  0.00     0.001 C 
ATOM     20  C   UNL A   1      33.775  27.329  22.402  1.00  0.00     0.014 C 
ENDBRANCH  13  14
ENDBRANCH   8  13
BRANCH   7  21
ATOM     21  N   UNL A   1      33.129  22.754  24.812  1.00  0.00    -0.331 N 
ATOM     22  H   UNL A   1      34.059  22.665  24.401  1.00  0.00     0.347 HD
ATOM     23  H   UNL A   1      32.455  23.390  24.386  1.00  0.00     0.347 HD
BRANCH  21  24
ATOM     24  C   UNL A   1      32.473  21.446  24.628  1.00  0.00     0.183 C 
ATOM     25  C   UNL A   1      32.329  20.655  23.357  1.00  0.00     0.071 C 
ATOM     26  C   UNL A   1      33.274  20.185  24.412  1.00  0.00     0.071 C 
ENDBRANCH  21  24
ENDBRANCH   7  21
ENDBRANCH   4   7
ENDBRANCH   2   3
ENDBRANCH   1   2
BRANCH   1  27
ATOM     27  C   UNL A   1      37.427  20.601  24.855  1.00  0.00     0.023 C 
BRANCH  27  28
ATOM     28  C   UNL A   1      38.703  20.919  25.625  1.00  0.00     0.116 C 
BRANCH  28  29
ATOM     29  N   UNL A   1      39.662  19.824  25.621  1.00  0.00    -0.352 N 
ATOM     30  C   UNL A   1      40.981  19.815  26.006  1.00  0.00     0.251 C 
ATOM     31  H   UNL A   1      39.315  18.963  25.295  1.00  0.00     0.163 HD
ATOM     32  O   UNL A   1      41.669  18.821  25.840  1.00  0.00    -0.269 OA
BRANCH  30  33
ATOM     33  C   UNL A   1      41.565  21.040  26.585  1.00  0.00     0.039 A 
ATOM     34  C   UNL A   1      42.112  21.991  25.723  1.00  0.00     0.014 A 
ATOM     35  C   UNL A   1      41.525  21.264  27.963  1.00  0.00     0.014 A 
ATOM     36  C   UNL A   1      42.554  23.208  26.239  1.00  0.00     0.010 A 
ATOM     37  C   UNL A   1      41.890  22.506  28.465  1.00  0.00     0.010 A 
ATOM     38  C   UNL A   1      42.407  23.490  27.608  1.00  0.00    -0.014 A 
BRANCH  38  39
ATOM     39  C   UNL A   1      42.793  24.810  28.164  1.00  0.00     0.031 A 
ATOM     40  C   UNL A   1      41.750  25.873  28.362  1.00  0.00     0.074 A 
ATOM     41  C   UNL A   1      44.088  25.067  28.432  1.00  0.00     0.049 A 
ATOM     42  N   UNL A   1      41.898  27.108  28.765  1.00  0.00    -0.248 NA
ATOM     43  C   UNL A   1      40.358  25.507  28.045  1.00  0.00     0.031 C 
ATOM     44  C   UNL A   1      45.200  24.132  28.243  1.00  0.00     0.029 A 
ATOM     45  N   UNL A   1      44.690  26.201  28.917  1.00  0.00    -0.354 N 
ATOM     46  C   UNL A   1      40.627  27.666  28.741  1.00  0.00     0.074 A 
ATOM     47  C   UNL A   1      39.728  26.656  28.228  1.00  0.00     0.031 C 
ATOM     48  C   UNL A   1      46.343  24.723  28.629  1.00  0.00     0.029 A 
ATOM     49  C   UNL A   1      46.052  26.088  29.053  1.00  0.00     0.049 A 
ATOM     50  H   UNL A   1      44.191  27.019  29.145  1.00  0.00     0.167 HD
ATOM     51  C   UNL A   1      40.236  28.900  29.137  1.00  0.00     0.031 A 
ATOM     52  C   UNL A   1      46.965  26.987  29.465  1.00  0.00     0.031 A 
ATOM     53  C   UNL A   1      41.127  29.901  29.655  1.00  0.00     0.049 A 
ATOM     54  C   UNL A   1      46.505  28.359  29.877  1.00  0.00     0.074 A 
ATOM     55  C   UNL A   1      40.825  31.173  30.108  1.00  0.00     0.029 A 
ATOM     56  N   UNL A   1      42.497  29.741  29.792  1.00  0.00    -0.354 N 
ATOM     57  N   UNL A   1      45.290  28.851  29.900  1.00  0.00    -0.248 NA
ATOM     58  C   UNL A   1      47.543  29.294  30.335  1.00  0.00     0.031 C 
ATOM     59  C   UNL A   1      42.018  31.797  30.485  1.00  0.00     0.029 A 
ATOM     60  C   UNL A   1      43.056  30.894  30.315  1.00  0.00     0.049 A 
ATOM     61  H   UNL A   1      42.998  28.927  29.554  1.00  0.00     0.167 HD
ATOM     62  C   UNL A   1      45.414  30.140  30.403  1.00  0.00     0.074 A 
ATOM     63  C   UNL A   1      46.818  30.345  30.690  1.00  0.00     0.031 C 
ATOM     64  C   UNL A   1      44.453  31.073  30.606  1.00  0.00     0.031 A 
BRANCH  51  65
ATOM     65  C   UNL A   1      38.773  29.228  29.038  1.00  0.00    -0.014 A 
ATOM     66  C   UNL A   1      37.931  29.105  30.155  1.00  0.00     0.009 A 
ATOM     67  C   UNL A   1      38.239  29.709  27.833  1.00  0.00     0.009 A 
ATOM     68  C   UNL A   1      36.577  29.431  30.060  1.00  0.00     0.001 A 
ATOM     69  C   UNL A   1      36.890  30.061  27.749  1.00  0.00     0.001 A 
ATOM     70  C   UNL A   1      36.060  29.916  28.859  1.00  0.00     0.000 A 
ENDBRANCH  51  65
BRANCH  52  71
ATOM     71  C   UNL A   1      48.408  26.631  29.510  1.00  0.00    -0.014 A 
ATOM     72  C   UNL A   1      48.966  26.051  30.660  1.00  0.00     0.009 A 
ATOM     73  C   UNL A   1      49.245  26.907  28.418  1.00  0.00     0.009 A 
ATOM     74  C   UNL A   1      50.337  25.794  30.730  1.00  0.00     0.001 A 
ATOM     75  C   UNL A   1      50.610  26.619  28.479  1.00  0.00     0.001 A 
ATOM     76  C   UNL A   1      51.158  26.076  29.640  1.00  0.00     0.000 A 
ENDBRANCH  52  71
BRANCH  64  77
ATOM     77  C   UNL A   1      44.882  32.380  31.209  1.00  0.00    -0.014 A 
ATOM     78  C   UNL A   1      45.255  33.468  30.406  1.00  0.00     0.009 A 
ATOM     79  C   UNL A   1      44.872  32.533  32.605  1.00  0.00     0.009 A 
ATOM     80  C   UNL A   1      45.644  34.674  30.990  1.00  0.00     0.001 A 
ATOM     81  C   UNL A   1      45.232  33.750  33.185  1.00  0.00     0.001 A 
ATOM     82  C   UNL A   1      45.627  34.816  32.378  1.00  0.00     0.000 A 
ENDBRANCH  64  77
ENDBRANCH  38  39
ENDBRANCH  30  33
ENDBRANCH  28  29
ENDBRANCH  27  28
ENDBRANCH   1  27
TORSDOF 15
ENDMDL
MODEL 2
REMARK VINA RESULT:     -11.0      0.444      5.879
REMARK SMILES C[C@@H]1CCC[C@H](S[C@@H]2CCC[C@]([NH2+]C3CC3)(C(=O)NCCCCNC(=O)c3ccc(-c4c5nc(c(-c6ccccc6)c6ccc([nH]6)c(-c6ccccc6)c6nc(c(-c7ccccc7)c7ccc4[nH]7)C=C6)C=C5)cc3)C2)C1
REMARK SMILES IDX 21 1 20 2 19 3 17 4 18 5 12 7 8 8 9 9 75 10 10 11 11 12 7 13
REMARK SMILES IDX 6 14 1 15 2 16 3 17 76 18 4 19 5 20 13 21 14 24 15 25 16 26
REMARK SMILES IDX 22 27 23 28 24 29 25 30 26 32 27 33 28 34 74 35 29 36 73 37
REMARK SMILES IDX 30 38 31 39 32 40 67 41 33 42 72 43 66 44 68 45 34 46 71 47
REMARK SMILES IDX 65 48 64 49 35 51 57 52 42 53 56 54 43 55 46 56 55 57 69 58
REMARK SMILES IDX 44 59 45 60 54 62 70 63 47 64 36 65 37 66 41 67 38 68 40 69
REMARK SMILES IDX 39 70 58 71 59 72 63 73 60 74 62 75 61 76 48 77 49 78 53 79
REMARK SMILES IDX 50 80 52 81 51 82
REMARK H PARENT 19 6 13 22 13 23 24 31 68 50 46 61
REMARK Flexibility Score: inf
ROOT
ATOM      1  C   UNL A   1      36.618  21.220  24.489  1.00  0.00     0.023 C 
ENDROOT
BRANCH   1   2
ATOM      2  C   UNL A   1      36.322  22.316  25.508  1.00  0.00     0.116 C 
BRANCH   2   3
ATOM      3  N   UNL A   1      35.530  21.861  26.634  1.00  0.00    -0.351 N 
ATOM      4  C   UNL A   1      34.217  22.042  26.975  1.00  0.00     0.281 C 
ATOM      5  O   UNL A   1      33.851  21.454  27.998  1.00  0.00    -0.268 OA
ATOM      6  H   UNL A   1      36.036  21.316  27.280  1.00  0.00     0.163 HD
BRANCH   4   7
ATOM      7  C   UNL A   1      33.236  22.903  26.115  1.00  0.00     0.176 C 
ATOM      8  C   UNL A   1      32.678  25.376  25.489  1.00  0.00     0.053 C 
ATOM      9  C   UNL A   1      31.287  25.281  26.110  1.00  0.00     0.015 C 
ATOM     10  C   UNL A   1      33.704  24.380  26.025  1.00  0.00     0.093 C 
ATOM     11  C   UNL A   1      30.823  23.833  26.224  1.00  0.00     0.008 C 
ATOM     12  C   UNL A   1      31.876  22.944  26.876  1.00  0.00     0.079 C 
BRANCH   8  13
ATOM     13  S   UNL A   1      33.323  27.105  25.330  1.00  0.00    -0.155 SA
BRANCH  13  14
ATOM     14  C   UNL A   1      33.224  27.702  23.577  1.00  0.00     0.047 C 
ATOM     15  C   UNL A   1      29.757  27.080  23.501  1.00  0.00     0.007 C 
ATOM     16  C   UNL A   1      30.850  27.477  22.505  1.00  0.00    -0.013 C 
ATOM     17  C   UNL A   1      31.403  26.328  21.637  1.00  0.00     0.003 C 
ATOM     18  C   UNL A   1      31.900  28.367  23.177  1.00  0.00     0.017 C 
ATOM     19  C   UNL A   1      32.849  25.869  21.837  1.00  0.00     0.001 C 
ATOM     20  C   UNL A   1      33.795  26.903  22.416  1.00  0.00     0.014 C 
ENDBRANCH  13  14
ENDBRANCH   8  13
BRANCH   7  21
ATOM     21  N   UNL A   1      33.104  22.322  24.761  1.00  0.00    -0.331 N 
ATOM     22  H   UNL A   1      34.054  22.184  24.416  1.00  0.00     0.347 HD
ATOM     23  H   UNL A   1      32.499  22.998  24.297  1.00  0.00     0.347 HD
BRANCH  21  24
ATOM     24  C   UNL A   1      32.391  21.054  24.515  1.00  0.00     0.183 C 
ATOM     25  C   UNL A   1      32.236  20.319  23.212  1.00  0.00     0.071 C 
ATOM     26  C   UNL A   1      33.136  19.766  24.266  1.00  0.00     0.071 C 
ENDBRANCH  21  24
ENDBRANCH   7  21
ENDBRANCH   4   7
ENDBRANCH   2   3
ENDBRANCH   1   2
BRANCH   1  27
ATOM     27  C   UNL A   1      37.497  20.083  25.001  1.00  0.00     0.023 C 
BRANCH  27  28
ATOM     28  C   UNL A   1      38.768  20.529  25.713  1.00  0.00     0.116 C 
BRANCH  28  29
ATOM     29  N   UNL A   1      39.789  19.492  25.767  1.00  0.00    -0.352 N 
ATOM     30  C   UNL A   1      41.111  19.584  26.125  1.00  0.00     0.251 C 
ATOM     31  H   UNL A   1      39.487  18.591  25.507  1.00  0.00     0.163 HD
ATOM     32  O   UNL A   1      41.853  18.621  26.015  1.00  0.00    -0.269 OA
BRANCH  30  33
ATOM     33  C   UNL A   1      41.632  20.877  26.607  1.00  0.00     0.039 A 
ATOM     34  C   UNL A   1      42.106  21.797  25.671  1.00  0.00     0.014 A 
ATOM     35  C   UNL A   1      41.606  21.192  27.968  1.00  0.00     0.014 A 
ATOM     36  C   UNL A   1      42.485  23.071  26.094  1.00  0.00     0.010 A 
ATOM     37  C   UNL A   1      41.907  22.485  28.376  1.00  0.00     0.010 A 
ATOM     38  C   UNL A   1      42.348  23.436  27.444  1.00  0.00    -0.014 A 
BRANCH  38  39
ATOM     39  C   UNL A   1      42.665  24.811  27.901  1.00  0.00     0.031 A 
ATOM     40  C   UNL A   1      44.089  25.192  28.194  1.00  0.00     0.074 A 
ATOM     41  C   UNL A   1      41.668  25.692  28.108  1.00  0.00     0.049 A 
ATOM     42  N   UNL A   1      44.560  26.314  28.671  1.00  0.00    -0.248 NA
ATOM     43  C   UNL A   1      45.117  24.168  27.940  1.00  0.00     0.031 C 
ATOM     44  C   UNL A   1      40.241  25.429  27.899  1.00  0.00     0.029 A 
ATOM     45  N   UNL A   1      41.702  26.991  28.549  1.00  0.00    -0.354 N 
ATOM     46  C   UNL A   1      45.932  26.130  28.781  1.00  0.00     0.074 A 
ATOM     47  C   UNL A   1      46.212  24.769  28.379  1.00  0.00     0.031 C 
ATOM     48  C   UNL A   1      39.541  26.538  28.190  1.00  0.00     0.029 A 
ATOM     49  C   UNL A   1      40.462  27.575  28.643  1.00  0.00     0.049 A 
ATOM     50  H   UNL A   1      42.538  27.460  28.777  1.00  0.00     0.167 HD
ATOM     51  C   UNL A   1      46.879  27.021  29.156  1.00  0.00     0.031 A 
ATOM     52  C   UNL A   1      40.108  28.805  29.058  1.00  0.00     0.031 A 
ATOM     53  C   UNL A   1      46.602  28.376  29.547  1.00  0.00     0.049 A 
ATOM     54  C   UNL A   1      41.180  29.768  29.491  1.00  0.00     0.074 A 
ATOM     55  C   UNL A   1      47.495  29.365  29.918  1.00  0.00     0.029 A 
ATOM     56  N   UNL A   1      45.335  28.933  29.613  1.00  0.00    -0.354 N 
ATOM     57  N   UNL A   1      42.479  29.593  29.535  1.00  0.00    -0.248 NA
ATOM     58  C   UNL A   1      40.736  31.104  29.916  1.00  0.00     0.031 C 
ATOM     59  C   UNL A   1      46.765  30.512  30.246  1.00  0.00     0.029 A 
ATOM     60  C   UNL A   1      45.422  30.251  30.028  1.00  0.00     0.049 A 
ATOM     61  H   UNL A   1      44.498  28.462  29.396  1.00  0.00     0.167 HD
ATOM     62  C   UNL A   1      43.008  30.804  29.963  1.00  0.00     0.074 A 
ATOM     63  C   UNL A   1      41.892  31.709  30.144  1.00  0.00     0.031 C 
ATOM     64  C   UNL A   1      44.301  31.138  30.190  1.00  0.00     0.031 A 
BRANCH  51  65
ATOM     65  C   UNL A   1      48.308  26.558  29.145  1.00  0.00    -0.014 A 
ATOM     66  C   UNL A   1      48.876  25.953  30.279  1.00  0.00     0.009 A 
ATOM     67  C   UNL A   1      49.081  26.681  27.980  1.00  0.00     0.009 A 
ATOM     68  C   UNL A   1      50.199  25.507  30.254  1.00  0.00     0.001 A 
ATOM     69  C   UNL A   1      50.394  26.208  27.951  1.00  0.00     0.001 A 
ATOM     70  C   UNL A   1      50.953  25.628  29.088  1.00  0.00     0.000 A 
ENDBRANCH  51  65
BRANCH  52  71
ATOM     71  C   UNL A   1      38.676  29.208  29.089  1.00  0.00    -0.014 A 
ATOM     72  C   UNL A   1      38.057  29.737  27.946  1.00  0.00     0.009 A 
ATOM     73  C   UNL A   1      37.932  29.102  30.274  1.00  0.00     0.009 A 
ATOM     74  C   UNL A   1      36.737  30.191  28.001  1.00  0.00     0.001 A 
ATOM     75  C   UNL A   1      36.602  29.527  30.317  1.00  0.00     0.001 A 
ATOM     76  C   UNL A   1      36.010  30.084  29.185  1.00  0.00     0.000 A 
ENDBRANCH  52  71
BRANCH  64  77
ATOM     77  C   UNL A   1      44.581  32.552  30.612  1.00  0.00    -0.014 A 
ATOM     78  C   UNL A   1      44.793  33.568  29.668  1.00  0.00     0.009 A 
ATOM     79  C   UNL A   1      44.592  32.876  31.978  1.00  0.00     0.009 A 
ATOM     80  C   UNL A   1      45.045  34.875  30.085  1.00  0.00     0.001 A 
ATOM     81  C   UNL A   1      44.815  34.189  32.391  1.00  0.00     0.001 A 
ATOM     82  C   UNL A   1      45.051  35.187  31.445  1.00  0.00     0.000 A 
ENDBRANCH  64  77
ENDBRANCH  38  39
ENDBRANCH  30  33
ENDBRANCH  28  29
ENDBRANCH  27  28
ENDBRANCH   1  27
TORSDOF 15
ENDMDL
MODEL 3
REMARK VINA RESULT:     -10.9      3.638      8.623
REMARK SMILES C[C@@H]1CCC[C@H](S[C@@H]2CCC[C@]([NH2+]C3CC3)(C(=O)NCCCCNC(=O)c3ccc(-c4c5nc(c(-c6ccccc6)c6ccc([nH]6)c(-c6ccccc6)c6nc(c(-c7ccccc7)c7ccc4[nH]7)C=C6)C=C5)cc3)C2)C1
REMARK SMILES IDX 21 1 20 2 19 3 17 4 18 5 12 7 8 8 9 9 75 10 10 11 11 12 7 13
REMARK SMILES IDX 6 14 1 15 2 16 3 17 76 18 4 19 5 20 13 21 14 24 15 25 16 26
REMARK SMILES IDX 22 27 23 28 24 29 25 30 26 32 27 33 28 34 74 35 29 36 73 37
REMARK SMILES IDX 30 38 31 39 32 40 67 41 33 42 72 43 66 44 68 45 34 46 71 47
REMARK SMILES IDX 65 48 64 49 35 51 57 52 42 53 56 54 43 55 46 56 55 57 69 58
REMARK SMILES IDX 44 59 45 60 54 62 70 63 47 64 36 65 37 66 41 67 38 68 40 69
REMARK SMILES IDX 39 70 58 71 59 72 63 73 60 74 62 75 61 76 48 77 49 78 53 79
REMARK SMILES IDX 50 80 52 81 51 82
REMARK H PARENT 19 6 13 22 13 23 24 31 68 50 46 61
REMARK Flexibility Score: inf
ROOT
ATOM      1  C   UNL A   1      32.003  29.526  27.022  1.00  0.00     0.023 C 
ENDROOT
BRANCH   1   2
ATOM      2  C   UNL A   1      33.275  28.910  26.447  1.00  0.00     0.116 C 
BRANCH   2   3
ATOM      3  N   UNL A   1      33.547  29.313  25.081  1.00  0.00    -0.351 N 
ATOM      4  C   UNL A   1      33.462  28.650  23.887  1.00  0.00     0.281 C 
ATOM      5  O   UNL A   1      33.722  29.328  22.887  1.00  0.00    -0.268 OA
ATOM      6  H   UNL A   1      33.853  30.245  24.996  1.00  0.00     0.163 HD
BRANCH   4   7
ATOM      7  C   UNL A   1      33.034  27.150  23.786  1.00  0.00     0.176 C 
ATOM      8  C   UNL A   1      33.869  24.733  24.311  1.00  0.00     0.053 C 
ATOM      9  C   UNL A   1      33.842  24.340  22.836  1.00  0.00     0.015 C 
ATOM     10  C   UNL A   1      33.992  26.229  24.588  1.00  0.00     0.093 C 
ATOM     11  C   UNL A   1      32.922  25.250  22.032  1.00  0.00     0.008 C 
ATOM     12  C   UNL A   1      33.202  26.726  22.295  1.00  0.00     0.079 C 
BRANCH   8  13
ATOM     13  S   UNL A   1      34.981  23.683  25.357  1.00  0.00    -0.155 SA
BRANCH  13  14
ATOM     14  C   UNL A   1      34.003  22.511  26.412  1.00  0.00     0.047 C 
ATOM     15  C   UNL A   1      32.351  21.243  23.569  1.00  0.00     0.007 C 
ATOM     16  C   UNL A   1      32.240  21.104  25.090  1.00  0.00    -0.013 C 
ATOM     17  C   UNL A   1      31.135  21.954  25.752  1.00  0.00     0.003 C 
ATOM     18  C   UNL A   1      33.621  21.181  25.745  1.00  0.00     0.017 C 
ATOM     19  C   UNL A   1      31.533  23.108  26.676  1.00  0.00     0.001 C 
ATOM     20  C   UNL A   1      32.893  22.987  27.335  1.00  0.00     0.014 C 
ENDBRANCH  13  14
ENDBRANCH   8  13
BRANCH   7  21
ATOM     21  N   UNL A   1      31.643  26.987  24.263  1.00  0.00    -0.331 N 
ATOM     22  H   UNL A   1      31.690  26.980  25.282  1.00  0.00     0.347 HD
ATOM     23  H   UNL A   1      31.347  26.144  23.772  1.00  0.00     0.347 HD
BRANCH  21  24
ATOM     24  C   UNL A   1      30.573  27.938  23.908  1.00  0.00     0.183 C 
ATOM     25  C   UNL A   1      30.118  28.344  22.533  1.00  0.00     0.071 C 
ATOM     26  C   UNL A   1      29.246  27.465  23.366  1.00  0.00     0.071 C 
ENDBRANCH  21  24
ENDBRANCH   7  21
ENDBRANCH   4   7
ENDBRANCH   2   3
ENDBRANCH   1   2
BRANCH   1  27
ATOM     27  C   UNL A   1      31.816  31.012  26.729  1.00  0.00     0.023 C 
BRANCH  27  28
ATOM     28  C   UNL A   1      32.988  31.896  27.136  1.00  0.00     0.116 C 
BRANCH  28  29
ATOM     29  N   UNL A   1      32.578  33.219  27.587  1.00  0.00    -0.352 N 
ATOM     30  C   UNL A   1      33.200  34.076  28.462  1.00  0.00     0.251 C 
ATOM     31  H   UNL A   1      31.730  33.547  27.210  1.00  0.00     0.163 HD
ATOM     32  O   UNL A   1      32.657  35.114  28.804  1.00  0.00    -0.269 OA
BRANCH  30  33
ATOM     33  C   UNL A   1      34.516  33.703  29.014  1.00  0.00     0.039 A 
ATOM     34  C   UNL A   1      34.559  32.944  30.184  1.00  0.00     0.014 A 
ATOM     35  C   UNL A   1      35.693  34.061  28.352  1.00  0.00     0.014 A 
ATOM     36  C   UNL A   1      35.786  32.476  30.652  1.00  0.00     0.010 A 
ATOM     37  C   UNL A   1      36.904  33.528  28.773  1.00  0.00     0.010 A 
ATOM     38  C   UNL A   1      36.962  32.730  29.926  1.00  0.00    -0.014 A 
BRANCH  38  39
ATOM     39  C   UNL A   1      38.265  32.172  30.359  1.00  0.00     0.031 A 
ATOM     40  C   UNL A   1      38.738  30.857  29.806  1.00  0.00     0.074 A 
ATOM     41  C   UNL A   1      38.991  32.819  31.292  1.00  0.00     0.049 A 
ATOM     42  N   UNL A   1      39.808  30.170  30.113  1.00  0.00    -0.248 NA
ATOM     43  C   UNL A   1      37.884  30.217  28.790  1.00  0.00     0.031 C 
ATOM     44  C   UNL A   1      38.619  34.082  31.936  1.00  0.00     0.029 A 
ATOM     45  N   UNL A   1      40.194  32.497  31.868  1.00  0.00    -0.354 N 
ATOM     46  C   UNL A   1      39.751  29.020  29.338  1.00  0.00     0.074 A 
ATOM     47  C   UNL A   1      38.514  29.070  28.590  1.00  0.00     0.031 C 
ATOM     48  C   UNL A   1      39.585  34.437  32.799  1.00  0.00     0.029 A 
ATOM     49  C   UNL A   1      40.621  33.410  32.801  1.00  0.00     0.049 A 
ATOM     50  H   UNL A   1      40.702  31.686  31.635  1.00  0.00     0.167 HD
ATOM     51  C   UNL A   1      40.661  28.023  29.234  1.00  0.00     0.031 A 
ATOM     52  C   UNL A   1      41.721  33.413  33.577  1.00  0.00     0.031 A 
ATOM     53  C   UNL A   1      41.894  27.976  29.970  1.00  0.00     0.049 A 
ATOM     54  C   UNL A   1      42.704  32.281  33.458  1.00  0.00     0.074 A 
ATOM     55  C   UNL A   1      42.895  27.022  29.915  1.00  0.00     0.029 A 
ATOM     56  N   UNL A   1      42.297  28.929  30.892  1.00  0.00    -0.354 N 
ATOM     57  N   UNL A   1      42.660  31.228  32.678  1.00  0.00    -0.248 NA
ATOM     58  C   UNL A   1      43.895  32.346  34.316  1.00  0.00     0.031 C 
ATOM     59  C   UNL A   1      43.887  27.378  30.834  1.00  0.00     0.029 A 
ATOM     60  C   UNL A   1      43.528  28.581  31.420  1.00  0.00     0.049 A 
ATOM     61  H   UNL A   1      41.785  29.734  31.134  1.00  0.00     0.167 HD
ATOM     62  C   UNL A   1      43.830  30.523  32.929  1.00  0.00     0.074 A 
ATOM     63  C   UNL A   1      44.571  31.278  33.918  1.00  0.00     0.031 C 
ATOM     64  C   UNL A   1      44.254  29.353  32.393  1.00  0.00     0.031 A 
BRANCH  51  65
ATOM     65  C   UNL A   1      40.357  26.906  28.276  1.00  0.00    -0.014 A 
ATOM     66  C   UNL A   1      40.864  26.925  26.966  1.00  0.00     0.009 A 
ATOM     67  C   UNL A   1      39.601  25.802  28.697  1.00  0.00     0.009 A 
ATOM     68  C   UNL A   1      40.595  25.873  26.089  1.00  0.00     0.001 A 
ATOM     69  C   UNL A   1      39.357  24.739  27.825  1.00  0.00     0.001 A 
ATOM     70  C   UNL A   1      39.848  24.778  26.521  1.00  0.00     0.000 A 
ENDBRANCH  51  65
BRANCH  52  71
ATOM     71  C   UNL A   1      41.961  34.521  34.540  1.00  0.00    -0.014 A 
ATOM     72  C   UNL A   1      41.491  34.436  35.860  1.00  0.00     0.009 A 
ATOM     73  C   UNL A   1      42.628  35.687  34.134  1.00  0.00     0.009 A 
ATOM     74  C   UNL A   1      41.645  35.511  36.738  1.00  0.00     0.001 A 
ATOM     75  C   UNL A   1      42.809  36.748  35.025  1.00  0.00     0.001 A 
ATOM     76  C   UNL A   1      42.305  36.664  36.321  1.00  0.00     0.000 A 
ENDBRANCH  52  71
BRANCH  64  77
ATOM     77  C   UNL A   1      45.599  28.845  32.830  1.00  0.00    -0.014 A 
ATOM     78  C   UNL A   1      45.731  27.974  33.921  1.00  0.00     0.009 A 
ATOM     79  C   UNL A   1      46.745  29.216  32.109  1.00  0.00     0.009 A 
ATOM     80  C   UNL A   1      46.991  27.511  34.304  1.00  0.00     0.001 A 
ATOM     81  C   UNL A   1      47.999  28.727  32.475  1.00  0.00     0.001 A 
ATOM     82  C   UNL A   1      48.123  27.883  33.578  1.00  0.00     0.000 A 
ENDBRANCH  64  77
ENDBRANCH  38  39
ENDBRANCH  30  33
ENDBRANCH  28  29
ENDBRANCH  27  28
ENDBRANCH   1  27
TORSDOF 15
ENDMDL
