MODEL 1
REMARK VINA RESULT:     -11.3      0.000      0.000
REMARK SMILES CCc1cccc(CC)c1N1/C(=[NH+]/C(=O)CCCC(=O)NCCCCNC(=O)c2ccc(-c3c4nc(c(-c5ccccc5)c5ccc([nH]5)c(-c5ccccc5)c5nc(c(-c6ccccc6)c6ccc3[nH]6)C=C5)C=C4)cc2)S[C@@H]2CS(=O)(=O)C[C@@H]21
REMARK SMILES IDX 22 1 21 2 19 3 20 4 18 6 17 7 16 8 14 9 11 10 12 11 84 12
REMARK SMILES IDX 13 13 77 14 78 15 83 16 79 18 80 19 15 20 81 21 82 22 10 23
REMARK SMILES IDX 3 24 4 25 5 26 7 27 6 28 2 29 1 30 8 31 9 32 23 33 24 34
REMARK SMILES IDX 25 35 26 36 27 37 28 39 29 40 30 41 76 42 31 43 75 44 32 45
REMARK SMILES IDX 33 46 34 47 69 48 35 49 74 50 68 51 70 52 36 53 73 54 67 55
REMARK SMILES IDX 66 56 37 58 59 59 44 60 58 61 45 62 48 63 57 64 71 65 46 66
REMARK SMILES IDX 47 67 56 69 72 70 49 71 38 72 39 73 43 74 40 75 42 76 41 77
REMARK SMILES IDX 60 78 61 79 65 80 62 81 64 82 63 83 50 84 51 85 55 86 52 87
REMARK SMILES IDX 54 88 53 89
REMARK H PARENT 21 5 13 17 26 38 70 57 48 68
REMARK Flexibility Score: inf
ROOT
ATOM      1  C   UNL A   1      34.911  20.188  24.812  1.00  0.00     0.116 C 
ENDROOT
BRANCH   1   2
ATOM      2  N   UNL A   1      33.804  20.900  25.402  1.00  0.00    -0.356 N 
ATOM      3  C   UNL A   1      32.795  21.572  24.782  1.00  0.00     0.220 C 
ATOM      4  O   UNL A   1      32.028  22.244  25.473  1.00  0.00    -0.275 OA
ATOM      5  H   UNL A   1      33.772  20.901  26.387  1.00  0.00     0.163 HD
BRANCH   3   6
ATOM      6  C   UNL A   1      32.591  21.436  23.285  1.00  0.00     0.100 C 
BRANCH   6   7
ATOM      7  C   UNL A   1      32.421  22.723  22.482  1.00  0.00     0.022 C 
BRANCH   7   8
ATOM      8  C   UNL A   1      33.619  23.673  22.401  1.00  0.00     0.128 C 
BRANCH   8   9
ATOM      9  C   UNL A   1      33.592  24.887  23.315  1.00  0.00     0.307 C 
ATOM     10  N   UNL A   1      31.526  27.857  23.683  1.00  0.00    -0.216 N 
ATOM     11  C   UNL A   1      32.526  26.946  23.341  1.00  0.00     0.319 C 
ATOM     12  C   UNL A   1      32.016  29.157  24.207  1.00  0.00     0.212 C 
ATOM     13  N   UNL A   1      32.452  25.659  23.266  1.00  0.00    -0.204 N 
ATOM     14  S   UNL A   1      34.033  27.867  23.097  1.00  0.00    -0.029 SA
ATOM     15  C   UNL A   1      33.537  29.013  24.405  1.00  0.00     0.120 C 
ATOM     16  C   UNL A   1      31.417  29.585  25.543  1.00  0.00     0.188 C 
ATOM     17  H   UNL A   1      31.573  25.226  23.173  1.00  0.00     0.316 HD
ATOM     18  C   UNL A   1      33.791  28.371  25.760  1.00  0.00     0.156 C 
ATOM     19  S   UNL A   1      32.554  29.076  26.809  1.00  0.00     0.155 S 
ATOM     20  O   UNL A   1      34.513  25.076  24.108  1.00  0.00    -0.247 OA
ATOM     21  O   UNL A   1      31.951  28.032  27.598  1.00  0.00    -0.229 OA
ATOM     22  O   UNL A   1      33.115  30.277  27.407  1.00  0.00    -0.229 OA
BRANCH  10  23
ATOM     23  C   UNL A   1      30.126  27.686  23.554  1.00  0.00     0.134 A 
ATOM     24  C   UNL A   1      29.430  26.689  24.295  1.00  0.00    -0.001 A 
ATOM     25  C   UNL A   1      28.017  26.669  24.290  1.00  0.00     0.008 A 
ATOM     26  C   UNL A   1      27.278  27.592  23.571  1.00  0.00     0.001 A 
ATOM     27  C   UNL A   1      29.349  28.609  22.778  1.00  0.00    -0.001 A 
ATOM     28  C   UNL A   1      27.939  28.556  22.828  1.00  0.00     0.008 A 
BRANCH  24  29
ATOM     29  C   UNL A   1      30.105  25.674  25.200  1.00  0.00     0.036 C 
ATOM     30  C   UNL A   1      29.237  25.279  26.393  1.00  0.00     0.009 C 
ENDBRANCH  24  29
BRANCH  27  31
ATOM     31  C   UNL A   1      29.961  29.716  21.935  1.00  0.00     0.036 C 
ATOM     32  C   UNL A   1      29.030  30.878  21.594  1.00  0.00     0.009 C 
ENDBRANCH  27  31
ENDBRANCH  10  23
ENDBRANCH   8   9
ENDBRANCH   7   8
ENDBRANCH   6   7
ENDBRANCH   3   6
ENDBRANCH   1   2
BRANCH   1  33
ATOM     33  C   UNL A   1      36.227  20.885  25.153  1.00  0.00     0.023 C 
BRANCH  33  34
ATOM     34  C   UNL A   1      36.311  22.311  24.632  1.00  0.00     0.023 C 
BRANCH  34  35
ATOM     35  C   UNL A   1      37.401  23.130  25.306  1.00  0.00     0.116 C 
BRANCH  35  36
ATOM     36  N   UNL A   1      38.643  22.394  25.512  1.00  0.00    -0.352 N 
ATOM     37  C   UNL A   1      39.784  22.820  26.148  1.00  0.00     0.251 C 
ATOM     38  H   UNL A   1      38.666  21.478  25.152  1.00  0.00     0.163 HD
ATOM     39  O   UNL A   1      40.795  22.129  26.174  1.00  0.00    -0.269 OA
BRANCH  37  40
ATOM     40  C   UNL A   1      39.776  24.161  26.762  1.00  0.00     0.039 A 
ATOM     41  C   UNL A   1      39.215  24.322  28.027  1.00  0.00     0.014 A 
ATOM     42  C   UNL A   1      40.440  25.215  26.130  1.00  0.00     0.014 A 
ATOM     43  C   UNL A   1      39.393  25.529  28.702  1.00  0.00     0.010 A 
ATOM     44  C   UNL A   1      40.699  26.378  26.842  1.00  0.00     0.010 A 
ATOM     45  C   UNL A   1      40.179  26.547  28.135  1.00  0.00    -0.014 A 
BRANCH  45  46
ATOM     46  C   UNL A   1      40.473  27.796  28.878  1.00  0.00     0.031 A 
ATOM     47  C   UNL A   1      41.783  27.945  29.601  1.00  0.00     0.074 A 
ATOM     48  C   UNL A   1      39.539  28.765  28.958  1.00  0.00     0.049 A 
ATOM     49  N   UNL A   1      42.207  28.935  30.344  1.00  0.00    -0.248 NA
ATOM     50  C   UNL A   1      42.731  26.821  29.503  1.00  0.00     0.031 C 
ATOM     51  C   UNL A   1      38.205  28.715  28.350  1.00  0.00     0.029 A 
ATOM     52  N   UNL A   1      39.568  29.982  29.590  1.00  0.00    -0.354 N 
ATOM     53  C   UNL A   1      43.452  28.544  30.817  1.00  0.00     0.074 A 
ATOM     54  C   UNL A   1      43.695  27.207  30.325  1.00  0.00     0.031 C 
ATOM     55  C   UNL A   1      37.562  29.867  28.608  1.00  0.00     0.029 A 
ATOM     56  C   UNL A   1      38.417  30.716  29.429  1.00  0.00     0.049 A 
ATOM     57  H   UNL A   1      40.341  30.300  30.110  1.00  0.00     0.167 HD
ATOM     58  C   UNL A   1      44.328  29.244  31.573  1.00  0.00     0.031 A 
ATOM     59  C   UNL A   1      38.089  31.937  29.892  1.00  0.00     0.031 A 
ATOM     60  C   UNL A   1      44.102  30.585  32.037  1.00  0.00     0.049 A 
ATOM     61  C   UNL A   1      39.089  32.696  30.722  1.00  0.00     0.074 A 
ATOM     62  C   UNL A   1      44.959  31.407  32.745  1.00  0.00     0.029 A 
ATOM     63  N   UNL A   1      42.932  31.300  31.835  1.00  0.00    -0.354 N 
ATOM     64  N   UNL A   1      40.297  32.345  31.087  1.00  0.00    -0.248 NA
ATOM     65  C   UNL A   1      38.680  34.028  31.192  1.00  0.00     0.031 C 
ATOM     66  C   UNL A   1      44.290  32.605  33.014  1.00  0.00     0.029 A 
ATOM     67  C   UNL A   1      43.036  32.547  32.426  1.00  0.00     0.049 A 
ATOM     68  H   UNL A   1      42.145  30.971  31.345  1.00  0.00     0.167 HD
ATOM     69  C   UNL A   1      40.803  33.422  31.803  1.00  0.00     0.074 A 
ATOM     70  C   UNL A   1      39.779  34.446  31.804  1.00  0.00     0.031 C 
ATOM     71  C   UNL A   1      42.008  33.553  32.410  1.00  0.00     0.031 A 
BRANCH  58  72
ATOM     72  C   UNL A   1      45.621  28.572  31.942  1.00  0.00    -0.014 A 
ATOM     73  C   UNL A   1      45.752  27.857  33.143  1.00  0.00     0.009 A 
ATOM     74  C   UNL A   1      46.707  28.615  31.055  1.00  0.00     0.009 A 
ATOM     75  C   UNL A   1      46.955  27.224  33.461  1.00  0.00     0.001 A 
ATOM     76  C   UNL A   1      47.898  27.957  31.362  1.00  0.00     0.001 A 
ATOM     77  C   UNL A   1      48.024  27.268  32.567  1.00  0.00     0.000 A 
ENDBRANCH  58  72
BRANCH  59  78
ATOM     78  C   UNL A   1      36.766  32.535  29.574  1.00  0.00    -0.014 A 
ATOM     79  C   UNL A   1      36.560  33.198  28.353  1.00  0.00     0.009 A 
ATOM     80  C   UNL A   1      35.713  32.479  30.499  1.00  0.00     0.009 A 
ATOM     81  C   UNL A   1      35.340  33.825  28.083  1.00  0.00     0.001 A 
ATOM     82  C   UNL A   1      34.485  33.079  30.213  1.00  0.00     0.001 A 
ATOM     83  C   UNL A   1      34.304  33.763  29.012  1.00  0.00     0.000 A 
ENDBRANCH  59  78
BRANCH  71  84
ATOM     84  C   UNL A   1      42.295  34.861  33.091  1.00  0.00    -0.014 A 
ATOM     85  C   UNL A   1      43.092  35.841  32.481  1.00  0.00     0.009 A 
ATOM     86  C   UNL A   1      41.726  35.127  34.347  1.00  0.00     0.009 A 
ATOM     87  C   UNL A   1      43.343  37.049  33.132  1.00  0.00     0.001 A 
ATOM     88  C   UNL A   1      41.954  36.348  34.981  1.00  0.00     0.001 A 
ATOM     89  C   UNL A   1      42.771  37.304  34.378  1.00  0.00     0.000 A 
ENDBRANCH  71  84
ENDBRANCH  45  46
ENDBRANCH  37  40
ENDBRANCH  35  36
ENDBRANCH  34  35
ENDBRANCH  33  34
ENDBRANCH   1  33
TORSDOF 17
ENDMDL
MODEL 2
REMARK VINA RESULT:     -11.2      2.131      3.287
REMARK SMILES CCc1cccc(CC)c1N1/C(=[NH+]/C(=O)CCCC(=O)NCCCCNC(=O)c2ccc(-c3c4nc(c(-c5ccccc5)c5ccc([nH]5)c(-c5ccccc5)c5nc(c(-c6ccccc6)c6ccc3[nH]6)C=C5)C=C4)cc2)S[C@@H]2CS(=O)(=O)C[C@@H]21
REMARK SMILES IDX 22 1 21 2 19 3 20 4 18 6 17 7 16 8 14 9 11 10 12 11 84 12
REMARK SMILES IDX 13 13 77 14 78 15 83 16 79 18 80 19 15 20 81 21 82 22 10 23
REMARK SMILES IDX 3 24 4 25 5 26 7 27 6 28 2 29 1 30 8 31 9 32 23 33 24 34
REMARK SMILES IDX 25 35 26 36 27 37 28 39 29 40 30 41 76 42 31 43 75 44 32 45
REMARK SMILES IDX 33 46 34 47 69 48 35 49 74 50 68 51 70 52 36 53 73 54 67 55
REMARK SMILES IDX 66 56 37 58 59 59 44 60 58 61 45 62 48 63 57 64 71 65 46 66
REMARK SMILES IDX 47 67 56 69 72 70 49 71 38 72 39 73 43 74 40 75 42 76 41 77
REMARK SMILES IDX 60 78 61 79 65 80 62 81 64 82 63 83 50 84 51 85 55 86 52 87
REMARK SMILES IDX 54 88 53 89
REMARK H PARENT 21 5 13 17 26 38 70 57 48 68
REMARK Flexibility Score: inf
ROOT
ATOM      1  C   UNL A   1      35.348  21.125  24.630  1.00  0.00     0.116 C 
ENDROOT
BRANCH   1   2
ATOM      2  N   UNL A   1      34.221  21.563  25.417  1.00  0.00    -0.356 N 
ATOM      3  C   UNL A   1      32.956  21.852  25.005  1.00  0.00     0.220 C 
ATOM      4  O   UNL A   1      32.178  22.358  25.815  1.00  0.00    -0.275 OA
ATOM      5  H   UNL A   1      34.388  21.666  26.382  1.00  0.00     0.163 HD
BRANCH   3   6
ATOM      6  C   UNL A   1      32.508  21.496  23.600  1.00  0.00     0.100 C 
BRANCH   6   7
ATOM      7  C   UNL A   1      32.396  22.637  22.591  1.00  0.00     0.022 C 
BRANCH   7   8
ATOM      8  C   UNL A   1      33.581  23.600  22.475  1.00  0.00     0.128 C 
BRANCH   8   9
ATOM      9  C   UNL A   1      33.557  24.824  23.378  1.00  0.00     0.307 C 
ATOM     10  N   UNL A   1      31.513  27.813  23.701  1.00  0.00    -0.216 N 
ATOM     11  C   UNL A   1      32.508  26.891  23.375  1.00  0.00     0.319 C 
ATOM     12  C   UNL A   1      32.009  29.114  24.215  1.00  0.00     0.212 C 
ATOM     13  N   UNL A   1      32.423  25.604  23.313  1.00  0.00    -0.204 N 
ATOM     14  S   UNL A   1      34.024  27.797  23.132  1.00  0.00    -0.029 SA
ATOM     15  C   UNL A   1      33.528  28.961  24.425  1.00  0.00     0.120 C 
ATOM     16  C   UNL A   1      31.405  29.561  25.542  1.00  0.00     0.188 C 
ATOM     17  H   UNL A   1      31.541  25.178  23.218  1.00  0.00     0.316 HD
ATOM     18  C   UNL A   1      33.768  28.331  25.788  1.00  0.00     0.156 C 
ATOM     19  S   UNL A   1      32.529  29.056  26.822  1.00  0.00     0.155 S 
ATOM     20  O   UNL A   1      34.474  25.013  24.174  1.00  0.00    -0.247 OA
ATOM     21  O   UNL A   1      31.912  28.025  27.617  1.00  0.00    -0.229 OA
ATOM     22  O   UNL A   1      33.096  30.258  27.412  1.00  0.00    -0.229 OA
BRANCH  10  23
ATOM     23  C   UNL A   1      30.112  27.653  23.564  1.00  0.00     0.134 A 
ATOM     24  C   UNL A   1      29.407  26.653  24.293  1.00  0.00    -0.001 A 
ATOM     25  C   UNL A   1      27.994  26.642  24.281  1.00  0.00     0.008 A 
ATOM     26  C   UNL A   1      27.264  27.576  23.567  1.00  0.00     0.001 A 
ATOM     27  C   UNL A   1      29.345  28.587  22.793  1.00  0.00    -0.001 A 
ATOM     28  C   UNL A   1      27.934  28.542  22.836  1.00  0.00     0.008 A 
BRANCH  24  29
ATOM     29  C   UNL A   1      30.071  25.626  25.192  1.00  0.00     0.036 C 
ATOM     30  C   UNL A   1      29.235  25.296  26.427  1.00  0.00     0.009 C 
ENDBRANCH  24  29
BRANCH  27  31
ATOM     31  C   UNL A   1      29.968  29.698  21.962  1.00  0.00     0.036 C 
ATOM     32  C   UNL A   1      29.022  30.825  21.552  1.00  0.00     0.009 C 
ENDBRANCH  27  31
ENDBRANCH  10  23
ENDBRANCH   8   9
ENDBRANCH   7   8
ENDBRANCH   6   7
ENDBRANCH   3   6
ENDBRANCH   1   2
BRANCH   1  33
ATOM     33  C   UNL A   1      36.653  21.426  25.367  1.00  0.00     0.023 C 
BRANCH  33  34
ATOM     34  C   UNL A   1      37.789  20.485  24.997  1.00  0.00     0.023 C 
BRANCH  34  35
ATOM     35  C   UNL A   1      39.050  20.721  25.814  1.00  0.00     0.116 C 
BRANCH  35  36
ATOM     36  N   UNL A   1      39.968  19.588  25.813  1.00  0.00    -0.352 N 
ATOM     37  C   UNL A   1      41.296  19.574  26.165  1.00  0.00     0.251 C 
ATOM     38  H   UNL A   1      39.588  18.726  25.525  1.00  0.00     0.163 HD
ATOM     39  O   UNL A   1      41.979  18.566  26.034  1.00  0.00    -0.269 OA
BRANCH  37  40
ATOM     40  C   UNL A   1      41.894  20.825  26.665  1.00  0.00     0.039 A 
ATOM     41  C   UNL A   1      42.409  21.742  25.749  1.00  0.00     0.014 A 
ATOM     42  C   UNL A   1      41.821  21.133  28.026  1.00  0.00     0.014 A 
ATOM     43  C   UNL A   1      42.777  23.011  26.192  1.00  0.00     0.010 A 
ATOM     44  C   UNL A   1      42.095  22.427  28.445  1.00  0.00     0.010 A 
ATOM     45  C   UNL A   1      42.576  23.379  27.533  1.00  0.00    -0.014 A 
BRANCH  45  46
ATOM     46  C   UNL A   1      42.857  24.757  28.004  1.00  0.00     0.031 A 
ATOM     47  C   UNL A   1      44.268  25.162  28.330  1.00  0.00     0.074 A 
ATOM     48  C   UNL A   1      41.840  25.620  28.201  1.00  0.00     0.049 A 
ATOM     49  N   UNL A   1      44.712  26.300  28.801  1.00  0.00    -0.248 NA
ATOM     50  C   UNL A   1      45.317  24.146  28.133  1.00  0.00     0.031 C 
ATOM     51  C   UNL A   1      40.420  25.329  27.977  1.00  0.00     0.029 A 
ATOM     52  N   UNL A   1      41.845  26.920  28.638  1.00  0.00    -0.354 N 
ATOM     53  C   UNL A   1      46.077  26.127  28.976  1.00  0.00     0.074 A 
ATOM     54  C   UNL A   1      46.386  24.762  28.615  1.00  0.00     0.031 C 
ATOM     55  C   UNL A   1      39.699  26.431  28.243  1.00  0.00     0.029 A 
ATOM     56  C   UNL A   1      40.595  27.490  28.693  1.00  0.00     0.049 A 
ATOM     57  H   UNL A   1      42.667  27.400  28.890  1.00  0.00     0.167 HD
ATOM     58  C   UNL A   1      47.000  27.031  29.377  1.00  0.00     0.031 A 
ATOM     59  C   UNL A   1      40.216  28.727  29.062  1.00  0.00     0.031 A 
ATOM     60  C   UNL A   1      46.701  28.398  29.705  1.00  0.00     0.049 A 
ATOM     61  C   UNL A   1      41.266  29.715  29.494  1.00  0.00     0.074 A 
ATOM     62  C   UNL A   1      47.576  29.412  30.050  1.00  0.00     0.029 A 
ATOM     63  N   UNL A   1      45.426  28.941  29.727  1.00  0.00    -0.354 N 
ATOM     64  N   UNL A   1      42.565  29.560  29.571  1.00  0.00    -0.248 NA
ATOM     65  C   UNL A   1      40.795  31.053  29.878  1.00  0.00     0.031 C 
ATOM     66  C   UNL A   1      46.826  30.558  30.327  1.00  0.00     0.029 A 
ATOM     67  C   UNL A   1      45.489  30.271  30.103  1.00  0.00     0.049 A 
ATOM     68  H   UNL A   1      44.599  28.453  29.509  1.00  0.00     0.167 HD
ATOM     69  C   UNL A   1      43.068  30.787  29.982  1.00  0.00     0.074 A 
ATOM     70  C   UNL A   1      41.937  31.681  30.119  1.00  0.00     0.031 C 
ATOM     71  C   UNL A   1      44.352  31.144  30.228  1.00  0.00     0.031 A 
BRANCH  58  72
ATOM     72  C   UNL A   1      48.428  26.572  29.476  1.00  0.00    -0.014 A 
ATOM     73  C   UNL A   1      48.939  26.041  30.671  1.00  0.00     0.009 A 
ATOM     74  C   UNL A   1      49.259  26.628  28.347  1.00  0.00     0.009 A 
ATOM     75  C   UNL A   1      50.263  25.601  30.740  1.00  0.00     0.001 A 
ATOM     76  C   UNL A   1      50.572  26.161  28.411  1.00  0.00     0.001 A 
ATOM     77  C   UNL A   1      51.075  25.655  29.608  1.00  0.00     0.000 A 
ENDBRANCH  58  72
BRANCH  59  78
ATOM     78  C   UNL A   1      38.782  29.120  29.029  1.00  0.00    -0.014 A 
ATOM     79  C   UNL A   1      37.983  28.989  30.175  1.00  0.00     0.009 A 
ATOM     80  C   UNL A   1      38.196  29.593  27.845  1.00  0.00     0.009 A 
ATOM     81  C   UNL A   1      36.618  29.287  30.126  1.00  0.00     0.001 A 
ATOM     82  C   UNL A   1      36.839  29.920  27.807  1.00  0.00     0.001 A 
ATOM     83  C   UNL A   1      36.048  29.754  28.944  1.00  0.00     0.000 A 
ENDBRANCH  59  78
BRANCH  71  84
ATOM     84  C   UNL A   1      44.603  32.569  30.633  1.00  0.00    -0.014 A 
ATOM     85  C   UNL A   1      44.814  33.573  29.675  1.00  0.00     0.009 A 
ATOM     86  C   UNL A   1      44.590  32.914  31.994  1.00  0.00     0.009 A 
ATOM     87  C   UNL A   1      45.043  34.890  30.076  1.00  0.00     0.001 A 
ATOM     88  C   UNL A   1      44.789  34.237  32.389  1.00  0.00     0.001 A 
ATOM     89  C   UNL A   1      45.025  35.221  31.431  1.00  0.00     0.000 A 
ENDBRANCH  71  84
ENDBRANCH  45  46
ENDBRANCH  37  40
ENDBRANCH  35  36
ENDBRANCH  34  35
ENDBRANCH  33  34
ENDBRANCH   1  33
TORSDOF 17
ENDMDL
MODEL 3
REMARK VINA RESULT:     -10.6      2.203      6.528
REMARK SMILES CCc1cccc(CC)c1N1/C(=[NH+]/C(=O)CCCC(=O)NCCCCNC(=O)c2ccc(-c3c4nc(c(-c5ccccc5)c5ccc([nH]5)c(-c5ccccc5)c5nc(c(-c6ccccc6)c6ccc3[nH]6)C=C5)C=C4)cc2)S[C@@H]2CS(=O)(=O)C[C@@H]21
REMARK SMILES IDX 22 1 21 2 19 3 20 4 18 6 17 7 16 8 14 9 11 10 12 11 84 12
REMARK SMILES IDX 13 13 77 14 78 15 83 16 79 18 80 19 15 20 81 21 82 22 10 23
REMARK SMILES IDX 3 24 4 25 5 26 7 27 6 28 2 29 1 30 8 31 9 32 23 33 24 34
REMARK SMILES IDX 25 35 26 36 27 37 28 39 29 40 30 41 76 42 31 43 75 44 32 45
REMARK SMILES IDX 33 46 34 47 69 48 35 49 74 50 68 51 70 52 36 53 73 54 67 55
REMARK SMILES IDX 66 56 37 58 59 59 44 60 58 61 45 62 48 63 57 64 71 65 46 66
REMARK SMILES IDX 47 67 56 69 72 70 49 71 38 72 39 73 43 74 40 75 42 76 41 77
REMARK SMILES IDX 60 78 61 79 65 80 62 81 64 82 63 83 50 84 51 85 55 86 52 87
REMARK SMILES IDX 54 88 53 89
REMARK H PARENT 21 5 13 17 26 38 70 57 48 68
REMARK Flexibility Score: inf
ROOT
ATOM      1  C   UNL A   1      35.971  20.916  25.645  1.00  0.00     0.116 C 
ENDROOT
BRANCH   1   2
ATOM      2  N   UNL A   1      34.740  20.282  25.239  1.00  0.00    -0.356 N 
ATOM      3  C   UNL A   1      33.736  20.786  24.470  1.00  0.00     0.220 C 
ATOM      4  O   UNL A   1      32.697  20.134  24.365  1.00  0.00    -0.275 OA
ATOM      5  H   UNL A   1      34.609  19.360  25.560  1.00  0.00     0.163 HD
BRANCH   3   6
ATOM      6  C   UNL A   1      33.929  22.087  23.714  1.00  0.00     0.100 C 
BRANCH   6   7
ATOM      7  C   UNL A   1      32.920  22.414  22.615  1.00  0.00     0.022 C 
BRANCH   7   8
ATOM      8  C   UNL A   1      33.063  23.759  21.898  1.00  0.00     0.128 C 
BRANCH   8   9
ATOM      9  C   UNL A   1      33.232  24.988  22.777  1.00  0.00     0.307 C 
ATOM     10  N   UNL A   1      31.345  28.022  23.448  1.00  0.00    -0.216 N 
ATOM     11  C   UNL A   1      32.243  27.077  22.951  1.00  0.00     0.319 C 
ATOM     12  C   UNL A   1      31.954  29.315  23.847  1.00  0.00     0.212 C 
ATOM     13  N   UNL A   1      32.122  25.792  22.918  1.00  0.00    -0.204 N 
ATOM     14  S   UNL A   1      33.704  27.949  22.420  1.00  0.00    -0.029 SA
ATOM     15  C   UNL A   1      33.482  29.131  23.771  1.00  0.00     0.120 C 
ATOM     16  C   UNL A   1      31.618  29.783  25.260  1.00  0.00     0.188 C 
ATOM     17  H   UNL A   1      31.230  25.384  22.993  1.00  0.00     0.316 HD
ATOM     18  C   UNL A   1      33.960  28.503  25.072  1.00  0.00     0.156 C 
ATOM     19  S   UNL A   1      32.951  29.261  26.312  1.00  0.00     0.155 S 
ATOM     20  O   UNL A   1      34.285  25.162  23.386  1.00  0.00    -0.247 OA
ATOM     21  O   UNL A   1      32.473  28.248  27.218  1.00  0.00    -0.229 OA
ATOM     22  O   UNL A   1      33.642  30.454  26.773  1.00  0.00    -0.229 OA
BRANCH  10  23
ATOM     23  C   UNL A   1      29.940  27.891  23.576  1.00  0.00     0.134 A 
ATOM     24  C   UNL A   1      29.049  28.780  22.910  1.00  0.00    -0.001 A 
ATOM     25  C   UNL A   1      27.662  28.510  22.904  1.00  0.00     0.008 A 
ATOM     26  C   UNL A   1      27.134  27.400  23.541  1.00  0.00     0.001 A 
ATOM     27  C   UNL A   1      29.375  26.769  24.270  1.00  0.00    -0.001 A 
ATOM     28  C   UNL A   1      27.983  26.537  24.211  1.00  0.00     0.008 A 
BRANCH  24  29
ATOM     29  C   UNL A   1      29.495  29.980  22.096  1.00  0.00     0.036 C 
ATOM     30  C   UNL A   1      28.349  30.620  21.314  1.00  0.00     0.009 C 
ENDBRANCH  24  29
BRANCH  27  31
ATOM     31  C   UNL A   1      30.207  25.748  25.028  1.00  0.00     0.036 C 
ATOM     32  C   UNL A   1      30.078  25.791  26.550  1.00  0.00     0.009 C 
ENDBRANCH  27  31
ENDBRANCH  10  23
ENDBRANCH   8   9
ENDBRANCH   7   8
ENDBRANCH   6   7
ENDBRANCH   3   6
ENDBRANCH   1   2
BRANCH   1  33
ATOM     33  C   UNL A   1      37.028  20.764  24.551  1.00  0.00     0.023 C 
BRANCH  33  34
ATOM     34  C   UNL A   1      37.963  19.586  24.773  1.00  0.00     0.023 C 
BRANCH  34  35
ATOM     35  C   UNL A   1      38.907  19.786  25.949  1.00  0.00     0.116 C 
BRANCH  35  36
ATOM     36  N   UNL A   1      40.190  19.110  25.791  1.00  0.00    -0.352 N 
ATOM     37  C   UNL A   1      41.446  19.610  26.038  1.00  0.00     0.251 C 
ATOM     38  H   UNL A   1      40.150  18.181  25.468  1.00  0.00     0.163 HD
ATOM     39  O   UNL A   1      42.452  18.961  25.778  1.00  0.00    -0.269 OA
BRANCH  37  40
ATOM     40  C   UNL A   1      41.554  20.975  26.585  1.00  0.00     0.039 A 
ATOM     41  C   UNL A   1      41.562  21.150  27.969  1.00  0.00     0.014 A 
ATOM     42  C   UNL A   1      41.776  22.051  25.723  1.00  0.00     0.014 A 
ATOM     43  C   UNL A   1      41.878  22.403  28.493  1.00  0.00     0.010 A 
ATOM     44  C   UNL A   1      42.184  23.269  26.248  1.00  0.00     0.010 A 
ATOM     45  C   UNL A   1      42.240  23.458  27.638  1.00  0.00    -0.014 A 
BRANCH  45  46
ATOM     46  C   UNL A   1      42.685  24.766  28.175  1.00  0.00     0.031 A 
ATOM     47  C   UNL A   1      41.673  25.845  28.448  1.00  0.00     0.074 A 
ATOM     48  C   UNL A   1      43.999  25.006  28.354  1.00  0.00     0.049 A 
ATOM     49  N   UNL A   1      41.866  27.069  28.869  1.00  0.00    -0.248 NA
ATOM     50  C   UNL A   1      40.261  25.519  28.181  1.00  0.00     0.031 C 
ATOM     51  C   UNL A   1      45.084  24.062  28.070  1.00  0.00     0.029 A 
ATOM     52  N   UNL A   1      44.647  26.124  28.815  1.00  0.00    -0.354 N 
ATOM     53  C   UNL A   1      40.611  27.659  28.896  1.00  0.00     0.074 A 
ATOM     54  C   UNL A   1      39.668  26.684  28.397  1.00  0.00     0.031 C 
ATOM     55  C   UNL A   1      46.257  24.628  28.400  1.00  0.00     0.029 A 
ATOM     56  C   UNL A   1      46.013  25.984  28.878  1.00  0.00     0.049 A 
ATOM     57  H   UNL A   1      44.178  26.949  29.075  1.00  0.00     0.167 HD
ATOM     58  C   UNL A   1      40.267  28.896  29.322  1.00  0.00     0.031 A 
ATOM     59  C   UNL A   1      46.961  26.852  29.278  1.00  0.00     0.031 A 
ATOM     60  C   UNL A   1      41.197  29.856  29.849  1.00  0.00     0.049 A 
ATOM     61  C   UNL A   1      46.547  28.217  29.757  1.00  0.00     0.074 A 
ATOM     62  C   UNL A   1      40.937  31.108  30.375  1.00  0.00     0.029 A 
ATOM     63  N   UNL A   1      42.568  29.668  29.915  1.00  0.00    -0.354 N 
ATOM     64  N   UNL A   1      45.344  28.729  29.856  1.00  0.00    -0.248 NA
ATOM     65  C   UNL A   1      47.624  29.119  30.189  1.00  0.00     0.031 C 
ATOM     66  C   UNL A   1      42.157  31.698  30.718  1.00  0.00     0.029 A 
ATOM     67  C   UNL A   1      43.171  30.791  30.454  1.00  0.00     0.049 A 
ATOM     68  H   UNL A   1      43.043  28.857  29.623  1.00  0.00     0.167 HD
ATOM     69  C   UNL A   1      45.518  29.999  30.390  1.00  0.00     0.074 A 
ATOM     70  C   UNL A   1      46.939  30.172  30.612  1.00  0.00     0.031 C 
ATOM     71  C   UNL A   1      44.585  30.941  30.671  1.00  0.00     0.031 A 
BRANCH  58  72
ATOM     72  C   UNL A   1      38.816  29.281  29.243  1.00  0.00    -0.014 A 
ATOM     73  C   UNL A   1      37.958  29.110  30.342  1.00  0.00     0.009 A 
ATOM     74  C   UNL A   1      38.311  29.864  28.071  1.00  0.00     0.009 A 
ATOM     75  C   UNL A   1      36.617  29.490  30.257  1.00  0.00     0.001 A 
ATOM     76  C   UNL A   1      36.978  30.269  28.000  1.00  0.00     0.001 A 
ATOM     77  C   UNL A   1      36.131  30.076  29.090  1.00  0.00     0.000 A 
ENDBRANCH  58  72
BRANCH  59  78
ATOM     78  C   UNL A   1      48.396  26.463  29.265  1.00  0.00    -0.014 A 
ATOM     79  C   UNL A   1      48.965  25.805  30.366  1.00  0.00     0.009 A 
ATOM     80  C   UNL A   1      49.213  26.777  28.168  1.00  0.00     0.009 A 
ATOM     81  C   UNL A   1      50.330  25.504  30.386  1.00  0.00     0.001 A 
ATOM     82  C   UNL A   1      50.570  26.447  28.178  1.00  0.00     0.001 A 
ATOM     83  C   UNL A   1      51.130  25.823  29.292  1.00  0.00     0.000 A 
ENDBRANCH  59  78
BRANCH  71  84
ATOM     84  C   UNL A   1      45.069  32.226  31.281  1.00  0.00    -0.014 A 
ATOM     85  C   UNL A   1      45.431  33.321  30.482  1.00  0.00     0.009 A 
ATOM     86  C   UNL A   1      45.128  32.350  32.678  1.00  0.00     0.009 A 
ATOM     87  C   UNL A   1      45.876  34.505  31.072  1.00  0.00     0.001 A 
ATOM     88  C   UNL A   1      45.544  33.545  33.264  1.00  0.00     0.001 A 
ATOM     89  C   UNL A   1      45.928  34.618  32.461  1.00  0.00     0.000 A 
ENDBRANCH  71  84
ENDBRANCH  45  46
ENDBRANCH  37  40
ENDBRANCH  35  36
ENDBRANCH  34  35
ENDBRANCH  33  34
ENDBRANCH   1  33
TORSDOF 17
ENDMDL
