MODEL 1
REMARK VINA RESULT:     -11.9      0.000      0.000
REMARK SMILES COC(=O)c1ccc([C@H]2CC(=O)Nc3c(C(=O)NCCCCNC(=O)c4ccc(-c5c6nc(c(-c7ccccc7)c7ccc([nH]7)c(-c7ccccc7)c7nc(c(-c8ccccc8)c8ccc5[nH]8)C=C7)C=C6)cc4)cn(-c4ccccc4)c32)cc1
REMARK SMILES IDX 20 1 19 2 18 3 16 4 17 5 15 7 9 8 10 9 82 10 11 11 14 12
REMARK SMILES IDX 75 13 12 14 13 15 74 16 8 18 5 19 6 20 84 21 7 22 83 23 3 24
REMARK SMILES IDX 4 25 2 26 1 27 76 28 77 29 81 30 78 31 80 32 79 33 21 34
REMARK SMILES IDX 22 35 23 36 24 37 25 39 26 40 27 41 73 42 28 43 72 44 29 45
REMARK SMILES IDX 30 46 31 47 66 48 32 49 71 50 65 51 67 52 33 53 70 54 64 55
REMARK SMILES IDX 63 56 34 58 56 59 41 60 55 61 42 62 45 63 54 64 68 65 43 66
REMARK SMILES IDX 44 67 53 69 69 70 46 71 35 72 36 73 40 74 37 75 39 76 38 77
REMARK SMILES IDX 57 78 58 79 62 80 59 81 61 82 60 83 47 84 48 85 52 86 49 87
REMARK SMILES IDX 51 88 50 89
REMARK H PARENT 18 6 13 17 23 38 67 57 45 68
REMARK Flexibility Score: inf
ROOT
ATOM      1  C   UNL A   1      35.131  30.196  27.644  1.00  0.00     0.023 C 
ENDROOT
BRANCH   1   2
ATOM      2  C   UNL A   1      34.148  29.509  26.684  1.00  0.00     0.116 C 
BRANCH   2   3
ATOM      3  N   UNL A   1      32.992  28.988  27.367  1.00  0.00    -0.352 N 
ATOM      4  C   UNL A   1      32.240  27.851  27.250  1.00  0.00     0.254 C 
ATOM      5  O   UNL A   1      31.355  27.750  28.109  1.00  0.00    -0.269 OA
ATOM      6  H   UNL A   1      32.669  29.586  28.080  1.00  0.00     0.163 HD
BRANCH   4   7
ATOM      7  C   UNL A   1      32.392  26.802  26.226  1.00  0.00     0.081 A 
ATOM      8  C   UNL A   1      31.793  24.136  23.654  1.00  0.00     0.078 C 
ATOM      9  C   UNL A   1      30.270  24.267  23.519  1.00  0.00     0.115 C 
ATOM     10  C   UNL A   1      32.336  25.142  24.642  1.00  0.00     0.055 A 
ATOM     11  C   UNL A   1      29.725  25.643  23.777  1.00  0.00     0.225 C 
ATOM     12  C   UNL A   1      31.609  26.176  25.204  1.00  0.00     0.076 A 
ATOM     13  N   UNL A   1      33.626  25.211  25.135  1.00  0.00    -0.317 N 
ATOM     14  O   UNL A   1      28.675  26.034  23.269  1.00  0.00    -0.275 OA
ATOM     15  N   UNL A   1      30.352  26.413  24.710  1.00  0.00    -0.324 N 
ATOM     16  C   UNL A   1      33.612  26.121  26.164  1.00  0.00     0.107 A 
ATOM     17  H   UNL A   1      29.866  27.197  25.056  1.00  0.00     0.170 HD
BRANCH   8  18
ATOM     18  C   UNL A   1      32.077  22.659  23.947  1.00  0.00    -0.038 A 
ATOM     19  C   UNL A   1      32.482  19.937  24.579  1.00  0.00     0.060 A 
ATOM     20  C   UNL A   1      32.170  20.856  25.586  1.00  0.00     0.016 A 
ATOM     21  C   UNL A   1      32.652  20.389  23.268  1.00  0.00     0.016 A 
ATOM     22  C   UNL A   1      31.957  22.199  25.271  1.00  0.00     0.005 A 
ATOM     23  C   UNL A   1      32.493  21.744  22.967  1.00  0.00     0.005 A 
BRANCH  19  24
ATOM     24  C   UNL A   1      32.587  18.501  24.945  1.00  0.00     0.337 C 
ATOM     25  O   UNL A   1      32.334  18.068  26.056  1.00  0.00    -0.246 OA
BRANCH  24  26
ATOM     26  O   UNL A   1      32.984  17.767  23.875  1.00  0.00    -0.465 OA
ATOM     27  C   UNL A   1      33.364  16.429  24.199  1.00  0.00     0.282 C 
ENDBRANCH  24  26
ENDBRANCH  19  24
ENDBRANCH   8  18
BRANCH  13  28
ATOM     28  C   UNL A   1      34.738  24.412  24.765  1.00  0.00     0.045 A 
ATOM     29  C   UNL A   1      35.062  24.239  23.416  1.00  0.00     0.026 A 
ATOM     30  C   UNL A   1      35.423  23.697  25.755  1.00  0.00     0.026 A 
ATOM     31  C   UNL A   1      36.018  23.293  23.051  1.00  0.00     0.002 A 
ATOM     32  C   UNL A   1      36.354  22.727  25.378  1.00  0.00     0.002 A 
ATOM     33  C   UNL A   1      36.641  22.518  24.029  1.00  0.00     0.000 A 
ENDBRANCH  13  28
ENDBRANCH   4   7
ENDBRANCH   2   3
ENDBRANCH   1   2
BRANCH   1  34
ATOM     34  C   UNL A   1      35.000  31.726  27.712  1.00  0.00     0.023 C 
BRANCH  34  35
ATOM     35  C   UNL A   1      36.076  32.416  28.549  1.00  0.00     0.116 C 
BRANCH  35  36
ATOM     36  N   UNL A   1      35.618  32.821  29.884  1.00  0.00    -0.352 N 
ATOM     37  C   UNL A   1      35.719  32.102  31.071  1.00  0.00     0.251 C 
ATOM     38  H   UNL A   1      35.191  33.706  29.948  1.00  0.00     0.163 HD
ATOM     39  O   UNL A   1      34.981  32.297  32.017  1.00  0.00    -0.269 OA
BRANCH  37  40
ATOM     40  C   UNL A   1      36.805  31.113  31.157  1.00  0.00     0.039 A 
ATOM     41  C   UNL A   1      36.623  29.743  30.941  1.00  0.00     0.014 A 
ATOM     42  C   UNL A   1      38.067  31.652  31.363  1.00  0.00     0.014 A 
ATOM     43  C   UNL A   1      37.753  28.928  30.868  1.00  0.00     0.010 A 
ATOM     44  C   UNL A   1      39.156  30.907  31.034  1.00  0.00     0.010 A 
ATOM     45  C   UNL A   1      39.018  29.530  30.911  1.00  0.00    -0.014 A 
BRANCH  45  46
ATOM     46  C   UNL A   1      40.264  28.789  30.799  1.00  0.00     0.031 A 
ATOM     47  C   UNL A   1      41.027  28.617  32.062  1.00  0.00     0.074 A 
ATOM     48  C   UNL A   1      40.530  28.062  29.689  1.00  0.00     0.049 A 
ATOM     49  N   UNL A   1      42.199  29.080  32.338  1.00  0.00    -0.248 NA
ATOM     50  C   UNL A   1      40.377  27.933  33.192  1.00  0.00     0.031 C 
ATOM     51  C   UNL A   1      39.688  27.854  28.497  1.00  0.00     0.029 A 
ATOM     52  N   UNL A   1      41.563  27.217  29.458  1.00  0.00    -0.354 N 
ATOM     53  C   UNL A   1      42.521  28.603  33.605  1.00  0.00     0.074 A 
ATOM     54  C   UNL A   1      41.306  28.046  34.145  1.00  0.00     0.031 C 
ATOM     55  C   UNL A   1      40.113  26.762  27.823  1.00  0.00     0.029 A 
ATOM     56  C   UNL A   1      41.359  26.320  28.416  1.00  0.00     0.049 A 
ATOM     57  H   UNL A   1      42.394  27.237  29.986  1.00  0.00     0.167 HD
ATOM     58  C   UNL A   1      43.815  28.497  34.017  1.00  0.00     0.031 A 
ATOM     59  C   UNL A   1      42.153  25.272  28.087  1.00  0.00     0.031 A 
ATOM     60  C   UNL A   1      44.714  29.170  33.115  1.00  0.00     0.049 A 
ATOM     61  C   UNL A   1      43.475  25.524  28.709  1.00  0.00     0.074 A 
ATOM     62  C   UNL A   1      44.876  30.476  32.699  1.00  0.00     0.029 A 
ATOM     63  N   UNL A   1      45.346  28.390  32.175  1.00  0.00    -0.354 N 
ATOM     64  N   UNL A   1      44.245  26.517  28.362  1.00  0.00    -0.248 NA
ATOM     65  C   UNL A   1      43.713  24.984  30.038  1.00  0.00     0.031 C 
ATOM     66  C   UNL A   1      45.140  30.377  31.300  1.00  0.00     0.029 A 
ATOM     67  C   UNL A   1      45.210  29.022  30.966  1.00  0.00     0.049 A 
ATOM     68  H   UNL A   1      45.811  27.538  32.339  1.00  0.00     0.167 HD
ATOM     69  C   UNL A   1      44.743  27.013  29.560  1.00  0.00     0.074 A 
ATOM     70  C   UNL A   1      44.455  25.972  30.549  1.00  0.00     0.031 C 
ATOM     71  C   UNL A   1      45.071  28.332  29.700  1.00  0.00     0.031 A 
BRANCH  58  72
ATOM     72  C   UNL A   1      44.320  27.468  34.994  1.00  0.00    -0.014 A 
ATOM     73  C   UNL A   1      44.185  27.724  36.371  1.00  0.00     0.009 A 
ATOM     74  C   UNL A   1      45.166  26.407  34.624  1.00  0.00     0.009 A 
ATOM     75  C   UNL A   1      44.921  27.005  37.321  1.00  0.00     0.001 A 
ATOM     76  C   UNL A   1      45.870  25.661  35.573  1.00  0.00     0.001 A 
ATOM     77  C   UNL A   1      45.769  25.979  36.920  1.00  0.00     0.000 A 
ENDBRANCH  58  72
BRANCH  59  78
ATOM     78  C   UNL A   1      41.753  23.950  27.561  1.00  0.00    -0.014 A 
ATOM     79  C   UNL A   1      40.415  23.530  27.593  1.00  0.00     0.009 A 
ATOM     80  C   UNL A   1      42.652  23.207  26.771  1.00  0.00     0.009 A 
ATOM     81  C   UNL A   1      39.985  22.432  26.833  1.00  0.00     0.001 A 
ATOM     82  C   UNL A   1      42.223  22.114  26.009  1.00  0.00     0.001 A 
ATOM     83  C   UNL A   1      40.886  21.735  26.029  1.00  0.00     0.000 A 
ENDBRANCH  59  78
BRANCH  71  84
ATOM     84  C   UNL A   1      45.047  29.206  28.469  1.00  0.00    -0.014 A 
ATOM     85  C   UNL A   1      43.883  29.840  27.994  1.00  0.00     0.009 A 
ATOM     86  C   UNL A   1      46.272  29.548  27.879  1.00  0.00     0.009 A 
ATOM     87  C   UNL A   1      43.945  30.770  26.949  1.00  0.00     0.001 A 
ATOM     88  C   UNL A   1      46.336  30.488  26.848  1.00  0.00     0.001 A 
ATOM     89  C   UNL A   1      45.173  31.097  26.380  1.00  0.00     0.000 A 
ENDBRANCH  71  84
ENDBRANCH  45  46
ENDBRANCH  37  40
ENDBRANCH  35  36
ENDBRANCH  34  35
ENDBRANCH   1  34
TORSDOF 15
ENDMDL
MODEL 2
REMARK VINA RESULT:     -11.6      5.561     11.394
REMARK SMILES COC(=O)c1ccc([C@H]2CC(=O)Nc3c(C(=O)NCCCCNC(=O)c4ccc(-c5c6nc(c(-c7ccccc7)c7ccc([nH]7)c(-c7ccccc7)c7nc(c(-c8ccccc8)c8ccc5[nH]8)C=C7)C=C6)cc4)cn(-c4ccccc4)c32)cc1
REMARK SMILES IDX 20 1 19 2 18 3 16 4 17 5 15 7 9 8 10 9 82 10 11 11 14 12
REMARK SMILES IDX 75 13 12 14 13 15 74 16 8 18 5 19 6 20 84 21 7 22 83 23 3 24
REMARK SMILES IDX 4 25 2 26 1 27 76 28 77 29 81 30 78 31 80 32 79 33 21 34
REMARK SMILES IDX 22 35 23 36 24 37 25 39 26 40 27 41 73 42 28 43 72 44 29 45
REMARK SMILES IDX 30 46 31 47 66 48 32 49 71 50 65 51 67 52 33 53 70 54 64 55
REMARK SMILES IDX 63 56 34 58 56 59 41 60 55 61 42 62 45 63 54 64 68 65 43 66
REMARK SMILES IDX 44 67 53 69 69 70 46 71 35 72 36 73 40 74 37 75 39 76 38 77
REMARK SMILES IDX 57 78 58 79 62 80 59 81 61 82 60 83 47 84 48 85 52 86 49 87
REMARK SMILES IDX 51 88 50 89
REMARK H PARENT 18 6 13 17 23 38 67 57 45 68
REMARK Flexibility Score: inf
ROOT
ATOM      1  C   UNL A   1      40.538  21.648  26.543  1.00  0.00     0.023 C 
ENDROOT
BRANCH   1   2
ATOM      2  C   UNL A   1      41.978  21.278  26.925  1.00  0.00     0.116 C 
BRANCH   2   3
ATOM      3  N   UNL A   1      42.823  21.111  25.770  1.00  0.00    -0.352 N 
ATOM      4  C   UNL A   1      44.011  21.657  25.363  1.00  0.00     0.254 C 
ATOM      5  O   UNL A   1      44.448  21.168  24.314  1.00  0.00    -0.269 OA
ATOM      6  H   UNL A   1      42.465  20.458  25.126  1.00  0.00     0.163 HD
BRANCH   4   7
ATOM      7  C   UNL A   1      44.759  22.731  26.041  1.00  0.00     0.081 A 
ATOM      8  C   UNL A   1      45.902  25.424  28.392  1.00  0.00     0.078 C 
ATOM      9  C   UNL A   1      44.855  25.239  29.499  1.00  0.00     0.115 C 
ATOM     10  C   UNL A   1      45.696  24.419  27.281  1.00  0.00     0.055 A 
ATOM     11  C   UNL A   1      44.333  23.838  29.652  1.00  0.00     0.225 C 
ATOM     12  C   UNL A   1      44.822  23.347  27.331  1.00  0.00     0.076 A 
ATOM     13  N   UNL A   1      46.339  24.387  26.058  1.00  0.00    -0.317 N 
ATOM     14  O   UNL A   1      43.898  23.419  30.724  1.00  0.00    -0.275 OA
ATOM     15  N   UNL A   1      44.217  23.074  28.530  1.00  0.00    -0.324 N 
ATOM     16  C   UNL A   1      45.686  23.458  25.287  1.00  0.00     0.107 A 
ATOM     17  H   UNL A   1      43.656  22.265  28.585  1.00  0.00     0.170 HD
BRANCH   8  18
ATOM     18  C   UNL A   1      45.861  26.904  27.998  1.00  0.00    -0.038 A 
ATOM     19  C   UNL A   1      45.936  29.625  27.247  1.00  0.00     0.060 A 
ATOM     20  C   UNL A   1      46.915  29.100  28.097  1.00  0.00     0.016 A 
ATOM     21  C   UNL A   1      44.886  28.805  26.825  1.00  0.00     0.016 A 
ATOM     22  C   UNL A   1      46.885  27.751  28.456  1.00  0.00     0.005 A 
ATOM     23  C   UNL A   1      44.830  27.471  27.232  1.00  0.00     0.005 A 
BRANCH  19  24
ATOM     24  C   UNL A   1      46.073  31.035  26.802  1.00  0.00     0.337 C 
ATOM     25  O   UNL A   1      45.628  31.455  25.748  1.00  0.00    -0.246 OA
BRANCH  24  26
ATOM     26  O   UNL A   1      46.740  31.764  27.732  1.00  0.00    -0.465 OA
ATOM     27  C   UNL A   1      47.813  32.540  27.199  1.00  0.00     0.282 C 
ENDBRANCH  24  26
ENDBRANCH  19  24
ENDBRANCH   8  18
BRANCH  13  28
ATOM     28  C   UNL A   1      47.384  25.234  25.608  1.00  0.00     0.045 A 
ATOM     29  C   UNL A   1      48.657  25.147  26.181  1.00  0.00     0.026 A 
ATOM     30  C   UNL A   1      47.094  26.241  24.679  1.00  0.00     0.026 A 
ATOM     31  C   UNL A   1      49.615  26.115  25.885  1.00  0.00     0.002 A 
ATOM     32  C   UNL A   1      48.048  27.226  24.416  1.00  0.00     0.002 A 
ATOM     33  C   UNL A   1      49.301  27.169  25.027  1.00  0.00     0.000 A 
ENDBRANCH  13  28
ENDBRANCH   4   7
ENDBRANCH   2   3
ENDBRANCH   1   2
BRANCH   1  34
ATOM     34  C   UNL A   1      39.938  22.814  27.347  1.00  0.00     0.023 C 
BRANCH  34  35
ATOM     35  C   UNL A   1      39.794  24.116  26.562  1.00  0.00     0.116 C 
BRANCH  35  36
ATOM     36  N   UNL A   1      41.000  24.493  25.814  1.00  0.00    -0.352 N 
ATOM     37  C   UNL A   1      41.600  25.746  25.744  1.00  0.00     0.251 C 
ATOM     38  H   UNL A   1      41.435  23.774  25.301  1.00  0.00     0.163 HD
ATOM     39  O   UNL A   1      42.314  26.078  24.819  1.00  0.00    -0.269 OA
BRANCH  37  40
ATOM     40  C   UNL A   1      41.372  26.653  26.881  1.00  0.00     0.039 A 
ATOM     41  C   UNL A   1      41.596  26.294  28.214  1.00  0.00     0.014 A 
ATOM     42  C   UNL A   1      41.016  27.948  26.529  1.00  0.00     0.014 A 
ATOM     43  C   UNL A   1      41.521  27.289  29.189  1.00  0.00     0.010 A 
ATOM     44  C   UNL A   1      41.201  28.943  27.437  1.00  0.00     0.010 A 
ATOM     45  C   UNL A   1      41.328  28.616  28.781  1.00  0.00    -0.014 A 
BRANCH  45  46
ATOM     46  C   UNL A   1      41.278  29.740  29.701  1.00  0.00     0.031 A 
ATOM     47  C   UNL A   1      39.919  30.186  30.102  1.00  0.00     0.074 A 
ATOM     48  C   UNL A   1      42.392  30.131  30.364  1.00  0.00     0.049 A 
ATOM     49  N   UNL A   1      39.366  31.326  29.859  1.00  0.00    -0.248 NA
ATOM     50  C   UNL A   1      39.027  29.221  30.765  1.00  0.00     0.031 C 
ATOM     51  C   UNL A   1      43.742  29.541  30.330  1.00  0.00     0.029 A 
ATOM     52  N   UNL A   1      42.512  31.061  31.341  1.00  0.00    -0.354 N 
ATOM     53  C   UNL A   1      38.125  31.301  30.488  1.00  0.00     0.074 A 
ATOM     54  C   UNL A   1      37.903  29.933  30.886  1.00  0.00     0.031 C 
ATOM     55  C   UNL A   1      44.442  29.941  31.415  1.00  0.00     0.029 A 
ATOM     56  C   UNL A   1      43.672  30.959  32.101  1.00  0.00     0.049 A 
ATOM     57  H   UNL A   1      41.832  31.754  31.501  1.00  0.00     0.167 HD
ATOM     58  C   UNL A   1      37.481  32.449  30.837  1.00  0.00     0.031 A 
ATOM     59  C   UNL A   1      43.958  31.649  33.232  1.00  0.00     0.031 A 
ATOM     60  C   UNL A   1      38.103  33.605  30.243  1.00  0.00     0.049 A 
ATOM     61  C   UNL A   1      43.063  32.831  33.251  1.00  0.00     0.074 A 
ATOM     62  C   UNL A   1      38.324  34.034  28.950  1.00  0.00     0.029 A 
ATOM     63  N   UNL A   1      38.986  34.307  31.032  1.00  0.00    -0.354 N 
ATOM     64  N   UNL A   1      43.132  33.789  32.370  1.00  0.00    -0.248 NA
ATOM     65  C   UNL A   1      41.785  32.703  33.934  1.00  0.00     0.031 C 
ATOM     66  C   UNL A   1      39.645  34.572  28.971  1.00  0.00     0.029 A 
ATOM     67  C   UNL A   1      40.116  34.520  30.285  1.00  0.00     0.049 A 
ATOM     68  H   UNL A   1      38.834  34.601  31.958  1.00  0.00     0.167 HD
ATOM     69  C   UNL A   1      41.811  34.086  32.065  1.00  0.00     0.074 A 
ATOM     70  C   UNL A   1      41.027  33.451  33.126  1.00  0.00     0.031 C 
ATOM     71  C   UNL A   1      41.455  34.558  30.833  1.00  0.00     0.031 A 
BRANCH  58  72
ATOM     72  C   UNL A   1      36.552  32.586  32.014  1.00  0.00    -0.014 A 
ATOM     73  C   UNL A   1      35.168  32.670  31.772  1.00  0.00     0.009 A 
ATOM     74  C   UNL A   1      36.992  32.918  33.308  1.00  0.00     0.009 A 
ATOM     75  C   UNL A   1      34.284  33.136  32.753  1.00  0.00     0.001 A 
ATOM     76  C   UNL A   1      36.107  33.346  34.300  1.00  0.00     0.001 A 
ATOM     77  C   UNL A   1      34.756  33.482  34.014  1.00  0.00     0.000 A 
ENDBRANCH  58  72
BRANCH  59  78
ATOM     78  C   UNL A   1      44.703  31.189  34.423  1.00  0.00    -0.014 A 
ATOM     79  C   UNL A   1      45.542  32.059  35.134  1.00  0.00     0.009 A 
ATOM     80  C   UNL A   1      44.374  29.959  35.026  1.00  0.00     0.009 A 
ATOM     81  C   UNL A   1      46.003  31.727  36.418  1.00  0.00     0.001 A 
ATOM     82  C   UNL A   1      44.831  29.629  36.307  1.00  0.00     0.001 A 
ATOM     83  C   UNL A   1      45.634  30.520  37.010  1.00  0.00     0.000 A 
ENDBRANCH  59  78
BRANCH  71  84
ATOM     84  C   UNL A   1      42.557  34.919  29.864  1.00  0.00    -0.014 A 
ATOM     85  C   UNL A   1      43.165  36.188  29.826  1.00  0.00     0.009 A 
ATOM     86  C   UNL A   1      43.121  33.892  29.095  1.00  0.00     0.009 A 
ATOM     87  C   UNL A   1      44.292  36.422  29.027  1.00  0.00     0.001 A 
ATOM     88  C   UNL A   1      44.255  34.121  28.311  1.00  0.00     0.001 A 
ATOM     89  C   UNL A   1      44.838  35.386  28.274  1.00  0.00     0.000 A 
ENDBRANCH  71  84
ENDBRANCH  45  46
ENDBRANCH  37  40
ENDBRANCH  35  36
ENDBRANCH  34  35
ENDBRANCH   1  34
TORSDOF 15
ENDMDL
MODEL 3
REMARK VINA RESULT:     -11.5     10.793     17.131
REMARK SMILES COC(=O)c1ccc([C@H]2CC(=O)Nc3c(C(=O)NCCCCNC(=O)c4ccc(-c5c6nc(c(-c7ccccc7)c7ccc([nH]7)c(-c7ccccc7)c7nc(c(-c8ccccc8)c8ccc5[nH]8)C=C7)C=C6)cc4)cn(-c4ccccc4)c32)cc1
REMARK SMILES IDX 20 1 19 2 18 3 16 4 17 5 15 7 9 8 10 9 82 10 11 11 14 12
REMARK SMILES IDX 75 13 12 14 13 15 74 16 8 18 5 19 6 20 84 21 7 22 83 23 3 24
REMARK SMILES IDX 4 25 2 26 1 27 76 28 77 29 81 30 78 31 80 32 79 33 21 34
REMARK SMILES IDX 22 35 23 36 24 37 25 39 26 40 27 41 73 42 28 43 72 44 29 45
REMARK SMILES IDX 30 46 31 47 66 48 32 49 71 50 65 51 67 52 33 53 70 54 64 55
REMARK SMILES IDX 63 56 34 58 56 59 41 60 55 61 42 62 45 63 54 64 68 65 43 66
REMARK SMILES IDX 44 67 53 69 69 70 46 71 35 72 36 73 40 74 37 75 39 76 38 77
REMARK SMILES IDX 57 78 58 79 62 80 59 81 61 82 60 83 47 84 48 85 52 86 49 87
REMARK SMILES IDX 51 88 50 89
REMARK H PARENT 18 6 13 17 23 38 67 57 45 68
REMARK Flexibility Score: inf
ROOT
ATOM      1  C   UNL A   1      43.221  41.011  26.395  1.00  0.00     0.023 C 
ENDROOT
BRANCH   1   2
ATOM      2  C   UNL A   1      43.378  41.657  25.011  1.00  0.00     0.116 C 
BRANCH   2   3
ATOM      3  N   UNL A   1      42.111  42.039  24.441  1.00  0.00    -0.352 N 
ATOM      4  C   UNL A   1      41.724  42.610  23.258  1.00  0.00     0.254 C 
ATOM      5  O   UNL A   1      40.497  42.699  23.128  1.00  0.00    -0.269 OA
ATOM      6  H   UNL A   1      41.351  41.848  25.037  1.00  0.00     0.163 HD
BRANCH   4   7
ATOM      7  C   UNL A   1      42.614  43.108  22.194  1.00  0.00     0.081 A 
ATOM      8  C   UNL A   1      45.500  44.498  20.239  1.00  0.00     0.078 C 
ATOM      9  C   UNL A   1      46.564  44.497  21.345  1.00  0.00     0.115 C 
ATOM     10  C   UNL A   1      44.189  43.945  20.750  1.00  0.00     0.055 A 
ATOM     11  C   UNL A   1      46.396  43.428  22.387  1.00  0.00     0.225 C 
ATOM     12  C   UNL A   1      44.010  43.332  21.978  1.00  0.00     0.076 A 
ATOM     13  N   UNL A   1      42.974  43.942  20.092  1.00  0.00    -0.317 N 
ATOM     14  O   UNL A   1      47.351  42.982  23.023  1.00  0.00    -0.275 OA
ATOM     15  N   UNL A   1      45.129  43.055  22.721  1.00  0.00    -0.324 N 
ATOM     16  C   UNL A   1      42.025  43.556  21.007  1.00  0.00     0.107 A 
ATOM     17  H   UNL A   1      45.008  42.549  23.558  1.00  0.00     0.170 HD
BRANCH   8  18
ATOM     18  C   UNL A   1      45.471  45.919  19.665  1.00  0.00    -0.038 A 
ATOM     19  C   UNL A   1      45.491  48.583  18.731  1.00  0.00     0.060 A 
ATOM     20  C   UNL A   1      45.178  48.306  20.066  1.00  0.00     0.016 A 
ATOM     21  C   UNL A   1      45.732  47.525  17.851  1.00  0.00     0.016 A 
ATOM     22  C   UNL A   1      45.181  46.989  20.530  1.00  0.00     0.005 A 
ATOM     23  C   UNL A   1      45.679  46.207  18.307  1.00  0.00     0.005 A 
BRANCH  19  24
ATOM     24  C   UNL A   1      45.585  50.005  18.312  1.00  0.00     0.337 C 
ATOM     25  O   UNL A   1      44.628  50.756  18.257  1.00  0.00    -0.246 OA
BRANCH  24  26
ATOM     26  O   UNL A   1      46.870  50.330  18.022  1.00  0.00    -0.465 OA
ATOM     27  C   UNL A   1      47.580  50.915  19.114  1.00  0.00     0.282 C 
ENDBRANCH  24  26
ENDBRANCH  19  24
ENDBRANCH   8  18
BRANCH  13  28
ATOM     28  C   UNL A   1      42.705  44.379  18.770  1.00  0.00     0.045 A 
ATOM     29  C   UNL A   1      43.241  43.690  17.678  1.00  0.00     0.026 A 
ATOM     30  C   UNL A   1      42.009  45.579  18.577  1.00  0.00     0.026 A 
ATOM     31  C   UNL A   1      43.149  44.240  16.401  1.00  0.00     0.002 A 
ATOM     32  C   UNL A   1      41.952  46.140  17.299  1.00  0.00     0.002 A 
ATOM     33  C   UNL A   1      42.531  45.477  16.217  1.00  0.00     0.000 A 
ENDBRANCH  13  28
ENDBRANCH   4   7
ENDBRANCH   2   3
ENDBRANCH   1   2
BRANCH   1  34
ATOM     34  C   UNL A   1      44.194  39.855  26.680  1.00  0.00     0.023 C 
BRANCH  34  35
ATOM     35  C   UNL A   1      43.518  38.516  26.966  1.00  0.00     0.116 C 
BRANCH  35  36
ATOM     36  N   UNL A   1      44.333  37.350  26.599  1.00  0.00    -0.352 N 
ATOM     37  C   UNL A   1      44.524  36.182  27.330  1.00  0.00     0.251 C 
ATOM     38  H   UNL A   1      44.800  37.402  25.734  1.00  0.00     0.163 HD
ATOM     39  O   UNL A   1      45.496  35.469  27.179  1.00  0.00    -0.269 OA
BRANCH  37  40
ATOM     40  C   UNL A   1      43.458  35.811  28.274  1.00  0.00     0.039 A 
ATOM     41  C   UNL A   1      42.111  36.140  28.089  1.00  0.00     0.014 A 
ATOM     42  C   UNL A   1      43.868  35.004  29.327  1.00  0.00     0.014 A 
ATOM     43  C   UNL A   1      41.168  35.580  28.952  1.00  0.00     0.010 A 
ATOM     44  C   UNL A   1      42.934  34.269  29.987  1.00  0.00     0.010 A 
ATOM     45  C   UNL A   1      41.598  34.637  29.896  1.00  0.00    -0.014 A 
BRANCH  45  46
ATOM     46  C   UNL A   1      40.702  33.956  30.816  1.00  0.00     0.031 A 
ATOM     47  C   UNL A   1      41.176  33.854  32.220  1.00  0.00     0.074 A 
ATOM     48  C   UNL A   1      39.416  33.718  30.468  1.00  0.00     0.049 A 
ATOM     49  N   UNL A   1      41.455  32.779  32.876  1.00  0.00    -0.248 NA
ATOM     50  C   UNL A   1      41.470  35.094  32.958  1.00  0.00     0.031 C 
ATOM     51  C   UNL A   1      38.710  34.092  29.228  1.00  0.00     0.029 A 
ATOM     52  N   UNL A   1      38.413  33.217  31.226  1.00  0.00    -0.354 N 
ATOM     53  C   UNL A   1      41.788  33.182  34.166  1.00  0.00     0.074 A 
ATOM     54  C   UNL A   1      41.940  34.614  34.113  1.00  0.00     0.031 C 
ATOM     55  C   UNL A   1      37.375  34.051  29.435  1.00  0.00     0.029 A 
ATOM     56  C   UNL A   1      37.135  33.463  30.737  1.00  0.00     0.049 A 
ATOM     57  H   UNL A   1      38.575  32.718  32.060  1.00  0.00     0.167 HD
ATOM     58  C   UNL A   1      41.687  32.331  35.225  1.00  0.00     0.031 A 
ATOM     59  C   UNL A   1      35.966  33.221  31.378  1.00  0.00     0.031 A 
ATOM     60  C   UNL A   1      41.471  30.974  34.794  1.00  0.00     0.049 A 
ATOM     61  C   UNL A   1      36.261  32.245  32.454  1.00  0.00     0.074 A 
ATOM     62  C   UNL A   1      42.190  30.068  34.040  1.00  0.00     0.029 A 
ATOM     63  N   UNL A   1      40.172  30.524  34.793  1.00  0.00    -0.354 N 
ATOM     64  N   UNL A   1      36.654  31.025  32.218  1.00  0.00    -0.248 NA
ATOM     65  C   UNL A   1      36.601  32.768  33.768  1.00  0.00     0.031 C 
ATOM     66  C   UNL A   1      41.212  29.428  33.221  1.00  0.00     0.029 A 
ATOM     67  C   UNL A   1      39.953  29.916  33.583  1.00  0.00     0.049 A 
ATOM     68  H   UNL A   1      39.520  30.619  35.524  1.00  0.00     0.167 HD
ATOM     69  C   UNL A   1      37.656  30.790  33.150  1.00  0.00     0.074 A 
ATOM     70  C   UNL A   1      37.515  31.863  34.136  1.00  0.00     0.031 C 
ATOM     71  C   UNL A   1      38.687  29.933  32.883  1.00  0.00     0.031 A 
BRANCH  58  72
ATOM     72  C   UNL A   1      41.382  32.756  36.637  1.00  0.00    -0.014 A 
ATOM     73  C   UNL A   1      42.346  32.517  37.635  1.00  0.00     0.009 A 
ATOM     74  C   UNL A   1      40.093  33.115  37.071  1.00  0.00     0.009 A 
ATOM     75  C   UNL A   1      42.013  32.560  38.994  1.00  0.00     0.001 A 
ATOM     76  C   UNL A   1      39.770  33.197  38.428  1.00  0.00     0.001 A 
ATOM     77  C   UNL A   1      40.722  32.891  39.389  1.00  0.00     0.000 A 
ENDBRANCH  58  72
BRANCH  59  78
ATOM     78  C   UNL A   1      34.714  34.006  31.329  1.00  0.00    -0.014 A 
ATOM     79  C   UNL A   1      34.276  34.743  32.439  1.00  0.00     0.009 A 
ATOM     80  C   UNL A   1      34.088  34.254  30.091  1.00  0.00     0.009 A 
ATOM     81  C   UNL A   1      33.276  35.719  32.308  1.00  0.00     0.001 A 
ATOM     82  C   UNL A   1      33.093  35.229  29.959  1.00  0.00     0.001 A 
ATOM     83  C   UNL A   1      32.697  35.973  31.065  1.00  0.00     0.000 A 
ENDBRANCH  59  78
BRANCH  71  84
ATOM     84  C   UNL A   1      38.618  29.109  31.619  1.00  0.00    -0.014 A 
ATOM     85  C   UNL A   1      38.708  29.666  30.329  1.00  0.00     0.009 A 
ATOM     86  C   UNL A   1      38.648  27.713  31.739  1.00  0.00     0.009 A 
ATOM     87  C   UNL A   1      38.806  28.847  29.197  1.00  0.00     0.001 A 
ATOM     88  C   UNL A   1      38.763  26.896  30.611  1.00  0.00     0.001 A 
ATOM     89  C   UNL A   1      38.839  27.463  29.340  1.00  0.00     0.000 A 
ENDBRANCH  71  84
ENDBRANCH  45  46
ENDBRANCH  37  40
ENDBRANCH  35  36
ENDBRANCH  34  35
ENDBRANCH   1  34
TORSDOF 15
ENDMDL
