MODEL 1
REMARK VINA RESULT:     -12.4      0.000      0.000
REMARK SMILES O=C(NCCCCNC(=O)c1cc(Cl)c2c(c1)[C@H]1C=CC[C@H]1[C@H](c1ccc(S(=O)(=O)N3CCOCC3)cc1)N2)c1ccc(-c2c3nc(c(-c4ccccc4)c4ccc([nH]4)c(-c4ccccc4)c4nc(c(-c5ccccc5)c5ccc2[nH]5)C=C4)C=C3)cc1
REMARK SMILES IDX 6 1 5 2 4 3 3 4 1 5 2 6 40 8 41 9 87 10 42 11 86 12 43 13
REMARK SMILES IDX 44 14 45 15 80 16 46 17 85 18 79 19 81 20 47 21 84 22 78 23
REMARK SMILES IDX 77 24 48 26 70 27 55 28 69 29 56 30 59 31 68 32 82 33 57 34
REMARK SMILES IDX 58 35 67 37 83 38 60 39 49 40 50 41 54 42 51 43 53 44 52 45
REMARK SMILES IDX 71 46 72 47 76 48 73 49 75 50 74 51 61 52 62 53 66 54 63 55
REMARK SMILES IDX 65 56 64 57 7 58 8 59 9 60 10 62 11 63 12 64 17 65 13 66
REMARK SMILES IDX 16 67 14 68 15 69 18 70 39 71 19 72 22 73 23 74 20 76 21 77
REMARK SMILES IDX 24 78 25 79 38 80 26 81 37 82 27 83 28 84 29 85 30 86 31 87
REMARK SMILES IDX 32 88 36 89 33 90 35 91 34 92
REMARK H PARENT 3 7 81 25 59 36 8 61 39 75
REMARK Flexibility Score: inf
ROOT
ATOM      1  C   UNL A   1      43.848  22.959  27.303  1.00  0.00     0.023 C 
ENDROOT
BRANCH   1   2
ATOM      2  C   UNL A   1      45.184  23.460  26.763  1.00  0.00     0.023 C 
BRANCH   2   3
ATOM      3  C   UNL A   1      45.238  24.952  26.461  1.00  0.00     0.116 C 
BRANCH   3   4
ATOM      4  N   UNL A   1      44.266  25.364  25.460  1.00  0.00    -0.352 N 
ATOM      5  O   UNL A   1      42.380  26.365  24.707  1.00  0.00    -0.269 OA
ATOM      6  C   UNL A   1      43.187  26.202  25.615  1.00  0.00     0.251 C 
ATOM      7  H   UNL A   1      44.398  24.996  24.556  1.00  0.00     0.163 HD
BRANCH   6   8
ATOM      8  C   UNL A   1      42.991  26.871  26.915  1.00  0.00     0.039 A 
ATOM      9  C   UNL A   1      42.275  26.235  27.933  1.00  0.00     0.014 A 
ATOM     10  C   UNL A   1      43.465  28.174  27.080  1.00  0.00     0.014 A 
ATOM     11  C   UNL A   1      41.916  26.953  29.069  1.00  0.00     0.010 A 
ATOM     12  C   UNL A   1      43.146  28.876  28.244  1.00  0.00     0.010 A 
ATOM     13  C   UNL A   1      42.334  28.285  29.223  1.00  0.00    -0.014 A 
BRANCH  13  14
ATOM     14  C   UNL A   1      41.902  29.060  30.409  1.00  0.00     0.031 A 
ATOM     15  C   UNL A   1      40.659  29.905  30.355  1.00  0.00     0.074 A 
ATOM     16  C   UNL A   1      42.609  28.969  31.551  1.00  0.00     0.049 A 
ATOM     17  N   UNL A   1      40.141  30.664  31.288  1.00  0.00    -0.248 NA
ATOM     18  C   UNL A   1      39.893  29.895  29.097  1.00  0.00     0.031 C 
ATOM     19  C   UNL A   1      43.806  28.147  31.740  1.00  0.00     0.029 A 
ATOM     20  N   UNL A   1      42.414  29.562  32.772  1.00  0.00    -0.354 N 
ATOM     21  C   UNL A   1      38.997  31.220  30.732  1.00  0.00     0.074 A 
ATOM     22  C   UNL A   1      38.902  30.733  29.374  1.00  0.00     0.031 C 
ATOM     23  C   UNL A   1      44.217  28.261  33.012  1.00  0.00     0.029 A 
ATOM     24  C   UNL A   1      43.347  29.201  33.710  1.00  0.00     0.049 A 
ATOM     25  H   UNL A   1      41.675  30.186  32.956  1.00  0.00     0.167 HD
ATOM     26  C   UNL A   1      38.100  32.054  31.310  1.00  0.00     0.031 A 
ATOM     27  C   UNL A   1      43.497  29.595  34.989  1.00  0.00     0.031 A 
ATOM     28  C   UNL A   1      38.188  32.534  32.662  1.00  0.00     0.049 A 
ATOM     29  C   UNL A   1      42.537  30.592  35.571  1.00  0.00     0.074 A 
ATOM     30  C   UNL A   1      37.318  33.381  33.329  1.00  0.00     0.029 A 
ATOM     31  N   UNL A   1      39.197  32.210  33.552  1.00  0.00    -0.354 N 
ATOM     32  N   UNL A   1      41.469  31.121  35.026  1.00  0.00    -0.248 NA
ATOM     33  C   UNL A   1      42.811  31.055  36.939  1.00  0.00     0.031 C 
ATOM     34  C   UNL A   1      37.823  33.602  34.612  1.00  0.00     0.029 A 
ATOM     35  C   UNL A   1      38.984  32.859  34.756  1.00  0.00     0.049 A 
ATOM     36  H   UNL A   1      39.952  31.609  33.359  1.00  0.00     0.167 HD
ATOM     37  C   UNL A   1      40.938  31.970  35.988  1.00  0.00     0.074 A 
ATOM     38  C   UNL A   1      41.790  31.874  37.154  1.00  0.00     0.031 C 
ATOM     39  C   UNL A   1      39.841  32.760  35.905  1.00  0.00     0.031 A 
BRANCH  26  40
ATOM     40  C   UNL A   1      36.930  32.516  30.492  1.00  0.00    -0.014 A 
ATOM     41  C   UNL A   1      35.657  31.959  30.688  1.00  0.00     0.009 A 
ATOM     42  C   UNL A   1      37.074  33.604  29.620  1.00  0.00     0.009 A 
ATOM     43  C   UNL A   1      34.548  32.489  30.026  1.00  0.00     0.001 A 
ATOM     44  C   UNL A   1      35.961  34.142  28.971  1.00  0.00     0.001 A 
ATOM     45  C   UNL A   1      34.700  33.586  29.176  1.00  0.00     0.000 A 
ENDBRANCH  26  40
BRANCH  27  46
ATOM     46  C   UNL A   1      44.611  29.050  35.801  1.00  0.00    -0.014 A 
ATOM     47  C   UNL A   1      45.860  29.688  35.809  1.00  0.00     0.009 A 
ATOM     48  C   UNL A   1      44.429  27.899  36.585  1.00  0.00     0.009 A 
ATOM     49  C   UNL A   1      46.908  29.178  36.576  1.00  0.00     0.001 A 
ATOM     50  C   UNL A   1      45.472  27.405  37.369  1.00  0.00     0.001 A 
ATOM     51  C   UNL A   1      46.712  28.041  37.359  1.00  0.00     0.000 A 
ENDBRANCH  27  46
BRANCH  39  52
ATOM     52  C   UNL A   1      39.488  33.585  37.107  1.00  0.00    -0.014 A 
ATOM     53  C   UNL A   1      38.758  33.029  38.168  1.00  0.00     0.009 A 
ATOM     54  C   UNL A   1      39.965  34.900  37.218  1.00  0.00     0.009 A 
ATOM     55  C   UNL A   1      38.502  33.781  39.315  1.00  0.00     0.001 A 
ATOM     56  C   UNL A   1      39.727  35.642  38.375  1.00  0.00     0.001 A 
ATOM     57  C   UNL A   1      38.992  35.083  39.420  1.00  0.00     0.000 A 
ENDBRANCH  39  52
ENDBRANCH  13  14
ENDBRANCH   6   8
ENDBRANCH   3   4
ENDBRANCH   2   3
ENDBRANCH   1   2
BRANCH   1  58
ATOM     58  C   UNL A   1      42.974  22.239  26.282  1.00  0.00     0.116 C 
BRANCH  58  59
ATOM     59  N   UNL A   1      42.393  21.010  26.808  1.00  0.00    -0.352 N 
ATOM     60  C   UNL A   1      41.071  20.727  27.045  1.00  0.00     0.251 C 
ATOM     61  H   UNL A   1      43.031  20.292  27.020  1.00  0.00     0.163 HD
ATOM     62  O   UNL A   1      40.729  19.693  27.604  1.00  0.00    -0.269 OA
BRANCH  60  63
ATOM     63  C   UNL A   1      40.068  21.726  26.651  1.00  0.00     0.041 A 
ATOM     64  C   UNL A   1      40.123  23.018  27.171  1.00  0.00     0.036 A 
ATOM     65  C   UNL A   1      39.019  21.325  25.830  1.00  0.00     0.020 A 
ATOM     66  C   UNL A   1      39.042  23.866  26.969  1.00  0.00     0.065 A 
ATOM     67  C   UNL A   1      37.945  22.197  25.598  1.00  0.00    -0.015 A 
ATOM     68  Cl  UNL A   1      39.078  25.423  27.724  1.00  0.00    -0.082 Cl
ATOM     69  C   UNL A   1      37.918  23.453  26.223  1.00  0.00     0.057 A 
ATOM     70  C   UNL A   1      36.850  21.771  24.663  1.00  0.00     0.049 C 
ATOM     71  N   UNL A   1      36.834  24.299  26.053  1.00  0.00    -0.376 N 
ATOM     72  C   UNL A   1      35.952  20.680  25.185  1.00  0.00    -0.023 C 
ATOM     73  C   UNL A   1      35.838  22.875  24.295  1.00  0.00     0.031 C 
ATOM     74  C   UNL A   1      35.581  23.805  25.510  1.00  0.00     0.114 C 
ATOM     75  H   UNL A   1      36.914  25.248  26.303  1.00  0.00     0.161 HD
ATOM     76  C   UNL A   1      34.705  20.831  24.723  1.00  0.00    -0.030 C 
ATOM     77  C   UNL A   1      34.610  22.048  23.858  1.00  0.00     0.034 C 
BRANCH  74  78
ATOM     78  C   UNL A   1      34.703  24.995  25.144  1.00  0.00    -0.025 A 
ATOM     79  C   UNL A   1      34.232  25.932  26.085  1.00  0.00     0.007 A 
ATOM     80  C   UNL A   1      34.381  25.189  23.801  1.00  0.00     0.007 A 
ATOM     81  C   UNL A   1      33.491  27.050  25.682  1.00  0.00     0.022 A 
ATOM     82  C   UNL A   1      33.692  26.324  23.399  1.00  0.00     0.022 A 
ATOM     83  C   UNL A   1      33.246  27.257  24.325  1.00  0.00     0.082 A 
BRANCH  83  84
ATOM     84  S   UNL A   1      32.395  28.729  23.804  1.00  0.00     0.243 S 
ATOM     85  O   UNL A   1      32.788  29.772  24.730  1.00  0.00    -0.207 OA
ATOM     86  O   UNL A   1      32.622  28.847  22.382  1.00  0.00    -0.207 OA
BRANCH  84  87
ATOM     87  N   UNL A   1      30.764  28.410  24.038  1.00  0.00    -0.193 NA
ATOM     88  C   UNL A   1      30.277  27.146  24.629  1.00  0.00     0.131 C 
ATOM     89  C   UNL A   1      29.712  29.338  23.586  1.00  0.00     0.131 C 
ATOM     90  C   UNL A   1      29.145  26.522  23.794  1.00  0.00     0.177 C 
ATOM     91  C   UNL A   1      28.690  28.598  22.720  1.00  0.00     0.177 C 
ATOM     92  O   UNL A   1      28.139  27.468  23.410  1.00  0.00    -0.379 OA
ENDBRANCH  84  87
ENDBRANCH  83  84
ENDBRANCH  74  78
ENDBRANCH  60  63
ENDBRANCH  58  59
ENDBRANCH   1  58
TORSDOF 14
ENDMDL
MODEL 2
REMARK VINA RESULT:     -12.4      5.541     10.601
REMARK SMILES O=C(NCCCCNC(=O)c1cc(Cl)c2c(c1)[C@H]1C=CC[C@H]1[C@H](c1ccc(S(=O)(=O)N3CCOCC3)cc1)N2)c1ccc(-c2c3nc(c(-c4ccccc4)c4ccc([nH]4)c(-c4ccccc4)c4nc(c(-c5ccccc5)c5ccc2[nH]5)C=C4)C=C3)cc1
REMARK SMILES IDX 6 1 5 2 4 3 3 4 1 5 2 6 40 8 41 9 87 10 42 11 86 12 43 13
REMARK SMILES IDX 44 14 45 15 80 16 46 17 85 18 79 19 81 20 47 21 84 22 78 23
REMARK SMILES IDX 77 24 48 26 70 27 55 28 69 29 56 30 59 31 68 32 82 33 57 34
REMARK SMILES IDX 58 35 67 37 83 38 60 39 49 40 50 41 54 42 51 43 53 44 52 45
REMARK SMILES IDX 71 46 72 47 76 48 73 49 75 50 74 51 61 52 62 53 66 54 63 55
REMARK SMILES IDX 65 56 64 57 7 58 8 59 9 60 10 62 11 63 12 64 17 65 13 66
REMARK SMILES IDX 16 67 14 68 15 69 18 70 39 71 19 72 22 73 23 74 20 76 21 77
REMARK SMILES IDX 24 78 25 79 38 80 26 81 37 82 27 83 28 84 29 85 30 86 31 87
REMARK SMILES IDX 32 88 36 89 33 90 35 91 34 92
REMARK H PARENT 3 7 81 25 59 36 8 61 39 75
REMARK Flexibility Score: inf
ROOT
ATOM      1  C   UNL A   1      35.408  33.691  31.840  1.00  0.00     0.023 C 
ENDROOT
BRANCH   1   2
ATOM      2  C   UNL A   1      36.211  32.577  32.505  1.00  0.00     0.023 C 
BRANCH   2   3
ATOM      3  C   UNL A   1      36.087  31.210  31.844  1.00  0.00     0.116 C 
BRANCH   3   4
ATOM      4  N   UNL A   1      36.666  30.140  32.640  1.00  0.00    -0.352 N 
ATOM      5  O   UNL A   1      38.310  28.748  33.341  1.00  0.00    -0.269 OA
ATOM      6  C   UNL A   1      37.983  29.750  32.715  1.00  0.00     0.251 C 
ATOM      7  H   UNL A   1      36.035  29.628  33.196  1.00  0.00     0.163 HD
BRANCH   6   8
ATOM      8  C   UNL A   1      38.996  30.540  31.990  1.00  0.00     0.039 A 
ATOM      9  C   UNL A   1      39.131  30.409  30.604  1.00  0.00     0.014 A 
ATOM     10  C   UNL A   1      39.864  31.355  32.719  1.00  0.00     0.014 A 
ATOM     11  C   UNL A   1      40.221  30.990  29.965  1.00  0.00     0.010 A 
ATOM     12  C   UNL A   1      40.928  31.979  32.066  1.00  0.00     0.010 A 
ATOM     13  C   UNL A   1      41.137  31.765  30.695  1.00  0.00    -0.014 A 
BRANCH  13  14
ATOM     14  C   UNL A   1      42.324  32.335  30.017  1.00  0.00     0.031 A 
ATOM     15  C   UNL A   1      43.543  31.489  29.777  1.00  0.00     0.074 A 
ATOM     16  C   UNL A   1      42.287  33.609  29.582  1.00  0.00     0.049 A 
ATOM     17  N   UNL A   1      44.679  31.825  29.216  1.00  0.00    -0.248 NA
ATOM     18  C   UNL A   1      43.483  30.083  30.211  1.00  0.00     0.031 C 
ATOM     19  C   UNL A   1      41.145  34.514  29.717  1.00  0.00     0.029 A 
ATOM     20  N   UNL A   1      43.230  34.354  28.923  1.00  0.00    -0.354 N 
ATOM     21  C   UNL A   1      45.464  30.680  29.235  1.00  0.00     0.074 A 
ATOM     22  C   UNL A   1      44.689  29.642  29.879  1.00  0.00     0.031 C 
ATOM     23  C   UNL A   1      41.442  35.683  29.127  1.00  0.00     0.029 A 
ATOM     24  C   UNL A   1      42.810  35.625  28.621  1.00  0.00     0.049 A 
ATOM     25  H   UNL A   1      44.123  34.011  28.690  1.00  0.00     0.167 HD
ATOM     26  C   UNL A   1      46.714  30.509  28.746  1.00  0.00     0.031 A 
ATOM     27  C   UNL A   1      43.459  36.639  28.018  1.00  0.00     0.031 A 
ATOM     28  C   UNL A   1      47.484  31.536  28.100  1.00  0.00     0.049 A 
ATOM     29  C   UNL A   1      44.878  36.444  27.570  1.00  0.00     0.074 A 
ATOM     30  C   UNL A   1      48.761  31.447  27.571  1.00  0.00     0.029 A 
ATOM     31  N   UNL A   1      47.051  32.835  27.890  1.00  0.00    -0.354 N 
ATOM     32  N   UNL A   1      45.611  35.359  27.609  1.00  0.00    -0.248 NA
ATOM     33  C   UNL A   1      45.562  37.617  27.006  1.00  0.00     0.031 C 
ATOM     34  C   UNL A   1      49.117  32.704  27.077  1.00  0.00     0.029 A 
ATOM     35  C   UNL A   1      48.045  33.563  27.260  1.00  0.00     0.049 A 
ATOM     36  H   UNL A   1      46.169  33.187  28.149  1.00  0.00     0.167 HD
ATOM     37  C   UNL A   1      46.838  35.715  27.066  1.00  0.00     0.074 A 
ATOM     38  C   UNL A   1      46.746  37.110  26.690  1.00  0.00     0.031 C 
ATOM     39  C   UNL A   1      47.943  34.950  26.898  1.00  0.00     0.031 A 
BRANCH  26  40
ATOM     40  C   UNL A   1      47.353  29.158  28.883  1.00  0.00    -0.014 A 
ATOM     41  C   UNL A   1      47.812  28.708  30.130  1.00  0.00     0.009 A 
ATOM     42  C   UNL A   1      47.372  28.280  27.789  1.00  0.00     0.009 A 
ATOM     43  C   UNL A   1      48.274  27.399  30.278  1.00  0.00     0.001 A 
ATOM     44  C   UNL A   1      47.821  26.968  27.944  1.00  0.00     0.001 A 
ATOM     45  C   UNL A   1      48.270  26.528  29.188  1.00  0.00     0.000 A 
ENDBRANCH  26  40
BRANCH  27  46
ATOM     46  C   UNL A   1      42.769  37.935  27.813  1.00  0.00    -0.014 A 
ATOM     47  C   UNL A   1      42.821  38.928  28.803  1.00  0.00     0.009 A 
ATOM     48  C   UNL A   1      42.069  38.194  26.624  1.00  0.00     0.009 A 
ATOM     49  C   UNL A   1      42.175  40.151  28.609  1.00  0.00     0.001 A 
ATOM     50  C   UNL A   1      41.444  39.425  26.424  1.00  0.00     0.001 A 
ATOM     51  C   UNL A   1      41.492  40.400  27.419  1.00  0.00     0.000 A 
ENDBRANCH  27  46
BRANCH  39  52
ATOM     52  C   UNL A   1      49.146  35.594  26.277  1.00  0.00    -0.014 A 
ATOM     53  C   UNL A   1      49.261  35.705  24.883  1.00  0.00     0.009 A 
ATOM     54  C   UNL A   1      50.129  36.175  27.093  1.00  0.00     0.009 A 
ATOM     55  C   UNL A   1      50.346  36.376  24.318  1.00  0.00     0.001 A 
ATOM     56  C   UNL A   1      51.202  36.863  26.526  1.00  0.00     0.001 A 
ATOM     57  C   UNL A   1      51.311  36.960  25.139  1.00  0.00     0.000 A 
ENDBRANCH  39  52
ENDBRANCH  13  14
ENDBRANCH   6   8
ENDBRANCH   3   4
ENDBRANCH   2   3
ENDBRANCH   1   2
BRANCH   1  58
ATOM     58  C   UNL A   1      34.408  33.221  30.790  1.00  0.00     0.116 C 
BRANCH  58  59
ATOM     59  N   UNL A   1      34.482  33.996  29.558  1.00  0.00    -0.352 N 
ATOM     60  C   UNL A   1      34.601  33.537  28.270  1.00  0.00     0.251 C 
ATOM     61  H   UNL A   1      34.443  34.973  29.664  1.00  0.00     0.163 HD
ATOM     62  O   UNL A   1      34.775  34.303  27.331  1.00  0.00    -0.269 OA
BRANCH  60  63
ATOM     63  C   UNL A   1      34.563  32.085  28.046  1.00  0.00     0.041 A 
ATOM     64  C   UNL A   1      35.709  31.315  28.236  1.00  0.00     0.036 A 
ATOM     65  C   UNL A   1      33.391  31.520  27.552  1.00  0.00     0.020 A 
ATOM     66  C   UNL A   1      35.709  29.997  27.799  1.00  0.00     0.065 A 
ATOM     67  C   UNL A   1      33.384  30.179  27.143  1.00  0.00    -0.015 A 
ATOM     68  Cl  UNL A   1      37.180  29.096  27.935  1.00  0.00    -0.082 Cl
ATOM     69  C   UNL A   1      34.567  29.426  27.202  1.00  0.00     0.057 A 
ATOM     70  C   UNL A   1      32.098  29.570  26.667  1.00  0.00     0.049 C 
ATOM     71  N   UNL A   1      34.589  28.118  26.743  1.00  0.00    -0.376 N 
ATOM     72  C   UNL A   1      31.614  30.060  25.328  1.00  0.00    -0.023 C 
ATOM     73  C   UNL A   1      32.136  28.041  26.458  1.00  0.00     0.031 C 
ATOM     74  C   UNL A   1      33.518  27.602  25.909  1.00  0.00     0.114 C 
ATOM     75  H   UNL A   1      35.342  27.531  26.985  1.00  0.00     0.161 HD
ATOM     76  C   UNL A   1      30.972  29.088  24.670  1.00  0.00    -0.030 C 
ATOM     77  C   UNL A   1      30.965  27.826  25.474  1.00  0.00     0.034 C 
BRANCH  74  78
ATOM     78  C   UNL A   1      33.647  26.086  25.831  1.00  0.00    -0.025 A 
ATOM     79  C   UNL A   1      34.655  25.427  25.098  1.00  0.00     0.007 A 
ATOM     80  C   UNL A   1      32.742  25.308  26.553  1.00  0.00     0.007 A 
ATOM     81  C   UNL A   1      34.771  24.032  25.123  1.00  0.00     0.022 A 
ATOM     82  C   UNL A   1      32.891  23.931  26.618  1.00  0.00     0.022 A 
ATOM     83  C   UNL A   1      33.897  23.286  25.912  1.00  0.00     0.082 A 
BRANCH  83  84
ATOM     84  S   UNL A   1      34.109  21.523  26.026  1.00  0.00     0.243 S 
ATOM     85  O   UNL A   1      35.418  21.238  25.474  1.00  0.00    -0.207 OA
ATOM     86  O   UNL A   1      33.754  21.158  27.378  1.00  0.00    -0.207 OA
BRANCH  84  87
ATOM     87  N   UNL A   1      32.955  20.867  24.997  1.00  0.00    -0.193 NA
ATOM     88  C   UNL A   1      32.671  19.418  24.940  1.00  0.00     0.131 C 
ATOM     89  C   UNL A   1      32.218  21.691  24.023  1.00  0.00     0.131 C 
ATOM     90  C   UNL A   1      32.656  18.894  23.494  1.00  0.00     0.177 C 
ATOM     91  C   UNL A   1      32.336  21.087  22.622  1.00  0.00     0.177 C 
ATOM     92  O   UNL A   1      31.898  19.721  22.601  1.00  0.00    -0.379 OA
ENDBRANCH  84  87
ENDBRANCH  83  84
ENDBRANCH  74  78
ENDBRANCH  60  63
ENDBRANCH  58  59
ENDBRANCH   1  58
TORSDOF 14
ENDMDL
MODEL 3
REMARK VINA RESULT:     -12.3      1.272      1.662
REMARK SMILES O=C(NCCCCNC(=O)c1cc(Cl)c2c(c1)[C@H]1C=CC[C@H]1[C@H](c1ccc(S(=O)(=O)N3CCOCC3)cc1)N2)c1ccc(-c2c3nc(c(-c4ccccc4)c4ccc([nH]4)c(-c4ccccc4)c4nc(c(-c5ccccc5)c5ccc2[nH]5)C=C4)C=C3)cc1
REMARK SMILES IDX 6 1 5 2 4 3 3 4 1 5 2 6 40 8 41 9 87 10 42 11 86 12 43 13
REMARK SMILES IDX 44 14 45 15 80 16 46 17 85 18 79 19 81 20 47 21 84 22 78 23
REMARK SMILES IDX 77 24 48 26 70 27 55 28 69 29 56 30 59 31 68 32 82 33 57 34
REMARK SMILES IDX 58 35 67 37 83 38 60 39 49 40 50 41 54 42 51 43 53 44 52 45
REMARK SMILES IDX 71 46 72 47 76 48 73 49 75 50 74 51 61 52 62 53 66 54 63 55
REMARK SMILES IDX 65 56 64 57 7 58 8 59 9 60 10 62 11 63 12 64 17 65 13 66
REMARK SMILES IDX 16 67 14 68 15 69 18 70 39 71 19 72 22 73 23 74 20 76 21 77
REMARK SMILES IDX 24 78 25 79 38 80 26 81 37 82 27 83 28 84 29 85 30 86 31 87
REMARK SMILES IDX 32 88 36 89 33 90 35 91 34 92
REMARK H PARENT 3 7 81 25 59 36 8 61 39 75
REMARK Flexibility Score: inf
ROOT
ATOM      1  C   UNL A   1      43.509  22.796  25.993  1.00  0.00     0.023 C 
ENDROOT
BRANCH   1   2
ATOM      2  C   UNL A   1      45.012  22.653  26.212  1.00  0.00     0.023 C 
BRANCH   2   3
ATOM      3  C   UNL A   1      45.712  23.907  26.719  1.00  0.00     0.116 C 
BRANCH   3   4
ATOM      4  N   UNL A   1      46.121  24.802  25.648  1.00  0.00    -0.352 N 
ATOM      5  O   UNL A   1      46.040  26.680  24.386  1.00  0.00    -0.269 OA
ATOM      6  C   UNL A   1      45.696  26.086  25.401  1.00  0.00     0.251 C 
ATOM      7  H   UNL A   1      46.788  24.442  25.019  1.00  0.00     0.163 HD
BRANCH   6   8
ATOM      8  C   UNL A   1      44.779  26.724  26.364  1.00  0.00     0.039 A 
ATOM      9  C   UNL A   1      44.860  28.099  26.608  1.00  0.00     0.014 A 
ATOM     10  C   UNL A   1      43.887  25.922  27.078  1.00  0.00     0.014 A 
ATOM     11  C   UNL A   1      44.142  28.649  27.665  1.00  0.00     0.010 A 
ATOM     12  C   UNL A   1      43.129  26.488  28.106  1.00  0.00     0.010 A 
ATOM     13  C   UNL A   1      43.286  27.844  28.432  1.00  0.00    -0.014 A 
BRANCH  13  14
ATOM     14  C   UNL A   1      42.567  28.426  29.589  1.00  0.00     0.031 A 
ATOM     15  C   UNL A   1      41.160  28.934  29.435  1.00  0.00     0.074 A 
ATOM     16  C   UNL A   1      43.170  28.460  30.793  1.00  0.00     0.049 A 
ATOM     17  N   UNL A   1      40.385  29.491  30.332  1.00  0.00    -0.248 NA
ATOM     18  C   UNL A   1      40.537  28.794  28.108  1.00  0.00     0.031 C 
ATOM     19  C   UNL A   1      44.515  27.956  31.077  1.00  0.00     0.029 A 
ATOM     20  N   UNL A   1      42.723  28.923  32.003  1.00  0.00    -0.354 N 
ATOM     21  C   UNL A   1      39.191  29.769  29.680  1.00  0.00     0.074 A 
ATOM     22  C   UNL A   1      39.345  29.342  28.307  1.00  0.00     0.031 C 
ATOM     23  C   UNL A   1      44.770  28.106  32.386  1.00  0.00     0.029 A 
ATOM     24  C   UNL A   1      43.631  28.762  33.019  1.00  0.00     0.049 A 
ATOM     25  H   UNL A   1      41.837  29.332  32.130  1.00  0.00     0.167 HD
ATOM     26  C   UNL A   1      38.064  30.321  30.188  1.00  0.00     0.031 A 
ATOM     27  C   UNL A   1      43.561  29.118  34.316  1.00  0.00     0.031 A 
ATOM     28  C   UNL A   1      37.906  30.741  31.553  1.00  0.00     0.049 A 
ATOM     29  C   UNL A   1      42.332  29.812  34.826  1.00  0.00     0.074 A 
ATOM     30  C   UNL A   1      36.794  31.308  32.153  1.00  0.00     0.029 A 
ATOM     31  N   UNL A   1      38.882  30.637  32.531  1.00  0.00    -0.354 N 
ATOM     32  N   UNL A   1      41.217  30.082  34.192  1.00  0.00    -0.248 NA
ATOM     33  C   UNL A   1      42.356  30.260  36.225  1.00  0.00     0.031 C 
ATOM     34  C   UNL A   1      37.111  31.585  33.485  1.00  0.00     0.029 A 
ATOM     35  C   UNL A   1      38.405  31.151  33.724  1.00  0.00     0.049 A 
ATOM     36  H   UNL A   1      39.779  30.255  32.397  1.00  0.00     0.167 HD
ATOM     37  C   UNL A   1      40.404  30.721  35.118  1.00  0.00     0.074 A 
ATOM     38  C   UNL A   1      41.146  30.785  36.360  1.00  0.00     0.031 C 
ATOM     39  C   UNL A   1      39.154  31.214  34.949  1.00  0.00     0.031 A 
BRANCH  26  40
ATOM     40  C   UNL A   1      36.892  30.514  29.271  1.00  0.00    -0.014 A 
ATOM     41  C   UNL A   1      36.682  31.743  28.629  1.00  0.00     0.009 A 
ATOM     42  C   UNL A   1      36.073  29.422  28.945  1.00  0.00     0.009 A 
ATOM     43  C   UNL A   1      35.674  31.873  27.671  1.00  0.00     0.001 A 
ATOM     44  C   UNL A   1      35.077  29.551  27.977  1.00  0.00     0.001 A 
ATOM     45  C   UNL A   1      34.879  30.775  27.340  1.00  0.00     0.000 A 
ENDBRANCH  26  40
BRANCH  27  46
ATOM     46  C   UNL A   1      44.701  28.830  35.219  1.00  0.00    -0.014 A 
ATOM     47  C   UNL A   1      45.821  29.674  35.236  1.00  0.00     0.009 A 
ATOM     48  C   UNL A   1      44.670  27.722  36.080  1.00  0.00     0.009 A 
ATOM     49  C   UNL A   1      46.894  29.407  36.089  1.00  0.00     0.001 A 
ATOM     50  C   UNL A   1      45.733  27.470  36.949  1.00  0.00     0.001 A 
ATOM     51  C   UNL A   1      46.846  28.309  36.948  1.00  0.00     0.000 A 
ENDBRANCH  27  46
BRANCH  39  52
ATOM     52  C   UNL A   1      38.497  31.863  36.130  1.00  0.00    -0.014 A 
ATOM     53  C   UNL A   1      37.784  31.097  37.064  1.00  0.00     0.009 A 
ATOM     54  C   UNL A   1      38.669  33.237  36.359  1.00  0.00     0.009 A 
ATOM     55  C   UNL A   1      37.243  31.699  38.201  1.00  0.00     0.001 A 
ATOM     56  C   UNL A   1      38.146  33.832  37.507  1.00  0.00     0.001 A 
ATOM     57  C   UNL A   1      37.431  33.063  38.425  1.00  0.00     0.000 A 
ENDBRANCH  39  52
ENDBRANCH  13  14
ENDBRANCH   6   8
ENDBRANCH   3   4
ENDBRANCH   2   3
ENDBRANCH   1   2
BRANCH   1  58
ATOM     58  C   UNL A   1      42.835  21.584  25.360  1.00  0.00     0.116 C 
BRANCH  58  59
ATOM     59  N   UNL A   1      42.345  20.634  26.349  1.00  0.00    -0.352 N 
ATOM     60  C   UNL A   1      41.132  20.622  26.991  1.00  0.00     0.251 C 
ATOM     61  H   UNL A   1      42.964  19.907  26.588  1.00  0.00     0.163 HD
ATOM     62  O   UNL A   1      40.893  19.831  27.894  1.00  0.00    -0.269 OA
BRANCH  60  63
ATOM     63  C   UNL A   1      40.132  21.625  26.598  1.00  0.00     0.041 A 
ATOM     64  C   UNL A   1      40.204  22.923  27.101  1.00  0.00     0.036 A 
ATOM     65  C   UNL A   1      39.068  21.223  25.795  1.00  0.00     0.020 A 
ATOM     66  C   UNL A   1      39.127  23.777  26.902  1.00  0.00     0.065 A 
ATOM     67  C   UNL A   1      37.999  22.100  25.567  1.00  0.00    -0.015 A 
ATOM     68  Cl  UNL A   1      39.186  25.343  27.637  1.00  0.00    -0.082 Cl
ATOM     69  C   UNL A   1      37.991  23.364  26.177  1.00  0.00     0.057 A 
ATOM     70  C   UNL A   1      36.889  21.672  24.652  1.00  0.00     0.049 C 
ATOM     71  N   UNL A   1      36.911  24.217  26.010  1.00  0.00    -0.376 N 
ATOM     72  C   UNL A   1      35.988  20.595  25.199  1.00  0.00    -0.023 C 
ATOM     73  C   UNL A   1      35.880  22.781  24.283  1.00  0.00     0.031 C 
ATOM     74  C   UNL A   1      35.647  23.727  25.490  1.00  0.00     0.114 C 
ATOM     75  H   UNL A   1      37.003  25.169  26.247  1.00  0.00     0.161 HD
ATOM     76  C   UNL A   1      34.737  20.752  24.752  1.00  0.00    -0.030 C 
ATOM     77  C   UNL A   1      34.640  21.958  23.873  1.00  0.00     0.034 C 
BRANCH  74  78
ATOM     78  C   UNL A   1      34.775  24.920  25.120  1.00  0.00    -0.025 A 
ATOM     79  C   UNL A   1      34.410  25.929  26.034  1.00  0.00     0.007 A 
ATOM     80  C   UNL A   1      34.345  25.040  23.798  1.00  0.00     0.007 A 
ATOM     81  C   UNL A   1      33.669  27.044  25.621  1.00  0.00     0.022 A 
ATOM     82  C   UNL A   1      33.656  26.170  23.382  1.00  0.00     0.022 A 
ATOM     83  C   UNL A   1      33.316  27.172  24.278  1.00  0.00     0.082 A 
BRANCH  83  84
ATOM     84  S   UNL A   1      32.464  28.636  23.734  1.00  0.00     0.243 S 
ATOM     85  O   UNL A   1      32.894  29.704  24.614  1.00  0.00    -0.207 OA
ATOM     86  O   UNL A   1      32.651  28.706  22.303  1.00  0.00    -0.207 OA
BRANCH  84  87
ATOM     87  N   UNL A   1      30.838  28.342  24.026  1.00  0.00    -0.193 NA
ATOM     88  C   UNL A   1      30.355  27.099  24.662  1.00  0.00     0.131 C 
ATOM     89  C   UNL A   1      29.783  29.271  23.582  1.00  0.00     0.131 C 
ATOM     90  C   UNL A   1      29.191  26.468  23.877  1.00  0.00     0.177 C 
ATOM     91  C   UNL A   1      28.727  28.523  22.766  1.00  0.00     0.177 C 
ATOM     92  O   UNL A   1      28.184  27.416  23.500  1.00  0.00    -0.379 OA
ENDBRANCH  84  87
ENDBRANCH  83  84
ENDBRANCH  74  78
ENDBRANCH  60  63
ENDBRANCH  58  59
ENDBRANCH   1  58
TORSDOF 14
ENDMDL
