MODEL 1
REMARK VINA RESULT:     -13.4      0.000      0.000
REMARK SMILES CCCOC(=O)c1c(NC(=O)[C@@H]2CC=CC[C@H]2C(=O)NCCCCNC(=O)c2ccc(-c3c4nc(c(-c5ccccc5)c5ccc([nH]5)c(-c5ccccc5)c5nc(c(-c6ccccc6)c6ccc3[nH]6)C=C5)C=C4)cc2)sc2c1CCCC2
REMARK SMILES IDX 18 1 19 2 20 3 17 5 12 6 13 7 14 8 16 9 15 10 10 11 9 12
REMARK SMILES IDX 11 14 8 15 7 16 78 17 76 18 77 19 79 20 82 21 80 22 81 23
REMARK SMILES IDX 5 24 6 25 4 26 3 27 2 28 1 29 21 30 22 31 23 32 24 33 25 34
REMARK SMILES IDX 26 35 27 37 28 38 29 39 75 40 30 41 74 42 31 43 32 44 33 45
REMARK SMILES IDX 68 46 34 47 73 48 67 49 69 50 35 51 72 52 66 53 65 54 36 56
REMARK SMILES IDX 58 57 43 58 57 59 44 60 47 61 56 62 70 63 45 64 46 65 55 67
REMARK SMILES IDX 71 68 48 69 37 70 38 71 42 72 39 73 41 74 40 75 59 76 60 77
REMARK SMILES IDX 64 78 61 79 63 80 62 81 49 82 50 83 54 84 51 85 53 86 52 87
REMARK H PARENT 20 4 9 13 25 36 69 55 47 66
REMARK Flexibility Score: inf
ROOT
ATOM      1  C   UNL A   1      33.450  24.086  25.578  1.00  0.00     0.224 C 
ATOM      2  O   UNL A   1      32.571  23.278  25.951  1.00  0.00    -0.275 OA
ATOM      3  N   UNL A   1      34.622  23.355  25.133  1.00  0.00    -0.356 N 
ATOM      4  H   UNL A   1      34.424  22.418  25.360  1.00  0.00     0.163 HD
ENDROOT
BRANCH   1   5
ATOM      5  C   UNL A   1      32.964  25.821  25.790  1.00  0.00     0.095 C 
ATOM      6  C   UNL A   1      31.639  26.128  26.526  1.00  0.00     0.095 C 
ATOM      7  C   UNL A   1      31.020  27.533  26.221  1.00  0.00     0.041 C 
ATOM      8  C   UNL A   1      31.966  28.678  26.206  1.00  0.00    -0.030 C 
ATOM      9  C   UNL A   1      33.855  27.095  26.170  1.00  0.00     0.041 C 
ATOM     10  C   UNL A   1      33.276  28.470  26.164  1.00  0.00    -0.030 C 
BRANCH   6  11
ATOM     11  C   UNL A   1      30.556  25.159  26.218  1.00  0.00     0.229 C 
ATOM     12  N   UNL A   1      30.231  24.985  24.927  1.00  0.00    -0.317 N 
ATOM     13  H   UNL A   1      30.005  24.058  24.684  1.00  0.00     0.170 HD
ATOM     14  O   UNL A   1      30.068  24.405  27.060  1.00  0.00    -0.274 OA
BRANCH  12  15
ATOM     15  C   UNL A   1      30.159  25.874  23.893  1.00  0.00     0.110 A 
ATOM     16  C   UNL A   1      30.982  26.541  22.973  1.00  0.00     0.098 A 
ATOM     17  C   UNL A   1      30.263  27.923  22.859  1.00  0.00    -0.017 A 
ATOM     18  S   UNL A   1      28.523  26.349  23.860  1.00  0.00    -0.122 S 
ATOM     19  C   UNL A   1      28.906  27.805  23.141  1.00  0.00     0.011 A 
ATOM     20  C   UNL A   1      30.708  29.325  22.474  1.00  0.00     0.038 C 
ATOM     21  C   UNL A   1      27.835  28.836  22.935  1.00  0.00     0.047 C 
ATOM     22  C   UNL A   1      29.632  30.420  22.358  1.00  0.00     0.005 C 
ATOM     23  C   UNL A   1      28.295  29.864  21.908  1.00  0.00     0.006 C 
BRANCH  16  24
ATOM     24  C   UNL A   1      32.217  25.815  22.197  1.00  0.00     0.341 C 
ATOM     25  O   UNL A   1      33.017  26.595  21.674  1.00  0.00    -0.246 OA
BRANCH  24  26
ATOM     26  O   UNL A   1      32.560  24.400  21.971  1.00  0.00    -0.462 OA
BRANCH  26  27
ATOM     27  C   UNL A   1      32.972  22.720  22.126  1.00  0.00     0.233 C 
BRANCH  27  28
ATOM     28  C   UNL A   1      32.157  21.507  22.856  1.00  0.00     0.038 C 
ATOM     29  C   UNL A   1      32.759  20.472  23.846  1.00  0.00     0.007 C 
ENDBRANCH  27  28
ENDBRANCH  26  27
ENDBRANCH  24  26
ENDBRANCH  16  24
ENDBRANCH  12  15
ENDBRANCH   6  11
ENDBRANCH   1   5
BRANCH   3  30
ATOM     30  C   UNL A   1      36.167  23.294  24.414  1.00  0.00     0.116 C 
BRANCH  30  31
ATOM     31  C   UNL A   1      37.080  22.015  23.846  1.00  0.00     0.023 C 
BRANCH  31  32
ATOM     32  C   UNL A   1      37.412  20.668  24.594  1.00  0.00     0.023 C 
BRANCH  32  33
ATOM     33  C   UNL A   1      38.434  20.790  25.725  1.00  0.00     0.116 C 
BRANCH  33  34
ATOM     34  N   UNL A   1      39.445  19.747  25.717  1.00  0.00    -0.352 N 
ATOM     35  C   UNL A   1      40.793  19.884  26.019  1.00  0.00     0.251 C 
ATOM     36  H   UNL A   1      39.142  18.844  25.470  1.00  0.00     0.163 HD
ATOM     37  O   UNL A   1      41.583  18.998  25.808  1.00  0.00    -0.269 OA
BRANCH  35  38
ATOM     38  C   UNL A   1      41.247  21.181  26.584  1.00  0.00     0.039 A 
ATOM     39  C   UNL A   1      41.193  21.387  27.964  1.00  0.00     0.014 A 
ATOM     40  C   UNL A   1      41.744  22.176  25.742  1.00  0.00     0.014 A 
ATOM     41  C   UNL A   1      41.671  22.587  28.497  1.00  0.00     0.010 A 
ATOM     42  C   UNL A   1      42.314  23.321  26.280  1.00  0.00     0.010 A 
ATOM     43  C   UNL A   1      42.243  23.559  27.659  1.00  0.00    -0.014 A 
BRANCH  43  44
ATOM     44  C   UNL A   1      42.662  24.876  28.197  1.00  0.00     0.031 A 
ATOM     45  C   UNL A   1      41.626  25.951  28.408  1.00  0.00     0.074 A 
ATOM     46  C   UNL A   1      43.954  25.112  28.493  1.00  0.00     0.049 A 
ATOM     47  N   UNL A   1      41.770  27.147  28.918  1.00  0.00    -0.248 NA
ATOM     48  C   UNL A   1      40.254  25.654  27.961  1.00  0.00     0.031 C 
ATOM     49  C   UNL A   1      45.060  24.174  28.286  1.00  0.00     0.029 A 
ATOM     50  N   UNL A   1      44.551  26.214  29.052  1.00  0.00    -0.354 N 
ATOM     51  C   UNL A   1      40.516  27.740  28.841  1.00  0.00     0.074 A 
ATOM     52  C   UNL A   1      39.643  26.809  28.165  1.00  0.00     0.031 C 
ATOM     53  C   UNL A   1      46.192  24.722  28.761  1.00  0.00     0.029 A 
ATOM     54  C   UNL A   1      45.895  26.053  29.283  1.00  0.00     0.049 A 
ATOM     55  H   UNL A   1      44.063  27.042  29.265  1.00  0.00     0.167 HD
ATOM     56  C   UNL A   1      40.107  28.935  29.327  1.00  0.00     0.031 A 
ATOM     57  C   UNL A   1      46.780  26.879  29.874  1.00  0.00     0.031 A 
ATOM     58  C   UNL A   1      40.963  29.848  30.029  1.00  0.00     0.049 A 
ATOM     59  C   UNL A   1      46.304  28.200  30.415  1.00  0.00     0.074 A 
ATOM     60  C   UNL A   1      40.636  31.058  30.617  1.00  0.00     0.029 A 
ATOM     61  N   UNL A   1      42.317  29.647  30.242  1.00  0.00    -0.354 N 
ATOM     62  N   UNL A   1      45.094  28.708  30.412  1.00  0.00    -0.248 NA
ATOM     63  C   UNL A   1      47.314  29.054  31.058  1.00  0.00     0.031 C 
ATOM     64  C   UNL A   1      41.806  31.610  31.147  1.00  0.00     0.029 A 
ATOM     65  C   UNL A   1      42.848  30.720  30.933  1.00  0.00     0.049 A 
ATOM     66  H   UNL A   1      42.824  28.857  29.945  1.00  0.00     0.167 HD
ATOM     67  C   UNL A   1      45.193  29.925  31.076  1.00  0.00     0.074 A 
ATOM     68  C   UNL A   1      46.576  30.070  31.482  1.00  0.00     0.031 C 
ATOM     69  C   UNL A   1      44.227  30.841  31.328  1.00  0.00     0.031 A 
BRANCH  56  70
ATOM     70  C   UNL A   1      38.667  29.307  29.117  1.00  0.00    -0.014 A 
ATOM     71  C   UNL A   1      37.735  29.222  30.164  1.00  0.00     0.009 A 
ATOM     72  C   UNL A   1      38.237  29.751  27.858  1.00  0.00     0.009 A 
ATOM     73  C   UNL A   1      36.392  29.533  29.943  1.00  0.00     0.001 A 
ATOM     74  C   UNL A   1      36.899  30.092  27.648  1.00  0.00     0.001 A 
ATOM     75  C   UNL A   1      35.975  29.972  28.687  1.00  0.00     0.000 A 
ENDBRANCH  56  70
BRANCH  57  76
ATOM     76  C   UNL A   1      48.201  26.467  30.027  1.00  0.00    -0.014 A 
ATOM     77  C   UNL A   1      49.133  26.731  29.009  1.00  0.00     0.009 A 
ATOM     78  C   UNL A   1      48.630  25.794  31.180  1.00  0.00     0.009 A 
ATOM     79  C   UNL A   1      50.456  26.300  29.132  1.00  0.00     0.001 A 
ATOM     80  C   UNL A   1      49.959  25.389  31.312  1.00  0.00     0.001 A 
ATOM     81  C   UNL A   1      50.869  25.634  30.284  1.00  0.00     0.000 A 
ENDBRANCH  57  76
BRANCH  69  82
ATOM     82  C   UNL A   1      44.623  32.067  32.099  1.00  0.00    -0.014 A 
ATOM     83  C   UNL A   1      45.047  33.233  31.442  1.00  0.00     0.009 A 
ATOM     84  C   UNL A   1      44.514  32.074  33.498  1.00  0.00     0.009 A 
ATOM     85  C   UNL A   1      45.382  34.372  32.176  1.00  0.00     0.001 A 
ATOM     86  C   UNL A   1      44.824  33.222  34.226  1.00  0.00     0.001 A 
ATOM     87  C   UNL A   1      45.264  34.367  33.565  1.00  0.00     0.000 A 
ENDBRANCH  69  82
ENDBRANCH  43  44
ENDBRANCH  35  38
ENDBRANCH  33  34
ENDBRANCH  32  33
ENDBRANCH  31  32
ENDBRANCH  30  31
ENDBRANCH   3  30
TORSDOF 17
ENDMDL
MODEL 2
REMARK VINA RESULT:     -13.4      0.655      5.669
REMARK SMILES CCCOC(=O)c1c(NC(=O)[C@@H]2CC=CC[C@H]2C(=O)NCCCCNC(=O)c2ccc(-c3c4nc(c(-c5ccccc5)c5ccc([nH]5)c(-c5ccccc5)c5nc(c(-c6ccccc6)c6ccc3[nH]6)C=C5)C=C4)cc2)sc2c1CCCC2
REMARK SMILES IDX 18 1 19 2 20 3 17 5 12 6 13 7 14 8 16 9 15 10 10 11 9 12
REMARK SMILES IDX 11 14 8 15 7 16 78 17 76 18 77 19 79 20 82 21 80 22 81 23
REMARK SMILES IDX 5 24 6 25 4 26 3 27 2 28 1 29 21 30 22 31 23 32 24 33 25 34
REMARK SMILES IDX 26 35 27 37 28 38 29 39 75 40 30 41 74 42 31 43 32 44 33 45
REMARK SMILES IDX 68 46 34 47 73 48 67 49 69 50 35 51 72 52 66 53 65 54 36 56
REMARK SMILES IDX 58 57 43 58 57 59 44 60 47 61 56 62 70 63 45 64 46 65 55 67
REMARK SMILES IDX 71 68 48 69 37 70 38 71 42 72 39 73 41 74 40 75 59 76 60 77
REMARK SMILES IDX 64 78 61 79 63 80 62 81 49 82 50 83 54 84 51 85 53 86 52 87
REMARK H PARENT 20 4 9 13 25 36 69 55 47 66
REMARK Flexibility Score: inf
ROOT
ATOM      1  C   UNL A   1      33.937  24.261  25.483  1.00  0.00     0.224 C 
ATOM      2  O   UNL A   1      33.071  23.494  25.006  1.00  0.00    -0.275 OA
ATOM      3  N   UNL A   1      35.150  23.512  25.754  1.00  0.00    -0.356 N 
ATOM      4  H   UNL A   1      34.901  22.576  25.582  1.00  0.00     0.163 HD
ENDROOT
BRANCH   1   5
ATOM      5  C   UNL A   1      33.342  25.960  25.709  1.00  0.00     0.095 C 
ATOM      6  C   UNL A   1      32.032  26.180  26.500  1.00  0.00     0.095 C 
ATOM      7  C   UNL A   1      31.305  27.537  26.217  1.00  0.00     0.041 C 
ATOM      8  C   UNL A   1      32.169  28.744  26.159  1.00  0.00    -0.030 C 
ATOM      9  C   UNL A   1      34.159  27.294  26.048  1.00  0.00     0.041 C 
ATOM     10  C   UNL A   1      33.487  28.626  26.061  1.00  0.00    -0.030 C 
BRANCH   6  11
ATOM     11  C   UNL A   1      31.006  25.137  26.241  1.00  0.00     0.229 C 
ATOM     12  N   UNL A   1      30.658  24.916  24.963  1.00  0.00    -0.317 N 
ATOM     13  H   UNL A   1      30.486  23.971  24.745  1.00  0.00     0.170 HD
ATOM     14  O   UNL A   1      30.591  24.370  27.111  1.00  0.00    -0.274 OA
BRANCH  12  15
ATOM     15  C   UNL A   1      30.500  25.776  23.915  1.00  0.00     0.110 A 
ATOM     16  C   UNL A   1      31.244  26.414  22.911  1.00  0.00     0.098 A 
ATOM     17  C   UNL A   1      30.521  27.796  22.821  1.00  0.00    -0.017 A 
ATOM     18  S   UNL A   1      28.868  26.258  24.008  1.00  0.00    -0.122 S 
ATOM     19  C   UNL A   1      29.192  27.691  23.219  1.00  0.00     0.011 A 
ATOM     20  C   UNL A   1      30.935  29.185  22.360  1.00  0.00     0.038 C 
ATOM     21  C   UNL A   1      28.110  28.722  23.076  1.00  0.00     0.047 C 
ATOM     22  C   UNL A   1      29.856  30.282  22.306  1.00  0.00     0.005 C 
ATOM     23  C   UNL A   1      28.484  29.719  21.987  1.00  0.00     0.006 C 
BRANCH  16  24
ATOM     24  C   UNL A   1      32.407  25.662  22.054  1.00  0.00     0.341 C 
ATOM     25  O   UNL A   1      33.051  26.406  21.309  1.00  0.00    -0.246 OA
BRANCH  24  26
ATOM     26  O   UNL A   1      32.832  24.254  21.969  1.00  0.00    -0.462 OA
BRANCH  26  27
ATOM     27  C   UNL A   1      32.931  22.533  21.750  1.00  0.00     0.233 C 
BRANCH  27  28
ATOM     28  C   UNL A   1      32.027  21.343  22.407  1.00  0.00     0.038 C 
ATOM     29  C   UNL A   1      32.472  20.386  23.548  1.00  0.00     0.007 C 
ENDBRANCH  27  28
ENDBRANCH  26  27
ENDBRANCH  24  26
ENDBRANCH  16  24
ENDBRANCH  12  15
ENDBRANCH   6  11
ENDBRANCH   1   5
BRANCH   3  30
ATOM     30  C   UNL A   1      36.790  23.431  26.217  1.00  0.00     0.116 C 
BRANCH  30  31
ATOM     31  C   UNL A   1      38.116  22.719  25.491  1.00  0.00     0.023 C 
BRANCH  31  32
ATOM     32  C   UNL A   1      38.239  21.240  24.962  1.00  0.00     0.023 C 
BRANCH  32  33
ATOM     33  C   UNL A   1      38.488  20.185  26.039  1.00  0.00     0.116 C 
BRANCH  33  34
ATOM     34  N   UNL A   1      39.644  19.342  25.781  1.00  0.00    -0.352 N 
ATOM     35  C   UNL A   1      40.981  19.694  25.901  1.00  0.00     0.251 C 
ATOM     36  H   UNL A   1      39.458  18.422  25.487  1.00  0.00     0.163 HD
ATOM     37  O   UNL A   1      41.863  18.982  25.490  1.00  0.00    -0.269 OA
BRANCH  35  38
ATOM     38  C   UNL A   1      41.299  21.004  26.526  1.00  0.00     0.039 A 
ATOM     39  C   UNL A   1      41.150  21.162  27.906  1.00  0.00     0.014 A 
ATOM     40  C   UNL A   1      41.762  22.061  25.742  1.00  0.00     0.014 A 
ATOM     41  C   UNL A   1      41.500  22.378  28.498  1.00  0.00     0.010 A 
ATOM     42  C   UNL A   1      42.209  23.229  26.343  1.00  0.00     0.010 A 
ATOM     43  C   UNL A   1      42.041  23.418  27.721  1.00  0.00    -0.014 A 
BRANCH  43  44
ATOM     44  C   UNL A   1      42.323  24.746  28.318  1.00  0.00     0.031 A 
ATOM     45  C   UNL A   1      43.731  25.083  28.736  1.00  0.00     0.074 A 
ATOM     46  C   UNL A   1      41.332  25.642  28.487  1.00  0.00     0.049 A 
ATOM     47  N   UNL A   1      44.201  26.203  29.224  1.00  0.00    -0.248 NA
ATOM     48  C   UNL A   1      44.738  24.015  28.618  1.00  0.00     0.031 C 
ATOM     49  C   UNL A   1      39.919  25.418  28.172  1.00  0.00     0.029 A 
ATOM     50  N   UNL A   1      41.371  26.932  28.951  1.00  0.00    -0.354 N 
ATOM     51  C   UNL A   1      45.547  25.965  29.477  1.00  0.00     0.074 A 
ATOM     52  C   UNL A   1      45.801  24.578  29.168  1.00  0.00     0.031 C 
ATOM     53  C   UNL A   1      39.235  26.552  28.403  1.00  0.00     0.029 A 
ATOM     54  C   UNL A   1      40.155  27.570  28.901  1.00  0.00     0.049 A 
ATOM     55  H   UNL A   1      42.190  27.359  29.289  1.00  0.00     0.167 HD
ATOM     56  C   UNL A   1      46.502  26.830  29.889  1.00  0.00     0.031 A 
ATOM     57  C   UNL A   1      39.829  28.843  29.201  1.00  0.00     0.031 A 
ATOM     58  C   UNL A   1      46.261  28.217  30.164  1.00  0.00     0.049 A 
ATOM     59  C   UNL A   1      40.908  29.791  29.648  1.00  0.00     0.074 A 
ATOM     60  C   UNL A   1      47.169  29.196  30.528  1.00  0.00     0.029 A 
ATOM     61  N   UNL A   1      45.016  28.823  30.101  1.00  0.00    -0.354 N 
ATOM     62  N   UNL A   1      42.193  29.573  29.799  1.00  0.00    -0.248 NA
ATOM     63  C   UNL A   1      40.493  31.169  29.950  1.00  0.00     0.031 C 
ATOM     64  C   UNL A   1      46.464  30.386  30.729  1.00  0.00     0.029 A 
ATOM     65  C   UNL A   1      45.127  30.159  30.441  1.00  0.00     0.049 A 
ATOM     66  H   UNL A   1      44.178  28.370  29.852  1.00  0.00     0.167 HD
ATOM     67  C   UNL A   1      42.742  30.790  30.184  1.00  0.00     0.074 A 
ATOM     68  C   UNL A   1      41.654  31.745  30.228  1.00  0.00     0.031 C 
ATOM     69  C   UNL A   1      44.030  31.091  30.476  1.00  0.00     0.031 A 
BRANCH  56  70
ATOM     70  C   UNL A   1      47.894  26.290  30.053  1.00  0.00    -0.014 A 
ATOM     71  C   UNL A   1      48.353  25.831  31.299  1.00  0.00     0.009 A 
ATOM     72  C   UNL A   1      48.758  26.235  28.949  1.00  0.00     0.009 A 
ATOM     73  C   UNL A   1      49.662  25.368  31.444  1.00  0.00     0.001 A 
ATOM     74  C   UNL A   1      50.057  25.743  29.090  1.00  0.00     0.001 A 
ATOM     75  C   UNL A   1      50.512  25.321  30.340  1.00  0.00     0.000 A 
ENDBRANCH  56  70
BRANCH  57  76
ATOM     76  C   UNL A   1      38.426  29.311  29.046  1.00  0.00    -0.014 A 
ATOM     77  C   UNL A   1      37.965  29.781  27.805  1.00  0.00     0.009 A 
ATOM     78  C   UNL A   1      37.548  29.309  30.139  1.00  0.00     0.009 A 
ATOM     79  C   UNL A   1      36.661  30.267  27.673  1.00  0.00     0.001 A 
ATOM     80  C   UNL A   1      36.237  29.771  29.997  1.00  0.00     0.001 A 
ATOM     81  C   UNL A   1      35.798  30.258  28.767  1.00  0.00     0.000 A 
ENDBRANCH  57  76
BRANCH  69  82
ATOM     82  C   UNL A   1      44.341  32.514  30.842  1.00  0.00    -0.014 A 
ATOM     83  C   UNL A   1      44.648  33.466  29.858  1.00  0.00     0.009 A 
ATOM     84  C   UNL A   1      44.267  32.918  32.184  1.00  0.00     0.009 A 
ATOM     85  C   UNL A   1      44.905  34.791  30.216  1.00  0.00     0.001 A 
ATOM     86  C   UNL A   1      44.497  34.247  32.535  1.00  0.00     0.001 A 
ATOM     87  C   UNL A   1      44.823  35.180  31.552  1.00  0.00     0.000 A 
ENDBRANCH  69  82
ENDBRANCH  43  44
ENDBRANCH  35  38
ENDBRANCH  33  34
ENDBRANCH  32  33
ENDBRANCH  31  32
ENDBRANCH  30  31
ENDBRANCH   3  30
TORSDOF 17
ENDMDL
MODEL 3
REMARK VINA RESULT:     -12.6      2.211      6.747
REMARK SMILES CCCOC(=O)c1c(NC(=O)[C@@H]2CC=CC[C@H]2C(=O)NCCCCNC(=O)c2ccc(-c3c4nc(c(-c5ccccc5)c5ccc([nH]5)c(-c5ccccc5)c5nc(c(-c6ccccc6)c6ccc3[nH]6)C=C5)C=C4)cc2)sc2c1CCCC2
REMARK SMILES IDX 18 1 19 2 20 3 17 5 12 6 13 7 14 8 16 9 15 10 10 11 9 12
REMARK SMILES IDX 11 14 8 15 7 16 78 17 76 18 77 19 79 20 82 21 80 22 81 23
REMARK SMILES IDX 5 24 6 25 4 26 3 27 2 28 1 29 21 30 22 31 23 32 24 33 25 34
REMARK SMILES IDX 26 35 27 37 28 38 29 39 75 40 30 41 74 42 31 43 32 44 33 45
REMARK SMILES IDX 68 46 34 47 73 48 67 49 69 50 35 51 72 52 66 53 65 54 36 56
REMARK SMILES IDX 58 57 43 58 57 59 44 60 47 61 56 62 70 63 45 64 46 65 55 67
REMARK SMILES IDX 71 68 48 69 37 70 38 71 42 72 39 73 41 74 40 75 59 76 60 77
REMARK SMILES IDX 64 78 61 79 63 80 62 81 49 82 50 83 54 84 51 85 53 86 52 87
REMARK H PARENT 20 4 9 13 25 36 69 55 47 66
REMARK Flexibility Score: inf
ROOT
ATOM      1  C   UNL A   1      34.180  23.298  23.200  1.00  0.00     0.224 C 
ATOM      2  O   UNL A   1      33.880  23.678  22.046  1.00  0.00    -0.275 OA
ATOM      3  N   UNL A   1      35.512  22.723  23.189  1.00  0.00    -0.356 N 
ATOM      4  H   UNL A   1      35.758  22.698  22.236  1.00  0.00     0.163 HD
ENDROOT
BRANCH   1   5
ATOM      5  C   UNL A   1      32.846  23.545  24.405  1.00  0.00     0.095 C 
ATOM      6  C   UNL A   1      32.766  24.899  25.146  1.00  0.00     0.095 C 
ATOM      7  C   UNL A   1      31.978  24.872  26.497  1.00  0.00     0.041 C 
ATOM      8  C   UNL A   1      30.693  24.126  26.492  1.00  0.00    -0.030 C 
ATOM      9  C   UNL A   1      31.304  23.121  24.326  1.00  0.00     0.041 C 
ATOM     10  C   UNL A   1      30.395  23.303  25.495  1.00  0.00    -0.030 C 
BRANCH   6  11
ATOM     11  C   UNL A   1      34.098  25.459  25.492  1.00  0.00     0.229 C 
ATOM     12  N   UNL A   1      34.162  26.769  25.780  1.00  0.00    -0.317 N 
ATOM     13  H   UNL A   1      34.793  26.998  26.501  1.00  0.00     0.170 HD
ATOM     14  O   UNL A   1      35.094  24.761  25.681  1.00  0.00    -0.274 OA
BRANCH  12  15
ATOM     15  C   UNL A   1      33.501  27.838  25.246  1.00  0.00     0.110 A 
ATOM     16  C   UNL A   1      32.829  29.006  25.636  1.00  0.00     0.098 A 
ATOM     17  C   UNL A   1      31.688  29.077  24.571  1.00  0.00    -0.017 A 
ATOM     18  S   UNL A   1      33.427  27.496  23.579  1.00  0.00    -0.122 S 
ATOM     19  C   UNL A   1      32.065  28.441  23.392  1.00  0.00     0.011 A 
ATOM     20  C   UNL A   1      30.307  29.713  24.532  1.00  0.00     0.038 C 
ATOM     21  C   UNL A   1      31.357  28.471  22.069  1.00  0.00     0.047 C 
ATOM     22  C   UNL A   1      29.524  29.662  23.208  1.00  0.00     0.005 C 
ATOM     23  C   UNL A   1      30.440  29.686  21.999  1.00  0.00     0.006 C 
BRANCH  16  24
ATOM     24  C   UNL A   1      33.372  29.994  26.812  1.00  0.00     0.341 C 
ATOM     25  O   UNL A   1      34.115  29.447  27.632  1.00  0.00    -0.246 OA
BRANCH  24  26
ATOM     26  O   UNL A   1      33.133  31.417  27.110  1.00  0.00    -0.462 OA
BRANCH  26  27
ATOM     27  C   UNL A   1      33.201  33.051  27.695  1.00  0.00     0.233 C 
BRANCH  27  28
ATOM     28  C   UNL A   1      34.472  33.905  28.262  1.00  0.00     0.038 C 
ATOM     29  C   UNL A   1      35.957  33.448  28.247  1.00  0.00     0.007 C 
ENDBRANCH  27  28
ENDBRANCH  26  27
ENDBRANCH  24  26
ENDBRANCH  16  24
ENDBRANCH  12  15
ENDBRANCH   6  11
ENDBRANCH   1   5
BRANCH   3  30
ATOM     30  C   UNL A   1      36.870  22.071  23.989  1.00  0.00     0.116 C 
BRANCH  30  31
ATOM     31  C   UNL A   1      37.040  20.741  24.987  1.00  0.00     0.023 C 
BRANCH  31  32
ATOM     32  C   UNL A   1      38.188  19.662  24.959  1.00  0.00     0.023 C 
BRANCH  32  33
ATOM     33  C   UNL A   1      39.271  19.841  26.023  1.00  0.00     0.116 C 
BRANCH  33  34
ATOM     34  N   UNL A   1      40.408  18.951  25.859  1.00  0.00    -0.352 N 
ATOM     35  C   UNL A   1      41.752  19.293  25.899  1.00  0.00     0.251 C 
ATOM     36  H   UNL A   1      40.202  18.002  25.701  1.00  0.00     0.163 HD
ATOM     37  O   UNL A   1      42.614  18.516  25.572  1.00  0.00    -0.269 OA
BRANCH  35  38
ATOM     38  C   UNL A   1      42.103  20.672  26.329  1.00  0.00     0.039 A 
ATOM     39  C   UNL A   1      42.180  21.691  25.377  1.00  0.00     0.014 A 
ATOM     40  C   UNL A   1      42.332  20.949  27.677  1.00  0.00     0.014 A 
ATOM     41  C   UNL A   1      42.457  22.996  25.791  1.00  0.00     0.010 A 
ATOM     42  C   UNL A   1      42.502  22.260  28.098  1.00  0.00     0.010 A 
ATOM     43  C   UNL A   1      42.612  23.291  27.156  1.00  0.00    -0.014 A 
BRANCH  43  44
ATOM     44  C   UNL A   1      43.005  24.650  27.601  1.00  0.00     0.031 A 
ATOM     45  C   UNL A   1      44.452  25.063  27.523  1.00  0.00     0.074 A 
ATOM     46  C   UNL A   1      42.080  25.507  28.073  1.00  0.00     0.049 A 
ATOM     47  N   UNL A   1      44.998  26.219  27.806  1.00  0.00    -0.248 NA
ATOM     48  C   UNL A   1      45.418  24.036  27.097  1.00  0.00     0.031 C 
ATOM     49  C   UNL A   1      40.656  25.212  28.249  1.00  0.00     0.029 A 
ATOM     50  N   UNL A   1      42.201  26.814  28.474  1.00  0.00    -0.354 N 
ATOM     51  C   UNL A   1      46.361  26.048  27.603  1.00  0.00     0.074 A 
ATOM     52  C   UNL A   1      46.572  24.663  27.252  1.00  0.00     0.031 C 
ATOM     53  C   UNL A   1      40.028  26.323  28.673  1.00  0.00     0.029 A 
ATOM     54  C   UNL A   1      41.006  27.397  28.818  1.00  0.00     0.049 A 
ATOM     55  H   UNL A   1      43.063  27.288  28.513  1.00  0.00     0.167 HD
ATOM     56  C   UNL A   1      47.353  26.967  27.659  1.00  0.00     0.031 A 
ATOM     57  C   UNL A   1      40.731  28.663  29.186  1.00  0.00     0.031 A 
ATOM     58  C   UNL A   1      47.143  28.352  27.973  1.00  0.00     0.049 A 
ATOM     59  C   UNL A   1      41.846  29.673  29.233  1.00  0.00     0.074 A 
ATOM     60  C   UNL A   1      48.068  29.381  27.997  1.00  0.00     0.029 A 
ATOM     61  N   UNL A   1      45.918  28.900  28.315  1.00  0.00    -0.354 N 
ATOM     62  N   UNL A   1      43.118  29.516  28.953  1.00  0.00    -0.248 NA
ATOM     63  C   UNL A   1      41.482  31.041  29.630  1.00  0.00     0.031 C 
ATOM     64  C   UNL A   1      47.407  30.545  28.399  1.00  0.00     0.029 A 
ATOM     65  C   UNL A   1      46.064  30.250  28.575  1.00  0.00     0.049 A 
ATOM     66  H   UNL A   1      45.070  28.402  28.366  1.00  0.00     0.167 HD
ATOM     67  C   UNL A   1      43.699  30.768  29.111  1.00  0.00     0.074 A 
ATOM     68  C   UNL A   1      42.638  31.676  29.496  1.00  0.00     0.031 C 
ATOM     69  C   UNL A   1      44.993  31.135  28.954  1.00  0.00     0.031 A 
BRANCH  56  70
ATOM     70  C   UNL A   1      48.747  26.495  27.362  1.00  0.00    -0.014 A 
ATOM     71  C   UNL A   1      49.258  26.516  26.053  1.00  0.00     0.009 A 
ATOM     72  C   UNL A   1      49.563  26.026  28.402  1.00  0.00     0.009 A 
ATOM     73  C   UNL A   1      50.542  26.037  25.787  1.00  0.00     0.001 A 
ATOM     74  C   UNL A   1      50.858  25.576  28.137  1.00  0.00     0.001 A 
ATOM     75  C   UNL A   1      51.342  25.571  26.829  1.00  0.00     0.000 A 
ENDBRANCH  56  70
BRANCH  57  76
ATOM     76  C   UNL A   1      39.333  29.065  29.497  1.00  0.00    -0.014 A 
ATOM     77  C   UNL A   1      38.481  29.524  28.479  1.00  0.00     0.009 A 
ATOM     78  C   UNL A   1      38.850  29.009  30.812  1.00  0.00     0.009 A 
ATOM     79  C   UNL A   1      37.183  29.947  28.780  1.00  0.00     0.001 A 
ATOM     80  C   UNL A   1      37.544  29.408  31.105  1.00  0.00     0.001 A 
ATOM     81  C   UNL A   1      36.715  29.886  30.090  1.00  0.00     0.000 A 
ENDBRANCH  57  76
BRANCH  69  82
ATOM     82  C   UNL A   1      45.332  32.581  29.170  1.00  0.00    -0.014 A 
ATOM     83  C   UNL A   1      45.227  33.515  28.128  1.00  0.00     0.009 A 
ATOM     84  C   UNL A   1      45.705  33.024  30.449  1.00  0.00     0.009 A 
ATOM     85  C   UNL A   1      45.519  34.861  28.357  1.00  0.00     0.001 A 
ATOM     86  C   UNL A   1      45.968  34.374  30.681  1.00  0.00     0.001 A 
ATOM     87  C   UNL A   1      45.882  35.289  29.633  1.00  0.00     0.000 A 
ENDBRANCH  69  82
ENDBRANCH  43  44
ENDBRANCH  35  38
ENDBRANCH  33  34
ENDBRANCH  32  33
ENDBRANCH  31  32
ENDBRANCH  30  31
ENDBRANCH   3  30
TORSDOF 17
ENDMDL
