MODEL 1
REMARK VINA RESULT:     -11.8      0.000      0.000
REMARK SMILES CC(C)(C)c1cc2c(cc1Cl)C=C(C(=O)NCCCCNC(=O)c1ccc(-c3c4nc(c(-c5ccccc5)c5ccc([nH]5)c(-c5ccccc5)c5nc(c(-c6ccccc6)c6ccc3[nH]6)C=C5)C=C4)cc1)[C@@H](C(F)(F)F)O2
REMARK SMILES IDX 19 1 18 2 17 3 16 4 14 5 15 6 13 8 5 9 6 10 10 11 7 12 9 13
REMARK SMILES IDX 11 14 8 15 77 16 12 17 72 18 2 19 1 20 3 21 4 22 73 23 74 24
REMARK SMILES IDX 75 25 76 26 20 27 21 28 22 29 23 31 24 32 25 33 71 34 26 35
REMARK SMILES IDX 70 36 27 37 28 38 29 39 64 40 30 41 69 42 63 43 65 44 31 45
REMARK SMILES IDX 68 46 62 47 61 48 32 50 54 51 39 52 53 53 40 54 43 55 52 56
REMARK SMILES IDX 66 57 41 58 42 59 51 61 67 62 44 63 33 64 34 65 38 66 35 67
REMARK SMILES IDX 37 68 36 69 55 70 56 71 60 72 57 73 59 74 58 75 45 76 46 77
REMARK SMILES IDX 50 78 47 79 49 80 48 81
REMARK H PARENT 16 7 21 30 65 49 43 60
REMARK Flexibility Score: inf
ROOT
ATOM      1  C   UNL A   1      33.049  29.171  27.246  1.00  0.00     0.023 C 
ENDROOT
BRANCH   1   2
ATOM      2  C   UNL A   1      31.669  29.705  26.854  1.00  0.00     0.023 C 
BRANCH   2   3
ATOM      3  C   UNL A   1      31.590  30.256  25.432  1.00  0.00     0.116 C 
BRANCH   3   4
ATOM      4  N   UNL A   1      30.655  29.512  24.608  1.00  0.00    -0.352 N 
ATOM      5  C   UNL A   1      30.647  28.329  23.948  1.00  0.00     0.251 C 
ATOM      6  O   UNL A   1      29.603  28.078  23.337  1.00  0.00    -0.270 OA
ATOM      7  H   UNL A   1      29.802  29.994  24.500  1.00  0.00     0.163 HD
BRANCH   5   8
ATOM      8  C   UNL A   1      31.776  27.353  23.914  1.00  0.00     0.067 C 
ATOM      9  C   UNL A   1      35.060  23.609  24.997  1.00  0.00    -0.020 A 
ATOM     10  C   UNL A   1      34.737  24.393  23.863  1.00  0.00     0.053 A 
ATOM     11  C   UNL A   1      34.232  23.798  26.126  1.00  0.00     0.045 A 
ATOM     12  C   UNL A   1      33.719  25.345  23.871  1.00  0.00     0.128 A 
ATOM     13  C   UNL A   1      33.196  24.757  26.122  1.00  0.00     0.032 A 
ATOM     14  Cl  UNL A   1      34.320  22.878  27.585  1.00  0.00    -0.084 Cl
ATOM     15  C   UNL A   1      32.940  25.539  24.999  1.00  0.00     0.019 A 
ATOM     16  O   UNL A   1      33.508  26.024  22.707  1.00  0.00    -0.475 OA
ATOM     17  C   UNL A   1      31.848  26.504  24.958  1.00  0.00     0.025 C 
ATOM     18  C   UNL A   1      32.821  27.300  22.835  1.00  0.00     0.314 C 
BRANCH   9  19
ATOM     19  C   UNL A   1      36.228  22.598  24.848  1.00  0.00    -0.012 C 
ATOM     20  C   UNL A   1      37.439  23.003  25.738  1.00  0.00     0.016 C 
ATOM     21  C   UNL A   1      36.682  22.615  23.373  1.00  0.00     0.016 C 
ATOM     22  C   UNL A   1      35.934  21.134  25.239  1.00  0.00     0.016 C 
ENDBRANCH   9  19
BRANCH  18  23
ATOM     23  C   UNL A   1      33.863  28.428  22.964  1.00  0.00     0.429 C 
ATOM     24  F   UNL A   1      33.292  29.631  22.705  1.00  0.00    -0.167 F 
ATOM     25  F   UNL A   1      34.383  28.512  24.212  1.00  0.00    -0.167 F 
ATOM     26  F   UNL A   1      34.903  28.280  22.114  1.00  0.00    -0.167 F 
ENDBRANCH  18  23
ENDBRANCH   5   8
ENDBRANCH   3   4
ENDBRANCH   2   3
ENDBRANCH   1   2
BRANCH   1  27
ATOM     27  C   UNL A   1      34.181  30.193  27.214  1.00  0.00     0.116 C 
BRANCH  27  28
ATOM     28  N   UNL A   1      34.239  31.068  28.382  1.00  0.00    -0.352 N 
ATOM     29  C   UNL A   1      35.254  31.168  29.303  1.00  0.00     0.251 C 
ATOM     30  H   UNL A   1      33.461  31.655  28.525  1.00  0.00     0.163 HD
ATOM     31  O   UNL A   1      35.155  31.902  30.280  1.00  0.00    -0.269 OA
BRANCH  29  32
ATOM     32  C   UNL A   1      36.446  30.317  29.123  1.00  0.00     0.039 A 
ATOM     33  C   UNL A   1      36.974  29.619  30.211  1.00  0.00     0.014 A 
ATOM     34  C   UNL A   1      37.104  30.327  27.890  1.00  0.00     0.014 A 
ATOM     35  C   UNL A   1      38.249  29.079  30.115  1.00  0.00     0.010 A 
ATOM     36  C   UNL A   1      38.355  29.717  27.778  1.00  0.00     0.010 A 
ATOM     37  C   UNL A   1      38.961  29.144  28.906  1.00  0.00    -0.014 A 
BRANCH  37  38
ATOM     38  C   UNL A   1      40.353  28.635  28.860  1.00  0.00     0.031 A 
ATOM     39  C   UNL A   1      40.638  27.211  28.467  1.00  0.00     0.074 A 
ATOM     40  C   UNL A   1      41.370  29.486  29.096  1.00  0.00     0.049 A 
ATOM     41  N   UNL A   1      41.795  26.613  28.324  1.00  0.00    -0.248 NA
ATOM     42  C   UNL A   1      39.481  26.342  28.196  1.00  0.00     0.031 C 
ATOM     43  C   UNL A   1      41.217  30.897  29.456  1.00  0.00     0.029 A 
ATOM     44  N   UNL A   1      42.726  29.301  29.028  1.00  0.00    -0.354 N 
ATOM     45  C   UNL A   1      41.506  25.302  27.971  1.00  0.00     0.074 A 
ATOM     46  C   UNL A   1      40.065  25.180  27.937  1.00  0.00     0.031 C 
ATOM     47  C   UNL A   1      42.430  31.466  29.510  1.00  0.00     0.029 A 
ATOM     48  C   UNL A   1      43.445  30.450  29.249  1.00  0.00     0.049 A 
ATOM     49  H   UNL A   1      43.144  28.430  28.840  1.00  0.00     0.167 HD
ATOM     50  C   UNL A   1      42.364  24.291  27.696  1.00  0.00     0.031 A 
ATOM     51  C   UNL A   1      44.772  30.666  29.245  1.00  0.00     0.031 A 
ATOM     52  C   UNL A   1      43.797  24.416  27.713  1.00  0.00     0.049 A 
ATOM     53  C   UNL A   1      45.703  29.523  28.971  1.00  0.00     0.074 A 
ATOM     54  C   UNL A   1      44.747  23.448  27.437  1.00  0.00     0.029 A 
ATOM     55  N   UNL A   1      44.486  25.579  28.017  1.00  0.00    -0.354 N 
ATOM     56  N   UNL A   1      45.410  28.284  28.656  1.00  0.00    -0.248 NA
ATOM     57  C   UNL A   1      47.142  29.802  29.060  1.00  0.00     0.031 C 
ATOM     58  C   UNL A   1      46.012  24.016  27.615  1.00  0.00     0.029 A 
ATOM     59  C   UNL A   1      45.849  25.349  27.955  1.00  0.00     0.049 A 
ATOM     60  H   UNL A   1      44.067  26.442  28.244  1.00  0.00     0.167 HD
ATOM     61  C   UNL A   1      46.628  27.635  28.509  1.00  0.00     0.074 A 
ATOM     62  C   UNL A   1      47.663  28.621  28.747  1.00  0.00     0.031 C 
ATOM     63  C   UNL A   1      46.865  26.336  28.208  1.00  0.00     0.031 A 
BRANCH  50  64
ATOM     64  C   UNL A   1      41.783  22.946  27.367  1.00  0.00    -0.014 A 
ATOM     65  C   UNL A   1      41.611  21.995  28.385  1.00  0.00     0.009 A 
ATOM     66  C   UNL A   1      41.482  22.589  26.044  1.00  0.00     0.009 A 
ATOM     67  C   UNL A   1      41.155  20.711  28.086  1.00  0.00     0.001 A 
ATOM     68  C   UNL A   1      41.005  21.308  25.750  1.00  0.00     0.001 A 
ATOM     69  C   UNL A   1      40.849  20.370  26.770  1.00  0.00     0.000 A 
ENDBRANCH  50  64
BRANCH  51  70
ATOM     70  C   UNL A   1      45.283  32.033  29.509  1.00  0.00    -0.014 A 
ATOM     71  C   UNL A   1      45.528  32.461  30.823  1.00  0.00     0.009 A 
ATOM     72  C   UNL A   1      45.460  32.938  28.453  1.00  0.00     0.009 A 
ATOM     73  C   UNL A   1      45.915  33.777  31.078  1.00  0.00     0.001 A 
ATOM     74  C   UNL A   1      45.873  34.249  28.710  1.00  0.00     0.001 A 
ATOM     75  C   UNL A   1      46.089  34.669  30.021  1.00  0.00     0.000 A 
ENDBRANCH  51  70
BRANCH  63  76
ATOM     76  C   UNL A   1      48.296  25.896  28.122  1.00  0.00    -0.014 A 
ATOM     77  C   UNL A   1      48.976  25.500  29.284  1.00  0.00     0.009 A 
ATOM     78  C   UNL A   1      48.993  25.954  26.906  1.00  0.00     0.009 A 
ATOM     79  C   UNL A   1      50.333  25.177  29.231  1.00  0.00     0.001 A 
ATOM     80  C   UNL A   1      50.344  25.610  26.853  1.00  0.00     0.001 A 
ATOM     81  C   UNL A   1      51.015  25.229  28.015  1.00  0.00     0.000 A 
ENDBRANCH  63  76
ENDBRANCH  37  38
ENDBRANCH  29  32
ENDBRANCH  27  28
ENDBRANCH   1  27
TORSDOF 13
ENDMDL
MODEL 2
REMARK VINA RESULT:     -11.6      4.050      8.728
REMARK SMILES CC(C)(C)c1cc2c(cc1Cl)C=C(C(=O)NCCCCNC(=O)c1ccc(-c3c4nc(c(-c5ccccc5)c5ccc([nH]5)c(-c5ccccc5)c5nc(c(-c6ccccc6)c6ccc3[nH]6)C=C5)C=C4)cc1)[C@@H](C(F)(F)F)O2
REMARK SMILES IDX 19 1 18 2 17 3 16 4 14 5 15 6 13 8 5 9 6 10 10 11 7 12 9 13
REMARK SMILES IDX 11 14 8 15 77 16 12 17 72 18 2 19 1 20 3 21 4 22 73 23 74 24
REMARK SMILES IDX 75 25 76 26 20 27 21 28 22 29 23 31 24 32 25 33 71 34 26 35
REMARK SMILES IDX 70 36 27 37 28 38 29 39 64 40 30 41 69 42 63 43 65 44 31 45
REMARK SMILES IDX 68 46 62 47 61 48 32 50 54 51 39 52 53 53 40 54 43 55 52 56
REMARK SMILES IDX 66 57 41 58 42 59 51 61 67 62 44 63 33 64 34 65 38 66 35 67
REMARK SMILES IDX 37 68 36 69 55 70 56 71 60 72 57 73 59 74 58 75 45 76 46 77
REMARK SMILES IDX 50 78 47 79 49 80 48 81
REMARK H PARENT 16 7 21 30 65 49 43 60
REMARK Flexibility Score: inf
ROOT
ATOM      1  C   UNL A   1      36.989  22.747  24.519  1.00  0.00     0.023 C 
ENDROOT
BRANCH   1   2
ATOM      2  C   UNL A   1      36.853  21.243  24.269  1.00  0.00     0.023 C 
BRANCH   2   3
ATOM      3  C   UNL A   1      35.885  20.534  25.213  1.00  0.00     0.116 C 
BRANCH   3   4
ATOM      4  N   UNL A   1      34.585  20.319  24.605  1.00  0.00    -0.352 N 
ATOM      5  C   UNL A   1      33.421  21.003  24.498  1.00  0.00     0.251 C 
ATOM      6  O   UNL A   1      32.527  20.421  23.875  1.00  0.00    -0.270 OA
ATOM      7  H   UNL A   1      34.536  19.446  24.150  1.00  0.00     0.163 HD
BRANCH   5   8
ATOM      8  C   UNL A   1      33.163  22.360  25.065  1.00  0.00     0.067 C 
ATOM      9  C   UNL A   1      32.793  27.394  25.773  1.00  0.00    -0.020 A 
ATOM     10  C   UNL A   1      32.286  26.231  26.401  1.00  0.00     0.053 A 
ATOM     11  C   UNL A   1      33.520  27.177  24.581  1.00  0.00     0.045 A 
ATOM     12  C   UNL A   1      32.542  24.945  25.925  1.00  0.00     0.128 A 
ATOM     13  C   UNL A   1      33.766  25.873  24.100  1.00  0.00     0.032 A 
ATOM     14  Cl  UNL A   1      34.127  28.423  23.550  1.00  0.00    -0.084 Cl
ATOM     15  C   UNL A   1      33.286  24.753  24.774  1.00  0.00     0.019 A 
ATOM     16  O   UNL A   1      31.985  23.913  26.621  1.00  0.00    -0.475 OA
ATOM     17  C   UNL A   1      33.490  23.399  24.272  1.00  0.00     0.025 C 
ATOM     18  C   UNL A   1      32.616  22.615  26.442  1.00  0.00     0.314 C 
BRANCH   9  19
ATOM     19  C   UNL A   1      32.439  28.759  26.422  1.00  0.00    -0.012 C 
ATOM     20  C   UNL A   1      33.714  29.475  26.955  1.00  0.00     0.016 C 
ATOM     21  C   UNL A   1      31.500  28.484  27.616  1.00  0.00     0.016 C 
ATOM     22  C   UNL A   1      31.759  29.805  25.512  1.00  0.00     0.016 C 
ENDBRANCH   9  19
BRANCH  18  23
ATOM     23  C   UNL A   1      33.671  22.407  27.546  1.00  0.00     0.429 C 
ATOM     24  F   UNL A   1      33.932  21.085  27.707  1.00  0.00    -0.167 F 
ATOM     25  F   UNL A   1      34.853  22.997  27.251  1.00  0.00    -0.167 F 
ATOM     26  F   UNL A   1      33.277  22.892  28.745  1.00  0.00    -0.167 F 
ENDBRANCH  18  23
ENDBRANCH   5   8
ENDBRANCH   3   4
ENDBRANCH   2   3
ENDBRANCH   1   2
BRANCH   1  27
ATOM     27  C   UNL A   1      37.804  23.135  25.749  1.00  0.00     0.116 C 
BRANCH  27  28
ATOM     28  N   UNL A   1      39.173  22.628  25.752  1.00  0.00    -0.352 N 
ATOM     29  C   UNL A   1      40.291  23.238  26.268  1.00  0.00     0.251 C 
ATOM     30  H   UNL A   1      39.311  21.745  25.337  1.00  0.00     0.163 HD
ATOM     31  O   UNL A   1      41.402  22.733  26.153  1.00  0.00    -0.269 OA
BRANCH  29  32
ATOM     32  C   UNL A   1      40.131  24.557  26.911  1.00  0.00     0.039 A 
ATOM     33  C   UNL A   1      40.811  25.666  26.403  1.00  0.00     0.014 A 
ATOM     34  C   UNL A   1      39.402  24.646  28.099  1.00  0.00     0.014 A 
ATOM     35  C   UNL A   1      40.906  26.815  27.176  1.00  0.00     0.010 A 
ATOM     36  C   UNL A   1      39.440  25.830  28.838  1.00  0.00     0.010 A 
ATOM     37  C   UNL A   1      40.242  26.899  28.411  1.00  0.00    -0.014 A 
BRANCH  37  38
ATOM     38  C   UNL A   1      40.433  28.105  29.253  1.00  0.00     0.031 A 
ATOM     39  C   UNL A   1      39.396  29.195  29.280  1.00  0.00     0.074 A 
ATOM     40  C   UNL A   1      41.510  28.178  30.058  1.00  0.00     0.049 A 
ATOM     41  N   UNL A   1      39.376  30.292  29.995  1.00  0.00    -0.248 NA
ATOM     42  C   UNL A   1      38.230  29.039  28.395  1.00  0.00     0.031 C 
ATOM     43  C   UNL A   1      42.567  27.168  30.139  1.00  0.00     0.029 A 
ATOM     44  N   UNL A   1      41.871  29.119  30.986  1.00  0.00    -0.354 N 
ATOM     45  C   UNL A   1      38.216  30.962  29.632  1.00  0.00     0.074 A 
ATOM     46  C   UNL A   1      37.563  30.162  28.620  1.00  0.00     0.031 C 
ATOM     47  C   UNL A   1      43.421  27.509  31.115  1.00  0.00     0.029 A 
ATOM     48  C   UNL A   1      43.007  28.789  31.684  1.00  0.00     0.049 A 
ATOM     49  H   UNL A   1      41.367  29.951  31.137  1.00  0.00     0.167 HD
ATOM     50  C   UNL A   1      37.735  32.138  30.104  1.00  0.00     0.031 A 
ATOM     51  C   UNL A   1      43.648  29.440  32.671  1.00  0.00     0.031 A 
ATOM     52  C   UNL A   1      38.375  32.927  31.123  1.00  0.00     0.049 A 
ATOM     53  C   UNL A   1      43.114  30.756  33.152  1.00  0.00     0.074 A 
ATOM     54  C   UNL A   1      37.956  34.126  31.670  1.00  0.00     0.029 A 
ATOM     55  N   UNL A   1      39.565  32.593  31.749  1.00  0.00    -0.354 N 
ATOM     56  N   UNL A   1      42.023  31.383  32.784  1.00  0.00    -0.248 NA
ATOM     57  C   UNL A   1      43.901  31.458  34.174  1.00  0.00     0.031 C 
ATOM     58  C   UNL A   1      38.914  34.540  32.600  1.00  0.00     0.029 A 
ATOM     59  C   UNL A   1      39.905  33.573  32.665  1.00  0.00     0.049 A 
ATOM     60  H   UNL A   1      40.090  31.779  31.570  1.00  0.00     0.167 HD
ATOM     61  C   UNL A   1      41.992  32.554  33.529  1.00  0.00     0.074 A 
ATOM     62  C   UNL A   1      43.160  32.539  34.385  1.00  0.00     0.031 C 
ATOM     63  C   UNL A   1      41.077  33.552  33.499  1.00  0.00     0.031 A 
BRANCH  50  64
ATOM     64  C   UNL A   1      36.458  32.662  29.513  1.00  0.00    -0.014 A 
ATOM     65  C   UNL A   1      35.228  32.315  30.094  1.00  0.00     0.009 A 
ATOM     66  C   UNL A   1      36.462  33.429  28.339  1.00  0.00     0.009 A 
ATOM     67  C   UNL A   1      34.027  32.720  29.509  1.00  0.00     0.001 A 
ATOM     68  C   UNL A   1      35.259  33.851  27.766  1.00  0.00     0.001 A 
ATOM     69  C   UNL A   1      34.045  33.491  28.349  1.00  0.00     0.000 A 
ENDBRANCH  50  64
BRANCH  51  70
ATOM     70  C   UNL A   1      44.867  28.836  33.262  1.00  0.00    -0.014 A 
ATOM     71  C   UNL A   1      46.130  29.087  32.703  1.00  0.00     0.009 A 
ATOM     72  C   UNL A   1      44.765  27.952  34.346  1.00  0.00     0.009 A 
ATOM     73  C   UNL A   1      47.264  28.443  33.199  1.00  0.00     0.001 A 
ATOM     74  C   UNL A   1      45.906  27.328  34.856  1.00  0.00     0.001 A 
ATOM     75  C   UNL A   1      47.151  27.566  34.276  1.00  0.00     0.000 A 
ENDBRANCH  51  70
BRANCH  63  76
ATOM     76  C   UNL A   1      41.298  34.719  34.415  1.00  0.00    -0.014 A 
ATOM     77  C   UNL A   1      42.127  35.777  34.011  1.00  0.00     0.009 A 
ATOM     78  C   UNL A   1      40.753  34.731  35.707  1.00  0.00     0.009 A 
ATOM     79  C   UNL A   1      42.415  36.823  34.889  1.00  0.00     0.001 A 
ATOM     80  C   UNL A   1      41.025  35.789  36.575  1.00  0.00     0.001 A 
ATOM     81  C   UNL A   1      41.860  36.830  36.168  1.00  0.00     0.000 A 
ENDBRANCH  63  76
ENDBRANCH  37  38
ENDBRANCH  29  32
ENDBRANCH  27  28
ENDBRANCH   1  27
TORSDOF 13
ENDMDL
MODEL 3
REMARK VINA RESULT:     -11.4      2.844      7.800
REMARK SMILES CC(C)(C)c1cc2c(cc1Cl)C=C(C(=O)NCCCCNC(=O)c1ccc(-c3c4nc(c(-c5ccccc5)c5ccc([nH]5)c(-c5ccccc5)c5nc(c(-c6ccccc6)c6ccc3[nH]6)C=C5)C=C4)cc1)[C@@H](C(F)(F)F)O2
REMARK SMILES IDX 19 1 18 2 17 3 16 4 14 5 15 6 13 8 5 9 6 10 10 11 7 12 9 13
REMARK SMILES IDX 11 14 8 15 77 16 12 17 72 18 2 19 1 20 3 21 4 22 73 23 74 24
REMARK SMILES IDX 75 25 76 26 20 27 21 28 22 29 23 31 24 32 25 33 71 34 26 35
REMARK SMILES IDX 70 36 27 37 28 38 29 39 64 40 30 41 69 42 63 43 65 44 31 45
REMARK SMILES IDX 68 46 62 47 61 48 32 50 54 51 39 52 53 53 40 54 43 55 52 56
REMARK SMILES IDX 66 57 41 58 42 59 51 61 67 62 44 63 33 64 34 65 38 66 35 67
REMARK SMILES IDX 37 68 36 69 55 70 56 71 60 72 57 73 59 74 58 75 45 76 46 77
REMARK SMILES IDX 50 78 47 79 49 80 48 81
REMARK H PARENT 16 7 21 30 65 49 43 60
REMARK Flexibility Score: inf
ROOT
ATOM      1  C   UNL A   1      37.421  21.366  24.806  1.00  0.00     0.023 C 
ENDROOT
BRANCH   1   2
ATOM      2  C   UNL A   1      36.076  20.988  25.431  1.00  0.00     0.023 C 
BRANCH   2   3
ATOM      3  C   UNL A   1      35.482  19.685  24.903  1.00  0.00     0.116 C 
BRANCH   3   4
ATOM      4  N   UNL A   1      34.046  19.616  25.104  1.00  0.00    -0.352 N 
ATOM      5  C   UNL A   1      33.005  20.483  25.079  1.00  0.00     0.251 C 
ATOM      6  O   UNL A   1      31.903  19.983  25.326  1.00  0.00    -0.270 OA
ATOM      7  H   UNL A   1      33.751  18.700  25.312  1.00  0.00     0.163 HD
BRANCH   5   8
ATOM      8  C   UNL A   1      33.105  21.943  24.786  1.00  0.00     0.067 C 
ATOM      9  C   UNL A   1      32.896  27.029  25.057  1.00  0.00    -0.020 A 
ATOM     10  C   UNL A   1      33.530  26.071  24.228  1.00  0.00     0.053 A 
ATOM     11  C   UNL A   1      32.203  26.507  26.172  1.00  0.00     0.045 A 
ATOM     12  C   UNL A   1      33.424  24.698  24.446  1.00  0.00     0.128 A 
ATOM     13  C   UNL A   1      32.109  25.116  26.391  1.00  0.00     0.032 A 
ATOM     14  Cl  UNL A   1      31.461  27.456  27.410  1.00  0.00    -0.084 Cl
ATOM     15  C   UNL A   1      32.711  24.206  25.526  1.00  0.00     0.019 A 
ATOM     16  O   UNL A   1      34.093  23.888  23.576  1.00  0.00    -0.475 OA
ATOM     17  C   UNL A   1      32.664  22.767  25.756  1.00  0.00     0.025 C 
ATOM     18  C   UNL A   1      33.614  22.517  23.493  1.00  0.00     0.314 C 
BRANCH   9  19
ATOM     19  C   UNL A   1      33.090  28.523  24.687  1.00  0.00    -0.012 C 
ATOM     20  C   UNL A   1      31.728  29.202  24.357  1.00  0.00     0.016 C 
ATOM     21  C   UNL A   1      33.981  28.586  23.428  1.00  0.00     0.016 C 
ATOM     22  C   UNL A   1      33.723  29.429  25.764  1.00  0.00     0.016 C 
ENDBRANCH   9  19
BRANCH  18  23
ATOM     23  C   UNL A   1      32.586  22.406  22.351  1.00  0.00     0.429 C 
ATOM     24  F   UNL A   1      33.041  23.041  21.242  1.00  0.00    -0.167 F 
ATOM     25  F   UNL A   1      32.350  21.123  21.988  1.00  0.00    -0.167 F 
ATOM     26  F   UNL A   1      31.390  22.951  22.668  1.00  0.00    -0.167 F 
ENDBRANCH  18  23
ENDBRANCH   5   8
ENDBRANCH   3   4
ENDBRANCH   2   3
ENDBRANCH   1   2
BRANCH   1  27
ATOM     27  C   UNL A   1      38.622  21.302  25.745  1.00  0.00     0.116 C 
BRANCH  27  28
ATOM     28  N   UNL A   1      39.437  20.099  25.603  1.00  0.00    -0.352 N 
ATOM     29  C   UNL A   1      40.753  19.932  25.961  1.00  0.00     0.251 C 
ATOM     30  H   UNL A   1      38.991  19.316  25.205  1.00  0.00     0.163 HD
ATOM     31  O   UNL A   1      41.346  18.884  25.733  1.00  0.00    -0.269 OA
BRANCH  29  32
ATOM     32  C   UNL A   1      41.459  21.075  26.574  1.00  0.00     0.039 A 
ATOM     33  C   UNL A   1      41.436  21.245  27.960  1.00  0.00     0.014 A 
ATOM     34  C   UNL A   1      42.032  22.040  25.742  1.00  0.00     0.014 A 
ATOM     35  C   UNL A   1      41.826  22.464  28.498  1.00  0.00     0.010 A 
ATOM     36  C   UNL A   1      42.492  23.235  26.297  1.00  0.00     0.010 A 
ATOM     37  C   UNL A   1      42.335  23.479  27.670  1.00  0.00    -0.014 A 
BRANCH  37  38
ATOM     38  C   UNL A   1      42.662  24.798  28.263  1.00  0.00     0.031 A 
ATOM     39  C   UNL A   1      44.088  25.174  28.562  1.00  0.00     0.074 A 
ATOM     40  C   UNL A   1      41.673  25.692  28.457  1.00  0.00     0.049 A 
ATOM     41  N   UNL A   1      44.559  26.302  29.032  1.00  0.00    -0.248 NA
ATOM     42  C   UNL A   1      45.121  24.159  28.301  1.00  0.00     0.031 C 
ATOM     43  C   UNL A   1      40.257  25.451  28.176  1.00  0.00     0.029 A 
ATOM     44  N   UNL A   1      41.714  26.990  28.895  1.00  0.00    -0.354 N 
ATOM     45  C   UNL A   1      45.931  26.125  29.143  1.00  0.00     0.074 A 
ATOM     46  C   UNL A   1      46.221  24.776  28.709  1.00  0.00     0.031 C 
ATOM     47  C   UNL A   1      39.573  26.586  28.382  1.00  0.00     0.029 A 
ATOM     48  C   UNL A   1      40.491  27.613  28.867  1.00  0.00     0.049 A 
ATOM     49  H   UNL A   1      42.539  27.432  29.199  1.00  0.00     0.167 HD
ATOM     50  C   UNL A   1      46.867  27.010  29.564  1.00  0.00     0.031 A 
ATOM     51  C   UNL A   1      40.141  28.869  29.197  1.00  0.00     0.031 A 
ATOM     52  C   UNL A   1      46.581  28.357  29.980  1.00  0.00     0.049 A 
ATOM     53  C   UNL A   1      41.190  29.819  29.692  1.00  0.00     0.074 A 
ATOM     54  C   UNL A   1      47.467  29.328  30.412  1.00  0.00     0.029 A 
ATOM     55  N   UNL A   1      45.317  28.924  30.009  1.00  0.00    -0.354 N 
ATOM     56  N   UNL A   1      42.482  29.628  29.806  1.00  0.00    -0.248 NA
ATOM     57  C   UNL A   1      40.735  31.151  30.112  1.00  0.00     0.031 C 
ATOM     58  C   UNL A   1      46.733  30.471  30.744  1.00  0.00     0.029 A 
ATOM     59  C   UNL A   1      45.397  30.226  30.471  1.00  0.00     0.049 A 
ATOM     60  H   UNL A   1      44.487  28.468  29.741  1.00  0.00     0.167 HD
ATOM     61  C   UNL A   1      42.995  30.814  30.312  1.00  0.00     0.074 A 
ATOM     62  C   UNL A   1      41.879  31.726  30.460  1.00  0.00     0.031 C 
ATOM     63  C   UNL A   1      44.277  31.115  30.627  1.00  0.00     0.031 A 
BRANCH  50  64
ATOM     64  C   UNL A   1      48.295  26.549  29.617  1.00  0.00    -0.014 A 
ATOM     65  C   UNL A   1      48.797  25.974  30.794  1.00  0.00     0.009 A 
ATOM     66  C   UNL A   1      49.166  26.756  28.536  1.00  0.00     0.009 A 
ATOM     67  C   UNL A   1      50.144  25.620  30.893  1.00  0.00     0.001 A 
ATOM     68  C   UNL A   1      50.509  26.381  28.630  1.00  0.00     0.001 A 
ATOM     69  C   UNL A   1      50.997  25.820  29.810  1.00  0.00     0.000 A 
ENDBRANCH  50  64
BRANCH  51  70
ATOM     70  C   UNL A   1      38.724  29.285  29.056  1.00  0.00    -0.014 A 
ATOM     71  C   UNL A   1      37.835  29.160  30.135  1.00  0.00     0.009 A 
ATOM     72  C   UNL A   1      38.240  29.744  27.823  1.00  0.00     0.009 A 
ATOM     73  C   UNL A   1      36.481  29.461  29.974  1.00  0.00     0.001 A 
ATOM     74  C   UNL A   1      36.888  30.068  27.673  1.00  0.00     0.001 A 
ATOM     75  C   UNL A   1      36.010  29.915  28.744  1.00  0.00     0.000 A 
ENDBRANCH  51  70
BRANCH  63  76
ATOM     76  C   UNL A   1      44.551  32.486  31.171  1.00  0.00    -0.014 A 
ATOM     77  C   UNL A   1      44.886  33.531  30.296  1.00  0.00     0.009 A 
ATOM     78  C   UNL A   1      44.561  32.721  32.554  1.00  0.00     0.009 A 
ATOM     79  C   UNL A   1      45.234  34.786  30.796  1.00  0.00     0.001 A 
ATOM     80  C   UNL A   1      44.888  33.983  33.050  1.00  0.00     0.001 A 
ATOM     81  C   UNL A   1      45.230  35.013  32.173  1.00  0.00     0.000 A 
ENDBRANCH  63  76
ENDBRANCH  37  38
ENDBRANCH  29  32
ENDBRANCH  27  28
ENDBRANCH   1  27
TORSDOF 13
ENDMDL
