MODEL 1
REMARK VINA RESULT:     -12.0      0.000      0.000
REMARK SMILES O=C(NCc1cccc(F)c1)NCc1ccc(C(=O)NCCCCNC(=O)c2ccc(-c3c4nc(c(-c5ccccc5)c5ccc([nH]5)c(-c5ccccc5)c5nc(c(-c6ccccc6)c6ccc3[nH]6)C=C5)C=C4)cc2)o1
REMARK SMILES IDX 21 1 20 2 18 3 19 4 17 6 14 7 15 8 76 9 16 10 13 11 12 12
REMARK SMILES IDX 1 13 2 14 3 15 4 18 5 19 6 20 11 21 7 22 9 23 8 24 10 25
REMARK SMILES IDX 22 26 23 27 24 28 25 29 26 30 27 32 28 33 29 34 75 35 30 36
REMARK SMILES IDX 74 37 31 38 32 39 33 40 68 41 34 42 73 43 67 44 69 45 35 46
REMARK SMILES IDX 72 47 66 48 65 49 36 51 58 52 43 53 57 54 44 55 47 56 56 57
REMARK SMILES IDX 70 58 45 59 46 60 55 62 71 63 48 64 37 65 38 66 42 67 39 68
REMARK SMILES IDX 41 69 40 70 59 71 60 72 64 73 61 74 63 75 62 76 49 77 50 78
REMARK SMILES IDX 54 79 51 80 53 81 52 82
REMARK H PARENT 20 5 3 16 12 17 25 31 69 50 47 61
REMARK Flexibility Score: inf
ROOT
ATOM      1  C   UNL A   1      36.902  22.147  25.419  1.00  0.00     0.116 C 
ENDROOT
BRANCH   1   2
ATOM      2  N   UNL A   1      35.969  22.539  26.453  1.00  0.00    -0.349 N 
ATOM      3  C   UNL A   1      34.592  22.563  26.457  1.00  0.00     0.286 C 
ATOM      4  O   UNL A   1      34.068  22.863  27.533  1.00  0.00    -0.266 OA
ATOM      5  H   UNL A   1      36.388  22.837  27.293  1.00  0.00     0.163 HD
BRANCH   3   6
ATOM      6  C   UNL A   1      33.826  22.245  25.265  1.00  0.00     0.191 A 
ATOM      7  C   UNL A   1      33.175  22.645  23.181  1.00  0.00     0.124 A 
ATOM      8  C   UNL A   1      32.515  21.506  23.584  1.00  0.00     0.048 A 
ATOM      9  O   UNL A   1      33.981  23.087  24.188  1.00  0.00    -0.454 OA
ATOM     10  C   UNL A   1      32.947  21.238  24.903  1.00  0.00     0.056 A 
BRANCH   7  11
ATOM     11  C   UNL A   1      33.195  23.442  21.924  1.00  0.00     0.193 C 
BRANCH  11  12
ATOM     12  N   UNL A   1      32.332  24.592  22.090  1.00  0.00    -0.331 N 
ATOM     13  O   UNL A   1      32.922  25.626  20.149  1.00  0.00    -0.249 OA
ATOM     14  C   UNL A   1      32.346  25.639  21.232  1.00  0.00     0.315 C 
ATOM     15  N   UNL A   1      31.705  26.763  21.626  1.00  0.00    -0.334 N 
ATOM     16  H   UNL A   1      31.614  27.451  20.928  1.00  0.00     0.165 HD
ATOM     17  H   UNL A   1      31.712  24.614  22.855  1.00  0.00     0.165 HD
BRANCH  15  18
ATOM     18  C   UNL A   1      31.132  27.120  22.905  1.00  0.00     0.153 C 
BRANCH  18  19
ATOM     19  C   UNL A   1      30.013  28.115  22.728  1.00  0.00    -0.026 A 
ATOM     20  C   UNL A   1      30.239  29.351  22.105  1.00  0.00     0.006 A 
ATOM     21  C   UNL A   1      28.726  27.823  23.204  1.00  0.00     0.044 A 
ATOM     22  C   UNL A   1      29.197  30.270  21.947  1.00  0.00     0.003 A 
ATOM     23  C   UNL A   1      27.695  28.742  23.035  1.00  0.00     0.123 A 
ATOM     24  C   UNL A   1      27.918  29.962  22.410  1.00  0.00     0.039 A 
ATOM     25  F   UNL A   1      26.469  28.444  23.482  1.00  0.00    -0.207 F 
ENDBRANCH  18  19
ENDBRANCH  15  18
ENDBRANCH  11  12
ENDBRANCH   7  11
ENDBRANCH   3   6
ENDBRANCH   1   2
BRANCH   1  26
ATOM     26  C   UNL A   1      36.714  20.681  25.029  1.00  0.00     0.023 C 
BRANCH  26  27
ATOM     27  C   UNL A   1      38.024  19.912  24.833  1.00  0.00     0.023 C 
BRANCH  27  28
ATOM     28  C   UNL A   1      39.077  20.141  25.915  1.00  0.00     0.116 C 
BRANCH  28  29
ATOM     29  N   UNL A   1      40.203  19.224  25.830  1.00  0.00    -0.352 N 
ATOM     30  C   UNL A   1      41.530  19.470  26.096  1.00  0.00     0.251 C 
ATOM     31  H   UNL A   1      39.987  18.307  25.545  1.00  0.00     0.163 HD
ATOM     32  O   UNL A   1      42.376  18.615  25.874  1.00  0.00    -0.269 OA
BRANCH  30  33
ATOM     33  C   UNL A   1      41.930  20.794  26.615  1.00  0.00     0.039 A 
ATOM     34  C   UNL A   1      42.345  21.774  25.709  1.00  0.00     0.014 A 
ATOM     35  C   UNL A   1      41.876  21.074  27.983  1.00  0.00     0.014 A 
ATOM     36  C   UNL A   1      42.649  23.056  26.171  1.00  0.00     0.010 A 
ATOM     37  C   UNL A   1      42.109  22.370  28.431  1.00  0.00     0.010 A 
ATOM     38  C   UNL A   1      42.503  23.372  27.531  1.00  0.00    -0.014 A 
BRANCH  38  39
ATOM     39  C   UNL A   1      42.771  24.741  28.035  1.00  0.00     0.031 A 
ATOM     40  C   UNL A   1      44.166  25.132  28.440  1.00  0.00     0.074 A 
ATOM     41  C   UNL A   1      41.754  25.610  28.187  1.00  0.00     0.049 A 
ATOM     42  N   UNL A   1      44.591  26.258  28.958  1.00  0.00    -0.248 NA
ATOM     43  C   UNL A   1      45.217  24.116  28.265  1.00  0.00     0.031 C 
ATOM     44  C   UNL A   1      40.351  25.340  27.870  1.00  0.00     0.029 A 
ATOM     45  N   UNL A   1      41.747  26.900  28.657  1.00  0.00    -0.354 N 
ATOM     46  C   UNL A   1      45.949  26.076  29.188  1.00  0.00     0.074 A 
ATOM     47  C   UNL A   1      46.267  24.719  28.803  1.00  0.00     0.031 C 
ATOM     48  C   UNL A   1      39.623  26.439  28.128  1.00  0.00     0.029 A 
ATOM     49  C   UNL A   1      40.499  27.476  28.663  1.00  0.00     0.049 A 
ATOM     50  H   UNL A   1      42.557  27.367  28.961  1.00  0.00     0.167 HD
ATOM     51  C   UNL A   1      46.855  26.966  29.658  1.00  0.00     0.031 A 
ATOM     52  C   UNL A   1      40.106  28.701  29.059  1.00  0.00     0.031 A 
ATOM     53  C   UNL A   1      46.542  28.320  30.026  1.00  0.00     0.049 A 
ATOM     54  C   UNL A   1      41.131  29.668  29.583  1.00  0.00     0.074 A 
ATOM     55  C   UNL A   1      47.401  29.316  30.458  1.00  0.00     0.029 A 
ATOM     56  N   UNL A   1      45.269  28.868  30.005  1.00  0.00    -0.354 N 
ATOM     57  N   UNL A   1      42.423  29.505  29.729  1.00  0.00    -0.248 NA
ATOM     58  C   UNL A   1      40.642  30.996  29.983  1.00  0.00     0.031 C 
ATOM     59  C   UNL A   1      46.640  30.454  30.744  1.00  0.00     0.029 A 
ATOM     60  C   UNL A   1      45.316  30.182  30.438  1.00  0.00     0.049 A 
ATOM     61  H   UNL A   1      44.454  28.393  29.726  1.00  0.00     0.167 HD
ATOM     62  C   UNL A   1      42.906  30.715  30.211  1.00  0.00     0.074 A 
ATOM     63  C   UNL A   1      41.770  31.608  30.317  1.00  0.00     0.031 C 
ATOM     64  C   UNL A   1      44.177  31.058  30.534  1.00  0.00     0.031 A 
BRANCH  51  65
ATOM     65  C   UNL A   1      48.275  26.493  29.803  1.00  0.00    -0.014 A 
ATOM     66  C   UNL A   1      48.723  25.891  30.990  1.00  0.00     0.009 A 
ATOM     67  C   UNL A   1      49.169  26.628  28.731  1.00  0.00     0.009 A 
ATOM     68  C   UNL A   1      50.049  25.472  31.114  1.00  0.00     0.001 A 
ATOM     69  C   UNL A   1      50.486  26.179  28.847  1.00  0.00     0.001 A 
ATOM     70  C   UNL A   1      50.928  25.611  30.041  1.00  0.00     0.000 A 
ENDBRANCH  51  65
BRANCH  52  71
ATOM     71  C   UNL A   1      38.677  29.095  28.956  1.00  0.00    -0.014 A 
ATOM     72  C   UNL A   1      38.164  29.600  27.751  1.00  0.00     0.009 A 
ATOM     73  C   UNL A   1      37.821  28.980  30.062  1.00  0.00     0.009 A 
ATOM     74  C   UNL A   1      36.830  30.008  27.664  1.00  0.00     0.001 A 
ATOM     75  C   UNL A   1      36.481  29.363  29.964  1.00  0.00     0.001 A 
ATOM     76  C   UNL A   1      35.990  29.886  28.769  1.00  0.00     0.000 A 
ENDBRANCH  52  71
BRANCH  64  77
ATOM     77  C   UNL A   1      44.413  32.468  30.995  1.00  0.00    -0.014 A 
ATOM     78  C   UNL A   1      44.769  33.481  30.092  1.00  0.00     0.009 A 
ATOM     79  C   UNL A   1      44.231  32.794  32.348  1.00  0.00     0.009 A 
ATOM     80  C   UNL A   1      44.972  34.787  30.542  1.00  0.00     0.001 A 
ATOM     81  C   UNL A   1      44.406  34.106  32.790  1.00  0.00     0.001 A 
ATOM     82  C   UNL A   1      44.784  35.099  31.888  1.00  0.00     0.000 A 
ENDBRANCH  64  77
ENDBRANCH  38  39
ENDBRANCH  30  33
ENDBRANCH  28  29
ENDBRANCH  27  28
ENDBRANCH  26  27
ENDBRANCH   1  26
TORSDOF 15
ENDMDL
MODEL 2
REMARK VINA RESULT:     -11.9      2.085      2.708
REMARK SMILES O=C(NCc1cccc(F)c1)NCc1ccc(C(=O)NCCCCNC(=O)c2ccc(-c3c4nc(c(-c5ccccc5)c5ccc([nH]5)c(-c5ccccc5)c5nc(c(-c6ccccc6)c6ccc3[nH]6)C=C5)C=C4)cc2)o1
REMARK SMILES IDX 21 1 20 2 18 3 19 4 17 6 14 7 15 8 76 9 16 10 13 11 12 12
REMARK SMILES IDX 1 13 2 14 3 15 4 18 5 19 6 20 11 21 7 22 9 23 8 24 10 25
REMARK SMILES IDX 22 26 23 27 24 28 25 29 26 30 27 32 28 33 29 34 75 35 30 36
REMARK SMILES IDX 74 37 31 38 32 39 33 40 68 41 34 42 73 43 67 44 69 45 35 46
REMARK SMILES IDX 72 47 66 48 65 49 36 51 58 52 43 53 57 54 44 55 47 56 56 57
REMARK SMILES IDX 70 58 45 59 46 60 55 62 71 63 48 64 37 65 38 66 42 67 39 68
REMARK SMILES IDX 41 69 40 70 59 71 60 72 64 73 61 74 63 75 62 76 49 77 50 78
REMARK SMILES IDX 54 79 51 80 53 81 52 82
REMARK H PARENT 20 5 3 16 12 17 25 31 69 50 47 61
REMARK Flexibility Score: inf
ROOT
ATOM      1  C   UNL A   1      37.664  23.304  25.874  1.00  0.00     0.116 C 
ENDROOT
BRANCH   1   2
ATOM      2  N   UNL A   1      37.405  23.339  24.451  1.00  0.00    -0.349 N 
ATOM      3  C   UNL A   1      36.375  22.800  23.712  1.00  0.00     0.286 C 
ATOM      4  O   UNL A   1      36.379  23.080  22.511  1.00  0.00    -0.266 OA
ATOM      5  H   UNL A   1      38.076  23.830  23.923  1.00  0.00     0.163 HD
BRANCH   3   6
ATOM      6  C   UNL A   1      35.357  21.968  24.329  1.00  0.00     0.191 A 
ATOM      7  C   UNL A   1      33.266  21.557  24.952  1.00  0.00     0.124 A 
ATOM      8  C   UNL A   1      34.015  20.475  25.357  1.00  0.00     0.048 A 
ATOM      9  O   UNL A   1      34.070  22.456  24.316  1.00  0.00    -0.454 OA
ATOM     10  C   UNL A   1      35.342  20.726  24.940  1.00  0.00     0.056 A 
BRANCH   7  11
ATOM     11  C   UNL A   1      31.826  21.918  25.053  1.00  0.00     0.193 C 
BRANCH  11  12
ATOM     12  N   UNL A   1      31.721  23.305  25.451  1.00  0.00    -0.331 N 
ATOM     13  O   UNL A   1      31.676  22.916  27.693  1.00  0.00    -0.249 OA
ATOM     14  C   UNL A   1      31.552  23.678  26.741  1.00  0.00     0.315 C 
ATOM     15  N   UNL A   1      31.199  24.965  26.966  1.00  0.00    -0.334 N 
ATOM     16  H   UNL A   1      31.221  25.239  27.911  1.00  0.00     0.165 HD
ATOM     17  H   UNL A   1      31.774  24.003  24.758  1.00  0.00     0.165 HD
BRANCH  15  18
ATOM     18  C   UNL A   1      30.793  26.004  26.044  1.00  0.00     0.153 C 
BRANCH  18  19
ATOM     19  C   UNL A   1      31.780  27.143  26.059  1.00  0.00    -0.026 A 
ATOM     20  C   UNL A   1      31.957  27.930  27.206  1.00  0.00     0.006 A 
ATOM     21  C   UNL A   1      32.527  27.445  24.910  1.00  0.00     0.044 A 
ATOM     22  C   UNL A   1      32.872  28.987  27.211  1.00  0.00     0.003 A 
ATOM     23  C   UNL A   1      33.440  28.495  24.928  1.00  0.00     0.123 A 
ATOM     24  C   UNL A   1      33.620  29.267  26.068  1.00  0.00     0.039 A 
ATOM     25  F   UNL A   1      34.156  28.763  23.829  1.00  0.00    -0.207 F 
ENDBRANCH  18  19
ENDBRANCH  15  18
ENDBRANCH  11  12
ENDBRANCH   7  11
ENDBRANCH   3   6
ENDBRANCH   1   2
BRANCH   1  26
ATOM     26  C   UNL A   1      38.964  22.559  26.183  1.00  0.00     0.023 C 
BRANCH  26  27
ATOM     27  C   UNL A   1      39.076  21.189  25.506  1.00  0.00     0.023 C 
BRANCH  27  28
ATOM     28  C   UNL A   1      39.484  20.043  26.428  1.00  0.00     0.116 C 
BRANCH  28  29
ATOM     29  N   UNL A   1      40.648  19.307  25.957  1.00  0.00    -0.352 N 
ATOM     30  C   UNL A   1      41.960  19.716  25.913  1.00  0.00     0.251 C 
ATOM     31  H   UNL A   1      40.472  18.397  25.626  1.00  0.00     0.163 HD
ATOM     32  O   UNL A   1      42.812  19.014  25.387  1.00  0.00    -0.269 OA
BRANCH  30  33
ATOM     33  C   UNL A   1      42.325  21.035  26.472  1.00  0.00     0.039 A 
ATOM     34  C   UNL A   1      42.690  22.059  25.595  1.00  0.00     0.014 A 
ATOM     35  C   UNL A   1      42.288  21.264  27.850  1.00  0.00     0.014 A 
ATOM     36  C   UNL A   1      42.959  23.334  26.097  1.00  0.00     0.010 A 
ATOM     37  C   UNL A   1      42.486  22.551  28.341  1.00  0.00     0.010 A 
ATOM     38  C   UNL A   1      42.829  23.597  27.469  1.00  0.00    -0.014 A 
BRANCH  38  39
ATOM     39  C   UNL A   1      43.061  24.955  28.018  1.00  0.00     0.031 A 
ATOM     40  C   UNL A   1      44.444  25.368  28.443  1.00  0.00     0.074 A 
ATOM     41  C   UNL A   1      42.022  25.794  28.192  1.00  0.00     0.049 A 
ATOM     42  N   UNL A   1      44.838  26.486  28.998  1.00  0.00    -0.248 NA
ATOM     43  C   UNL A   1      45.521  24.384  28.243  1.00  0.00     0.031 C 
ATOM     44  C   UNL A   1      40.627  25.500  27.858  1.00  0.00     0.029 A 
ATOM     45  N   UNL A   1      41.980  27.068  28.701  1.00  0.00    -0.354 N 
ATOM     46  C   UNL A   1      46.199  26.331  29.230  1.00  0.00     0.074 A 
ATOM     47  C   UNL A   1      46.552  24.995  28.805  1.00  0.00     0.031 C 
ATOM     48  C   UNL A   1      39.871  26.572  28.146  1.00  0.00     0.029 A 
ATOM     49  C   UNL A   1      40.719  27.613  28.718  1.00  0.00     0.049 A 
ATOM     50  H   UNL A   1      42.778  27.545  29.024  1.00  0.00     0.167 HD
ATOM     51  C   UNL A   1      47.080  27.228  29.733  1.00  0.00     0.031 A 
ATOM     52  C   UNL A   1      40.293  28.815  29.149  1.00  0.00     0.031 A 
ATOM     53  C   UNL A   1      46.732  28.562  30.141  1.00  0.00     0.049 A 
ATOM     54  C   UNL A   1      41.292  29.790  29.709  1.00  0.00     0.074 A 
ATOM     55  C   UNL A   1      47.564  29.564  30.608  1.00  0.00     0.029 A 
ATOM     56  N   UNL A   1      45.446  29.078  30.130  1.00  0.00    -0.354 N 
ATOM     57  N   UNL A   1      42.587  29.653  29.858  1.00  0.00    -0.248 NA
ATOM     58  C   UNL A   1      40.768  31.092  30.148  1.00  0.00     0.031 C 
ATOM     59  C   UNL A   1      46.774  30.674  30.926  1.00  0.00     0.029 A 
ATOM     60  C   UNL A   1      45.458  30.379  30.603  1.00  0.00     0.049 A 
ATOM     61  H   UNL A   1      44.644  28.593  29.831  1.00  0.00     0.167 HD
ATOM     62  C   UNL A   1      43.037  30.860  30.379  1.00  0.00     0.074 A 
ATOM     63  C   UNL A   1      41.879  31.721  30.507  1.00  0.00     0.031 C 
ATOM     64  C   UNL A   1      44.297  31.223  30.721  1.00  0.00     0.031 A 
BRANCH  51  65
ATOM     65  C   UNL A   1      48.511  26.785  29.871  1.00  0.00    -0.014 A 
ATOM     66  C   UNL A   1      49.442  27.001  28.842  1.00  0.00     0.009 A 
ATOM     67  C   UNL A   1      48.939  26.166  31.055  1.00  0.00     0.009 A 
ATOM     68  C   UNL A   1      50.762  26.569  28.980  1.00  0.00     0.001 A 
ATOM     69  C   UNL A   1      50.268  25.764  31.202  1.00  0.00     0.001 A 
ATOM     70  C   UNL A   1      51.175  25.956  30.161  1.00  0.00     0.000 A 
ENDBRANCH  51  65
BRANCH  52  71
ATOM     71  C   UNL A   1      38.855  29.177  29.051  1.00  0.00    -0.014 A 
ATOM     72  C   UNL A   1      38.009  29.035  30.161  1.00  0.00     0.009 A 
ATOM     73  C   UNL A   1      38.319  29.654  27.845  1.00  0.00     0.009 A 
ATOM     74  C   UNL A   1      36.648  29.336  30.058  1.00  0.00     0.001 A 
ATOM     75  C   UNL A   1      36.964  29.982  27.753  1.00  0.00     0.001 A 
ATOM     76  C   UNL A   1      36.128  29.813  28.856  1.00  0.00     0.000 A 
ENDBRANCH  52  71
BRANCH  64  77
ATOM     77  C   UNL A   1      44.496  32.624  31.227  1.00  0.00    -0.014 A 
ATOM     78  C   UNL A   1      44.746  33.689  30.348  1.00  0.00     0.009 A 
ATOM     79  C   UNL A   1      44.387  32.885  32.601  1.00  0.00     0.009 A 
ATOM     80  C   UNL A   1      44.916  34.984  30.840  1.00  0.00     0.001 A 
ATOM     81  C   UNL A   1      44.528  34.186  33.088  1.00  0.00     0.001 A 
ATOM     82  C   UNL A   1      44.801  35.232  32.208  1.00  0.00     0.000 A 
ENDBRANCH  64  77
ENDBRANCH  38  39
ENDBRANCH  30  33
ENDBRANCH  28  29
ENDBRANCH  27  28
ENDBRANCH  26  27
ENDBRANCH   1  26
TORSDOF 15
ENDMDL
MODEL 3
REMARK VINA RESULT:     -11.8      2.238      3.486
REMARK SMILES O=C(NCc1cccc(F)c1)NCc1ccc(C(=O)NCCCCNC(=O)c2ccc(-c3c4nc(c(-c5ccccc5)c5ccc([nH]5)c(-c5ccccc5)c5nc(c(-c6ccccc6)c6ccc3[nH]6)C=C5)C=C4)cc2)o1
REMARK SMILES IDX 21 1 20 2 18 3 19 4 17 6 14 7 15 8 76 9 16 10 13 11 12 12
REMARK SMILES IDX 1 13 2 14 3 15 4 18 5 19 6 20 11 21 7 22 9 23 8 24 10 25
REMARK SMILES IDX 22 26 23 27 24 28 25 29 26 30 27 32 28 33 29 34 75 35 30 36
REMARK SMILES IDX 74 37 31 38 32 39 33 40 68 41 34 42 73 43 67 44 69 45 35 46
REMARK SMILES IDX 72 47 66 48 65 49 36 51 58 52 43 53 57 54 44 55 47 56 56 57
REMARK SMILES IDX 70 58 45 59 46 60 55 62 71 63 48 64 37 65 38 66 42 67 39 68
REMARK SMILES IDX 41 69 40 70 59 71 60 72 64 73 61 74 63 75 62 76 49 77 50 78
REMARK SMILES IDX 54 79 51 80 53 81 52 82
REMARK H PARENT 20 5 3 16 12 17 25 31 69 50 47 61
REMARK Flexibility Score: inf
ROOT
ATOM      1  C   UNL A   1      35.581  20.455  24.998  1.00  0.00     0.116 C 
ENDROOT
BRANCH   1   2
ATOM      2  N   UNL A   1      34.473  19.584  25.322  1.00  0.00    -0.349 N 
ATOM      3  C   UNL A   1      33.114  19.781  25.212  1.00  0.00     0.286 C 
ATOM      4  O   UNL A   1      32.411  18.805  25.485  1.00  0.00    -0.266 OA
ATOM      5  H   UNL A   1      34.733  18.704  25.680  1.00  0.00     0.163 HD
BRANCH   3   6
ATOM      6  C   UNL A   1      32.567  21.058  24.790  1.00  0.00     0.191 A 
ATOM      7  C   UNL A   1      32.407  22.756  23.369  1.00  0.00     0.124 A 
ATOM      8  C   UNL A   1      31.557  23.041  24.414  1.00  0.00     0.048 A 
ATOM      9  O   UNL A   1      33.008  21.552  23.583  1.00  0.00    -0.454 OA
ATOM     10  C   UNL A   1      31.642  21.949  25.308  1.00  0.00     0.056 A 
BRANCH   7  11
ATOM     11  C   UNL A   1      32.772  23.459  22.108  1.00  0.00     0.193 C 
BRANCH  11  12
ATOM     12  N   UNL A   1      32.313  24.829  22.191  1.00  0.00    -0.331 N 
ATOM     13  O   UNL A   1      32.996  25.444  20.109  1.00  0.00    -0.249 OA
ATOM     14  C   UNL A   1      32.557  25.735  21.216  1.00  0.00     0.315 C 
ATOM     15  N   UNL A   1      32.322  27.034  21.513  1.00  0.00    -0.334 N 
ATOM     16  H   UNL A   1      32.375  27.648  20.746  1.00  0.00     0.165 HD
ATOM     17  H   UNL A   1      31.803  25.111  22.985  1.00  0.00     0.165 HD
BRANCH  15  18
ATOM     18  C   UNL A   1      32.007  27.668  22.775  1.00  0.00     0.153 C 
BRANCH  18  19
ATOM     19  C   UNL A   1      30.533  27.971  22.864  1.00  0.00    -0.026 A 
ATOM     20  C   UNL A   1      30.002  29.143  22.306  1.00  0.00     0.006 A 
ATOM     21  C   UNL A   1      29.669  27.087  23.528  1.00  0.00     0.044 A 
ATOM     22  C   UNL A   1      28.634  29.418  22.395  1.00  0.00     0.003 A 
ATOM     23  C   UNL A   1      28.309  27.368  23.606  1.00  0.00     0.123 A 
ATOM     24  C   UNL A   1      27.783  28.524  23.045  1.00  0.00     0.039 A 
ATOM     25  F   UNL A   1      27.495  26.508  24.231  1.00  0.00    -0.207 F 
ENDBRANCH  18  19
ENDBRANCH  15  18
ENDBRANCH  11  12
ENDBRANCH   7  11
ENDBRANCH   3   6
ENDBRANCH   1   2
BRANCH   1  26
ATOM     26  C   UNL A   1      35.767  21.537  26.063  1.00  0.00     0.023 C 
BRANCH  26  27
ATOM     27  C   UNL A   1      35.751  22.966  25.513  1.00  0.00     0.023 C 
BRANCH  27  28
ATOM     28  C   UNL A   1      37.125  23.564  25.223  1.00  0.00     0.116 C 
BRANCH  28  29
ATOM     29  N   UNL A   1      38.222  22.643  25.475  1.00  0.00    -0.352 N 
ATOM     30  C   UNL A   1      39.401  22.876  26.144  1.00  0.00     0.251 C 
ATOM     31  H   UNL A   1      38.105  21.733  25.119  1.00  0.00     0.163 HD
ATOM     32  O   UNL A   1      40.274  22.021  26.179  1.00  0.00    -0.269 OA
BRANCH  30  33
ATOM     33  C   UNL A   1      39.620  24.189  26.786  1.00  0.00     0.039 A 
ATOM     34  C   UNL A   1      39.122  24.397  28.075  1.00  0.00     0.014 A 
ATOM     35  C   UNL A   1      40.326  25.200  26.130  1.00  0.00     0.014 A 
ATOM     36  C   UNL A   1      39.388  25.601  28.731  1.00  0.00     0.010 A 
ATOM     37  C   UNL A   1      40.651  26.369  26.811  1.00  0.00     0.010 A 
ATOM     38  C   UNL A   1      40.181  26.582  28.116  1.00  0.00    -0.014 A 
BRANCH  38  39
ATOM     39  C   UNL A   1      40.518  27.847  28.814  1.00  0.00     0.031 A 
ATOM     40  C   UNL A   1      41.864  28.010  29.465  1.00  0.00     0.074 A 
ATOM     41  C   UNL A   1      39.595  28.823  28.917  1.00  0.00     0.049 A 
ATOM     42  N   UNL A   1      42.325  29.012  30.170  1.00  0.00    -0.248 NA
ATOM     43  C   UNL A   1      42.807  26.888  29.328  1.00  0.00     0.031 C 
ATOM     44  C   UNL A   1      38.240  28.772  28.365  1.00  0.00     0.029 A 
ATOM     45  N   UNL A   1      39.658  30.049  29.530  1.00  0.00    -0.354 N 
ATOM     46  C   UNL A   1      43.598  28.633  30.576  1.00  0.00     0.074 A 
ATOM     47  C   UNL A   1      43.818  27.291  30.083  1.00  0.00     0.031 C 
ATOM     48  C   UNL A   1      37.610  29.925  28.641  1.00  0.00     0.029 A 
ATOM     49  C   UNL A   1      38.500  30.780  29.420  1.00  0.00     0.049 A 
ATOM     50  H   UNL A   1      40.457  30.373  30.004  1.00  0.00     0.167 HD
ATOM     51  C   UNL A   1      44.511  29.345  31.277  1.00  0.00     0.031 A 
ATOM     52  C   UNL A   1      38.190  32.000  29.896  1.00  0.00     0.031 A 
ATOM     53  C   UNL A   1      44.300  30.685  31.754  1.00  0.00     0.049 A 
ATOM     54  C   UNL A   1      39.220  32.767  30.677  1.00  0.00     0.074 A 
ATOM     55  C   UNL A   1      45.185  31.511  32.423  1.00  0.00     0.029 A 
ATOM     56  N   UNL A   1      43.117  31.394  31.610  1.00  0.00    -0.354 N 
ATOM     57  N   UNL A   1      40.444  32.422  30.993  1.00  0.00    -0.248 NA
ATOM     58  C   UNL A   1      38.827  34.101  31.156  1.00  0.00     0.031 C 
ATOM     59  C   UNL A   1      44.522  32.705  32.727  1.00  0.00     0.029 A 
ATOM     60  C   UNL A   1      43.242  32.641  32.197  1.00  0.00     0.049 A 
ATOM     61  H   UNL A   1      42.309  31.060  31.158  1.00  0.00     0.167 HD
ATOM     62  C   UNL A   1      40.978  33.505  31.681  1.00  0.00     0.074 A 
ATOM     63  C   UNL A   1      39.949  34.524  31.723  1.00  0.00     0.031 C 
ATOM     64  C   UNL A   1      42.210  33.644  32.228  1.00  0.00     0.031 A 
BRANCH  51  65
ATOM     65  C   UNL A   1      45.826  28.677  31.574  1.00  0.00    -0.014 A 
ATOM     66  C   UNL A   1      46.913  28.787  30.691  1.00  0.00     0.009 A 
ATOM     67  C   UNL A   1      45.988  27.949  32.762  1.00  0.00     0.009 A 
ATOM     68  C   UNL A   1      48.122  28.148  30.974  1.00  0.00     0.001 A 
ATOM     69  C   UNL A   1      47.208  27.337  33.057  1.00  0.00     0.001 A 
ATOM     70  C   UNL A   1      48.270  27.428  32.158  1.00  0.00     0.000 A 
ENDBRANCH  51  65
BRANCH  52  71
ATOM     71  C   UNL A   1      36.850  32.586  29.630  1.00  0.00    -0.014 A 
ATOM     72  C   UNL A   1      36.604  33.283  28.437  1.00  0.00     0.009 A 
ATOM     73  C   UNL A   1      35.816  32.463  30.570  1.00  0.00     0.009 A 
ATOM     74  C   UNL A   1      35.357  33.869  28.203  1.00  0.00     0.001 A 
ATOM     75  C   UNL A   1      34.562  33.026  30.321  1.00  0.00     0.001 A 
ATOM     76  C   UNL A   1      34.337  33.737  29.144  1.00  0.00     0.000 A 
ENDBRANCH  52  71
BRANCH  64  77
ATOM     77  C   UNL A   1      42.527  34.958  32.883  1.00  0.00    -0.014 A 
ATOM     78  C   UNL A   1      43.260  35.950  32.214  1.00  0.00     0.009 A 
ATOM     79  C   UNL A   1      42.046  35.222  34.175  1.00  0.00     0.009 A 
ATOM     80  C   UNL A   1      43.533  37.168  32.838  1.00  0.00     0.001 A 
ATOM     81  C   UNL A   1      42.295  36.452  34.786  1.00  0.00     0.001 A 
ATOM     82  C   UNL A   1      43.045  37.419  34.121  1.00  0.00     0.000 A 
ENDBRANCH  64  77
ENDBRANCH  38  39
ENDBRANCH  30  33
ENDBRANCH  28  29
ENDBRANCH  27  28
ENDBRANCH  26  27
ENDBRANCH   1  26
TORSDOF 15
ENDMDL
