MODEL 1
REMARK VINA RESULT:     -11.4      0.000      0.000
REMARK SMILES C[C@@H](C(=O)NCCCCNC(=O)c1ccc(-c2c3nc(c(-c4ccccc4)c4ccc([nH]4)c(-c4ccccc4)c4nc(c(-c5ccccc5)c5ccc2[nH]5)C=C4)C=C3)cc1)c1ccc(-c2ccccc2)cc1
REMARK SMILES IDX 7 1 6 2 5 3 3 4 4 5 2 7 1 8 61 9 62 10 72 11 63 12 71 13
REMARK SMILES IDX 64 14 65 15 66 16 70 17 67 18 69 19 68 20 8 21 9 22 10 23
REMARK SMILES IDX 11 24 12 26 13 27 14 28 60 29 15 30 59 31 16 32 17 33 18 34
REMARK SMILES IDX 53 35 19 36 58 37 52 38 54 39 20 40 57 41 51 42 50 43 21 45
REMARK SMILES IDX 43 46 28 47 42 48 29 49 32 50 41 51 55 52 30 53 31 54 40 56
REMARK SMILES IDX 56 57 33 58 22 59 23 60 27 61 24 62 26 63 25 64 44 65 45 66
REMARK SMILES IDX 49 67 46 68 48 69 47 70 34 71 35 72 39 73 36 74 38 75 37 76
REMARK H PARENT 5 6 10 25 54 44 32 55
REMARK Flexibility Score: inf
ROOT
ATOM      1  C   UNL A   1      32.916  29.430  24.882  1.00  0.00     0.023 C 
ENDROOT
BRANCH   1   2
ATOM      2  C   UNL A   1      31.392  29.289  24.852  1.00  0.00     0.116 C 
BRANCH   2   3
ATOM      3  N   UNL A   1      30.851  29.678  23.566  1.00  0.00    -0.356 N 
ATOM      4  C   UNL A   1      30.307  28.922  22.566  1.00  0.00     0.227 C 
ATOM      5  O   UNL A   1      29.984  29.531  21.545  1.00  0.00    -0.274 OA
ATOM      6  H   UNL A   1      30.880  30.644  23.383  1.00  0.00     0.163 HD
BRANCH   4   7
ATOM      7  C   UNL A   1      30.101  27.409  22.763  1.00  0.00     0.105 C 
ATOM      8  C   UNL A   1      29.001  27.096  23.782  1.00  0.00     0.023 C 
BRANCH   7   9
ATOM      9  C   UNL A   1      31.366  26.669  23.192  1.00  0.00    -0.036 A 
ATOM     10  C   UNL A   1      32.523  26.732  22.403  1.00  0.00     0.005 A 
ATOM     11  C   UNL A   1      31.378  25.846  24.328  1.00  0.00     0.005 A 
ATOM     12  C   UNL A   1      33.655  25.979  22.738  1.00  0.00     0.009 A 
ATOM     13  C   UNL A   1      32.510  25.100  24.661  1.00  0.00     0.009 A 
ATOM     14  C   UNL A   1      33.662  25.143  23.866  1.00  0.00    -0.018 A 
BRANCH  14  15
ATOM     15  C   UNL A   1      34.834  24.319  24.198  1.00  0.00    -0.018 A 
ATOM     16  C   UNL A   1      35.492  24.452  25.432  1.00  0.00     0.009 A 
ATOM     17  C   UNL A   1      35.327  23.371  23.286  1.00  0.00     0.009 A 
ATOM     18  C   UNL A   1      36.602  23.663  25.743  1.00  0.00     0.001 A 
ATOM     19  C   UNL A   1      36.439  22.582  23.595  1.00  0.00     0.001 A 
ATOM     20  C   UNL A   1      37.074  22.728  24.824  1.00  0.00     0.000 A 
ENDBRANCH  14  15
ENDBRANCH   7   9
ENDBRANCH   4   7
ENDBRANCH   2   3
ENDBRANCH   1   2
BRANCH   1  21
ATOM     21  C   UNL A   1      33.634  28.481  25.846  1.00  0.00     0.023 C 
BRANCH  21  22
ATOM     22  C   UNL A   1      33.426  28.769  27.328  1.00  0.00     0.116 C 
BRANCH  22  23
ATOM     23  N   UNL A   1      33.562  30.180  27.657  1.00  0.00    -0.352 N 
ATOM     24  C   UNL A   1      34.640  30.848  28.186  1.00  0.00     0.251 C 
ATOM     25  H   UNL A   1      32.769  30.734  27.475  1.00  0.00     0.163 HD
ATOM     26  O   UNL A   1      34.539  32.026  28.516  1.00  0.00    -0.269 OA
BRANCH  24  27
ATOM     27  C   UNL A   1      35.913  30.128  28.397  1.00  0.00     0.039 A 
ATOM     28  C   UNL A   1      36.844  30.090  27.355  1.00  0.00     0.014 A 
ATOM     29  C   UNL A   1      36.202  29.532  29.627  1.00  0.00     0.014 A 
ATOM     30  C   UNL A   1      38.108  29.540  27.581  1.00  0.00     0.010 A 
ATOM     31  C   UNL A   1      37.480  29.036  29.867  1.00  0.00     0.010 A 
ATOM     32  C   UNL A   1      38.453  29.059  28.854  1.00  0.00    -0.014 A 
BRANCH  32  33
ATOM     33  C   UNL A   1      39.842  28.647  29.174  1.00  0.00     0.031 A 
ATOM     34  C   UNL A   1      40.808  29.623  29.783  1.00  0.00     0.074 A 
ATOM     35  C   UNL A   1      40.261  27.417  28.813  1.00  0.00     0.049 A 
ATOM     36  N   UNL A   1      42.087  29.475  30.018  1.00  0.00    -0.248 NA
ATOM     37  C   UNL A   1      40.274  30.942  30.157  1.00  0.00     0.031 C 
ATOM     38  C   UNL A   1      39.433  26.391  28.173  1.00  0.00     0.029 A 
ATOM     39  N   UNL A   1      41.499  26.831  28.909  1.00  0.00    -0.354 N 
ATOM     40  C   UNL A   1      42.516  30.686  30.545  1.00  0.00     0.074 A 
ATOM     41  C   UNL A   1      41.368  31.567  30.573  1.00  0.00     0.031 C 
ATOM     42  C   UNL A   1      40.184  25.304  27.936  1.00  0.00     0.029 A 
ATOM     43  C   UNL A   1      41.553  25.569  28.365  1.00  0.00     0.049 A 
ATOM     44  H   UNL A   1      42.274  27.271  29.326  1.00  0.00     0.167 HD
ATOM     45  C   UNL A   1      43.753  31.029  30.973  1.00  0.00     0.031 A 
ATOM     46  C   UNL A   1      42.592  24.728  28.201  1.00  0.00     0.031 A 
ATOM     47  C   UNL A   1      44.890  30.148  30.965  1.00  0.00     0.049 A 
ATOM     48  C   UNL A   1      43.958  25.147  28.668  1.00  0.00     0.074 A 
ATOM     49  C   UNL A   1      46.160  30.379  31.466  1.00  0.00     0.029 A 
ATOM     50  N   UNL A   1      44.900  28.874  30.419  1.00  0.00    -0.354 N 
ATOM     51  N   UNL A   1      44.325  26.262  29.250  1.00  0.00    -0.248 NA
ATOM     52  C   UNL A   1      45.054  24.190  28.452  1.00  0.00     0.031 C 
ATOM     53  C   UNL A   1      46.954  29.266  31.173  1.00  0.00     0.029 A 
ATOM     54  C   UNL A   1      46.165  28.324  30.534  1.00  0.00     0.049 A 
ATOM     55  H   UNL A   1      44.123  28.428  30.011  1.00  0.00     0.167 HD
ATOM     56  C   UNL A   1      45.687  26.133  29.485  1.00  0.00     0.074 A 
ATOM     57  C   UNL A   1      46.078  24.826  29.003  1.00  0.00     0.031 C 
ATOM     58  C   UNL A   1      46.540  27.024  30.046  1.00  0.00     0.031 A 
BRANCH  45  59
ATOM     59  C   UNL A   1      43.958  32.424  31.487  1.00  0.00    -0.014 A 
ATOM     60  C   UNL A   1      44.289  33.477  30.620  1.00  0.00     0.009 A 
ATOM     61  C   UNL A   1      43.734  32.704  32.845  1.00  0.00     0.009 A 
ATOM     62  C   UNL A   1      44.409  34.780  31.108  1.00  0.00     0.001 A 
ATOM     63  C   UNL A   1      43.833  34.011  33.324  1.00  0.00     0.001 A 
ATOM     64  C   UNL A   1      44.175  35.047  32.457  1.00  0.00     0.000 A 
ENDBRANCH  45  59
BRANCH  46  65
ATOM     65  C   UNL A   1      42.395  23.413  27.539  1.00  0.00    -0.014 A 
ATOM     66  C   UNL A   1      41.983  22.295  28.279  1.00  0.00     0.009 A 
ATOM     67  C   UNL A   1      42.651  23.262  26.167  1.00  0.00     0.009 A 
ATOM     68  C   UNL A   1      41.863  21.045  27.666  1.00  0.00     0.001 A 
ATOM     69  C   UNL A   1      42.502  22.019  25.550  1.00  0.00     0.001 A 
ATOM     70  C   UNL A   1      42.119  20.910  26.302  1.00  0.00     0.000 A 
ENDBRANCH  46  65
BRANCH  58  71
ATOM     71  C   UNL A   1      47.976  26.607  30.182  1.00  0.00    -0.014 A 
ATOM     72  C   UNL A   1      48.408  25.858  31.287  1.00  0.00     0.009 A 
ATOM     73  C   UNL A   1      48.896  26.929  29.173  1.00  0.00     0.009 A 
ATOM     74  C   UNL A   1      49.743  25.461  31.390  1.00  0.00     0.001 A 
ATOM     75  C   UNL A   1      50.223  26.508  29.266  1.00  0.00     0.001 A 
ATOM     76  C   UNL A   1      50.647  25.782  30.377  1.00  0.00     0.000 A 
ENDBRANCH  58  71
ENDBRANCH  32  33
ENDBRANCH  24  27
ENDBRANCH  22  23
ENDBRANCH  21  22
ENDBRANCH   1  21
TORSDOF 13
ENDMDL
MODEL 2
REMARK VINA RESULT:     -11.3      3.023      7.992
REMARK SMILES C[C@@H](C(=O)NCCCCNC(=O)c1ccc(-c2c3nc(c(-c4ccccc4)c4ccc([nH]4)c(-c4ccccc4)c4nc(c(-c5ccccc5)c5ccc2[nH]5)C=C4)C=C3)cc1)c1ccc(-c2ccccc2)cc1
REMARK SMILES IDX 7 1 6 2 5 3 3 4 4 5 2 7 1 8 61 9 62 10 72 11 63 12 71 13
REMARK SMILES IDX 64 14 65 15 66 16 70 17 67 18 69 19 68 20 8 21 9 22 10 23
REMARK SMILES IDX 11 24 12 26 13 27 14 28 60 29 15 30 59 31 16 32 17 33 18 34
REMARK SMILES IDX 53 35 19 36 58 37 52 38 54 39 20 40 57 41 51 42 50 43 21 45
REMARK SMILES IDX 43 46 28 47 42 48 29 49 32 50 41 51 55 52 30 53 31 54 40 56
REMARK SMILES IDX 56 57 33 58 22 59 23 60 27 61 24 62 26 63 25 64 44 65 45 66
REMARK SMILES IDX 49 67 46 68 48 69 47 70 34 71 35 72 39 73 36 74 38 75 37 76
REMARK H PARENT 5 6 10 25 54 44 32 55
REMARK Flexibility Score: inf
ROOT
ATOM      1  C   UNL A   1      36.113  21.234  24.676  1.00  0.00     0.023 C 
ENDROOT
BRANCH   1   2
ATOM      2  C   UNL A   1      34.649  20.933  25.003  1.00  0.00     0.116 C 
BRANCH   2   3
ATOM      3  N   UNL A   1      33.758  21.508  24.017  1.00  0.00    -0.356 N 
ATOM      4  C   UNL A   1      32.647  22.289  24.172  1.00  0.00     0.227 C 
ATOM      5  O   UNL A   1      32.045  22.581  23.138  1.00  0.00    -0.274 OA
ATOM      6  H   UNL A   1      33.990  21.302  23.083  1.00  0.00     0.163 HD
BRANCH   4   7
ATOM      7  C   UNL A   1      32.233  22.777  25.572  1.00  0.00     0.105 C 
ATOM      8  C   UNL A   1      30.785  22.413  25.914  1.00  0.00     0.023 C 
BRANCH   7   9
ATOM      9  C   UNL A   1      32.402  24.281  25.772  1.00  0.00    -0.036 A 
ATOM     10  C   UNL A   1      33.657  24.880  25.604  1.00  0.00     0.005 A 
ATOM     11  C   UNL A   1      31.335  25.081  26.210  1.00  0.00     0.005 A 
ATOM     12  C   UNL A   1      33.840  26.240  25.880  1.00  0.00     0.009 A 
ATOM     13  C   UNL A   1      31.520  26.437  26.481  1.00  0.00     0.009 A 
ATOM     14  C   UNL A   1      32.778  27.038  26.334  1.00  0.00    -0.018 A 
BRANCH  14  15
ATOM     15  C   UNL A   1      32.975  28.457  26.664  1.00  0.00    -0.018 A 
ATOM     16  C   UNL A   1      34.192  28.920  27.190  1.00  0.00     0.009 A 
ATOM     17  C   UNL A   1      31.946  29.392  26.458  1.00  0.00     0.009 A 
ATOM     18  C   UNL A   1      34.375  30.271  27.497  1.00  0.00     0.001 A 
ATOM     19  C   UNL A   1      32.126  30.743  26.766  1.00  0.00     0.001 A 
ATOM     20  C   UNL A   1      33.341  31.181  27.285  1.00  0.00     0.000 A 
ENDBRANCH  14  15
ENDBRANCH   7   9
ENDBRANCH   4   7
ENDBRANCH   2   3
ENDBRANCH   1   2
BRANCH   1  21
ATOM     21  C   UNL A   1      36.410  22.696  24.329  1.00  0.00     0.023 C 
BRANCH  21  22
ATOM     22  C   UNL A   1      37.346  23.422  25.289  1.00  0.00     0.116 C 
BRANCH  22  23
ATOM     23  N   UNL A   1      38.511  22.631  25.654  1.00  0.00    -0.352 N 
ATOM     24  C   UNL A   1      39.641  23.013  26.338  1.00  0.00     0.251 C 
ATOM     25  H   UNL A   1      38.488  21.688  25.371  1.00  0.00     0.163 HD
ATOM     26  O   UNL A   1      40.587  22.241  26.454  1.00  0.00    -0.269 OA
BRANCH  24  27
ATOM     27  C   UNL A   1      39.728  24.378  26.897  1.00  0.00     0.039 A 
ATOM     28  C   UNL A   1      39.214  24.614  28.175  1.00  0.00     0.014 A 
ATOM     29  C   UNL A   1      40.350  25.405  26.183  1.00  0.00     0.014 A 
ATOM     30  C   UNL A   1      39.414  25.858  28.779  1.00  0.00     0.010 A 
ATOM     31  C   UNL A   1      40.596  26.625  26.807  1.00  0.00     0.010 A 
ATOM     32  C   UNL A   1      40.154  26.853  28.120  1.00  0.00    -0.014 A 
BRANCH  32  33
ATOM     33  C   UNL A   1      40.545  28.109  28.807  1.00  0.00     0.031 A 
ATOM     34  C   UNL A   1      41.879  28.225  29.488  1.00  0.00     0.074 A 
ATOM     35  C   UNL A   1      39.645  29.108  28.908  1.00  0.00     0.049 A 
ATOM     36  N   UNL A   1      42.338  29.196  30.235  1.00  0.00    -0.248 NA
ATOM     37  C   UNL A   1      42.809  27.097  29.325  1.00  0.00     0.031 C 
ATOM     38  C   UNL A   1      38.299  29.101  28.331  1.00  0.00     0.029 A 
ATOM     39  N   UNL A   1      39.719  30.315  29.559  1.00  0.00    -0.354 N 
ATOM     40  C   UNL A   1      43.599  28.788  30.650  1.00  0.00     0.074 A 
ATOM     41  C   UNL A   1      43.824  27.472  30.094  1.00  0.00     0.031 C 
ATOM     42  C   UNL A   1      37.676  30.247  28.650  1.00  0.00     0.029 A 
ATOM     43  C   UNL A   1      38.558  31.050  29.489  1.00  0.00     0.049 A 
ATOM     44  H   UNL A   1      40.526  30.627  30.030  1.00  0.00     0.167 HD
ATOM     45  C   UNL A   1      44.490  29.455  31.420  1.00  0.00     0.031 A 
ATOM     46  C   UNL A   1      38.228  32.223  30.060  1.00  0.00     0.031 A 
ATOM     47  C   UNL A   1      44.276  30.772  31.957  1.00  0.00     0.049 A 
ATOM     48  C   UNL A   1      39.232  32.929  30.927  1.00  0.00     0.074 A 
ATOM     49  C   UNL A   1      45.161  31.564  32.670  1.00  0.00     0.029 A 
ATOM     50  N   UNL A   1      43.094  31.486  31.853  1.00  0.00    -0.354 N 
ATOM     51  N   UNL A   1      40.455  32.570  31.232  1.00  0.00    -0.248 NA
ATOM     52  C   UNL A   1      38.809  34.201  31.531  1.00  0.00     0.031 C 
ATOM     53  C   UNL A   1      44.495  32.734  33.045  1.00  0.00     0.029 A 
ATOM     54  C   UNL A   1      43.213  32.692  32.524  1.00  0.00     0.049 A 
ATOM     55  H   UNL A   1      42.290  31.182  31.373  1.00  0.00     0.167 HD
ATOM     56  C   UNL A   1      40.951  33.579  32.047  1.00  0.00     0.074 A 
ATOM     57  C   UNL A   1      39.908  34.574  32.172  1.00  0.00     0.031 C 
ATOM     58  C   UNL A   1      42.165  33.669  32.644  1.00  0.00     0.031 A 
BRANCH  45  59
ATOM     59  C   UNL A   1      45.789  28.774  31.742  1.00  0.00    -0.014 A 
ATOM     60  C   UNL A   1      46.924  28.958  30.939  1.00  0.00     0.009 A 
ATOM     61  C   UNL A   1      45.897  28.003  32.911  1.00  0.00     0.009 A 
ATOM     62  C   UNL A   1      48.140  28.369  31.293  1.00  0.00     0.001 A 
ATOM     63  C   UNL A   1      47.119  27.435  33.273  1.00  0.00     0.001 A 
ATOM     64  C   UNL A   1      48.238  27.614  32.461  1.00  0.00     0.000 A 
ENDBRANCH  45  59
BRANCH  46  65
ATOM     65  C   UNL A   1      36.873  32.800  29.859  1.00  0.00    -0.014 A 
ATOM     66  C   UNL A   1      35.838  32.524  30.764  1.00  0.00     0.009 A 
ATOM     67  C   UNL A   1      36.601  33.602  28.739  1.00  0.00     0.009 A 
ATOM     68  C   UNL A   1      34.550  33.014  30.537  1.00  0.00     0.001 A 
ATOM     69  C   UNL A   1      35.320  34.114  28.529  1.00  0.00     0.001 A 
ATOM     70  C   UNL A   1      34.293  33.811  29.421  1.00  0.00     0.000 A 
ENDBRANCH  46  65
BRANCH  58  71
ATOM     71  C   UNL A   1      42.432  34.892  33.473  1.00  0.00    -0.014 A 
ATOM     72  C   UNL A   1      43.050  36.022  32.914  1.00  0.00     0.009 A 
ATOM     73  C   UNL A   1      42.023  34.931  34.814  1.00  0.00     0.009 A 
ATOM     74  C   UNL A   1      43.274  37.159  33.692  1.00  0.00     0.001 A 
ATOM     75  C   UNL A   1      42.225  36.078  35.581  1.00  0.00     0.001 A 
ATOM     76  C   UNL A   1      42.856  37.187  35.023  1.00  0.00     0.000 A 
ENDBRANCH  58  71
ENDBRANCH  32  33
ENDBRANCH  24  27
ENDBRANCH  22  23
ENDBRANCH  21  22
ENDBRANCH   1  21
TORSDOF 13
ENDMDL
MODEL 3
REMARK VINA RESULT:     -10.9      4.518     10.235
REMARK SMILES C[C@@H](C(=O)NCCCCNC(=O)c1ccc(-c2c3nc(c(-c4ccccc4)c4ccc([nH]4)c(-c4ccccc4)c4nc(c(-c5ccccc5)c5ccc2[nH]5)C=C4)C=C3)cc1)c1ccc(-c2ccccc2)cc1
REMARK SMILES IDX 7 1 6 2 5 3 3 4 4 5 2 7 1 8 61 9 62 10 72 11 63 12 71 13
REMARK SMILES IDX 64 14 65 15 66 16 70 17 67 18 69 19 68 20 8 21 9 22 10 23
REMARK SMILES IDX 11 24 12 26 13 27 14 28 60 29 15 30 59 31 16 32 17 33 18 34
REMARK SMILES IDX 53 35 19 36 58 37 52 38 54 39 20 40 57 41 51 42 50 43 21 45
REMARK SMILES IDX 43 46 28 47 42 48 29 49 32 50 41 51 55 52 30 53 31 54 40 56
REMARK SMILES IDX 56 57 33 58 22 59 23 60 27 61 24 62 26 63 25 64 44 65 45 66
REMARK SMILES IDX 49 67 46 68 48 69 47 70 34 71 35 72 39 73 36 74 38 75 37 76
REMARK H PARENT 5 6 10 25 54 44 32 55
REMARK Flexibility Score: inf
ROOT
ATOM      1  C   UNL A   1      34.598  35.143  33.618  1.00  0.00     0.023 C 
ENDROOT
BRANCH   1   2
ATOM      2  C   UNL A   1      35.815  34.224  33.490  1.00  0.00     0.116 C 
BRANCH   2   3
ATOM      3  N   UNL A   1      36.197  33.671  34.773  1.00  0.00    -0.356 N 
ATOM      4  C   UNL A   1      37.068  32.665  35.083  1.00  0.00     0.227 C 
ATOM      5  O   UNL A   1      37.144  32.366  36.276  1.00  0.00    -0.274 OA
ATOM      6  H   UNL A   1      35.758  34.090  35.549  1.00  0.00     0.163 HD
BRANCH   4   7
ATOM      7  C   UNL A   1      37.903  31.996  33.976  1.00  0.00     0.105 C 
ATOM      8  C   UNL A   1      37.121  30.918  33.222  1.00  0.00     0.023 C 
BRANCH   7   9
ATOM      9  C   UNL A   1      39.202  31.371  34.482  1.00  0.00    -0.036 A 
ATOM     10  C   UNL A   1      39.700  30.201  33.893  1.00  0.00     0.005 A 
ATOM     11  C   UNL A   1      39.876  31.896  35.595  1.00  0.00     0.005 A 
ATOM     12  C   UNL A   1      40.835  29.569  34.414  1.00  0.00     0.009 A 
ATOM     13  C   UNL A   1      41.010  31.264  36.110  1.00  0.00     0.009 A 
ATOM     14  C   UNL A   1      41.502  30.084  35.537  1.00  0.00    -0.018 A 
BRANCH  14  15
ATOM     15  C   UNL A   1      42.669  29.400  36.112  1.00  0.00    -0.018 A 
ATOM     16  C   UNL A   1      42.742  27.999  36.161  1.00  0.00     0.009 A 
ATOM     17  C   UNL A   1      43.750  30.136  36.627  1.00  0.00     0.009 A 
ATOM     18  C   UNL A   1      43.856  27.355  36.704  1.00  0.00     0.001 A 
ATOM     19  C   UNL A   1      44.866  29.494  37.172  1.00  0.00     0.001 A 
ATOM     20  C   UNL A   1      44.918  28.104  37.209  1.00  0.00     0.000 A 
ENDBRANCH  14  15
ENDBRANCH   7   9
ENDBRANCH   4   7
ENDBRANCH   2   3
ENDBRANCH   1   2
BRANCH   1  21
ATOM     21  C   UNL A   1      33.526  34.950  32.542  1.00  0.00     0.023 C 
BRANCH  21  22
ATOM     22  C   UNL A   1      33.611  35.898  31.352  1.00  0.00     0.116 C 
BRANCH  22  23
ATOM     23  N   UNL A   1      32.811  35.460  30.218  1.00  0.00    -0.352 N 
ATOM     24  C   UNL A   1      33.138  34.585  29.210  1.00  0.00     0.251 C 
ATOM     25  H   UNL A   1      31.906  35.845  30.166  1.00  0.00     0.163 HD
ATOM     26  O   UNL A   1      32.379  34.421  28.260  1.00  0.00    -0.269 OA
BRANCH  24  27
ATOM     27  C   UNL A   1      34.432  33.873  29.253  1.00  0.00     0.039 A 
ATOM     28  C   UNL A   1      35.523  34.421  28.573  1.00  0.00     0.014 A 
ATOM     29  C   UNL A   1      34.577  32.698  29.995  1.00  0.00     0.014 A 
ATOM     30  C   UNL A   1      36.787  33.844  28.719  1.00  0.00     0.010 A 
ATOM     31  C   UNL A   1      35.846  32.157  30.183  1.00  0.00     0.010 A 
ATOM     32  C   UNL A   1      36.966  32.740  29.569  1.00  0.00    -0.014 A 
BRANCH  32  33
ATOM     33  C   UNL A   1      38.320  32.226  29.892  1.00  0.00     0.031 A 
ATOM     34  C   UNL A   1      38.769  30.885  29.384  1.00  0.00     0.074 A 
ATOM     35  C   UNL A   1      39.103  32.926  30.736  1.00  0.00     0.049 A 
ATOM     36  N   UNL A   1      39.864  30.226  29.664  1.00  0.00    -0.248 NA
ATOM     37  C   UNL A   1      37.862  30.185  28.461  1.00  0.00     0.031 C 
ATOM     38  C   UNL A   1      38.764  34.220  31.334  1.00  0.00     0.029 A 
ATOM     39  N   UNL A   1      40.338  32.634  31.260  1.00  0.00    -0.354 N 
ATOM     40  C   UNL A   1      39.770  29.026  28.970  1.00  0.00     0.074 A 
ATOM     41  C   UNL A   1      38.500  29.036  28.277  1.00  0.00     0.031 C 
ATOM     42  C   UNL A   1      39.765  34.610  32.139  1.00  0.00     0.029 A 
ATOM     43  C   UNL A   1      40.796  33.577  32.151  1.00  0.00     0.049 A 
ATOM     44  H   UNL A   1      40.849  31.826  31.022  1.00  0.00     0.167 HD
ATOM     45  C   UNL A   1      40.665  28.013  28.913  1.00  0.00     0.031 A 
ATOM     46  C   UNL A   1      41.905  33.597  32.914  1.00  0.00     0.031 A 
ATOM     47  C   UNL A   1      41.937  28.011  29.585  1.00  0.00     0.049 A 
ATOM     48  C   UNL A   1      42.868  32.446  32.843  1.00  0.00     0.074 A 
ATOM     49  C   UNL A   1      42.948  27.068  29.508  1.00  0.00     0.029 A 
ATOM     50  N   UNL A   1      42.368  28.990  30.465  1.00  0.00    -0.354 N 
ATOM     51  N   UNL A   1      42.806  31.362  32.109  1.00  0.00    -0.248 NA
ATOM     52  C   UNL A   1      44.056  32.522  33.708  1.00  0.00     0.031 C 
ATOM     53  C   UNL A   1      43.968  27.449  30.385  1.00  0.00     0.029 A 
ATOM     54  C   UNL A   1      43.612  28.653  30.970  1.00  0.00     0.049 A 
ATOM     55  H   UNL A   1      41.864  29.804  30.696  1.00  0.00     0.167 HD
ATOM     56  C   UNL A   1      43.951  30.637  32.411  1.00  0.00     0.074 A 
ATOM     57  C   UNL A   1      44.700  31.412  33.377  1.00  0.00     0.031 C 
ATOM     58  C   UNL A   1      44.343  29.431  31.933  1.00  0.00     0.031 A 
BRANCH  45  59
ATOM     59  C   UNL A   1      40.307  26.805  28.097  1.00  0.00    -0.014 A 
ATOM     60  C   UNL A   1      40.756  26.660  26.776  1.00  0.00     0.009 A 
ATOM     61  C   UNL A   1      39.577  25.760  28.688  1.00  0.00     0.009 A 
ATOM     62  C   UNL A   1      40.468  25.498  26.057  1.00  0.00     0.001 A 
ATOM     63  C   UNL A   1      39.310  24.591  27.973  1.00  0.00     0.001 A 
ATOM     64  C   UNL A   1      39.751  24.463  26.657  1.00  0.00     0.000 A 
ENDBRANCH  45  59
BRANCH  46  65
ATOM     65  C   UNL A   1      42.157  34.732  33.839  1.00  0.00    -0.014 A 
ATOM     66  C   UNL A   1      42.829  35.880  33.394  1.00  0.00     0.009 A 
ATOM     67  C   UNL A   1      41.756  34.657  35.182  1.00  0.00     0.009 A 
ATOM     68  C   UNL A   1      43.122  36.917  34.283  1.00  0.00     0.001 A 
ATOM     69  C   UNL A   1      42.025  35.706  36.062  1.00  0.00     0.001 A 
ATOM     70  C   UNL A   1      42.717  36.831  35.615  1.00  0.00     0.000 A 
ENDBRANCH  46  65
BRANCH  58  71
ATOM     71  C   UNL A   1      45.648  28.885  32.437  1.00  0.00    -0.014 A 
ATOM     72  C   UNL A   1      46.856  29.192  31.793  1.00  0.00     0.009 A 
ATOM     73  C   UNL A   1      45.673  28.091  33.594  1.00  0.00     0.009 A 
ATOM     74  C   UNL A   1      48.063  28.693  32.285  1.00  0.00     0.001 A 
ATOM     75  C   UNL A   1      46.883  27.615  34.098  1.00  0.00     0.001 A 
ATOM     76  C   UNL A   1      48.076  27.910  33.440  1.00  0.00     0.000 A 
ENDBRANCH  58  71
ENDBRANCH  32  33
ENDBRANCH  24  27
ENDBRANCH  22  23
ENDBRANCH  21  22
ENDBRANCH   1  21
TORSDOF 13
ENDMDL
