MODEL 1
REMARK VINA RESULT:     -12.5      0.000      0.000
REMARK SMILES Cc1ccc(C)c(N2C(=O)S[C@H](CC(=O)Nc3ccc(C(=O)NCCCCNC(=O)c4ccc(-c5c6nc(c(-c7ccccc7)c7ccc([nH]7)c(-c7ccccc7)c7nc(c(-c8ccccc8)c8ccc5[nH]8)C=C7)C=C6)cc4)c(O)c3)C2=O)c1
REMARK SMILES IDX 24 1 23 2 21 3 22 4 20 6 17 7 18 8 81 9 19 10 79 11 16 12
REMARK SMILES IDX 14 13 15 14 13 16 12 17 8 18 9 19 82 20 10 21 11 22 83 23
REMARK SMILES IDX 7 24 1 25 2 26 3 27 84 28 4 29 5 30 6 31 80 32 25 34 26 35
REMARK SMILES IDX 27 36 28 37 29 38 30 40 31 41 32 42 78 43 33 44 77 45 34 46
REMARK SMILES IDX 35 47 36 48 71 49 37 50 76 51 70 52 72 53 38 54 75 55 69 56
REMARK SMILES IDX 68 57 39 59 61 60 46 61 60 62 47 63 50 64 59 65 73 66 48 67
REMARK SMILES IDX 49 68 58 70 74 71 51 72 40 73 41 74 45 75 42 76 44 77 43 78
REMARK SMILES IDX 62 79 63 80 67 81 64 82 66 83 65 84 52 85 53 86 57 87 54 88
REMARK SMILES IDX 56 89 55 90
REMARK H PARENT 23 5 16 15 80 33 28 39 72 58 50 69
REMARK Flexibility Score: inf
ROOT
ATOM      1  C   UNL A   1      34.317  21.278  27.264  1.00  0.00     0.116 C 
ENDROOT
BRANCH   1   2
ATOM      2  N   UNL A   1      33.370  20.363  26.657  1.00  0.00    -0.352 N 
ATOM      3  C   UNL A   1      32.698  20.447  25.452  1.00  0.00     0.255 C 
ATOM      4  O   UNL A   1      32.092  19.444  25.073  1.00  0.00    -0.269 OA
ATOM      5  H   UNL A   1      33.175  19.556  27.185  1.00  0.00     0.163 HD
BRANCH   3   6
ATOM      6  C   UNL A   1      32.578  21.709  24.657  1.00  0.00     0.081 A 
ATOM      7  C   UNL A   1      32.325  23.701  22.670  1.00  0.00     0.044 A 
ATOM      8  C   UNL A   1      33.503  22.981  22.819  1.00  0.00     0.027 A 
ATOM      9  C   UNL A   1      31.382  23.613  23.685  1.00  0.00     0.073 A 
ATOM     10  C   UNL A   1      33.616  21.957  23.756  1.00  0.00     0.020 A 
ATOM     11  C   UNL A   1      31.547  22.657  24.701  1.00  0.00     0.130 A 
BRANCH   7  12
ATOM     12  N   UNL A   1      32.139  24.547  21.563  1.00  0.00    -0.326 N 
ATOM     13  C   UNL A   1      31.986  25.921  21.568  1.00  0.00     0.226 C 
ATOM     14  O   UNL A   1      31.483  26.490  20.599  1.00  0.00    -0.275 OA
ATOM     15  H   UNL A   1      32.116  24.111  20.681  1.00  0.00     0.169 HD
BRANCH  13  16
ATOM     16  C   UNL A   1      32.652  26.725  22.681  1.00  0.00     0.125 C 
BRANCH  16  17
ATOM     17  C   UNL A   1      31.857  27.917  23.212  1.00  0.00     0.156 C 
ATOM     18  N   UNL A   1      32.837  28.584  25.298  1.00  0.00    -0.240 N 
ATOM     19  C   UNL A   1      31.858  27.744  25.780  1.00  0.00     0.293 C 
ATOM     20  C   UNL A   1      32.819  28.851  23.940  1.00  0.00     0.248 C 
ATOM     21  O   UNL A   1      31.761  27.237  26.871  1.00  0.00    -0.261 OA
ATOM     22  S   UNL A   1      30.664  27.483  24.513  1.00  0.00    -0.050 SA
ATOM     23  O   UNL A   1      33.493  29.692  23.354  1.00  0.00    -0.273 OA
BRANCH  18  24
ATOM     24  C   UNL A   1      33.585  29.363  26.209  1.00  0.00     0.056 A 
ATOM     25  C   UNL A   1      36.944  29.232  28.039  1.00  0.00     0.044 C 
ATOM     26  C   UNL A   1      35.584  29.666  27.569  1.00  0.00    -0.049 A 
ATOM     27  C   UNL A   1      35.014  30.817  28.121  1.00  0.00     0.004 A 
ATOM     28  C   UNL A   1      34.870  28.946  26.598  1.00  0.00     0.030 A 
ATOM     29  C   UNL A   1      33.743  31.235  27.732  1.00  0.00     0.006 A 
ATOM     30  C   UNL A   1      33.007  30.512  26.784  1.00  0.00    -0.027 A 
ATOM     31  C   UNL A   1      31.633  31.016  26.437  1.00  0.00     0.046 C 
ENDBRANCH  18  24
ENDBRANCH  16  17
ENDBRANCH  13  16
ENDBRANCH   7  12
BRANCH  11  32
ATOM     32  O   UNL A   1      30.682  22.767  25.755  1.00  0.00    -0.507 OA
ATOM     33  H   UNL A   1      29.757  22.766  25.603  1.00  0.00     0.293 HD
ENDBRANCH  11  32
ENDBRANCH   3   6
ENDBRANCH   1   2
BRANCH   1  34
ATOM     34  C   UNL A   1      35.617  21.552  26.514  1.00  0.00     0.023 C 
BRANCH  34  35
ATOM     35  C   UNL A   1      35.982  22.946  25.989  1.00  0.00     0.023 C 
BRANCH  35  36
ATOM     36  C   UNL A   1      37.410  23.267  25.563  1.00  0.00     0.116 C 
BRANCH  36  37
ATOM     37  N   UNL A   1      38.412  22.258  25.912  1.00  0.00    -0.352 N 
ATOM     38  C   UNL A   1      39.671  22.409  26.478  1.00  0.00     0.251 C 
ATOM     39  H   UNL A   1      38.152  21.329  25.717  1.00  0.00     0.163 HD
ATOM     40  O   UNL A   1      40.519  21.533  26.331  1.00  0.00    -0.269 OA
BRANCH  38  41
ATOM     41  C   UNL A   1      39.999  23.620  27.260  1.00  0.00     0.039 A 
ATOM     42  C   UNL A   1      41.291  23.923  27.699  1.00  0.00     0.014 A 
ATOM     43  C   UNL A   1      38.966  24.492  27.555  1.00  0.00     0.014 A 
ATOM     44  C   UNL A   1      41.514  25.139  28.356  1.00  0.00     0.010 A 
ATOM     45  C   UNL A   1      39.226  25.773  27.942  1.00  0.00     0.010 A 
ATOM     46  C   UNL A   1      40.470  26.074  28.457  1.00  0.00    -0.014 A 
BRANCH  46  47
ATOM     47  C   UNL A   1      40.637  27.388  29.064  1.00  0.00     0.031 A 
ATOM     48  C   UNL A   1      41.578  28.288  28.366  1.00  0.00     0.074 A 
ATOM     49  C   UNL A   1      39.866  27.875  30.063  1.00  0.00     0.049 A 
ATOM     50  N   UNL A   1      42.769  28.606  28.742  1.00  0.00    -0.248 NA
ATOM     51  C   UNL A   1      41.197  28.805  27.044  1.00  0.00     0.031 C 
ATOM     52  C   UNL A   1      38.659  27.288  30.666  1.00  0.00     0.029 A 
ATOM     53  N   UNL A   1      39.952  29.082  30.690  1.00  0.00    -0.354 N 
ATOM     54  C   UNL A   1      43.218  29.535  27.816  1.00  0.00     0.074 A 
ATOM     55  C   UNL A   1      42.299  29.479  26.705  1.00  0.00     0.031 C 
ATOM     56  C   UNL A   1      38.006  28.224  31.387  1.00  0.00     0.029 A 
ATOM     57  C   UNL A   1      38.849  29.399  31.470  1.00  0.00     0.049 A 
ATOM     58  H   UNL A   1      40.731  29.678  30.596  1.00  0.00     0.167 HD
ATOM     59  C   UNL A   1      44.149  30.467  28.155  1.00  0.00     0.031 A 
ATOM     60  C   UNL A   1      38.642  30.543  32.158  1.00  0.00     0.031 A 
ATOM     61  C   UNL A   1      44.758  30.175  29.431  1.00  0.00     0.049 A 
ATOM     62  C   UNL A   1      39.960  31.171  32.372  1.00  0.00     0.074 A 
ATOM     63  C   UNL A   1      45.510  29.143  29.954  1.00  0.00     0.029 A 
ATOM     64  N   UNL A   1      44.262  30.877  30.502  1.00  0.00    -0.354 N 
ATOM     65  N   UNL A   1      40.878  30.672  33.148  1.00  0.00    -0.248 NA
ATOM     66  C   UNL A   1      40.415  32.209  31.460  1.00  0.00     0.031 C 
ATOM     67  C   UNL A   1      45.115  29.043  31.322  1.00  0.00     0.029 A 
ATOM     68  C   UNL A   1      44.173  30.039  31.583  1.00  0.00     0.049 A 
ATOM     69  H   UNL A   1      44.011  31.830  30.494  1.00  0.00     0.167 HD
ATOM     70  C   UNL A   1      42.072  30.993  32.527  1.00  0.00     0.074 A 
ATOM     71  C   UNL A   1      41.736  32.078  31.614  1.00  0.00     0.031 C 
ATOM     72  C   UNL A   1      43.143  30.149  32.598  1.00  0.00     0.031 A 
BRANCH  59  73
ATOM     73  C   UNL A   1      44.190  31.860  27.574  1.00  0.00    -0.014 A 
ATOM     74  C   UNL A   1      45.011  32.098  26.457  1.00  0.00     0.009 A 
ATOM     75  C   UNL A   1      43.683  32.992  28.238  1.00  0.00     0.009 A 
ATOM     76  C   UNL A   1      45.354  33.398  26.067  1.00  0.00     0.001 A 
ATOM     77  C   UNL A   1      43.986  34.293  27.827  1.00  0.00     0.001 A 
ATOM     78  C   UNL A   1      44.845  34.496  26.756  1.00  0.00     0.000 A 
ENDBRANCH  59  73
BRANCH  60  79
ATOM     79  C   UNL A   1      37.383  31.201  32.552  1.00  0.00    -0.014 A 
ATOM     80  C   UNL A   1      37.308  31.919  33.756  1.00  0.00     0.009 A 
ATOM     81  C   UNL A   1      36.344  31.363  31.620  1.00  0.00     0.009 A 
ATOM     82  C   UNL A   1      36.264  32.821  33.989  1.00  0.00     0.001 A 
ATOM     83  C   UNL A   1      35.298  32.259  31.856  1.00  0.00     0.001 A 
ATOM     84  C   UNL A   1      35.270  33.006  33.031  1.00  0.00     0.000 A 
ENDBRANCH  60  79
BRANCH  72  85
ATOM     85  C   UNL A   1      43.119  29.088  33.674  1.00  0.00    -0.014 A 
ATOM     86  C   UNL A   1      42.575  27.805  33.483  1.00  0.00     0.009 A 
ATOM     87  C   UNL A   1      43.746  29.367  34.896  1.00  0.00     0.009 A 
ATOM     88  C   UNL A   1      42.616  26.849  34.504  1.00  0.00     0.001 A 
ATOM     89  C   UNL A   1      43.810  28.404  35.907  1.00  0.00     0.001 A 
ATOM     90  C   UNL A   1      43.237  27.149  35.714  1.00  0.00     0.000 A 
ENDBRANCH  72  85
ENDBRANCH  46  47
ENDBRANCH  38  41
ENDBRANCH  36  37
ENDBRANCH  35  36
ENDBRANCH  34  35
ENDBRANCH   1  34
TORSDOF 16
ENDMDL
MODEL 2
REMARK VINA RESULT:     -12.4      2.451      8.049
REMARK SMILES Cc1ccc(C)c(N2C(=O)S[C@H](CC(=O)Nc3ccc(C(=O)NCCCCNC(=O)c4ccc(-c5c6nc(c(-c7ccccc7)c7ccc([nH]7)c(-c7ccccc7)c7nc(c(-c8ccccc8)c8ccc5[nH]8)C=C7)C=C6)cc4)c(O)c3)C2=O)c1
REMARK SMILES IDX 24 1 23 2 21 3 22 4 20 6 17 7 18 8 81 9 19 10 79 11 16 12
REMARK SMILES IDX 14 13 15 14 13 16 12 17 8 18 9 19 82 20 10 21 11 22 83 23
REMARK SMILES IDX 7 24 1 25 2 26 3 27 84 28 4 29 5 30 6 31 80 32 25 34 26 35
REMARK SMILES IDX 27 36 28 37 29 38 30 40 31 41 32 42 78 43 33 44 77 45 34 46
REMARK SMILES IDX 35 47 36 48 71 49 37 50 76 51 70 52 72 53 38 54 75 55 69 56
REMARK SMILES IDX 68 57 39 59 61 60 46 61 60 62 47 63 50 64 59 65 73 66 48 67
REMARK SMILES IDX 49 68 58 70 74 71 51 72 40 73 41 74 45 75 42 76 44 77 43 78
REMARK SMILES IDX 62 79 63 80 67 81 64 82 66 83 65 84 52 85 53 86 57 87 54 88
REMARK SMILES IDX 56 89 55 90
REMARK H PARENT 23 5 16 15 80 33 28 39 72 58 50 69
REMARK Flexibility Score: inf
ROOT
ATOM      1  C   UNL A   1      30.106  30.974  25.043  1.00  0.00     0.116 C 
ENDROOT
BRANCH   1   2
ATOM      2  N   UNL A   1      30.087  30.638  23.633  1.00  0.00    -0.352 N 
ATOM      3  C   UNL A   1      29.934  29.413  23.011  1.00  0.00     0.255 C 
ATOM      4  O   UNL A   1      29.761  29.416  21.792  1.00  0.00    -0.269 OA
ATOM      5  H   UNL A   1      30.200  31.402  23.022  1.00  0.00     0.163 HD
BRANCH   3   6
ATOM      6  C   UNL A   1      30.084  28.102  23.717  1.00  0.00     0.081 A 
ATOM      7  C   UNL A   1      30.522  25.986  25.536  1.00  0.00     0.044 A 
ATOM      8  C   UNL A   1      31.580  26.722  25.023  1.00  0.00     0.027 A 
ATOM      9  C   UNL A   1      29.281  26.130  24.929  1.00  0.00     0.073 A 
ATOM     10  C   UNL A   1      31.370  27.805  24.173  1.00  0.00     0.020 A 
ATOM     11  C   UNL A   1      29.090  27.151  23.982  1.00  0.00     0.130 A 
BRANCH   7  12
ATOM     12  N   UNL A   1      30.727  25.068  26.581  1.00  0.00    -0.326 N 
ATOM     13  C   UNL A   1      31.528  23.942  26.570  1.00  0.00     0.226 C 
ATOM     14  O   UNL A   1      31.348  23.048  27.396  1.00  0.00    -0.275 OA
ATOM     15  H   UNL A   1      30.245  25.250  27.420  1.00  0.00     0.169 HD
BRANCH  13  16
ATOM     16  C   UNL A   1      32.764  23.934  25.675  1.00  0.00     0.125 C 
BRANCH  16  17
ATOM     17  C   UNL A   1      33.399  22.568  25.421  1.00  0.00     0.156 C 
ATOM     18  N   UNL A   1      35.779  22.859  25.377  1.00  0.00    -0.240 N 
ATOM     19  C   UNL A   1      35.525  22.967  24.027  1.00  0.00     0.293 C 
ATOM     20  C   UNL A   1      34.716  22.500  26.187  1.00  0.00     0.248 C 
ATOM     21  O   UNL A   1      36.228  23.417  23.156  1.00  0.00    -0.261 OA
ATOM     22  S   UNL A   1      33.925  22.311  23.701  1.00  0.00    -0.050 SA
ATOM     23  O   UNL A   1      34.775  22.193  27.373  1.00  0.00    -0.273 OA
BRANCH  18  24
ATOM     24  C   UNL A   1      37.118  22.800  25.822  1.00  0.00     0.056 A 
ATOM     25  C   UNL A   1      39.732  25.092  27.424  1.00  0.00     0.044 C 
ATOM     26  C   UNL A   1      39.060  23.902  26.800  1.00  0.00    -0.049 A 
ATOM     27  C   UNL A   1      39.811  22.744  26.574  1.00  0.00     0.004 A 
ATOM     28  C   UNL A   1      37.704  23.921  26.435  1.00  0.00     0.030 A 
ATOM     29  C   UNL A   1      39.230  21.629  25.971  1.00  0.00     0.006 A 
ATOM     30  C   UNL A   1      37.886  21.644  25.577  1.00  0.00    -0.027 A 
ATOM     31  C   UNL A   1      37.342  20.409  24.911  1.00  0.00     0.046 C 
ENDBRANCH  18  24
ENDBRANCH  16  17
ENDBRANCH  13  16
ENDBRANCH   7  12
BRANCH  11  32
ATOM     32  O   UNL A   1      27.906  27.102  23.299  1.00  0.00    -0.507 OA
ATOM     33  H   UNL A   1      27.890  27.270  22.377  1.00  0.00     0.293 HD
ENDBRANCH  11  32
ENDBRANCH   3   6
ENDBRANCH   1   2
BRANCH   1  34
ATOM     34  C   UNL A   1      31.466  31.184  25.703  1.00  0.00     0.023 C 
BRANCH  34  35
ATOM     35  C   UNL A   1      31.994  30.257  26.804  1.00  0.00     0.023 C 
BRANCH  35  36
ATOM     36  C   UNL A   1      33.402  30.435  27.360  1.00  0.00     0.116 C 
BRANCH  36  37
ATOM     37  N   UNL A   1      33.893  31.814  27.400  1.00  0.00    -0.352 N 
ATOM     38  C   UNL A   1      35.027  32.341  28.004  1.00  0.00     0.251 C 
ATOM     39  H   UNL A   1      33.333  32.468  26.923  1.00  0.00     0.163 HD
ATOM     40  O   UNL A   1      35.074  33.535  28.284  1.00  0.00    -0.269 OA
BRANCH  38  41
ATOM     41  C   UNL A   1      36.182  31.471  28.313  1.00  0.00     0.039 A 
ATOM     42  C   UNL A   1      36.314  30.169  27.821  1.00  0.00     0.014 A 
ATOM     43  C   UNL A   1      37.177  31.989  29.122  1.00  0.00     0.014 A 
ATOM     44  C   UNL A   1      37.487  29.458  28.099  1.00  0.00     0.010 A 
ATOM     45  C   UNL A   1      38.412  31.413  29.162  1.00  0.00     0.010 A 
ATOM     46  C   UNL A   1      38.547  30.100  28.760  1.00  0.00    -0.014 A 
BRANCH  46  47
ATOM     47  C   UNL A   1      39.826  29.454  29.026  1.00  0.00     0.031 A 
ATOM     48  C   UNL A   1      40.095  29.153  30.448  1.00  0.00     0.074 A 
ATOM     49  C   UNL A   1      40.647  28.958  28.072  1.00  0.00     0.049 A 
ATOM     50  N   UNL A   1      40.909  29.776  31.230  1.00  0.00    -0.248 NA
ATOM     51  C   UNL A   1      39.289  28.116  31.105  1.00  0.00     0.031 C 
ATOM     52  C   UNL A   1      40.413  28.839  26.625  1.00  0.00     0.029 A 
ATOM     53  N   UNL A   1      41.854  28.346  28.227  1.00  0.00    -0.354 N 
ATOM     54  C   UNL A   1      40.882  29.078  32.428  1.00  0.00     0.074 A 
ATOM     55  C   UNL A   1      39.744  28.194  32.358  1.00  0.00     0.031 C 
ATOM     56  C   UNL A   1      41.321  28.001  26.082  1.00  0.00     0.029 A 
ATOM     57  C   UNL A   1      42.315  27.698  27.090  1.00  0.00     0.049 A 
ATOM     58  H   UNL A   1      42.357  28.362  29.074  1.00  0.00     0.167 HD
ATOM     59  C   UNL A   1      41.953  29.087  33.267  1.00  0.00     0.031 A 
ATOM     60  C   UNL A   1      43.448  26.971  26.971  1.00  0.00     0.031 A 
ATOM     61  C   UNL A   1      42.922  30.087  32.886  1.00  0.00     0.049 A 
ATOM     62  C   UNL A   1      44.357  27.395  28.054  1.00  0.00     0.074 A 
ATOM     63  C   UNL A   1      42.928  31.461  32.763  1.00  0.00     0.029 A 
ATOM     64  N   UNL A   1      44.003  29.627  32.174  1.00  0.00    -0.354 N 
ATOM     65  N   UNL A   1      44.915  28.569  28.107  1.00  0.00    -0.248 NA
ATOM     66  C   UNL A   1      44.405  26.627  29.288  1.00  0.00     0.031 C 
ATOM     67  C   UNL A   1      43.792  31.739  31.662  1.00  0.00     0.029 A 
ATOM     68  C   UNL A   1      44.304  30.530  31.188  1.00  0.00     0.049 A 
ATOM     69  H   UNL A   1      44.484  28.785  32.345  1.00  0.00     0.167 HD
ATOM     70  C   UNL A   1      44.975  28.866  29.457  1.00  0.00     0.074 A 
ATOM     71  C   UNL A   1      44.824  27.580  30.127  1.00  0.00     0.031 C 
ATOM     72  C   UNL A   1      44.842  30.152  29.895  1.00  0.00     0.031 A 
BRANCH  59  73
ATOM     73  C   UNL A   1      42.341  27.919  34.140  1.00  0.00    -0.014 A 
ATOM     74  C   UNL A   1      43.070  26.863  33.565  1.00  0.00     0.009 A 
ATOM     75  C   UNL A   1      41.786  27.683  35.412  1.00  0.00     0.009 A 
ATOM     76  C   UNL A   1      43.184  25.621  34.202  1.00  0.00     0.001 A 
ATOM     77  C   UNL A   1      41.934  26.460  36.072  1.00  0.00     0.001 A 
ATOM     78  C   UNL A   1      42.611  25.419  35.454  1.00  0.00     0.000 A 
ENDBRANCH  59  73
BRANCH  60  79
ATOM     79  C   UNL A   1      43.772  25.856  26.063  1.00  0.00    -0.014 A 
ATOM     80  C   UNL A   1      45.029  25.792  25.443  1.00  0.00     0.009 A 
ATOM     81  C   UNL A   1      42.957  24.712  26.025  1.00  0.00     0.009 A 
ATOM     82  C   UNL A   1      45.484  24.601  24.865  1.00  0.00     0.001 A 
ATOM     83  C   UNL A   1      43.409  23.524  25.442  1.00  0.00     0.001 A 
ATOM     84  C   UNL A   1      44.682  23.463  24.882  1.00  0.00     0.000 A 
ENDBRANCH  60  79
BRANCH  72  85
ATOM     85  C   UNL A   1      45.026  31.253  28.876  1.00  0.00    -0.014 A 
ATOM     86  C   UNL A   1      46.187  32.043  28.792  1.00  0.00     0.009 A 
ATOM     87  C   UNL A   1      44.026  31.441  27.912  1.00  0.00     0.009 A 
ATOM     88  C   UNL A   1      46.319  33.021  27.801  1.00  0.00     0.001 A 
ATOM     89  C   UNL A   1      44.168  32.402  26.907  1.00  0.00     0.001 A 
ATOM     90  C   UNL A   1      45.310  33.198  26.858  1.00  0.00     0.000 A 
ENDBRANCH  72  85
ENDBRANCH  46  47
ENDBRANCH  38  41
ENDBRANCH  36  37
ENDBRANCH  35  36
ENDBRANCH  34  35
ENDBRANCH   1  34
TORSDOF 16
ENDMDL
MODEL 3
REMARK VINA RESULT:     -12.3      2.647      8.143
REMARK SMILES Cc1ccc(C)c(N2C(=O)S[C@H](CC(=O)Nc3ccc(C(=O)NCCCCNC(=O)c4ccc(-c5c6nc(c(-c7ccccc7)c7ccc([nH]7)c(-c7ccccc7)c7nc(c(-c8ccccc8)c8ccc5[nH]8)C=C7)C=C6)cc4)c(O)c3)C2=O)c1
REMARK SMILES IDX 24 1 23 2 21 3 22 4 20 6 17 7 18 8 81 9 19 10 79 11 16 12
REMARK SMILES IDX 14 13 15 14 13 16 12 17 8 18 9 19 82 20 10 21 11 22 83 23
REMARK SMILES IDX 7 24 1 25 2 26 3 27 84 28 4 29 5 30 6 31 80 32 25 34 26 35
REMARK SMILES IDX 27 36 28 37 29 38 30 40 31 41 32 42 78 43 33 44 77 45 34 46
REMARK SMILES IDX 35 47 36 48 71 49 37 50 76 51 70 52 72 53 38 54 75 55 69 56
REMARK SMILES IDX 68 57 39 59 61 60 46 61 60 62 47 63 50 64 59 65 73 66 48 67
REMARK SMILES IDX 49 68 58 70 74 71 51 72 40 73 41 74 45 75 42 76 44 77 43 78
REMARK SMILES IDX 62 79 63 80 67 81 64 82 66 83 65 84 52 85 53 86 57 87 54 88
REMARK SMILES IDX 56 89 55 90
REMARK H PARENT 23 5 16 15 80 33 28 39 72 58 50 69
REMARK Flexibility Score: inf
ROOT
ATOM      1  C   UNL A   1      31.027  30.381  25.019  1.00  0.00     0.116 C 
ENDROOT
BRANCH   1   2
ATOM      2  N   UNL A   1      30.898  30.078  23.607  1.00  0.00    -0.352 N 
ATOM      3  C   UNL A   1      30.330  28.985  22.979  1.00  0.00     0.255 C 
ATOM      4  O   UNL A   1      30.175  29.053  21.759  1.00  0.00    -0.269 OA
ATOM      5  H   UNL A   1      31.274  30.756  23.000  1.00  0.00     0.163 HD
BRANCH   3   6
ATOM      6  C   UNL A   1      30.009  27.702  23.679  1.00  0.00     0.081 A 
ATOM      7  C   UNL A   1      29.636  25.575  25.499  1.00  0.00     0.044 A 
ATOM      8  C   UNL A   1      30.903  25.927  25.056  1.00  0.00     0.027 A 
ATOM      9  C   UNL A   1      28.546  26.105  24.823  1.00  0.00     0.073 A 
ATOM     10  C   UNL A   1      31.102  27.012  24.206  1.00  0.00     0.020 A 
ATOM     11  C   UNL A   1      28.748  27.125  23.877  1.00  0.00     0.130 A 
BRANCH   7  12
ATOM     12  N   UNL A   1      29.475  24.650  26.546  1.00  0.00    -0.326 N 
ATOM     13  C   UNL A   1      30.176  23.477  26.750  1.00  0.00     0.226 C 
ATOM     14  O   UNL A   1      29.711  22.598  27.476  1.00  0.00    -0.275 OA
ATOM     15  H   UNL A   1      28.781  24.863  27.211  1.00  0.00     0.169 HD
BRANCH  13  16
ATOM     16  C   UNL A   1      31.616  23.391  26.252  1.00  0.00     0.125 C 
BRANCH  16  17
ATOM     17  C   UNL A   1      32.065  22.025  25.737  1.00  0.00     0.156 C 
ATOM     18  N   UNL A   1      34.379  22.193  25.127  1.00  0.00    -0.240 N 
ATOM     19  C   UNL A   1      33.814  22.447  23.897  1.00  0.00     0.293 C 
ATOM     20  C   UNL A   1      33.520  21.812  26.143  1.00  0.00     0.248 C 
ATOM     21  O   UNL A   1      34.317  22.942  22.918  1.00  0.00    -0.261 OA
ATOM     22  S   UNL A   1      32.138  21.911  23.925  1.00  0.00    -0.050 SA
ATOM     23  O   UNL A   1      33.841  21.387  27.248  1.00  0.00    -0.273 OA
BRANCH  18  24
ATOM     24  C   UNL A   1      35.778  22.020  25.219  1.00  0.00     0.056 A 
ATOM     25  C   UNL A   1      38.360  19.203  25.001  1.00  0.00     0.044 C 
ATOM     26  C   UNL A   1      37.723  20.551  25.183  1.00  0.00    -0.049 A 
ATOM     27  C   UNL A   1      38.528  21.636  25.545  1.00  0.00     0.004 A 
ATOM     28  C   UNL A   1      36.344  20.751  25.006  1.00  0.00     0.030 A 
ATOM     29  C   UNL A   1      37.969  22.896  25.751  1.00  0.00     0.006 A 
ATOM     30  C   UNL A   1      36.592  23.104  25.604  1.00  0.00    -0.027 A 
ATOM     31  C   UNL A   1      36.065  24.488  25.869  1.00  0.00     0.046 C 
ENDBRANCH  18  24
ENDBRANCH  16  17
ENDBRANCH  13  16
ENDBRANCH   7  12
BRANCH  11  32
ATOM     32  O   UNL A   1      27.653  27.453  23.126  1.00  0.00    -0.507 OA
ATOM     33  H   UNL A   1      27.628  28.270  22.667  1.00  0.00     0.293 HD
ENDBRANCH  11  32
ENDBRANCH   3   6
ENDBRANCH   1   2
BRANCH   1  34
ATOM     34  C   UNL A   1      32.338  30.010  25.706  1.00  0.00     0.023 C 
BRANCH  34  35
ATOM     35  C   UNL A   1      32.891  30.801  26.897  1.00  0.00     0.023 C 
BRANCH  35  36
ATOM     36  C   UNL A   1      34.373  30.738  27.252  1.00  0.00     0.116 C 
BRANCH  36  37
ATOM     37  N   UNL A   1      34.976  32.008  27.658  1.00  0.00    -0.352 N 
ATOM     38  C   UNL A   1      35.945  32.270  28.618  1.00  0.00     0.251 C 
ATOM     39  H   UNL A   1      34.644  32.800  27.175  1.00  0.00     0.163 HD
ATOM     40  O   UNL A   1      36.039  33.393  29.105  1.00  0.00    -0.269 OA
BRANCH  38  41
ATOM     41  C   UNL A   1      36.869  31.202  29.057  1.00  0.00     0.039 A 
ATOM     42  C   UNL A   1      36.443  29.920  29.417  1.00  0.00     0.014 A 
ATOM     43  C   UNL A   1      38.219  31.499  29.099  1.00  0.00     0.014 A 
ATOM     44  C   UNL A   1      37.403  28.953  29.734  1.00  0.00     0.010 A 
ATOM     45  C   UNL A   1      39.150  30.504  29.139  1.00  0.00     0.010 A 
ATOM     46  C   UNL A   1      38.767  29.252  29.573  1.00  0.00    -0.014 A 
BRANCH  46  47
ATOM     47  C   UNL A   1      39.826  28.280  29.814  1.00  0.00     0.031 A 
ATOM     48  C   UNL A   1      40.293  28.194  31.213  1.00  0.00     0.074 A 
ATOM     49  C   UNL A   1      40.243  27.361  28.914  1.00  0.00     0.049 A 
ATOM     50  N   UNL A   1      41.401  28.650  31.690  1.00  0.00    -0.248 NA
ATOM     51  C   UNL A   1      39.379  27.638  32.220  1.00  0.00     0.031 C 
ATOM     52  C   UNL A   1      39.680  27.044  27.592  1.00  0.00     0.029 A 
ATOM     53  N   UNL A   1      41.222  26.424  29.050  1.00  0.00    -0.354 N 
ATOM     54  C   UNL A   1      41.428  28.252  33.018  1.00  0.00     0.074 A 
ATOM     55  C   UNL A   1      40.093  27.804  33.335  1.00  0.00     0.031 C 
ATOM     56  C   UNL A   1      40.165  25.861  27.160  1.00  0.00     0.029 A 
ATOM     57  C   UNL A   1      41.219  25.448  28.063  1.00  0.00     0.049 A 
ATOM     58  H   UNL A   1      41.876  26.438  29.787  1.00  0.00     0.167 HD
ATOM     59  C   UNL A   1      42.608  28.068  33.670  1.00  0.00     0.031 A 
ATOM     60  C   UNL A   1      42.037  24.376  27.977  1.00  0.00     0.031 A 
ATOM     61  C   UNL A   1      43.722  28.590  32.914  1.00  0.00     0.049 A 
ATOM     62  C   UNL A   1      43.239  24.676  28.779  1.00  0.00     0.074 A 
ATOM     63  C   UNL A   1      44.104  29.830  32.445  1.00  0.00     0.029 A 
ATOM     64  N   UNL A   1      44.443  27.664  32.200  1.00  0.00    -0.354 N 
ATOM     65  N   UNL A   1      44.114  25.582  28.452  1.00  0.00    -0.248 NA
ATOM     66  C   UNL A   1      43.324  24.196  30.149  1.00  0.00     0.031 C 
ATOM     67  C   UNL A   1      44.755  29.580  31.200  1.00  0.00     0.029 A 
ATOM     68  C   UNL A   1      44.776  28.201  30.984  1.00  0.00     0.049 A 
ATOM     69  H   UNL A   1      44.681  26.761  32.512  1.00  0.00     0.167 HD
ATOM     70  C   UNL A   1      44.546  26.102  29.660  1.00  0.00     0.074 A 
ATOM     71  C   UNL A   1      44.172  25.099  30.650  1.00  0.00     0.031 C 
ATOM     72  C   UNL A   1      44.891  27.418  29.769  1.00  0.00     0.031 A 
BRANCH  59  73
ATOM     73  C   UNL A   1      42.815  27.033  34.749  1.00  0.00    -0.014 A 
ATOM     74  C   UNL A   1      42.944  25.685  34.372  1.00  0.00     0.009 A 
ATOM     75  C   UNL A   1      42.607  27.289  36.117  1.00  0.00     0.009 A 
ATOM     76  C   UNL A   1      42.811  24.649  35.305  1.00  0.00     0.001 A 
ATOM     77  C   UNL A   1      42.518  26.261  37.060  1.00  0.00     0.001 A 
ATOM     78  C   UNL A   1      42.593  24.938  36.649  1.00  0.00     0.000 A 
ENDBRANCH  59  73
BRANCH  60  79
ATOM     79  C   UNL A   1      41.818  23.061  27.348  1.00  0.00    -0.014 A 
ATOM     80  C   UNL A   1      42.506  22.715  26.175  1.00  0.00     0.009 A 
ATOM     81  C   UNL A   1      41.153  22.040  28.049  1.00  0.00     0.009 A 
ATOM     82  C   UNL A   1      42.584  21.383  25.755  1.00  0.00     0.001 A 
ATOM     83  C   UNL A   1      41.225  20.710  27.625  1.00  0.00     0.001 A 
ATOM     84  C   UNL A   1      41.960  20.379  26.491  1.00  0.00     0.000 A 
ENDBRANCH  60  79
BRANCH  72  85
ATOM     85  C   UNL A   1      45.168  28.170  28.487  1.00  0.00    -0.014 A 
ATOM     86  C   UNL A   1      44.189  28.907  27.796  1.00  0.00     0.009 A 
ATOM     87  C   UNL A   1      46.485  28.204  28.008  1.00  0.00     0.009 A 
ATOM     88  C   UNL A   1      44.513  29.617  26.635  1.00  0.00     0.001 A 
ATOM     89  C   UNL A   1      46.814  28.934  26.863  1.00  0.00     0.001 A 
ATOM     90  C   UNL A   1      45.826  29.632  26.171  1.00  0.00     0.000 A 
ENDBRANCH  72  85
ENDBRANCH  46  47
ENDBRANCH  38  41
ENDBRANCH  36  37
ENDBRANCH  35  36
ENDBRANCH  34  35
ENDBRANCH   1  34
TORSDOF 16
ENDMDL
