MODEL 1
REMARK VINA RESULT:     -10.2      0.000      0.000
REMARK SMILES CC(C)(C)[N@H+](CCC(=O)NCCCCNC(=O)c1ccc(-c2c3nc(c(-c4ccccc4)c4ccc([nH]4)c(-c4ccccc4)c4nc(c(-c5ccccc5)c5ccc2[nH]5)C=C4)C=C3)cc1)Cc1ccccc1C1CC1
REMARK SMILES IDX 11 1 10 2 8 3 9 4 7 6 6 7 5 8 2 10 1 11 3 12 4 13 66 14
REMARK SMILES IDX 67 15 68 16 72 17 69 18 71 19 70 20 73 21 74 22 75 23 12 24
REMARK SMILES IDX 13 25 14 26 15 27 16 28 17 30 18 31 19 32 65 33 20 34 64 35
REMARK SMILES IDX 21 36 22 37 23 38 58 39 24 40 63 41 57 42 59 43 25 44 62 45
REMARK SMILES IDX 56 46 55 47 26 49 48 50 33 51 47 52 34 53 37 54 46 55 60 56
REMARK SMILES IDX 35 57 36 58 45 60 61 61 38 62 27 63 28 64 32 65 29 66 31 67
REMARK SMILES IDX 30 68 49 69 50 70 54 71 51 72 53 73 52 74 39 75 40 76 44 77
REMARK SMILES IDX 41 78 43 79 42 80
REMARK H PARENT 10 5 5 9 15 29 59 48 37 59
REMARK Flexibility Score: inf
ROOT
ATOM      1  C   UNL A   1      31.970  28.850  25.575  1.00  0.00     0.116 C 
ENDROOT
BRANCH   1   2
ATOM      2  N   UNL A   1      31.609  27.437  25.819  1.00  0.00    -0.356 N 
ATOM      3  C   UNL A   1      32.190  26.231  26.080  1.00  0.00     0.225 C 
ATOM      4  O   UNL A   1      31.424  25.415  26.617  1.00  0.00    -0.275 OA
ATOM      5  H   UNL A   1      30.631  27.333  25.782  1.00  0.00     0.163 HD
BRANCH   3   6
ATOM      6  C   UNL A   1      33.627  25.783  25.834  1.00  0.00     0.161 C 
BRANCH   6   7
ATOM      7  C   UNL A   1      34.045  25.828  24.364  1.00  0.00     0.272 C 
BRANCH   7   8
ATOM      8  N   UNL A   1      33.115  25.198  23.397  1.00  0.00    -0.327 N 
ATOM      9  H   UNL A   1      32.262  24.877  23.855  1.00  0.00     0.348 HD
BRANCH   8  10
ATOM     10  C   UNL A   1      32.543  26.204  22.405  1.00  0.00     0.089 C 
ATOM     11  C   UNL A   1      31.013  26.498  22.552  1.00  0.00     0.078 C 
ATOM     12  C   UNL A   1      32.679  25.590  20.992  1.00  0.00     0.078 C 
ATOM     13  C   UNL A   1      33.213  27.601  22.393  1.00  0.00     0.078 C 
ENDBRANCH   8  10
BRANCH   8  14
ATOM     14  C   UNL A   1      33.743  23.964  22.856  1.00  0.00     0.299 C 
BRANCH  14  15
ATOM     15  C   UNL A   1      33.860  22.713  23.771  1.00  0.00     0.010 A 
ATOM     16  C   UNL A   1      32.658  21.954  23.577  1.00  0.00     0.010 A 
ATOM     17  C   UNL A   1      34.878  22.145  24.638  1.00  0.00    -0.036 A 
ATOM     18  C   UNL A   1      32.385  20.733  24.170  1.00  0.00     0.001 A 
ATOM     19  C   UNL A   1      34.543  20.842  25.154  1.00  0.00     0.004 A 
ATOM     20  C   UNL A   1      33.343  20.166  24.965  1.00  0.00     0.000 A 
BRANCH  17  21
ATOM     21  C   UNL A   1      36.204  22.550  25.382  1.00  0.00     0.020 C 
ATOM     22  C   UNL A   1      37.115  23.602  24.725  1.00  0.00     0.009 C 
ATOM     23  C   UNL A   1      36.889  23.596  26.193  1.00  0.00     0.009 C 
ENDBRANCH  17  21
ENDBRANCH  14  15
ENDBRANCH   8  14
ENDBRANCH   7   8
ENDBRANCH   6   7
ENDBRANCH   3   6
ENDBRANCH   1   2
BRANCH   1  24
ATOM     24  C   UNL A   1      32.114  29.664  26.870  1.00  0.00     0.023 C 
BRANCH  24  25
ATOM     25  C   UNL A   1      33.458  29.435  27.586  1.00  0.00     0.023 C 
BRANCH  25  26
ATOM     26  C   UNL A   1      34.412  30.632  27.592  1.00  0.00     0.116 C 
BRANCH  26  27
ATOM     27  N   UNL A   1      34.514  31.258  28.908  1.00  0.00    -0.352 N 
ATOM     28  C   UNL A   1      35.500  31.133  29.860  1.00  0.00     0.251 C 
ATOM     29  H   UNL A   1      33.769  31.853  29.151  1.00  0.00     0.163 HD
ATOM     30  O   UNL A   1      35.346  31.609  30.989  1.00  0.00    -0.269 OA
BRANCH  28  31
ATOM     31  C   UNL A   1      36.744  30.400  29.545  1.00  0.00     0.039 A 
ATOM     32  C   UNL A   1      37.219  30.383  28.231  1.00  0.00     0.014 A 
ATOM     33  C   UNL A   1      37.455  29.753  30.558  1.00  0.00     0.014 A 
ATOM     34  C   UNL A   1      38.462  29.807  27.952  1.00  0.00     0.010 A 
ATOM     35  C   UNL A   1      38.723  29.239  30.291  1.00  0.00     0.010 A 
ATOM     36  C   UNL A   1      39.250  29.278  28.989  1.00  0.00    -0.014 A 
BRANCH  36  37
ATOM     37  C   UNL A   1      40.636  28.795  28.740  1.00  0.00     0.031 A 
ATOM     38  C   UNL A   1      40.891  27.360  28.368  1.00  0.00     0.074 A 
ATOM     39  C   UNL A   1      41.678  29.632  28.924  1.00  0.00     0.049 A 
ATOM     40  N   UNL A   1      42.033  26.745  28.180  1.00  0.00    -0.248 NA
ATOM     41  C   UNL A   1      39.711  26.496  28.213  1.00  0.00     0.031 C 
ATOM     42  C   UNL A   1      41.578  31.036  29.326  1.00  0.00     0.029 A 
ATOM     43  N   UNL A   1      43.030  29.422  28.801  1.00  0.00    -0.354 N 
ATOM     44  C   UNL A   1      41.708  25.423  27.902  1.00  0.00     0.074 A 
ATOM     45  C   UNL A   1      40.269  25.313  28.001  1.00  0.00     0.031 C 
ATOM     46  C   UNL A   1      42.810  31.568  29.384  1.00  0.00     0.029 A 
ATOM     47  C   UNL A   1      43.791  30.535  29.069  1.00  0.00     0.049 A 
ATOM     48  H   UNL A   1      43.419  28.553  28.546  1.00  0.00     0.167 HD
ATOM     49  C   UNL A   1      42.528  24.396  27.572  1.00  0.00     0.031 A 
ATOM     50  C   UNL A   1      45.126  30.707  29.067  1.00  0.00     0.031 A 
ATOM     51  C   UNL A   1      43.959  24.503  27.466  1.00  0.00     0.049 A 
ATOM     52  C   UNL A   1      46.018  29.545  28.720  1.00  0.00     0.074 A 
ATOM     53  C   UNL A   1      44.871  23.532  27.087  1.00  0.00     0.029 A 
ATOM     54  N   UNL A   1      44.687  25.649  27.743  1.00  0.00    -0.354 N 
ATOM     55  N   UNL A   1      45.688  28.321  28.392  1.00  0.00    -0.248 NA
ATOM     56  C   UNL A   1      47.467  29.797  28.733  1.00  0.00     0.031 C 
ATOM     57  C   UNL A   1      46.155  24.077  27.189  1.00  0.00     0.029 A 
ATOM     58  C   UNL A   1      46.039  25.403  27.568  1.00  0.00     0.049 A 
ATOM     59  H   UNL A   1      44.301  26.511  28.023  1.00  0.00     0.167 HD
ATOM     60  C   UNL A   1      46.884  27.664  28.130  1.00  0.00     0.074 A 
ATOM     61  C   UNL A   1      47.945  28.630  28.322  1.00  0.00     0.031 C 
ATOM     62  C   UNL A   1      47.085  26.374  27.761  1.00  0.00     0.031 A 
BRANCH  49  63
ATOM     63  C   UNL A   1      41.889  23.059  27.306  1.00  0.00    -0.014 A 
ATOM     64  C   UNL A   1      42.203  21.935  28.088  1.00  0.00     0.009 A 
ATOM     65  C   UNL A   1      40.940  22.927  26.280  1.00  0.00     0.009 A 
ATOM     66  C   UNL A   1      41.614  20.697  27.819  1.00  0.00     0.001 A 
ATOM     67  C   UNL A   1      40.329  21.696  26.034  1.00  0.00     0.001 A 
ATOM     68  C   UNL A   1      40.675  20.580  26.795  1.00  0.00     0.000 A 
ENDBRANCH  49  63
BRANCH  50  69
ATOM     69  C   UNL A   1      45.712  32.038  29.388  1.00  0.00    -0.014 A 
ATOM     70  C   UNL A   1      46.044  32.368  30.711  1.00  0.00     0.009 A 
ATOM     71  C   UNL A   1      45.930  32.988  28.378  1.00  0.00     0.009 A 
ATOM     72  C   UNL A   1      46.553  33.632  31.020  1.00  0.00     0.001 A 
ATOM     73  C   UNL A   1      46.469  34.240  28.686  1.00  0.00     0.001 A 
ATOM     74  C   UNL A   1      46.770  34.564  30.008  1.00  0.00     0.000 A 
ENDBRANCH  50  69
BRANCH  62  75
ATOM     75  C   UNL A   1      48.501  25.941  27.505  1.00  0.00    -0.014 A 
ATOM     76  C   UNL A   1      49.081  26.053  26.232  1.00  0.00     0.009 A 
ATOM     77  C   UNL A   1      49.282  25.459  28.568  1.00  0.00     0.009 A 
ATOM     78  C   UNL A   1      50.406  25.662  26.024  1.00  0.00     0.001 A 
ATOM     79  C   UNL A   1      50.614  25.099  28.364  1.00  0.00     0.001 A 
ATOM     80  C   UNL A   1      51.172  25.192  27.090  1.00  0.00     0.000 A 
ENDBRANCH  62  75
ENDBRANCH  36  37
ENDBRANCH  28  31
ENDBRANCH  26  27
ENDBRANCH  25  26
ENDBRANCH  24  25
ENDBRANCH   1  24
TORSDOF 17
ENDMDL
MODEL 2
REMARK VINA RESULT:     -10.1      2.346      7.544
REMARK SMILES CC(C)(C)[N@H+](CCC(=O)NCCCCNC(=O)c1ccc(-c2c3nc(c(-c4ccccc4)c4ccc([nH]4)c(-c4ccccc4)c4nc(c(-c5ccccc5)c5ccc2[nH]5)C=C4)C=C3)cc1)Cc1ccccc1C1CC1
REMARK SMILES IDX 11 1 10 2 8 3 9 4 7 6 6 7 5 8 2 10 1 11 3 12 4 13 66 14
REMARK SMILES IDX 67 15 68 16 72 17 69 18 71 19 70 20 73 21 74 22 75 23 12 24
REMARK SMILES IDX 13 25 14 26 15 27 16 28 17 30 18 31 19 32 65 33 20 34 64 35
REMARK SMILES IDX 21 36 22 37 23 38 58 39 24 40 63 41 57 42 59 43 25 44 62 45
REMARK SMILES IDX 56 46 55 47 26 49 48 50 33 51 47 52 34 53 37 54 46 55 60 56
REMARK SMILES IDX 35 57 36 58 45 60 61 61 38 62 27 63 28 64 32 65 29 66 31 67
REMARK SMILES IDX 30 68 49 69 50 70 54 71 51 72 53 73 52 74 39 75 40 76 44 77
REMARK SMILES IDX 41 78 43 79 42 80
REMARK H PARENT 10 5 5 9 15 29 59 48 37 59
REMARK Flexibility Score: inf
ROOT
ATOM      1  C   UNL A   1      38.292  23.674  26.095  1.00  0.00     0.116 C 
ENDROOT
BRANCH   1   2
ATOM      2  N   UNL A   1      37.738  23.453  24.741  1.00  0.00    -0.356 N 
ATOM      3  C   UNL A   1      36.667  22.882  24.122  1.00  0.00     0.225 C 
ATOM      4  O   UNL A   1      36.454  23.328  22.982  1.00  0.00    -0.275 OA
ATOM      5  H   UNL A   1      38.340  23.846  24.068  1.00  0.00     0.163 HD
BRANCH   3   6
ATOM      6  C   UNL A   1      35.703  21.823  24.648  1.00  0.00     0.161 C 
BRANCH   6   7
ATOM      7  C   UNL A   1      34.571  22.389  25.506  1.00  0.00     0.272 C 
BRANCH   7   8
ATOM      8  N   UNL A   1      33.579  23.239  24.806  1.00  0.00    -0.327 N 
ATOM      9  H   UNL A   1      33.853  23.412  23.838  1.00  0.00     0.348 HD
BRANCH   8  10
ATOM     10  C   UNL A   1      32.248  22.526  24.601  1.00  0.00     0.089 C 
ATOM     11  C   UNL A   1      32.088  21.168  25.362  1.00  0.00     0.078 C 
ATOM     12  C   UNL A   1      32.154  22.140  23.107  1.00  0.00     0.078 C 
ATOM     13  C   UNL A   1      30.980  23.336  24.973  1.00  0.00     0.078 C 
ENDBRANCH   8  10
BRANCH   8  14
ATOM     14  C   UNL A   1      33.561  24.583  25.441  1.00  0.00     0.299 C 
BRANCH  14  15
ATOM     15  C   UNL A   1      33.618  25.846  24.538  1.00  0.00     0.010 A 
ATOM     16  C   UNL A   1      33.652  25.376  23.183  1.00  0.00     0.010 A 
ATOM     17  C   UNL A   1      33.558  27.283  24.747  1.00  0.00    -0.036 A 
ATOM     18  C   UNL A   1      33.653  26.186  22.060  1.00  0.00     0.001 A 
ATOM     19  C   UNL A   1      33.489  28.047  23.526  1.00  0.00     0.004 A 
ATOM     20  C   UNL A   1      33.564  27.540  22.233  1.00  0.00     0.000 A 
BRANCH  17  21
ATOM     21  C   UNL A   1      33.721  28.353  25.888  1.00  0.00     0.020 C 
ATOM     22  C   UNL A   1      32.833  28.224  27.139  1.00  0.00     0.009 C 
ATOM     23  C   UNL A   1      34.259  28.625  27.251  1.00  0.00     0.009 C 
ENDBRANCH  17  21
ENDBRANCH  14  15
ENDBRANCH   8  14
ENDBRANCH   7   8
ENDBRANCH   6   7
ENDBRANCH   3   6
ENDBRANCH   1   2
BRANCH   1  24
ATOM     24  C   UNL A   1      39.551  22.838  26.371  1.00  0.00     0.023 C 
BRANCH  24  25
ATOM     25  C   UNL A   1      39.250  21.345  26.603  1.00  0.00     0.023 C 
BRANCH  25  26
ATOM     26  C   UNL A   1      39.509  20.428  25.405  1.00  0.00     0.116 C 
BRANCH  26  27
ATOM     27  N   UNL A   1      40.352  19.286  25.748  1.00  0.00    -0.352 N 
ATOM     28  C   UNL A   1      41.669  19.262  26.147  1.00  0.00     0.251 C 
ATOM     29  H   UNL A   1      39.916  18.406  25.682  1.00  0.00     0.163 HD
ATOM     30  O   UNL A   1      42.276  18.191  26.240  1.00  0.00    -0.269 OA
BRANCH  28  31
ATOM     31  C   UNL A   1      42.377  20.525  26.439  1.00  0.00     0.039 A 
ATOM     32  C   UNL A   1      42.867  21.298  25.384  1.00  0.00     0.014 A 
ATOM     33  C   UNL A   1      42.529  20.959  27.758  1.00  0.00     0.014 A 
ATOM     34  C   UNL A   1      43.418  22.557  25.645  1.00  0.00     0.010 A 
ATOM     35  C   UNL A   1      43.016  22.240  28.011  1.00  0.00     0.010 A 
ATOM     36  C   UNL A   1      43.447  23.062  26.957  1.00  0.00    -0.014 A 
BRANCH  36  37
ATOM     37  C   UNL A   1      43.889  24.455  27.241  1.00  0.00     0.031 A 
ATOM     38  C   UNL A   1      42.891  25.508  27.640  1.00  0.00     0.074 A 
ATOM     39  C   UNL A   1      45.183  24.794  27.065  1.00  0.00     0.049 A 
ATOM     40  N   UNL A   1      43.081  26.786  27.861  1.00  0.00    -0.248 NA
ATOM     41  C   UNL A   1      41.493  25.075  27.785  1.00  0.00     0.031 C 
ATOM     42  C   UNL A   1      46.249  23.885  26.639  1.00  0.00     0.029 A 
ATOM     43  N   UNL A   1      45.823  26.001  27.218  1.00  0.00    -0.354 N 
ATOM     44  C   UNL A   1      41.827  27.308  28.152  1.00  0.00     0.074 A 
ATOM     45  C   UNL A   1      40.879  26.224  28.027  1.00  0.00     0.031 C 
ATOM     46  C   UNL A   1      47.412  24.556  26.597  1.00  0.00     0.029 A 
ATOM     47  C   UNL A   1      47.170  25.952  26.948  1.00  0.00     0.049 A 
ATOM     48  H   UNL A   1      45.359  26.825  27.494  1.00  0.00     0.167 HD
ATOM     49  C   UNL A   1      41.495  28.572  28.515  1.00  0.00     0.031 A 
ATOM     50  C   UNL A   1      48.106  26.919  26.974  1.00  0.00     0.031 A 
ATOM     51  C   UNL A   1      42.437  29.652  28.647  1.00  0.00     0.049 A 
ATOM     52  C   UNL A   1      47.709  28.319  27.357  1.00  0.00     0.074 A 
ATOM     53  C   UNL A   1      42.204  30.953  29.059  1.00  0.00     0.029 A 
ATOM     54  N   UNL A   1      43.791  29.557  28.367  1.00  0.00    -0.354 N 
ATOM     55  N   UNL A   1      46.530  28.778  27.697  1.00  0.00    -0.248 NA
ATOM     56  C   UNL A   1      48.776  29.330  27.368  1.00  0.00     0.031 C 
ATOM     57  C   UNL A   1      43.408  31.659  28.974  1.00  0.00     0.029 A 
ATOM     58  C   UNL A   1      44.402  30.783  28.572  1.00  0.00     0.049 A 
ATOM     59  H   UNL A   1      44.250  28.739  28.066  1.00  0.00     0.167 HD
ATOM     60  C   UNL A   1      46.719  30.123  27.993  1.00  0.00     0.074 A 
ATOM     61  C   UNL A   1      48.128  30.399  27.806  1.00  0.00     0.031 C 
ATOM     62  C   UNL A   1      45.805  31.045  28.385  1.00  0.00     0.031 A 
BRANCH  49  63
ATOM     63  C   UNL A   1      40.042  28.852  28.788  1.00  0.00    -0.014 A 
ATOM     64  C   UNL A   1      39.495  28.671  30.070  1.00  0.00     0.009 A 
ATOM     65  C   UNL A   1      39.214  29.329  27.760  1.00  0.00     0.009 A 
ATOM     66  C   UNL A   1      38.141  28.919  30.305  1.00  0.00     0.001 A 
ATOM     67  C   UNL A   1      37.867  29.607  28.006  1.00  0.00     0.001 A 
ATOM     68  C   UNL A   1      37.329  29.391  29.273  1.00  0.00     0.000 A 
ENDBRANCH  49  63
BRANCH  50  69
ATOM     69  C   UNL A   1      49.523  26.601  26.644  1.00  0.00    -0.014 A 
ATOM     70  C   UNL A   1      49.976  26.668  25.317  1.00  0.00     0.009 A 
ATOM     71  C   UNL A   1      50.424  26.216  27.648  1.00  0.00     0.009 A 
ATOM     72  C   UNL A   1      51.294  26.329  25.000  1.00  0.00     0.001 A 
ATOM     73  C   UNL A   1      51.750  25.906  27.332  1.00  0.00     0.001 A 
ATOM     74  C   UNL A   1      52.181  25.953  26.007  1.00  0.00     0.000 A 
ENDBRANCH  50  69
BRANCH  62  75
ATOM     75  C   UNL A   1      46.305  32.432  28.676  1.00  0.00    -0.014 A 
ATOM     76  C   UNL A   1      46.780  32.787  29.948  1.00  0.00     0.009 A 
ATOM     77  C   UNL A   1      46.347  33.384  27.645  1.00  0.00     0.009 A 
ATOM     78  C   UNL A   1      47.258  34.077  30.188  1.00  0.00     0.001 A 
ATOM     79  C   UNL A   1      46.854  34.663  27.880  1.00  0.00     0.001 A 
ATOM     80  C   UNL A   1      47.300  35.011  29.153  1.00  0.00     0.000 A 
ENDBRANCH  62  75
ENDBRANCH  36  37
ENDBRANCH  28  31
ENDBRANCH  26  27
ENDBRANCH  25  26
ENDBRANCH  24  25
ENDBRANCH   1  24
TORSDOF 17
ENDMDL
MODEL 3
REMARK VINA RESULT:     -10.0      3.618      7.190
REMARK SMILES CC(C)(C)[N@H+](CCC(=O)NCCCCNC(=O)c1ccc(-c2c3nc(c(-c4ccccc4)c4ccc([nH]4)c(-c4ccccc4)c4nc(c(-c5ccccc5)c5ccc2[nH]5)C=C4)C=C3)cc1)Cc1ccccc1C1CC1
REMARK SMILES IDX 11 1 10 2 8 3 9 4 7 6 6 7 5 8 2 10 1 11 3 12 4 13 66 14
REMARK SMILES IDX 67 15 68 16 72 17 69 18 71 19 70 20 73 21 74 22 75 23 12 24
REMARK SMILES IDX 13 25 14 26 15 27 16 28 17 30 18 31 19 32 65 33 20 34 64 35
REMARK SMILES IDX 21 36 22 37 23 38 58 39 24 40 63 41 57 42 59 43 25 44 62 45
REMARK SMILES IDX 56 46 55 47 26 49 48 50 33 51 47 52 34 53 37 54 46 55 60 56
REMARK SMILES IDX 35 57 36 58 45 60 61 61 38 62 27 63 28 64 32 65 29 66 31 67
REMARK SMILES IDX 30 68 49 69 50 70 54 71 51 72 53 73 52 74 39 75 40 76 44 77
REMARK SMILES IDX 41 78 43 79 42 80
REMARK H PARENT 10 5 5 9 15 29 59 48 37 59
REMARK Flexibility Score: inf
ROOT
ATOM      1  C   UNL A   1      34.690  30.849  27.971  1.00  0.00     0.116 C 
ENDROOT
BRANCH   1   2
ATOM      2  N   UNL A   1      33.427  30.151  27.641  1.00  0.00    -0.356 N 
ATOM      3  C   UNL A   1      32.975  28.938  27.216  1.00  0.00     0.225 C 
ATOM      4  O   UNL A   1      31.783  28.726  27.491  1.00  0.00    -0.275 OA
ATOM      5  H   UNL A   1      32.667  30.762  27.773  1.00  0.00     0.163 HD
BRANCH   3   6
ATOM      6  C   UNL A   1      33.734  27.826  26.497  1.00  0.00     0.161 C 
BRANCH   6   7
ATOM      7  C   UNL A   1      33.104  27.409  25.168  1.00  0.00     0.272 C 
BRANCH   7   8
ATOM      8  N   UNL A   1      31.704  26.926  25.227  1.00  0.00    -0.327 N 
ATOM      9  H   UNL A   1      31.175  27.406  25.956  1.00  0.00     0.348 HD
BRANCH   8  10
ATOM     10  C   UNL A   1      30.904  27.317  23.992  1.00  0.00     0.089 C 
ATOM     11  C   UNL A   1      31.601  27.032  22.620  1.00  0.00     0.078 C 
ATOM     12  C   UNL A   1      30.731  28.854  24.018  1.00  0.00     0.078 C 
ATOM     13  C   UNL A   1      29.499  26.675  23.861  1.00  0.00     0.078 C 
ENDBRANCH   8  10
BRANCH   8  14
ATOM     14  C   UNL A   1      31.703  25.497  25.637  1.00  0.00     0.299 C 
BRANCH  14  15
ATOM     15  C   UNL A   1      32.417  24.452  24.734  1.00  0.00     0.010 A 
ATOM     16  C   UNL A   1      31.382  23.737  24.044  1.00  0.00     0.010 A 
ATOM     17  C   UNL A   1      33.793  24.130  24.397  1.00  0.00    -0.036 A 
ATOM     18  C   UNL A   1      31.594  22.750  23.097  1.00  0.00     0.001 A 
ATOM     19  C   UNL A   1      33.922  23.146  23.352  1.00  0.00     0.004 A 
ATOM     20  C   UNL A   1      32.881  22.454  22.741  1.00  0.00     0.000 A 
BRANCH  17  21
ATOM     21  C   UNL A   1      35.259  24.366  24.918  1.00  0.00     0.020 C 
ATOM     22  C   UNL A   1      35.703  23.632  26.196  1.00  0.00     0.009 C 
ATOM     23  C   UNL A   1      36.627  23.789  25.043  1.00  0.00     0.009 C 
ENDBRANCH  17  21
ENDBRANCH  14  15
ENDBRANCH   8  14
ENDBRANCH   7   8
ENDBRANCH   6   7
ENDBRANCH   3   6
ENDBRANCH   1   2
BRANCH   1  24
ATOM     24  C   UNL A   1      34.634  32.356  27.680  1.00  0.00     0.023 C 
BRANCH  24  25
ATOM     25  C   UNL A   1      33.363  33.034  28.226  1.00  0.00     0.023 C 
BRANCH  25  26
ATOM     26  C   UNL A   1      33.461  34.548  28.427  1.00  0.00     0.116 C 
BRANCH  26  27
ATOM     27  N   UNL A   1      33.144  34.952  29.795  1.00  0.00    -0.352 N 
ATOM     28  C   UNL A   1      33.702  34.530  30.981  1.00  0.00     0.251 C 
ATOM     29  H   UNL A   1      32.428  35.621  29.882  1.00  0.00     0.163 HD
ATOM     30  O   UNL A   1      33.200  34.856  32.060  1.00  0.00    -0.269 OA
BRANCH  28  31
ATOM     31  C   UNL A   1      34.891  33.653  30.969  1.00  0.00     0.039 A 
ATOM     32  C   UNL A   1      36.081  34.117  30.403  1.00  0.00     0.014 A 
ATOM     33  C   UNL A   1      34.835  32.382  31.545  1.00  0.00     0.014 A 
ATOM     34  C   UNL A   1      37.244  33.347  30.508  1.00  0.00     0.010 A 
ATOM     35  C   UNL A   1      36.008  31.647  31.709  1.00  0.00     0.010 A 
ATOM     36  C   UNL A   1      37.229  32.129  31.211  1.00  0.00    -0.014 A 
BRANCH  36  37
ATOM     37  C   UNL A   1      38.482  31.366  31.465  1.00  0.00     0.031 A 
ATOM     38  C   UNL A   1      39.432  31.794  32.551  1.00  0.00     0.074 A 
ATOM     39  C   UNL A   1      38.807  30.330  30.665  1.00  0.00     0.049 A 
ATOM     40  N   UNL A   1      40.599  31.294  32.873  1.00  0.00    -0.248 NA
ATOM     41  C   UNL A   1      39.028  32.950  33.366  1.00  0.00     0.031 C 
ATOM     42  C   UNL A   1      38.001  29.835  29.547  1.00  0.00     0.029 A 
ATOM     43  N   UNL A   1      39.907  29.506  30.665  1.00  0.00    -0.354 N 
ATOM     44  C   UNL A   1      41.074  32.084  33.912  1.00  0.00     0.074 A 
ATOM     45  C   UNL A   1      40.096  33.127  34.130  1.00  0.00     0.031 C 
ATOM     46  C   UNL A   1      38.616  28.777  28.993  1.00  0.00     0.029 A 
ATOM     47  C   UNL A   1      39.880  28.544  29.684  1.00  0.00     0.049 A 
ATOM     48  H   UNL A   1      40.647  29.597  31.309  1.00  0.00     0.167 HD
ATOM     49  C   UNL A   1      42.210  31.943  34.638  1.00  0.00     0.031 A 
ATOM     50  C   UNL A   1      40.771  27.585  29.370  1.00  0.00     0.031 A 
ATOM     51  C   UNL A   1      43.183  30.903  34.429  1.00  0.00     0.049 A 
ATOM     52  C   UNL A   1      42.037  27.463  30.175  1.00  0.00     0.074 A 
ATOM     53  C   UNL A   1      44.339  30.647  35.145  1.00  0.00     0.029 A 
ATOM     54  N   UNL A   1      43.113  29.949  33.426  1.00  0.00    -0.354 N 
ATOM     55  N   UNL A   1      42.435  28.176  31.199  1.00  0.00    -0.248 NA
ATOM     56  C   UNL A   1      42.969  26.395  29.785  1.00  0.00     0.031 C 
ATOM     57  C   UNL A   1      44.997  29.571  34.541  1.00  0.00     0.029 A 
ATOM     58  C   UNL A   1      44.219  29.117  33.489  1.00  0.00     0.049 A 
ATOM     59  H   UNL A   1      42.386  29.873  32.767  1.00  0.00     0.167 HD
ATOM     60  C   UNL A   1      43.648  27.625  31.596  1.00  0.00     0.074 A 
ATOM     61  C   UNL A   1      43.911  26.510  30.711  1.00  0.00     0.031 C 
ATOM     62  C   UNL A   1      44.469  28.010  32.604  1.00  0.00     0.031 A 
BRANCH  49  63
ATOM     63  C   UNL A   1      42.463  32.950  35.727  1.00  0.00    -0.014 A 
ATOM     64  C   UNL A   1      43.182  34.131  35.473  1.00  0.00     0.009 A 
ATOM     65  C   UNL A   1      41.954  32.732  37.017  1.00  0.00     0.009 A 
ATOM     66  C   UNL A   1      43.423  35.048  36.498  1.00  0.00     0.001 A 
ATOM     67  C   UNL A   1      42.169  33.667  38.032  1.00  0.00     0.001 A 
ATOM     68  C   UNL A   1      42.913  34.818  37.775  1.00  0.00     0.000 A 
ENDBRANCH  49  63
BRANCH  50  69
ATOM     69  C   UNL A   1      40.497  26.644  28.249  1.00  0.00    -0.014 A 
ATOM     70  C   UNL A   1      39.699  25.508  28.452  1.00  0.00     0.009 A 
ATOM     71  C   UNL A   1      41.042  26.870  26.975  1.00  0.00     0.009 A 
ATOM     72  C   UNL A   1      39.476  24.602  27.412  1.00  0.00     0.001 A 
ATOM     73  C   UNL A   1      40.792  25.977  25.928  1.00  0.00     0.001 A 
ATOM     74  C   UNL A   1      40.019  24.840  26.150  1.00  0.00     0.000 A 
ENDBRANCH  50  69
BRANCH  62  75
ATOM     75  C   UNL A   1      45.712  27.196  32.830  1.00  0.00    -0.014 A 
ATOM     76  C   UNL A   1      46.938  27.555  32.248  1.00  0.00     0.009 A 
ATOM     77  C   UNL A   1      45.664  26.080  33.681  1.00  0.00     0.009 A 
ATOM     78  C   UNL A   1      48.083  26.793  32.490  1.00  0.00     0.001 A 
ATOM     79  C   UNL A   1      46.817  25.340  33.946  1.00  0.00     0.001 A 
ATOM     80  C   UNL A   1      48.023  25.691  33.343  1.00  0.00     0.000 A 
ENDBRANCH  62  75
ENDBRANCH  36  37
ENDBRANCH  28  31
ENDBRANCH  26  27
ENDBRANCH  25  26
ENDBRANCH  24  25
ENDBRANCH   1  24
TORSDOF 17
ENDMDL
