MODEL 1
REMARK VINA RESULT:     -11.7      0.000      0.000
REMARK SMILES COc1ccc(C[NH2+]Cc2cccn2-c2sc(C)c(C)c2C(=O)NCCCCNC(=O)c2ccc(-c3c4nc(c(-c5ccccc5)c5ccc([nH]5)c(-c5ccccc5)c5nc(c(-c6ccccc6)c6ccc3[nH]6)C=C5)C=C4)cc2)cc1
REMARK SMILES IDX 22 1 23 2 24 3 21 5 15 6 16 7 17 8 19 9 18 10 20 11 14 12
REMARK SMILES IDX 10 13 11 14 12 15 13 16 9 17 8 18 7 21 6 22 3 23 4 24 81 25
REMARK SMILES IDX 5 26 80 27 2 28 1 29 25 30 26 31 27 32 28 33 29 34 30 35
REMARK SMILES IDX 31 37 32 38 33 39 79 40 34 41 78 42 35 43 36 44 37 45 72 46
REMARK SMILES IDX 38 47 77 48 71 49 73 50 39 51 76 52 70 53 69 54 40 56 62 57
REMARK SMILES IDX 47 58 61 59 48 60 51 61 60 62 74 63 49 64 50 65 59 67 75 68
REMARK SMILES IDX 52 69 41 70 42 71 46 72 43 73 45 74 44 75 63 76 64 77 68 78
REMARK SMILES IDX 65 79 67 80 66 81 53 82 54 83 58 84 55 85 57 86 56 87
REMARK H PARENT 24 4 8 19 8 20 29 36 73 55 51 66
REMARK Flexibility Score: inf
ROOT
ATOM      1  C   UNL A   1      33.586  23.086  25.840  1.00  0.00     0.254 C 
ATOM      2  O   UNL A   1      32.825  23.478  26.735  1.00  0.00    -0.269 OA
ATOM      3  N   UNL A   1      34.875  23.484  26.083  1.00  0.00    -0.352 N 
ATOM      4  H   UNL A   1      34.951  24.138  26.815  1.00  0.00     0.163 HD
ENDROOT
BRANCH   1   5
ATOM      5  C   UNL A   1      33.041  22.326  24.668  1.00  0.00     0.078 A 
ATOM      6  C   UNL A   1      32.472  22.691  23.448  1.00  0.00     0.113 A 
ATOM      7  S   UNL A   1      32.023  21.394  22.442  1.00  0.00    -0.122 S 
ATOM      8  C   UNL A   1      32.529  20.242  23.570  1.00  0.00     0.007 A 
ATOM      9  C   UNL A   1      33.029  20.831  24.721  1.00  0.00    -0.022 A 
ATOM     10  C   UNL A   1      32.402  18.789  23.245  1.00  0.00     0.057 C 
ATOM     11  C   UNL A   1      33.511  20.013  25.893  1.00  0.00     0.046 C 
BRANCH   6  12
ATOM     12  N   UNL A   1      32.339  23.913  22.781  1.00  0.00    -0.306 N 
ATOM     13  C   UNL A   1      31.348  24.894  22.954  1.00  0.00     0.078 A 
ATOM     14  C   UNL A   1      31.707  25.986  22.171  1.00  0.00     0.029 A 
ATOM     15  C   UNL A   1      32.898  25.672  21.481  1.00  0.00     0.020 A 
ATOM     16  C   UNL A   1      33.249  24.392  21.843  1.00  0.00     0.092 A 
BRANCH  13  17
ATOM     17  C   UNL A   1      30.130  24.740  23.823  1.00  0.00     0.316 C 
BRANCH  17  18
ATOM     18  N   UNL A   1      29.841  25.886  24.686  1.00  0.00    -0.338 N 
ATOM     19  H   UNL A   1      30.215  26.724  24.241  1.00  0.00     0.346 HD
ATOM     20  H   UNL A   1      28.828  25.917  24.802  1.00  0.00     0.346 HD
BRANCH  18  21
ATOM     21  C   UNL A   1      30.412  25.788  26.028  1.00  0.00     0.297 C 
BRANCH  21  22
ATOM     22  C   UNL A   1      31.483  26.835  26.292  1.00  0.00     0.006 A 
ATOM     23  C   UNL A   1      33.481  28.765  26.878  1.00  0.00     0.118 A 
ATOM     24  C   UNL A   1      33.710  27.757  25.937  1.00  0.00     0.047 A 
ATOM     25  C   UNL A   1      32.242  28.830  27.499  1.00  0.00     0.047 A 
ATOM     26  C   UNL A   1      32.720  26.806  25.639  1.00  0.00     0.013 A 
ATOM     27  C   UNL A   1      31.278  27.855  27.227  1.00  0.00     0.013 A 
BRANCH  23  28
ATOM     28  O   UNL A   1      34.510  29.639  27.098  1.00  0.00    -0.497 OA
ATOM     29  C   UNL A   1      34.121  30.976  27.408  1.00  0.00     0.278 C 
ENDBRANCH  23  28
ENDBRANCH  21  22
ENDBRANCH  18  21
ENDBRANCH  17  18
ENDBRANCH  13  17
ENDBRANCH   6  12
ENDBRANCH   1   5
BRANCH   3  30
ATOM     30  C   UNL A   1      36.129  23.146  25.494  1.00  0.00     0.116 C 
BRANCH  30  31
ATOM     31  C   UNL A   1      37.315  23.957  25.964  1.00  0.00     0.023 C 
BRANCH  31  32
ATOM     32  C   UNL A   1      38.567  23.176  26.341  1.00  0.00     0.023 C 
BRANCH  32  33
ATOM     33  C   UNL A   1      39.616  24.009  27.065  1.00  0.00     0.116 C 
BRANCH  33  34
ATOM     34  N   UNL A   1      40.634  24.573  26.184  1.00  0.00    -0.352 N 
ATOM     35  C   UNL A   1      40.899  25.909  25.999  1.00  0.00     0.251 C 
ATOM     36  H   UNL A   1      41.184  23.934  25.673  1.00  0.00     0.163 HD
ATOM     37  O   UNL A   1      41.520  26.314  25.014  1.00  0.00    -0.269 OA
BRANCH  35  38
ATOM     38  C   UNL A   1      40.428  26.860  27.016  1.00  0.00     0.039 A 
ATOM     39  C   UNL A   1      39.695  26.415  28.120  1.00  0.00     0.014 A 
ATOM     40  C   UNL A   1      40.763  28.212  26.862  1.00  0.00     0.014 A 
ATOM     41  C   UNL A   1      39.365  27.327  29.115  1.00  0.00     0.010 A 
ATOM     42  C   UNL A   1      40.500  29.103  27.879  1.00  0.00     0.010 A 
ATOM     43  C   UNL A   1      39.799  28.659  28.999  1.00  0.00    -0.014 A 
BRANCH  43  44
ATOM     44  C   UNL A   1      39.664  29.576  30.143  1.00  0.00     0.031 A 
ATOM     45  C   UNL A   1      40.632  29.152  31.278  1.00  0.00     0.074 A 
ATOM     46  C   UNL A   1      38.743  30.584  29.987  1.00  0.00     0.049 A 
ATOM     47  N   UNL A   1      40.506  29.294  32.556  1.00  0.00    -0.248 NA
ATOM     48  C   UNL A   1      41.888  28.400  30.969  1.00  0.00     0.031 C 
ATOM     49  C   UNL A   1      37.973  30.853  28.741  1.00  0.00     0.029 A 
ATOM     50  N   UNL A   1      38.262  31.594  30.795  1.00  0.00    -0.354 N 
ATOM     51  C   UNL A   1      41.697  28.853  33.182  1.00  0.00     0.074 A 
ATOM     52  C   UNL A   1      42.462  28.204  32.163  1.00  0.00     0.031 C 
ATOM     53  C   UNL A   1      37.078  31.855  28.913  1.00  0.00     0.029 A 
ATOM     54  C   UNL A   1      37.166  32.345  30.272  1.00  0.00     0.049 A 
ATOM     55  H   UNL A   1      38.652  31.784  31.678  1.00  0.00     0.167 HD
ATOM     56  C   UNL A   1      42.023  29.222  34.460  1.00  0.00     0.031 A 
ATOM     57  C   UNL A   1      36.365  33.255  30.917  1.00  0.00     0.031 A 
ATOM     58  C   UNL A   1      40.967  30.017  34.991  1.00  0.00     0.049 A 
ATOM     59  C   UNL A   1      37.002  33.441  32.221  1.00  0.00     0.074 A 
ATOM     60  C   UNL A   1      39.668  29.721  35.312  1.00  0.00     0.029 A 
ATOM     61  N   UNL A   1      41.094  31.370  34.767  1.00  0.00    -0.354 N 
ATOM     62  N   UNL A   1      38.086  34.120  32.421  1.00  0.00    -0.248 NA
ATOM     63  C   UNL A   1      36.414  32.774  33.389  1.00  0.00     0.031 C 
ATOM     64  C   UNL A   1      38.971  30.781  34.698  1.00  0.00     0.029 A 
ATOM     65  C   UNL A   1      39.861  31.815  34.382  1.00  0.00     0.049 A 
ATOM     66  H   UNL A   1      41.912  31.909  34.866  1.00  0.00     0.167 HD
ATOM     67  C   UNL A   1      38.522  33.588  33.604  1.00  0.00     0.074 A 
ATOM     68  C   UNL A   1      37.347  33.078  34.289  1.00  0.00     0.031 C 
ATOM     69  C   UNL A   1      39.770  33.051  33.655  1.00  0.00     0.031 A 
BRANCH  56  70
ATOM     70  C   UNL A   1      43.312  29.251  35.239  1.00  0.00    -0.014 A 
ATOM     71  C   UNL A   1      44.379  30.005  34.678  1.00  0.00     0.009 A 
ATOM     72  C   UNL A   1      43.642  28.327  36.232  1.00  0.00     0.009 A 
ATOM     73  C   UNL A   1      45.716  29.739  34.974  1.00  0.00     0.001 A 
ATOM     74  C   UNL A   1      44.987  28.093  36.566  1.00  0.00     0.001 A 
ATOM     75  C   UNL A   1      46.021  28.764  35.909  1.00  0.00     0.000 A 
ENDBRANCH  56  70
BRANCH  57  76
ATOM     76  C   UNL A   1      35.064  34.021  30.774  1.00  0.00    -0.014 A 
ATOM     77  C   UNL A   1      34.425  34.787  31.749  1.00  0.00     0.009 A 
ATOM     78  C   UNL A   1      34.490  34.106  29.466  1.00  0.00     0.009 A 
ATOM     79  C   UNL A   1      33.368  35.666  31.399  1.00  0.00     0.001 A 
ATOM     80  C   UNL A   1      33.498  35.019  29.102  1.00  0.00     0.001 A 
ATOM     81  C   UNL A   1      32.944  35.821  30.076  1.00  0.00     0.000 A 
ENDBRANCH  57  76
BRANCH  69  82
ATOM     82  C   UNL A   1      40.773  33.581  32.634  1.00  0.00    -0.014 A 
ATOM     83  C   UNL A   1      41.115  32.782  31.527  1.00  0.00     0.009 A 
ATOM     84  C   UNL A   1      41.479  34.791  32.778  1.00  0.00     0.009 A 
ATOM     85  C   UNL A   1      42.122  33.152  30.624  1.00  0.00     0.001 A 
ATOM     86  C   UNL A   1      42.492  35.168  31.873  1.00  0.00     0.001 A 
ATOM     87  C   UNL A   1      42.812  34.346  30.797  1.00  0.00     0.000 A 
ENDBRANCH  69  82
ENDBRANCH  43  44
ENDBRANCH  35  38
ENDBRANCH  33  34
ENDBRANCH  32  33
ENDBRANCH  31  32
ENDBRANCH  30  31
ENDBRANCH   3  30
TORSDOF 17
ENDMDL
MODEL 2
REMARK VINA RESULT:     -11.3      2.275      3.364
REMARK SMILES COc1ccc(C[NH2+]Cc2cccn2-c2sc(C)c(C)c2C(=O)NCCCCNC(=O)c2ccc(-c3c4nc(c(-c5ccccc5)c5ccc([nH]5)c(-c5ccccc5)c5nc(c(-c6ccccc6)c6ccc3[nH]6)C=C5)C=C4)cc2)cc1
REMARK SMILES IDX 22 1 23 2 24 3 21 5 15 6 16 7 17 8 19 9 18 10 20 11 14 12
REMARK SMILES IDX 10 13 11 14 12 15 13 16 9 17 8 18 7 21 6 22 3 23 4 24 81 25
REMARK SMILES IDX 5 26 80 27 2 28 1 29 25 30 26 31 27 32 28 33 29 34 30 35
REMARK SMILES IDX 31 37 32 38 33 39 79 40 34 41 78 42 35 43 36 44 37 45 72 46
REMARK SMILES IDX 38 47 77 48 71 49 73 50 39 51 76 52 70 53 69 54 40 56 62 57
REMARK SMILES IDX 47 58 61 59 48 60 51 61 60 62 74 63 49 64 50 65 59 67 75 68
REMARK SMILES IDX 52 69 41 70 42 71 46 72 43 73 45 74 44 75 63 76 64 77 68 78
REMARK SMILES IDX 65 79 67 80 66 81 53 82 54 83 58 84 55 85 57 86 56 87
REMARK H PARENT 24 4 8 19 8 20 29 36 73 55 51 66
REMARK Flexibility Score: inf
ROOT
ATOM      1  C   UNL A   1      33.960  23.395  25.629  1.00  0.00     0.254 C 
ATOM      2  O   UNL A   1      33.313  23.831  26.589  1.00  0.00    -0.269 OA
ATOM      3  N   UNL A   1      35.268  23.800  25.694  1.00  0.00    -0.352 N 
ATOM      4  H   UNL A   1      35.431  24.487  26.380  1.00  0.00     0.163 HD
ENDROOT
BRANCH   1   5
ATOM      5  C   UNL A   1      33.280  22.582  24.568  1.00  0.00     0.078 A 
ATOM      6  C   UNL A   1      32.570  22.891  23.407  1.00  0.00     0.113 A 
ATOM      7  S   UNL A   1      32.004  21.549  22.526  1.00  0.00    -0.122 S 
ATOM      8  C   UNL A   1      32.639  20.451  23.642  1.00  0.00     0.007 A 
ATOM      9  C   UNL A   1      33.273  21.091  24.696  1.00  0.00    -0.022 A 
ATOM     10  C   UNL A   1      32.473  18.984  23.407  1.00  0.00     0.057 C 
ATOM     11  C   UNL A   1      33.889  20.329  25.841  1.00  0.00     0.046 C 
BRANCH   6  12
ATOM     12  N   UNL A   1      32.360  24.080  22.701  1.00  0.00    -0.306 N 
ATOM     13  C   UNL A   1      31.400  25.077  22.944  1.00  0.00     0.078 A 
ATOM     14  C   UNL A   1      31.664  26.126  22.071  1.00  0.00     0.029 A 
ATOM     15  C   UNL A   1      32.762  25.769  21.258  1.00  0.00     0.020 A 
ATOM     16  C   UNL A   1      33.151  24.505  21.638  1.00  0.00     0.092 A 
BRANCH  13  17
ATOM     17  C   UNL A   1      30.296  24.976  23.961  1.00  0.00     0.316 C 
BRANCH  17  18
ATOM     18  N   UNL A   1      30.731  25.077  25.355  1.00  0.00    -0.338 N 
ATOM     19  H   UNL A   1      30.301  24.316  25.879  1.00  0.00     0.346 HD
ATOM     20  H   UNL A   1      31.749  25.029  25.347  1.00  0.00     0.346 HD
BRANCH  18  21
ATOM     21  C   UNL A   1      30.377  26.338  26.006  1.00  0.00     0.297 C 
BRANCH  21  22
ATOM     22  C   UNL A   1      31.591  27.194  26.329  1.00  0.00     0.006 A 
ATOM     23  C   UNL A   1      33.863  28.819  26.840  1.00  0.00     0.118 A 
ATOM     24  C   UNL A   1      32.661  29.031  27.520  1.00  0.00     0.047 A 
ATOM     25  C   UNL A   1      33.941  27.774  25.931  1.00  0.00     0.047 A 
ATOM     26  C   UNL A   1      31.538  28.224  27.276  1.00  0.00     0.013 A 
ATOM     27  C   UNL A   1      32.807  27.002  25.664  1.00  0.00     0.013 A 
BRANCH  23  28
ATOM     28  O   UNL A   1      34.895  29.663  27.148  1.00  0.00    -0.497 OA
ATOM     29  C   UNL A   1      34.512  30.983  27.531  1.00  0.00     0.278 C 
ENDBRANCH  23  28
ENDBRANCH  21  22
ENDBRANCH  18  21
ENDBRANCH  17  18
ENDBRANCH  13  17
ENDBRANCH   6  12
ENDBRANCH   1   5
BRANCH   3  30
ATOM     30  C   UNL A   1      36.443  23.431  24.974  1.00  0.00     0.116 C 
BRANCH  30  31
ATOM     31  C   UNL A   1      37.689  23.236  25.806  1.00  0.00     0.023 C 
BRANCH  31  32
ATOM     32  C   UNL A   1      38.478  21.957  25.561  1.00  0.00     0.023 C 
BRANCH  32  33
ATOM     33  C   UNL A   1      39.586  21.714  26.575  1.00  0.00     0.116 C 
BRANCH  33  34
ATOM     34  N   UNL A   1      40.913  21.580  25.981  1.00  0.00    -0.352 N 
ATOM     35  C   UNL A   1      41.825  22.591  25.794  1.00  0.00     0.251 C 
ATOM     36  H   UNL A   1      41.179  20.678  25.685  1.00  0.00     0.163 HD
ATOM     37  O   UNL A   1      42.761  22.478  24.999  1.00  0.00    -0.269 OA
BRANCH  35  38
ATOM     38  C   UNL A   1      41.667  23.826  26.577  1.00  0.00     0.039 A 
ATOM     39  C   UNL A   1      41.467  23.770  27.959  1.00  0.00     0.014 A 
ATOM     40  C   UNL A   1      41.757  25.051  25.903  1.00  0.00     0.014 A 
ATOM     41  C   UNL A   1      41.436  24.959  28.678  1.00  0.00     0.010 A 
ATOM     42  C   UNL A   1      41.797  26.226  26.620  1.00  0.00     0.010 A 
ATOM     43  C   UNL A   1      41.633  26.176  28.003  1.00  0.00    -0.014 A 
BRANCH  43  44
ATOM     44  C   UNL A   1      41.835  27.415  28.772  1.00  0.00     0.031 A 
ATOM     45  C   UNL A   1      43.221  27.386  29.468  1.00  0.00     0.074 A 
ATOM     46  C   UNL A   1      40.799  28.316  28.726  1.00  0.00     0.049 A 
ATOM     47  N   UNL A   1      43.592  27.935  30.576  1.00  0.00    -0.248 NA
ATOM     48  C   UNL A   1      44.344  26.576  28.899  1.00  0.00     0.031 C 
ATOM     49  C   UNL A   1      39.571  28.164  27.898  1.00  0.00     0.029 A 
ATOM     50  N   UNL A   1      40.542  29.534  29.323  1.00  0.00    -0.354 N 
ATOM     51  C   UNL A   1      44.982  27.724  30.746  1.00  0.00     0.074 A 
ATOM     52  C   UNL A   1      45.364  26.780  29.742  1.00  0.00     0.031 C 
ATOM     53  C   UNL A   1      38.688  29.166  28.124  1.00  0.00     0.029 A 
ATOM     54  C   UNL A   1      39.237  30.072  29.110  1.00  0.00     0.049 A 
ATOM     55  H   UNL A   1      41.219  30.002  29.863  1.00  0.00     0.167 HD
ATOM     56  C   UNL A   1      45.732  28.490  31.599  1.00  0.00     0.031 A 
ATOM     57  C   UNL A   1      38.639  31.141  29.731  1.00  0.00     0.031 A 
ATOM     58  C   UNL A   1      44.873  29.413  32.262  1.00  0.00     0.049 A 
ATOM     59  C   UNL A   1      39.707  31.742  30.530  1.00  0.00     0.074 A 
ATOM     60  C   UNL A   1      43.861  29.235  33.168  1.00  0.00     0.029 A 
ATOM     61  N   UNL A   1      44.715  30.619  31.618  1.00  0.00    -0.354 N 
ATOM     62  N   UNL A   1      40.678  32.451  30.048  1.00  0.00    -0.248 NA
ATOM     63  C   UNL A   1      39.726  31.491  31.976  1.00  0.00     0.031 C 
ATOM     64  C   UNL A   1      42.839  30.036  32.620  1.00  0.00     0.029 A 
ATOM     65  C   UNL A   1      43.382  30.912  31.671  1.00  0.00     0.049 A 
ATOM     66  H   UNL A   1      45.422  31.162  31.202  1.00  0.00     0.167 HD
ATOM     67  C   UNL A   1      41.614  32.334  31.039  1.00  0.00     0.074 A 
ATOM     68  C   UNL A   1      40.887  32.072  32.270  1.00  0.00     0.031 C 
ATOM     69  C   UNL A   1      42.841  31.844  30.720  1.00  0.00     0.031 A 
BRANCH  56  70
ATOM     70  C   UNL A   1      47.207  28.772  31.721  1.00  0.00    -0.014 A 
ATOM     71  C   UNL A   1      47.611  29.592  32.810  1.00  0.00     0.009 A 
ATOM     72  C   UNL A   1      48.119  28.610  30.677  1.00  0.00     0.009 A 
ATOM     73  C   UNL A   1      48.790  30.337  32.785  1.00  0.00     0.001 A 
ATOM     74  C   UNL A   1      49.330  29.324  30.674  1.00  0.00     0.001 A 
ATOM     75  C   UNL A   1      49.644  30.216  31.702  1.00  0.00     0.000 A 
ENDBRANCH  56  70
BRANCH  57  76
ATOM     76  C   UNL A   1      37.295  31.817  29.926  1.00  0.00    -0.014 A 
ATOM     77  C   UNL A   1      36.292  31.453  30.824  1.00  0.00     0.009 A 
ATOM     78  C   UNL A   1      37.072  33.051  29.237  1.00  0.00     0.009 A 
ATOM     79  C   UNL A   1      35.211  32.332  31.094  1.00  0.00     0.001 A 
ATOM     80  C   UNL A   1      36.051  33.950  29.548  1.00  0.00     0.001 A 
ATOM     81  C   UNL A   1      35.120  33.594  30.500  1.00  0.00     0.000 A 
ENDBRANCH  57  76
BRANCH  69  82
ATOM     82  C   UNL A   1      43.277  32.015  29.266  1.00  0.00    -0.014 A 
ATOM     83  C   UNL A   1      43.404  30.876  28.448  1.00  0.00     0.009 A 
ATOM     84  C   UNL A   1      43.674  33.242  28.702  1.00  0.00     0.009 A 
ATOM     85  C   UNL A   1      43.921  30.949  27.148  1.00  0.00     0.001 A 
ATOM     86  C   UNL A   1      44.195  33.320  27.395  1.00  0.00     0.001 A 
ATOM     87  C   UNL A   1      44.318  32.171  26.619  1.00  0.00     0.000 A 
ENDBRANCH  69  82
ENDBRANCH  43  44
ENDBRANCH  35  38
ENDBRANCH  33  34
ENDBRANCH  32  33
ENDBRANCH  31  32
ENDBRANCH  30  31
ENDBRANCH   3  30
TORSDOF 17
ENDMDL
MODEL 3
REMARK VINA RESULT:     -10.9      8.339     15.353
REMARK SMILES COc1ccc(C[NH2+]Cc2cccn2-c2sc(C)c(C)c2C(=O)NCCCCNC(=O)c2ccc(-c3c4nc(c(-c5ccccc5)c5ccc([nH]5)c(-c5ccccc5)c5nc(c(-c6ccccc6)c6ccc3[nH]6)C=C5)C=C4)cc2)cc1
REMARK SMILES IDX 22 1 23 2 24 3 21 5 15 6 16 7 17 8 19 9 18 10 20 11 14 12
REMARK SMILES IDX 10 13 11 14 12 15 13 16 9 17 8 18 7 21 6 22 3 23 4 24 81 25
REMARK SMILES IDX 5 26 80 27 2 28 1 29 25 30 26 31 27 32 28 33 29 34 30 35
REMARK SMILES IDX 31 37 32 38 33 39 79 40 34 41 78 42 35 43 36 44 37 45 72 46
REMARK SMILES IDX 38 47 77 48 71 49 73 50 39 51 76 52 70 53 69 54 40 56 62 57
REMARK SMILES IDX 47 58 61 59 48 60 51 61 60 62 74 63 49 64 50 65 59 67 75 68
REMARK SMILES IDX 52 69 41 70 42 71 46 72 43 73 45 74 44 75 63 76 64 77 68 78
REMARK SMILES IDX 65 79 67 80 66 81 53 82 54 83 58 84 55 85 57 86 56 87
REMARK H PARENT 24 4 8 19 8 20 29 36 73 55 51 66
REMARK Flexibility Score: inf
ROOT
ATOM      1  C   UNL A   1      48.880  20.325  35.314  1.00  0.00     0.254 C 
ATOM      2  O   UNL A   1      49.957  19.952  34.831  1.00  0.00    -0.269 OA
ATOM      3  N   UNL A   1      47.826  19.676  34.723  1.00  0.00    -0.352 N 
ATOM      4  H   UNL A   1      48.082  19.163  33.923  1.00  0.00     0.163 HD
ENDROOT
BRANCH   1   5
ATOM      5  C   UNL A   1      48.856  21.391  36.368  1.00  0.00     0.078 A 
ATOM      6  C   UNL A   1      48.947  21.388  37.761  1.00  0.00     0.113 A 
ATOM      7  S   UNL A   1      48.879  22.922  38.493  1.00  0.00    -0.122 S 
ATOM      8  C   UNL A   1      48.695  23.709  37.009  1.00  0.00     0.007 A 
ATOM      9  C   UNL A   1      48.672  22.815  35.950  1.00  0.00    -0.022 A 
ATOM     10  C   UNL A   1      48.585  25.199  36.975  1.00  0.00     0.057 C 
ATOM     11  C   UNL A   1      48.480  23.269  34.525  1.00  0.00     0.046 C 
BRANCH   6  12
ATOM     12  N   UNL A   1      49.256  20.397  38.698  1.00  0.00    -0.306 N 
ATOM     13  C   UNL A   1      48.447  19.338  39.143  1.00  0.00     0.078 A 
ATOM     14  C   UNL A   1      49.229  18.540  39.970  1.00  0.00     0.029 A 
ATOM     15  C   UNL A   1      50.512  19.121  40.073  1.00  0.00     0.020 A 
ATOM     16  C   UNL A   1      50.497  20.269  39.315  1.00  0.00     0.092 A 
BRANCH  13  17
ATOM     17  C   UNL A   1      46.999  19.153  38.779  1.00  0.00     0.316 C 
BRANCH  17  18
ATOM     18  N   UNL A   1      46.437  17.848  39.133  1.00  0.00    -0.338 N 
ATOM     19  H   UNL A   1      45.814  17.554  38.382  1.00  0.00     0.346 HD
ATOM     20  H   UNL A   1      47.226  17.216  39.266  1.00  0.00     0.346 HD
BRANCH  18  21
ATOM     21  C   UNL A   1      45.680  17.839  40.384  1.00  0.00     0.297 C 
BRANCH  21  22
ATOM     22  C   UNL A   1      44.548  16.823  40.380  1.00  0.00     0.006 A 
ATOM     23  C   UNL A   1      42.378  14.993  40.415  1.00  0.00     0.118 A 
ATOM     24  C   UNL A   1      43.017  15.326  39.218  1.00  0.00     0.047 A 
ATOM     25  C   UNL A   1      42.844  15.547  41.598  1.00  0.00     0.047 A 
ATOM     26  C   UNL A   1      44.097  16.224  39.199  1.00  0.00     0.013 A 
ATOM     27  C   UNL A   1      43.892  16.471  41.565  1.00  0.00     0.013 A 
BRANCH  23  28
ATOM     28  O   UNL A   1      41.334  14.112  40.325  1.00  0.00    -0.497 OA
ATOM     29  C   UNL A   1      41.601  12.798  40.811  1.00  0.00     0.278 C 
ENDBRANCH  23  28
ENDBRANCH  21  22
ENDBRANCH  18  21
ENDBRANCH  17  18
ENDBRANCH  13  17
ENDBRANCH   6  12
ENDBRANCH   1   5
BRANCH   3  30
ATOM     30  C   UNL A   1      46.436  19.590  35.030  1.00  0.00     0.116 C 
BRANCH  30  31
ATOM     31  C   UNL A   1      45.616  20.818  34.706  1.00  0.00     0.023 C 
BRANCH  31  32
ATOM     32  C   UNL A   1      45.249  21.721  35.877  1.00  0.00     0.023 C 
BRANCH  32  33
ATOM     33  C   UNL A   1      44.308  22.858  35.506  1.00  0.00     0.116 C 
BRANCH  33  34
ATOM     34  N   UNL A   1      44.293  23.951  36.473  1.00  0.00    -0.352 N 
ATOM     35  C   UNL A   1      44.666  25.252  36.233  1.00  0.00     0.251 C 
ATOM     36  H   UNL A   1      43.986  23.736  37.384  1.00  0.00     0.163 HD
ATOM     37  O   UNL A   1      44.947  26.024  37.154  1.00  0.00    -0.269 OA
BRANCH  35  38
ATOM     38  C   UNL A   1      44.719  25.717  34.840  1.00  0.00     0.039 A 
ATOM     39  C   UNL A   1      45.884  25.565  34.084  1.00  0.00     0.014 A 
ATOM     40  C   UNL A   1      43.562  26.282  34.288  1.00  0.00     0.014 A 
ATOM     41  C   UNL A   1      45.859  25.913  32.738  1.00  0.00     0.010 A 
ATOM     42  C   UNL A   1      43.512  26.562  32.940  1.00  0.00     0.010 A 
ATOM     43  C   UNL A   1      44.661  26.380  32.171  1.00  0.00    -0.014 A 
BRANCH  43  44
ATOM     44  C   UNL A   1      44.551  26.529  30.711  1.00  0.00     0.031 A 
ATOM     45  C   UNL A   1      44.704  28.022  30.319  1.00  0.00     0.074 A 
ATOM     46  C   UNL A   1      44.342  25.366  30.011  1.00  0.00     0.049 A 
ATOM     47  N   UNL A   1      44.190  28.663  29.322  1.00  0.00    -0.248 NA
ATOM     48  C   UNL A   1      45.475  28.965  31.188  1.00  0.00     0.031 C 
ATOM     49  C   UNL A   1      44.318  24.002  30.609  1.00  0.00     0.029 A 
ATOM     50  N   UNL A   1      44.124  25.055  28.684  1.00  0.00    -0.354 N 
ATOM     51  C   UNL A   1      44.704  29.983  29.315  1.00  0.00     0.074 A 
ATOM     52  C   UNL A   1      45.396  30.143  30.556  1.00  0.00     0.031 C 
ATOM     53  C   UNL A   1      44.003  23.059  29.689  1.00  0.00     0.029 A 
ATOM     54  C   UNL A   1      43.793  23.694  28.406  1.00  0.00     0.049 A 
ATOM     55  H   UNL A   1      44.195  25.732  27.973  1.00  0.00     0.167 HD
ATOM     56  C   UNL A   1      44.658  30.772  28.197  1.00  0.00     0.031 A 
ATOM     57  C   UNL A   1      43.334  23.146  27.234  1.00  0.00     0.031 A 
ATOM     58  C   UNL A   1      43.984  30.062  27.162  1.00  0.00     0.049 A 
ATOM     59  C   UNL A   1      43.442  24.231  26.258  1.00  0.00     0.074 A 
ATOM     60  C   UNL A   1      42.685  29.647  27.031  1.00  0.00     0.029 A 
ATOM     61  N   UNL A   1      44.800  29.297  26.360  1.00  0.00    -0.354 N 
ATOM     62  N   UNL A   1      44.552  24.642  25.734  1.00  0.00    -0.248 NA
ATOM     63  C   UNL A   1      42.222  24.951  25.873  1.00  0.00     0.031 C 
ATOM     64  C   UNL A   1      42.851  28.305  26.632  1.00  0.00     0.029 A 
ATOM     65  C   UNL A   1      44.165  28.100  26.193  1.00  0.00     0.049 A 
ATOM     66  H   UNL A   1      45.670  29.561  25.982  1.00  0.00     0.167 HD
ATOM     67  C   UNL A   1      44.210  25.906  25.337  1.00  0.00     0.074 A 
ATOM     68  C   UNL A   1      42.774  25.900  25.119  1.00  0.00     0.031 C 
ATOM     69  C   UNL A   1      44.940  26.954  25.803  1.00  0.00     0.031 A 
BRANCH  56  70
ATOM     70  C   UNL A   1      45.413  32.000  27.757  1.00  0.00    -0.014 A 
ATOM     71  C   UNL A   1      44.690  32.949  26.984  1.00  0.00     0.009 A 
ATOM     72  C   UNL A   1      46.805  32.089  27.732  1.00  0.00     0.009 A 
ATOM     73  C   UNL A   1      45.321  33.834  26.109  1.00  0.00     0.001 A 
ATOM     74  C   UNL A   1      47.442  33.014  26.886  1.00  0.00     0.001 A 
ATOM     75  C   UNL A   1      46.705  33.851  26.047  1.00  0.00     0.000 A 
ENDBRANCH  56  70
BRANCH  57  76
ATOM     76  C   UNL A   1      42.701  21.891  26.663  1.00  0.00    -0.014 A 
ATOM     77  C   UNL A   1      43.346  20.853  25.991  1.00  0.00     0.009 A 
ATOM     78  C   UNL A   1      41.324  21.652  26.967  1.00  0.00     0.009 A 
ATOM     79  C   UNL A   1      42.682  19.621  25.758  1.00  0.00     0.001 A 
ATOM     80  C   UNL A   1      40.687  20.420  26.804  1.00  0.00     0.001 A 
ATOM     81  C   UNL A   1      41.380  19.388  26.209  1.00  0.00     0.000 A 
ENDBRANCH  57  76
BRANCH  69  82
ATOM     82  C   UNL A   1      46.374  26.642  26.223  1.00  0.00    -0.014 A 
ATOM     83  C   UNL A   1      47.308  26.249  25.246  1.00  0.00     0.009 A 
ATOM     84  C   UNL A   1      46.814  26.612  27.561  1.00  0.00     0.009 A 
ATOM     85  C   UNL A   1      48.601  25.825  25.581  1.00  0.00     0.001 A 
ATOM     86  C   UNL A   1      48.113  26.186  27.902  1.00  0.00     0.001 A 
ATOM     87  C   UNL A   1      49.005  25.792  26.910  1.00  0.00     0.000 A 
ENDBRANCH  69  82
ENDBRANCH  43  44
ENDBRANCH  35  38
ENDBRANCH  33  34
ENDBRANCH  32  33
ENDBRANCH  31  32
ENDBRANCH  30  31
ENDBRANCH   3  30
TORSDOF 17
ENDMDL
