MODEL 1
REMARK VINA RESULT:     -11.2      0.000      0.000
REMARK SMILES [NH3+]C1(C(=O)N2[C@@H](C(=O)NCCCCNC(=O)c3ccc(-c4c5nc(c(-c6ccccc6)c6ccc([nH]6)c(-c6ccccc6)c6nc(c(-c7ccccc7)c7ccc4[nH]7)C=C6)C=C5)cc3)CC[C@@H]3CCCC[C@@H]32)CC1
REMARK SMILES IDX 11 1 10 2 9 3 7 4 8 5 6 7 5 8 72 9 65 10 67 11 71 12 66 13
REMARK SMILES IDX 68 14 70 15 69 16 3 17 4 18 2 19 73 20 74 21 1 22 12 26
REMARK SMILES IDX 13 27 14 28 15 29 16 31 17 32 18 33 64 34 19 35 63 36 20 37
REMARK SMILES IDX 21 38 22 39 57 40 23 41 62 42 56 43 58 44 24 45 61 46 55 47
REMARK SMILES IDX 54 48 25 50 47 51 32 52 46 53 33 54 36 55 45 56 59 57 34 58
REMARK SMILES IDX 35 59 44 61 60 62 37 63 26 64 27 65 31 66 28 67 30 68 29 69
REMARK SMILES IDX 48 70 49 71 53 72 50 73 52 74 51 75 38 76 39 77 43 78 40 79
REMARK SMILES IDX 42 80 41 81
REMARK H PARENT 9 6 1 23 1 24 1 25 14 30 58 49 36 60
REMARK Flexibility Score: inf
ROOT
ATOM      1  C   UNL A   1      31.266  27.496  26.538  1.00  0.00     0.023 C 
ENDROOT
BRANCH   1   2
ATOM      2  C   UNL A   1      32.006  26.229  26.111  1.00  0.00     0.116 C 
BRANCH   2   3
ATOM      3  N   UNL A   1      31.451  25.074  26.786  1.00  0.00    -0.354 N 
ATOM      4  C   UNL A   1      31.854  23.777  26.736  1.00  0.00     0.242 C 
ATOM      5  O   UNL A   1      31.035  22.918  27.074  1.00  0.00    -0.273 OA
ATOM      6  H   UNL A   1      30.673  25.253  27.362  1.00  0.00     0.163 HD
BRANCH   4   7
ATOM      7  C   UNL A   1      33.217  23.368  26.142  1.00  0.00     0.175 C 
ATOM      8  N   UNL A   1      33.220  22.691  24.820  1.00  0.00    -0.322 N 
ATOM      9  C   UNL A   1      34.493  22.058  24.411  1.00  0.00     0.089 C 
ATOM     10  C   UNL A   1      33.885  22.489  27.235  1.00  0.00     0.036 C 
ATOM     11  C   UNL A   1      34.990  21.083  25.471  1.00  0.00     0.012 C 
ATOM     12  C   UNL A   1      35.544  23.125  24.030  1.00  0.00     0.025 C 
ATOM     13  C   UNL A   1      35.174  21.800  26.810  1.00  0.00     0.008 C 
ATOM     14  C   UNL A   1      36.269  20.421  24.957  1.00  0.00     0.006 C 
ATOM     15  C   UNL A   1      37.019  22.704  24.052  1.00  0.00     0.002 C 
ATOM     16  C   UNL A   1      37.402  21.420  24.786  1.00  0.00     0.000 C 
BRANCH   8  17
ATOM     17  C   UNL A   1      32.312  22.880  23.768  1.00  0.00     0.284 C 
ATOM     18  O   UNL A   1      31.651  21.933  23.336  1.00  0.00    -0.268 OA
BRANCH  17  19
ATOM     19  C   UNL A   1      32.064  24.218  23.094  1.00  0.00     0.174 C 
ATOM     20  C   UNL A   1      32.856  24.388  21.802  1.00  0.00     0.086 C 
ATOM     21  C   UNL A   1      33.026  25.362  22.916  1.00  0.00     0.086 C 
BRANCH  19  22
ATOM     22  N   UNL A   1      30.608  24.532  22.985  1.00  0.00    -0.345 N 
ATOM     23  H   UNL A   1      30.157  24.365  23.885  1.00  0.00     0.345 HD
ATOM     24  H   UNL A   1      30.184  23.933  22.276  1.00  0.00     0.345 HD
ATOM     25  H   UNL A   1      30.490  25.510  22.722  1.00  0.00     0.345 HD
ENDBRANCH  19  22
ENDBRANCH  17  19
ENDBRANCH   8  17
ENDBRANCH   4   7
ENDBRANCH   2   3
ENDBRANCH   1   2
BRANCH   1  26
ATOM     26  C   UNL A   1      31.923  28.241  27.699  1.00  0.00     0.023 C 
BRANCH  26  27
ATOM     27  C   UNL A   1      33.307  28.794  27.390  1.00  0.00     0.116 C 
BRANCH  27  28
ATOM     28  N   UNL A   1      33.379  30.237  27.556  1.00  0.00    -0.352 N 
ATOM     29  C   UNL A   1      34.411  30.987  28.059  1.00  0.00     0.251 C 
ATOM     30  H   UNL A   1      32.582  30.741  27.271  1.00  0.00     0.163 HD
ATOM     31  O   UNL A   1      34.260  32.181  28.298  1.00  0.00    -0.269 OA
BRANCH  29  32
ATOM     32  C   UNL A   1      35.700  30.327  28.341  1.00  0.00     0.039 A 
ATOM     33  C   UNL A   1      36.681  30.309  27.349  1.00  0.00     0.014 A 
ATOM     34  C   UNL A   1      35.948  29.774  29.600  1.00  0.00     0.014 A 
ATOM     35  C   UNL A   1      37.941  29.790  27.644  1.00  0.00     0.010 A 
ATOM     36  C   UNL A   1      37.227  29.334  29.916  1.00  0.00     0.010 A 
ATOM     37  C   UNL A   1      38.235  29.333  28.940  1.00  0.00    -0.014 A 
BRANCH  37  38
ATOM     38  C   UNL A   1      39.591  28.848  29.294  1.00  0.00     0.031 A 
ATOM     39  C   UNL A   1      40.528  29.731  30.070  1.00  0.00     0.074 A 
ATOM     40  C   UNL A   1      40.000  27.638  28.865  1.00  0.00     0.049 A 
ATOM     41  N   UNL A   1      41.765  29.504  30.431  1.00  0.00    -0.248 NA
ATOM     42  C   UNL A   1      40.017  31.053  30.470  1.00  0.00     0.031 C 
ATOM     43  C   UNL A   1      39.199  26.704  28.068  1.00  0.00     0.029 A 
ATOM     44  N   UNL A   1      41.196  26.988  29.037  1.00  0.00    -0.354 N 
ATOM     45  C   UNL A   1      42.183  30.656  31.085  1.00  0.00     0.074 A 
ATOM     46  C   UNL A   1      41.090  31.601  31.021  1.00  0.00     0.031 C 
ATOM     47  C   UNL A   1      39.915  25.589  27.849  1.00  0.00     0.029 A 
ATOM     48  C   UNL A   1      41.236  25.746  28.448  1.00  0.00     0.049 A 
ATOM     49  H   UNL A   1      41.953  27.373  29.533  1.00  0.00     0.167 HD
ATOM     50  C   UNL A   1      43.363  30.900  31.702  1.00  0.00     0.031 A 
ATOM     51  C   UNL A   1      42.229  24.838  28.395  1.00  0.00     0.031 A 
ATOM     52  C   UNL A   1      44.448  29.958  31.770  1.00  0.00     0.049 A 
ATOM     53  C   UNL A   1      43.538  25.142  29.069  1.00  0.00     0.074 A 
ATOM     54  C   UNL A   1      45.663  30.089  32.419  1.00  0.00     0.029 A 
ATOM     55  N   UNL A   1      44.449  28.712  31.163  1.00  0.00    -0.354 N 
ATOM     56  N   UNL A   1      43.891  26.208  29.745  1.00  0.00    -0.248 NA
ATOM     57  C   UNL A   1      44.581  24.111  28.980  1.00  0.00     0.031 C 
ATOM     58  C   UNL A   1      46.422  28.945  32.156  1.00  0.00     0.029 A 
ATOM     59  C   UNL A   1      45.656  28.075  31.398  1.00  0.00     0.049 A 
ATOM     60  H   UNL A   1      43.703  28.336  30.642  1.00  0.00     0.167 HD
ATOM     61  C   UNL A   1      45.185  25.963  30.189  1.00  0.00     0.074 A 
ATOM     62  C   UNL A   1      45.546  24.642  29.718  1.00  0.00     0.031 C 
ATOM     63  C   UNL A   1      46.000  26.760  30.922  1.00  0.00     0.031 A 
BRANCH  50  64
ATOM     64  C   UNL A   1      43.541  32.248  32.346  1.00  0.00    -0.014 A 
ATOM     65  C   UNL A   1      43.184  32.469  33.686  1.00  0.00     0.009 A 
ATOM     66  C   UNL A   1      44.103  33.304  31.611  1.00  0.00     0.009 A 
ATOM     67  C   UNL A   1      43.349  33.731  34.263  1.00  0.00     0.001 A 
ATOM     68  C   UNL A   1      44.296  34.554  32.200  1.00  0.00     0.001 A 
ATOM     69  C   UNL A   1      43.909  34.770  33.522  1.00  0.00     0.000 A 
ENDBRANCH  50  64
BRANCH  51  70
ATOM     70  C   UNL A   1      42.021  23.548  27.685  1.00  0.00    -0.014 A 
ATOM     71  C   UNL A   1      42.393  23.407  26.339  1.00  0.00     0.009 A 
ATOM     72  C   UNL A   1      41.442  22.453  28.346  1.00  0.00     0.009 A 
ATOM     73  C   UNL A   1      42.161  22.208  25.661  1.00  0.00     0.001 A 
ATOM     74  C   UNL A   1      41.239  21.245  27.674  1.00  0.00     0.001 A 
ATOM     75  C   UNL A   1      41.589  21.128  26.330  1.00  0.00     0.000 A 
ENDBRANCH  51  70
BRANCH  63  76
ATOM     76  C   UNL A   1      47.349  26.209  31.292  1.00  0.00    -0.014 A 
ATOM     77  C   UNL A   1      47.579  25.613  32.542  1.00  0.00     0.009 A 
ATOM     78  C   UNL A   1      48.394  26.253  30.356  1.00  0.00     0.009 A 
ATOM     79  C   UNL A   1      48.840  25.103  32.858  1.00  0.00     0.001 A 
ATOM     80  C   UNL A   1      49.644  25.713  30.662  1.00  0.00     0.001 A 
ATOM     81  C   UNL A   1      49.868  25.148  31.916  1.00  0.00     0.000 A 
ENDBRANCH  63  76
ENDBRANCH  37  38
ENDBRANCH  29  32
ENDBRANCH  27  28
ENDBRANCH  26  27
ENDBRANCH   1  26
TORSDOF 14
ENDMDL
MODEL 2
REMARK VINA RESULT:     -11.0      2.006      7.270
REMARK SMILES [NH3+]C1(C(=O)N2[C@@H](C(=O)NCCCCNC(=O)c3ccc(-c4c5nc(c(-c6ccccc6)c6ccc([nH]6)c(-c6ccccc6)c6nc(c(-c7ccccc7)c7ccc4[nH]7)C=C6)C=C5)cc3)CC[C@@H]3CCCC[C@@H]32)CC1
REMARK SMILES IDX 11 1 10 2 9 3 7 4 8 5 6 7 5 8 72 9 65 10 67 11 71 12 66 13
REMARK SMILES IDX 68 14 70 15 69 16 3 17 4 18 2 19 73 20 74 21 1 22 12 26
REMARK SMILES IDX 13 27 14 28 15 29 16 31 17 32 18 33 64 34 19 35 63 36 20 37
REMARK SMILES IDX 21 38 22 39 57 40 23 41 62 42 56 43 58 44 24 45 61 46 55 47
REMARK SMILES IDX 54 48 25 50 47 51 32 52 46 53 33 54 36 55 45 56 59 57 34 58
REMARK SMILES IDX 35 59 44 61 60 62 37 63 26 64 27 65 31 66 28 67 30 68 29 69
REMARK SMILES IDX 48 70 49 71 53 72 50 73 52 74 51 75 38 76 39 77 43 78 40 79
REMARK SMILES IDX 42 80 41 81
REMARK H PARENT 9 6 1 23 1 24 1 25 14 30 58 49 36 60
REMARK Flexibility Score: inf
ROOT
ATOM      1  C   UNL A   1      36.096  21.509  24.978  1.00  0.00     0.023 C 
ENDROOT
BRANCH   1   2
ATOM      2  C   UNL A   1      35.964  22.917  24.401  1.00  0.00     0.116 C 
BRANCH   2   3
ATOM      3  N   UNL A   1      35.062  22.910  23.268  1.00  0.00    -0.354 N 
ATOM      4  C   UNL A   1      34.059  23.777  22.966  1.00  0.00     0.242 C 
ATOM      5  O   UNL A   1      33.192  23.385  22.180  1.00  0.00    -0.273 OA
ATOM      6  H   UNL A   1      35.194  22.176  22.626  1.00  0.00     0.163 HD
BRANCH   4   7
ATOM      7  C   UNL A   1      33.913  25.136  23.680  1.00  0.00     0.175 C 
ATOM      8  N   UNL A   1      32.889  25.247  24.751  1.00  0.00    -0.322 N 
ATOM      9  C   UNL A   1      32.571  26.616  25.213  1.00  0.00     0.089 C 
ATOM     10  C   UNL A   1      33.663  26.164  22.543  1.00  0.00     0.036 C 
ATOM     11  C   UNL A   1      32.174  27.514  24.049  1.00  0.00     0.012 C 
ATOM     12  C   UNL A   1      33.728  27.198  26.057  1.00  0.00     0.025 C 
ATOM     13  C   UNL A   1      33.294  27.565  23.009  1.00  0.00     0.008 C 
ATOM     14  C   UNL A   1      31.799  28.889  24.603  1.00  0.00     0.006 C 
ATOM     15  C   UNL A   1      33.797  28.723  26.208  1.00  0.00     0.002 C 
ATOM     16  C   UNL A   1      32.985  29.590  25.247  1.00  0.00     0.000 C 
BRANCH   8  17
ATOM     17  C   UNL A   1      32.458  24.236  25.621  1.00  0.00     0.284 C 
ATOM     18  O   UNL A   1      33.203  23.817  26.510  1.00  0.00    -0.268 OA
BRANCH  17  19
ATOM     19  C   UNL A   1      31.085  23.593  25.555  1.00  0.00     0.174 C 
ATOM     20  C   UNL A   1      30.083  24.228  26.514  1.00  0.00     0.086 C 
ATOM     21  C   UNL A   1      30.389  22.773  26.610  1.00  0.00     0.086 C 
BRANCH  19  22
ATOM     22  N   UNL A   1      30.600  23.442  24.150  1.00  0.00    -0.345 N 
ATOM     23  H   UNL A   1      31.242  22.843  23.632  1.00  0.00     0.345 HD
ATOM     24  H   UNL A   1      30.558  24.359  23.706  1.00  0.00     0.345 HD
ATOM     25  H   UNL A   1      29.671  23.022  24.154  1.00  0.00     0.345 HD
ENDBRANCH  19  22
ENDBRANCH  17  19
ENDBRANCH   8  17
ENDBRANCH   4   7
ENDBRANCH   2   3
ENDBRANCH   1   2
BRANCH   1  26
ATOM     26  C   UNL A   1      37.412  20.813  24.632  1.00  0.00     0.023 C 
BRANCH  26  27
ATOM     27  C   UNL A   1      38.492  20.946  25.696  1.00  0.00     0.116 C 
BRANCH  27  28
ATOM     28  N   UNL A   1      39.434  19.838  25.672  1.00  0.00    -0.352 N 
ATOM     29  C   UNL A   1      40.770  19.848  25.981  1.00  0.00     0.251 C 
ATOM     30  H   UNL A   1      39.065  18.967  25.398  1.00  0.00     0.163 HD
ATOM     31  O   UNL A   1      41.475  18.871  25.749  1.00  0.00    -0.269 OA
BRANCH  29  32
ATOM     32  C   UNL A   1      41.357  21.068  26.567  1.00  0.00     0.039 A 
ATOM     33  C   UNL A   1      41.929  22.018  25.720  1.00  0.00     0.014 A 
ATOM     34  C   UNL A   1      41.292  21.289  27.945  1.00  0.00     0.014 A 
ATOM     35  C   UNL A   1      42.382  23.224  26.252  1.00  0.00     0.010 A 
ATOM     36  C   UNL A   1      41.667  22.523  28.461  1.00  0.00     0.010 A 
ATOM     37  C   UNL A   1      42.220  23.501  27.620  1.00  0.00    -0.014 A 
BRANCH  37  38
ATOM     38  C   UNL A   1      42.626  24.808  28.192  1.00  0.00     0.031 A 
ATOM     39  C   UNL A   1      41.600  25.885  28.412  1.00  0.00     0.074 A 
ATOM     40  C   UNL A   1      43.925  25.046  28.456  1.00  0.00     0.049 A 
ATOM     41  N   UNL A   1      41.767  27.104  28.855  1.00  0.00    -0.248 NA
ATOM     42  C   UNL A   1      40.208  25.556  28.065  1.00  0.00     0.031 C 
ATOM     43  C   UNL A   1      45.023  24.098  28.246  1.00  0.00     0.029 A 
ATOM     44  N   UNL A   1      44.544  26.165  28.955  1.00  0.00    -0.354 N 
ATOM     45  C   UNL A   1      40.509  27.691  28.825  1.00  0.00     0.074 A 
ATOM     46  C   UNL A   1      39.599  26.715  28.268  1.00  0.00     0.031 C 
ATOM     47  C   UNL A   1      46.174  24.663  28.645  1.00  0.00     0.029 A 
ATOM     48  C   UNL A   1      45.904  26.025  29.094  1.00  0.00     0.049 A 
ATOM     49  H   UNL A   1      44.060  26.988  29.191  1.00  0.00     0.167 HD
ATOM     50  C   UNL A   1      40.138  28.924  29.243  1.00  0.00     0.031 A 
ATOM     51  C   UNL A   1      46.830  26.899  29.531  1.00  0.00     0.031 A 
ATOM     52  C   UNL A   1      41.043  29.892  29.803  1.00  0.00     0.049 A 
ATOM     53  C   UNL A   1      46.396  28.270  29.968  1.00  0.00     0.074 A 
ATOM     54  C   UNL A   1      40.756  31.149  30.307  1.00  0.00     0.029 A 
ATOM     55  N   UNL A   1      42.412  29.712  29.927  1.00  0.00    -0.354 N 
ATOM     56  N   UNL A   1      45.191  28.784  30.001  1.00  0.00    -0.248 NA
ATOM     57  C   UNL A   1      47.452  29.178  30.439  1.00  0.00     0.031 C 
ATOM     58  C   UNL A   1      41.960  31.752  30.684  1.00  0.00     0.029 A 
ATOM     59  C   UNL A   1      42.988  30.847  30.474  1.00  0.00     0.049 A 
ATOM     60  H   UNL A   1      42.901  28.899  29.665  1.00  0.00     0.167 HD
ATOM     61  C   UNL A   1      45.339  30.063  30.525  1.00  0.00     0.074 A 
ATOM     62  C   UNL A   1      46.748  30.238  30.809  1.00  0.00     0.031 C 
ATOM     63  C   UNL A   1      44.392  31.006  30.751  1.00  0.00     0.031 A 
BRANCH  50  64
ATOM     64  C   UNL A   1      38.688  29.296  29.099  1.00  0.00    -0.014 A 
ATOM     65  C   UNL A   1      37.795  29.181  30.178  1.00  0.00     0.009 A 
ATOM     66  C   UNL A   1      38.213  29.798  27.877  1.00  0.00     0.009 A 
ATOM     67  C   UNL A   1      36.449  29.522  30.022  1.00  0.00     0.001 A 
ATOM     68  C   UNL A   1      36.875  30.170  27.735  1.00  0.00     0.001 A 
ATOM     69  C   UNL A   1      35.992  30.021  28.803  1.00  0.00     0.000 A 
ENDBRANCH  50  64
BRANCH  51  70
ATOM     70  C   UNL A   1      48.262  26.501  29.588  1.00  0.00    -0.014 A 
ATOM     71  C   UNL A   1      48.779  25.863  30.726  1.00  0.00     0.009 A 
ATOM     72  C   UNL A   1      49.122  26.766  28.511  1.00  0.00     0.009 A 
ATOM     73  C   UNL A   1      50.133  25.526  30.797  1.00  0.00     0.001 A 
ATOM     74  C   UNL A   1      50.469  26.400  28.572  1.00  0.00     0.001 A 
ATOM     75  C   UNL A   1      50.974  25.790  29.718  1.00  0.00     0.000 A 
ENDBRANCH  51  70
BRANCH  63  76
ATOM     76  C   UNL A   1      44.844  32.299  31.371  1.00  0.00    -0.014 A 
ATOM     77  C   UNL A   1      44.908  32.461  32.763  1.00  0.00     0.009 A 
ATOM     78  C   UNL A   1      45.252  33.357  30.542  1.00  0.00     0.009 A 
ATOM     79  C   UNL A   1      45.338  33.671  33.313  1.00  0.00     0.001 A 
ATOM     80  C   UNL A   1      45.712  34.553  31.095  1.00  0.00     0.001 A 
ATOM     81  C   UNL A   1      45.745  34.712  32.479  1.00  0.00     0.000 A 
ENDBRANCH  63  76
ENDBRANCH  37  38
ENDBRANCH  29  32
ENDBRANCH  27  28
ENDBRANCH  26  27
ENDBRANCH   1  26
TORSDOF 14
ENDMDL
MODEL 3
REMARK VINA RESULT:     -11.0      1.002      1.226
REMARK SMILES [NH3+]C1(C(=O)N2[C@@H](C(=O)NCCCCNC(=O)c3ccc(-c4c5nc(c(-c6ccccc6)c6ccc([nH]6)c(-c6ccccc6)c6nc(c(-c7ccccc7)c7ccc4[nH]7)C=C6)C=C5)cc3)CC[C@@H]3CCCC[C@@H]32)CC1
REMARK SMILES IDX 11 1 10 2 9 3 7 4 8 5 6 7 5 8 72 9 65 10 67 11 71 12 66 13
REMARK SMILES IDX 68 14 70 15 69 16 3 17 4 18 2 19 73 20 74 21 1 22 12 26
REMARK SMILES IDX 13 27 14 28 15 29 16 31 17 32 18 33 64 34 19 35 63 36 20 37
REMARK SMILES IDX 21 38 22 39 57 40 23 41 62 42 56 43 58 44 24 45 61 46 55 47
REMARK SMILES IDX 54 48 25 50 47 51 32 52 46 53 33 54 36 55 45 56 59 57 34 58
REMARK SMILES IDX 35 59 44 61 60 62 37 63 26 64 27 65 31 66 28 67 30 68 29 69
REMARK SMILES IDX 48 70 49 71 53 72 50 73 52 74 51 75 38 76 39 77 43 78 40 79
REMARK SMILES IDX 42 80 41 81
REMARK H PARENT 9 6 1 23 1 24 1 25 14 30 58 49 36 60
REMARK Flexibility Score: inf
ROOT
ATOM      1  C   UNL A   1      31.723  27.848  25.862  1.00  0.00     0.023 C 
ENDROOT
BRANCH   1   2
ATOM      2  C   UNL A   1      32.106  26.812  26.918  1.00  0.00     0.116 C 
BRANCH   2   3
ATOM      3  N   UNL A   1      31.276  25.632  26.785  1.00  0.00    -0.354 N 
ATOM      4  C   UNL A   1      31.616  24.392  26.344  1.00  0.00     0.242 C 
ATOM      5  O   UNL A   1      30.700  23.659  25.959  1.00  0.00    -0.273 OA
ATOM      6  H   UNL A   1      30.335  25.743  27.051  1.00  0.00     0.163 HD
BRANCH   4   7
ATOM      7  C   UNL A   1      33.087  23.958  26.181  1.00  0.00     0.175 C 
ATOM      8  N   UNL A   1      33.704  24.098  24.837  1.00  0.00    -0.322 N 
ATOM      9  C   UNL A   1      35.002  23.416  24.638  1.00  0.00     0.089 C 
ATOM     10  C   UNL A   1      33.130  22.487  26.679  1.00  0.00     0.036 C 
ATOM     11  C   UNL A   1      34.909  21.937  24.992  1.00  0.00     0.012 C 
ATOM     12  C   UNL A   1      36.133  24.148  25.395  1.00  0.00     0.025 C 
ATOM     13  C   UNL A   1      34.448  21.764  26.441  1.00  0.00     0.008 C 
ATOM     14  C   UNL A   1      36.261  21.284  24.705  1.00  0.00     0.006 C 
ATOM     15  C   UNL A   1      37.408  23.353  25.704  1.00  0.00     0.002 C 
ATOM     16  C   UNL A   1      37.362  21.829  25.600  1.00  0.00     0.000 C 
BRANCH   8  17
ATOM     17  C   UNL A   1      33.414  25.067  23.867  1.00  0.00     0.284 C 
ATOM     18  O   UNL A   1      34.023  26.140  23.854  1.00  0.00    -0.268 OA
BRANCH  17  19
ATOM     19  C   UNL A   1      32.368  24.890  22.781  1.00  0.00     0.174 C 
ATOM     20  C   UNL A   1      32.897  25.216  21.387  1.00  0.00     0.086 C 
ATOM     21  C   UNL A   1      31.720  25.950  21.931  1.00  0.00     0.086 C 
BRANCH  19  22
ATOM     22  N   UNL A   1      31.657  23.581  22.892  1.00  0.00    -0.345 N 
ATOM     23  H   UNL A   1      32.141  22.882  22.329  1.00  0.00     0.345 HD
ATOM     24  H   UNL A   1      30.700  23.685  22.556  1.00  0.00     0.345 HD
ATOM     25  H   UNL A   1      31.645  23.283  23.868  1.00  0.00     0.345 HD
ENDBRANCH  19  22
ENDBRANCH  17  19
ENDBRANCH   8  17
ENDBRANCH   4   7
ENDBRANCH   2   3
ENDBRANCH   1   2
BRANCH   1  26
ATOM     26  C   UNL A   1      32.681  29.035  25.777  1.00  0.00     0.023 C 
BRANCH  26  27
ATOM     27  C   UNL A   1      33.657  29.142  26.940  1.00  0.00     0.116 C 
BRANCH  27  28
ATOM     28  N   UNL A   1      33.618  30.447  27.580  1.00  0.00    -0.352 N 
ATOM     29  C   UNL A   1      34.561  31.029  28.388  1.00  0.00     0.251 C 
ATOM     30  H   UNL A   1      32.809  30.983  27.411  1.00  0.00     0.163 HD
ATOM     31  O   UNL A   1      34.313  32.066  28.995  1.00  0.00    -0.269 OA
BRANCH  29  32
ATOM     32  C   UNL A   1      35.871  30.368  28.544  1.00  0.00     0.039 A 
ATOM     33  C   UNL A   1      36.779  30.410  27.484  1.00  0.00     0.014 A 
ATOM     34  C   UNL A   1      36.213  29.756  29.752  1.00  0.00     0.014 A 
ATOM     35  C   UNL A   1      38.060  29.890  27.661  1.00  0.00     0.010 A 
ATOM     36  C   UNL A   1      37.514  29.314  29.953  1.00  0.00     0.010 A 
ATOM     37  C   UNL A   1      38.449  29.372  28.908  1.00  0.00    -0.014 A 
BRANCH  37  38
ATOM     38  C   UNL A   1      39.831  28.883  29.140  1.00  0.00     0.031 A 
ATOM     39  C   UNL A   1      40.861  29.796  29.742  1.00  0.00     0.074 A 
ATOM     40  C   UNL A   1      40.172  27.640  28.752  1.00  0.00     0.049 A 
ATOM     41  N   UNL A   1      42.128  29.569  29.977  1.00  0.00    -0.248 NA
ATOM     42  C   UNL A   1      40.416  31.152  30.106  1.00  0.00     0.031 C 
ATOM     43  C   UNL A   1      39.273  26.671  28.117  1.00  0.00     0.029 A 
ATOM     44  N   UNL A   1      41.371  26.977  28.832  1.00  0.00    -0.354 N 
ATOM     45  C   UNL A   1      42.633  30.753  30.499  1.00  0.00     0.074 A 
ATOM     46  C   UNL A   1      41.552  31.714  30.494  1.00  0.00     0.031 C 
ATOM     47  C   UNL A   1      39.945  25.529  27.896  1.00  0.00     0.029 A 
ATOM     48  C   UNL A   1      41.328  25.698  28.330  1.00  0.00     0.049 A 
ATOM     49  H   UNL A   1      42.184  27.379  29.212  1.00  0.00     0.167 HD
ATOM     50  C   UNL A   1      43.879  31.013  30.960  1.00  0.00     0.031 A 
ATOM     51  C   UNL A   1      42.296  24.768  28.227  1.00  0.00     0.031 A 
ATOM     52  C   UNL A   1      44.952  30.055  30.970  1.00  0.00     0.049 A 
ATOM     53  C   UNL A   1      43.677  25.090  28.727  1.00  0.00     0.074 A 
ATOM     54  C   UNL A   1      46.235  30.204  31.468  1.00  0.00     0.029 A 
ATOM     55  N   UNL A   1      44.867  28.772  30.454  1.00  0.00    -0.354 N 
ATOM     56  N   UNL A   1      44.119  26.190  29.284  1.00  0.00    -0.248 NA
ATOM     57  C   UNL A   1      44.689  24.033  28.592  1.00  0.00     0.031 C 
ATOM     58  C   UNL A   1      46.944  29.029  31.200  1.00  0.00     0.029 A 
ATOM     59  C   UNL A   1      46.084  28.127  30.594  1.00  0.00     0.049 A 
ATOM     60  H   UNL A   1      44.062  28.377  30.047  1.00  0.00     0.167 HD
ATOM     61  C   UNL A   1      45.452  25.949  29.594  1.00  0.00     0.074 A 
ATOM     62  C   UNL A   1      45.739  24.592  29.178  1.00  0.00     0.031 C 
ATOM     63  C   UNL A   1      46.355  26.776  30.174  1.00  0.00     0.031 A 
BRANCH  50  64
ATOM     64  C   UNL A   1      44.147  32.397  31.485  1.00  0.00    -0.014 A 
ATOM     65  C   UNL A   1      44.597  33.423  30.639  1.00  0.00     0.009 A 
ATOM     66  C   UNL A   1      43.916  32.687  32.840  1.00  0.00     0.009 A 
ATOM     67  C   UNL A   1      44.850  34.700  31.147  1.00  0.00     0.001 A 
ATOM     68  C   UNL A   1      44.138  33.972  33.337  1.00  0.00     0.001 A 
ATOM     69  C   UNL A   1      44.615  34.974  32.494  1.00  0.00     0.000 A 
ENDBRANCH  50  64
BRANCH  51  70
ATOM     70  C   UNL A   1      41.992  23.438  27.636  1.00  0.00    -0.014 A 
ATOM     71  C   UNL A   1      42.200  23.202  26.268  1.00  0.00     0.009 A 
ATOM     72  C   UNL A   1      41.483  22.401  28.432  1.00  0.00     0.009 A 
ATOM     73  C   UNL A   1      41.877  21.965  25.705  1.00  0.00     0.001 A 
ATOM     74  C   UNL A   1      41.189  21.155  27.873  1.00  0.00     0.001 A 
ATOM     75  C   UNL A   1      41.376  20.943  26.508  1.00  0.00     0.000 A 
ENDBRANCH  51  70
BRANCH  63  76
ATOM     76  C   UNL A   1      47.730  26.223  30.427  1.00  0.00    -0.014 A 
ATOM     77  C   UNL A   1      48.099  25.724  31.686  1.00  0.00     0.009 A 
ATOM     78  C   UNL A   1      48.656  26.165  29.373  1.00  0.00     0.009 A 
ATOM     79  C   UNL A   1      49.381  25.209  31.892  1.00  0.00     0.001 A 
ATOM     80  C   UNL A   1      49.925  25.621  29.574  1.00  0.00     0.001 A 
ATOM     81  C   UNL A   1      50.290  25.153  30.835  1.00  0.00     0.000 A 
ENDBRANCH  63  76
ENDBRANCH  37  38
ENDBRANCH  29  32
ENDBRANCH  27  28
ENDBRANCH  26  27
ENDBRANCH   1  26
TORSDOF 14
ENDMDL
