MODEL 1
REMARK VINA RESULT:     -11.7      0.000      0.000
REMARK SMILES COc1cc(-c2ccc(F)c(C(F)(F)F)c2)ccc1C(=O)NCCCCNC(=O)c1ccc(-c2c3nc(c(-c4ccccc4)c4ccc([nH]4)c(-c4ccccc4)c4nc(c(-c5ccccc5)c5ccc2[nH]5)C=C4)C=C3)cc1
REMARK SMILES IDX 24 1 23 2 22 3 20 4 21 5 19 7 3 8 4 9 5 10 18 11 17 12 2 13
REMARK SMILES IDX 1 14 6 15 7 16 16 17 8 18 11 19 9 20 10 21 12 22 13 23 14 24
REMARK SMILES IDX 15 25 25 26 26 27 27 28 28 29 29 31 30 32 31 33 77 34 32 35
REMARK SMILES IDX 76 36 33 37 34 38 35 39 70 40 36 41 75 42 69 43 71 44 37 45
REMARK SMILES IDX 74 46 68 47 67 48 38 50 60 51 45 52 59 53 46 54 49 55 58 56
REMARK SMILES IDX 72 57 47 58 48 59 57 61 73 62 50 63 39 64 40 65 44 66 41 67
REMARK SMILES IDX 43 68 42 69 61 70 62 71 66 72 63 73 65 74 64 75 51 76 52 77
REMARK SMILES IDX 56 78 53 79 55 80 54 81
REMARK H PARENT 22 6 27 30 71 49 49 60
REMARK Flexibility Score: inf
ROOT
ATOM      1  C   UNL A   1      35.962  21.479  24.944  1.00  0.00     0.023 C 
ENDROOT
BRANCH   1   2
ATOM      2  C   UNL A   1      34.978  21.290  26.094  1.00  0.00     0.116 C 
BRANCH   2   3
ATOM      3  N   UNL A   1      33.905  20.350  25.827  1.00  0.00    -0.352 N 
ATOM      4  C   UNL A   1      32.650  20.590  25.315  1.00  0.00     0.255 C 
ATOM      5  O   UNL A   1      31.897  19.636  25.124  1.00  0.00    -0.269 OA
ATOM      6  H   UNL A   1      34.103  19.410  26.041  1.00  0.00     0.163 HD
BRANCH   4   7
ATOM      7  C   UNL A   1      32.147  21.966  25.065  1.00  0.00     0.081 A 
ATOM      8  C   UNL A   1      32.282  22.676  23.869  1.00  0.00     0.132 A 
ATOM      9  C   UNL A   1      31.961  24.040  23.824  1.00  0.00     0.056 A 
ATOM     10  C   UNL A   1      31.409  24.704  24.931  1.00  0.00    -0.015 A 
ATOM     11  C   UNL A   1      31.505  22.593  26.145  1.00  0.00     0.018 A 
ATOM     12  C   UNL A   1      31.134  23.941  26.075  1.00  0.00     0.010 A 
BRANCH   8  13
ATOM     13  O   UNL A   1      32.811  22.170  22.713  1.00  0.00    -0.496 OA
ATOM     14  C   UNL A   1      33.384  23.184  21.888  1.00  0.00     0.278 C 
ENDBRANCH   8  13
BRANCH  10  15
ATOM     15  C   UNL A   1      31.198  26.165  24.901  1.00  0.00    -0.017 A 
ATOM     16  C   UNL A   1      30.402  26.773  23.916  1.00  0.00     0.012 A 
ATOM     17  C   UNL A   1      31.858  27.004  25.821  1.00  0.00     0.025 A 
ATOM     18  C   UNL A   1      30.290  28.163  23.836  1.00  0.00     0.040 A 
ATOM     19  C   UNL A   1      31.753  28.404  25.751  1.00  0.00     0.092 A 
ATOM     20  C   UNL A   1      30.968  28.963  24.748  1.00  0.00     0.135 A 
ATOM     21  F   UNL A   1      30.865  30.294  24.643  1.00  0.00    -0.206 F 
BRANCH  19  22
ATOM     22  C   UNL A   1      32.479  29.305  26.703  1.00  0.00     0.419 C 
ATOM     23  F   UNL A   1      33.447  30.047  26.098  1.00  0.00    -0.166 F 
ATOM     24  F   UNL A   1      31.656  30.186  27.334  1.00  0.00    -0.166 F 
ATOM     25  F   UNL A   1      33.115  28.623  27.700  1.00  0.00    -0.166 F 
ENDBRANCH  19  22
ENDBRANCH  10  15
ENDBRANCH   4   7
ENDBRANCH   2   3
ENDBRANCH   1   2
BRANCH   1  26
ATOM     26  C   UNL A   1      37.099  20.461  24.856  1.00  0.00     0.023 C 
BRANCH  26  27
ATOM     27  C   UNL A   1      38.452  20.889  25.417  1.00  0.00     0.116 C 
BRANCH  27  28
ATOM     28  N   UNL A   1      39.438  19.820  25.469  1.00  0.00    -0.352 N 
ATOM     29  C   UNL A   1      40.728  19.808  25.952  1.00  0.00     0.251 C 
ATOM     30  H   UNL A   1      39.131  18.962  25.097  1.00  0.00     0.163 HD
ATOM     31  O   UNL A   1      41.414  18.801  25.826  1.00  0.00    -0.269 OA
BRANCH  29  32
ATOM     32  C   UNL A   1      41.316  21.017  26.576  1.00  0.00     0.039 A 
ATOM     33  C   UNL A   1      41.905  21.974  25.744  1.00  0.00     0.014 A 
ATOM     34  C   UNL A   1      41.289  21.220  27.957  1.00  0.00     0.014 A 
ATOM     35  C   UNL A   1      42.367  23.177  26.287  1.00  0.00     0.010 A 
ATOM     36  C   UNL A   1      41.669  22.454  28.486  1.00  0.00     0.010 A 
ATOM     37  C   UNL A   1      42.199  23.452  27.654  1.00  0.00    -0.014 A 
BRANCH  37  38
ATOM     38  C   UNL A   1      42.523  24.795  28.204  1.00  0.00     0.031 A 
ATOM     39  C   UNL A   1      43.925  25.152  28.613  1.00  0.00     0.074 A 
ATOM     40  C   UNL A   1      41.529  25.687  28.389  1.00  0.00     0.049 A 
ATOM     41  N   UNL A   1      44.381  26.283  29.091  1.00  0.00    -0.248 NA
ATOM     42  C   UNL A   1      44.941  24.097  28.494  1.00  0.00     0.031 C 
ATOM     43  C   UNL A   1      40.113  25.452  28.095  1.00  0.00     0.029 A 
ATOM     44  N   UNL A   1      41.559  26.976  28.861  1.00  0.00    -0.354 N 
ATOM     45  C   UNL A   1      45.731  26.073  29.340  1.00  0.00     0.074 A 
ATOM     46  C   UNL A   1      46.007  24.690  29.012  1.00  0.00     0.031 C 
ATOM     47  C   UNL A   1      39.420  26.573  28.345  1.00  0.00     0.029 A 
ATOM     48  C   UNL A   1      40.331  27.594  28.851  1.00  0.00     0.049 A 
ATOM     49  H   UNL A   1      42.381  27.415  29.177  1.00  0.00     0.167 HD
ATOM     50  C   UNL A   1      46.664  26.952  29.780  1.00  0.00     0.031 A 
ATOM     51  C   UNL A   1      39.976  28.844  29.200  1.00  0.00     0.031 A 
ATOM     52  C   UNL A   1      46.395  28.327  30.108  1.00  0.00     0.049 A 
ATOM     53  C   UNL A   1      41.026  29.801  29.687  1.00  0.00     0.074 A 
ATOM     54  C   UNL A   1      47.286  29.313  30.499  1.00  0.00     0.029 A 
ATOM     55  N   UNL A   1      45.138  28.911  30.095  1.00  0.00    -0.354 N 
ATOM     56  N   UNL A   1      42.314  29.610  29.832  1.00  0.00    -0.248 NA
ATOM     57  C   UNL A   1      40.570  31.151  30.045  1.00  0.00     0.031 C 
ATOM     58  C   UNL A   1      46.560  30.477  30.774  1.00  0.00     0.029 A 
ATOM     59  C   UNL A   1      45.224  30.234  30.499  1.00  0.00     0.049 A 
ATOM     60  H   UNL A   1      44.305  28.453  29.835  1.00  0.00     0.167 HD
ATOM     61  C   UNL A   1      42.827  30.820  30.281  1.00  0.00     0.074 A 
ATOM     62  C   UNL A   1      41.713  31.743  30.360  1.00  0.00     0.031 C 
ATOM     63  C   UNL A   1      44.107  31.137  30.597  1.00  0.00     0.031 A 
BRANCH  50  64
ATOM     64  C   UNL A   1      48.070  26.436  29.938  1.00  0.00    -0.014 A 
ATOM     65  C   UNL A   1      48.993  26.504  28.883  1.00  0.00     0.009 A 
ATOM     66  C   UNL A   1      48.479  25.886  31.163  1.00  0.00     0.009 A 
ATOM     67  C   UNL A   1      50.282  25.987  29.034  1.00  0.00     0.001 A 
ATOM     68  C   UNL A   1      49.778  25.399  31.321  1.00  0.00     0.001 A 
ATOM     69  C   UNL A   1      50.674  25.437  30.254  1.00  0.00     0.000 A 
ENDBRANCH  50  64
BRANCH  51  70
ATOM     70  C   UNL A   1      38.562  29.278  29.059  1.00  0.00    -0.014 A 
ATOM     71  C   UNL A   1      37.698  29.239  30.163  1.00  0.00     0.009 A 
ATOM     72  C   UNL A   1      38.074  29.745  27.829  1.00  0.00     0.009 A 
ATOM     73  C   UNL A   1      36.366  29.641  30.032  1.00  0.00     0.001 A 
ATOM     74  C   UNL A   1      36.750  30.171  27.708  1.00  0.00     0.001 A 
ATOM     75  C   UNL A   1      35.895  30.112  28.808  1.00  0.00     0.000 A 
ENDBRANCH  51  70
BRANCH  63  76
ATOM     76  C   UNL A   1      44.366  32.549  31.047  1.00  0.00    -0.014 A 
ATOM     77  C   UNL A   1      44.667  33.564  30.124  1.00  0.00     0.009 A 
ATOM     78  C   UNL A   1      44.298  32.869  32.411  1.00  0.00     0.009 A 
ATOM     79  C   UNL A   1      44.935  34.862  30.564  1.00  0.00     0.001 A 
ATOM     80  C   UNL A   1      44.538  34.174  32.845  1.00  0.00     0.001 A 
ATOM     81  C   UNL A   1      44.869  35.166  31.923  1.00  0.00     0.000 A 
ENDBRANCH  63  76
ENDBRANCH  37  38
ENDBRANCH  29  32
ENDBRANCH  27  28
ENDBRANCH  26  27
ENDBRANCH   1  26
TORSDOF 14
ENDMDL
MODEL 2
REMARK VINA RESULT:     -11.6      3.203      7.800
REMARK SMILES COc1cc(-c2ccc(F)c(C(F)(F)F)c2)ccc1C(=O)NCCCCNC(=O)c1ccc(-c2c3nc(c(-c4ccccc4)c4ccc([nH]4)c(-c4ccccc4)c4nc(c(-c5ccccc5)c5ccc2[nH]5)C=C4)C=C3)cc1
REMARK SMILES IDX 24 1 23 2 22 3 20 4 21 5 19 7 3 8 4 9 5 10 18 11 17 12 2 13
REMARK SMILES IDX 1 14 6 15 7 16 16 17 8 18 11 19 9 20 10 21 12 22 13 23 14 24
REMARK SMILES IDX 15 25 25 26 26 27 27 28 28 29 29 31 30 32 31 33 77 34 32 35
REMARK SMILES IDX 76 36 33 37 34 38 35 39 70 40 36 41 75 42 69 43 71 44 37 45
REMARK SMILES IDX 74 46 68 47 67 48 38 50 60 51 45 52 59 53 46 54 49 55 58 56
REMARK SMILES IDX 72 57 47 58 48 59 57 61 73 62 50 63 39 64 40 65 44 66 41 67
REMARK SMILES IDX 43 68 42 69 61 70 62 71 66 72 63 73 65 74 64 75 51 76 52 77
REMARK SMILES IDX 56 78 53 79 55 80 54 81
REMARK H PARENT 22 6 27 30 71 49 49 60
REMARK Flexibility Score: inf
ROOT
ATOM      1  C   UNL A   1      33.165  29.324  24.796  1.00  0.00     0.023 C 
ENDROOT
BRANCH   1   2
ATOM      2  C   UNL A   1      31.645  29.381  24.908  1.00  0.00     0.116 C 
BRANCH   2   3
ATOM      3  N   UNL A   1      30.946  29.464  23.638  1.00  0.00    -0.352 N 
ATOM      4  C   UNL A   1      30.638  28.457  22.751  1.00  0.00     0.255 C 
ATOM      5  O   UNL A   1      29.995  28.736  21.741  1.00  0.00    -0.269 OA
ATOM      6  H   UNL A   1      30.651  30.366  23.376  1.00  0.00     0.163 HD
BRANCH   4   7
ATOM      7  C   UNL A   1      31.126  27.064  22.933  1.00  0.00     0.081 A 
ATOM      8  C   UNL A   1      30.615  26.136  23.844  1.00  0.00     0.132 A 
ATOM      9  C   UNL A   1      31.296  24.934  24.075  1.00  0.00     0.056 A 
ATOM     10  C   UNL A   1      32.440  24.581  23.340  1.00  0.00    -0.015 A 
ATOM     11  C   UNL A   1      32.209  26.681  22.125  1.00  0.00     0.018 A 
ATOM     12  C   UNL A   1      32.851  25.453  22.321  1.00  0.00     0.010 A 
BRANCH   8  13
ATOM     13  O   UNL A   1      29.518  26.339  24.637  1.00  0.00    -0.496 OA
ATOM     14  C   UNL A   1      29.639  25.697  25.906  1.00  0.00     0.278 C 
ENDBRANCH   8  13
BRANCH  10  15
ATOM     15  C   UNL A   1      33.212  23.372  23.687  1.00  0.00    -0.017 A 
ATOM     16  C   UNL A   1      32.589  22.122  23.842  1.00  0.00     0.012 A 
ATOM     17  C   UNL A   1      34.594  23.454  23.951  1.00  0.00     0.025 A 
ATOM     18  C   UNL A   1      33.311  21.005  24.269  1.00  0.00     0.040 A 
ATOM     19  C   UNL A   1      35.331  22.336  24.380  1.00  0.00     0.092 A 
ATOM     20  C   UNL A   1      34.670  21.123  24.537  1.00  0.00     0.135 A 
ATOM     21  F   UNL A   1      35.341  20.046  24.965  1.00  0.00    -0.206 F 
BRANCH  19  22
ATOM     22  C   UNL A   1      36.793  22.422  24.697  1.00  0.00     0.419 C 
ATOM     23  F   UNL A   1      37.312  23.661  24.475  1.00  0.00    -0.166 F 
ATOM     24  F   UNL A   1      37.076  22.112  25.992  1.00  0.00    -0.166 F 
ATOM     25  F   UNL A   1      37.551  21.571  23.945  1.00  0.00    -0.166 F 
ENDBRANCH  19  22
ENDBRANCH  10  15
ENDBRANCH   4   7
ENDBRANCH   2   3
ENDBRANCH   1   2
BRANCH   1  26
ATOM     26  C   UNL A   1      33.892  28.548  25.896  1.00  0.00     0.023 C 
BRANCH  26  27
ATOM     27  C   UNL A   1      33.433  28.794  27.331  1.00  0.00     0.116 C 
BRANCH  27  28
ATOM     28  N   UNL A   1      33.567  30.176  27.767  1.00  0.00    -0.352 N 
ATOM     29  C   UNL A   1      34.644  30.853  28.295  1.00  0.00     0.251 C 
ATOM     30  H   UNL A   1      32.751  30.717  27.669  1.00  0.00     0.163 HD
ATOM     31  O   UNL A   1      34.509  32.013  28.666  1.00  0.00    -0.269 OA
BRANCH  29  32
ATOM     32  C   UNL A   1      35.953  30.180  28.466  1.00  0.00     0.039 A 
ATOM     33  C   UNL A   1      36.856  30.201  27.399  1.00  0.00     0.014 A 
ATOM     34  C   UNL A   1      36.302  29.539  29.656  1.00  0.00     0.014 A 
ATOM     35  C   UNL A   1      38.141  29.676  27.564  1.00  0.00     0.010 A 
ATOM     36  C   UNL A   1      37.610  29.095  29.850  1.00  0.00     0.010 A 
ATOM     37  C   UNL A   1      38.549  29.172  28.810  1.00  0.00    -0.014 A 
BRANCH  37  38
ATOM     38  C   UNL A   1      39.963  28.778  29.045  1.00  0.00     0.031 A 
ATOM     39  C   UNL A   1      40.934  29.717  29.705  1.00  0.00     0.074 A 
ATOM     40  C   UNL A   1      40.392  27.577  28.609  1.00  0.00     0.049 A 
ATOM     41  N   UNL A   1      42.196  29.523  30.001  1.00  0.00    -0.248 NA
ATOM     42  C   UNL A   1      40.434  31.054  30.053  1.00  0.00     0.031 C 
ATOM     43  C   UNL A   1      39.574  26.591  27.897  1.00  0.00     0.029 A 
ATOM     44  N   UNL A   1      41.623  26.975  28.706  1.00  0.00    -0.354 N 
ATOM     45  C   UNL A   1      42.642  30.714  30.559  1.00  0.00     0.074 A 
ATOM     46  C   UNL A   1      41.531  31.642  30.508  1.00  0.00     0.031 C 
ATOM     47  C   UNL A   1      40.309  25.492  27.668  1.00  0.00     0.029 A 
ATOM     48  C   UNL A   1      41.658  25.706  28.181  1.00  0.00     0.049 A 
ATOM     49  H   UNL A   1      42.405  27.412  29.113  1.00  0.00     0.167 HD
ATOM     50  C   UNL A   1      43.855  31.007  31.087  1.00  0.00     0.031 A 
ATOM     51  C   UNL A   1      42.658  24.808  28.125  1.00  0.00     0.031 A 
ATOM     52  C   UNL A   1      44.962  30.089  31.139  1.00  0.00     0.049 A 
ATOM     53  C   UNL A   1      43.995  25.153  28.714  1.00  0.00     0.074 A 
ATOM     54  C   UNL A   1      46.210  30.272  31.712  1.00  0.00     0.029 A 
ATOM     55  N   UNL A   1      44.961  28.817  30.587  1.00  0.00    -0.354 N 
ATOM     56  N   UNL A   1      44.372  26.254  29.317  1.00  0.00    -0.248 NA
ATOM     57  C   UNL A   1      45.040  24.125  28.624  1.00  0.00     0.031 C 
ATOM     58  C   UNL A   1      46.980  29.130  31.460  1.00  0.00     0.029 A 
ATOM     59  C   UNL A   1      46.194  28.215  30.779  1.00  0.00     0.049 A 
ATOM     60  H   UNL A   1      44.195  28.403  30.127  1.00  0.00     0.167 HD
ATOM     61  C   UNL A   1      45.692  26.045  29.696  1.00  0.00     0.074 A 
ATOM     62  C   UNL A   1      46.040  24.703  29.274  1.00  0.00     0.031 C 
ATOM     63  C   UNL A   1      46.538  26.888  30.336  1.00  0.00     0.031 A 
BRANCH  50  64
ATOM     64  C   UNL A   1      44.043  32.393  31.644  1.00  0.00    -0.014 A 
ATOM     65  C   UNL A   1      43.761  32.682  32.989  1.00  0.00     0.009 A 
ATOM     66  C   UNL A   1      44.519  33.422  30.815  1.00  0.00     0.009 A 
ATOM     67  C   UNL A   1      43.905  33.982  33.481  1.00  0.00     0.001 A 
ATOM     68  C   UNL A   1      44.692  34.713  31.318  1.00  0.00     0.001 A 
ATOM     69  C   UNL A   1      44.373  34.995  32.645  1.00  0.00     0.000 A 
ENDBRANCH  50  64
BRANCH  51  70
ATOM     70  C   UNL A   1      42.418  23.469  27.524  1.00  0.00    -0.014 A 
ATOM     71  C   UNL A   1      42.718  23.238  26.173  1.00  0.00     0.009 A 
ATOM     72  C   UNL A   1      41.904  22.417  28.296  1.00  0.00     0.009 A 
ATOM     73  C   UNL A   1      42.489  21.984  25.603  1.00  0.00     0.001 A 
ATOM     74  C   UNL A   1      41.701  21.157  27.730  1.00  0.00     0.001 A 
ATOM     75  C   UNL A   1      41.986  20.944  26.382  1.00  0.00     0.000 A 
ENDBRANCH  51  70
BRANCH  63  76
ATOM     76  C   UNL A   1      47.920  26.373  30.628  1.00  0.00    -0.014 A 
ATOM     77  C   UNL A   1      48.957  26.497  29.690  1.00  0.00     0.009 A 
ATOM     78  C   UNL A   1      48.190  25.763  31.863  1.00  0.00     0.009 A 
ATOM     79  C   UNL A   1      50.226  25.984  29.966  1.00  0.00     0.001 A 
ATOM     80  C   UNL A   1      49.467  25.277  32.148  1.00  0.00     0.001 A 
ATOM     81  C   UNL A   1      50.481  25.377  31.195  1.00  0.00     0.000 A 
ENDBRANCH  63  76
ENDBRANCH  37  38
ENDBRANCH  29  32
ENDBRANCH  27  28
ENDBRANCH  26  27
ENDBRANCH   1  26
TORSDOF 14
ENDMDL
MODEL 3
REMARK VINA RESULT:     -11.5      0.442      5.892
REMARK SMILES COc1cc(-c2ccc(F)c(C(F)(F)F)c2)ccc1C(=O)NCCCCNC(=O)c1ccc(-c2c3nc(c(-c4ccccc4)c4ccc([nH]4)c(-c4ccccc4)c4nc(c(-c5ccccc5)c5ccc2[nH]5)C=C4)C=C3)cc1
REMARK SMILES IDX 24 1 23 2 22 3 20 4 21 5 19 7 3 8 4 9 5 10 18 11 17 12 2 13
REMARK SMILES IDX 1 14 6 15 7 16 16 17 8 18 11 19 9 20 10 21 12 22 13 23 14 24
REMARK SMILES IDX 15 25 25 26 26 27 27 28 28 29 29 31 30 32 31 33 77 34 32 35
REMARK SMILES IDX 76 36 33 37 34 38 35 39 70 40 36 41 75 42 69 43 71 44 37 45
REMARK SMILES IDX 74 46 68 47 67 48 38 50 60 51 45 52 59 53 46 54 49 55 58 56
REMARK SMILES IDX 72 57 47 58 48 59 57 61 73 62 50 63 39 64 40 65 44 66 41 67
REMARK SMILES IDX 43 68 42 69 61 70 62 71 66 72 63 73 65 74 64 75 51 76 52 77
REMARK SMILES IDX 56 78 53 79 55 80 54 81
REMARK H PARENT 22 6 27 30 71 49 49 60
REMARK Flexibility Score: inf
ROOT
ATOM      1  C   UNL A   1      36.223  21.528  24.926  1.00  0.00     0.023 C 
ENDROOT
BRANCH   1   2
ATOM      2  C   UNL A   1      35.206  21.426  26.057  1.00  0.00     0.116 C 
BRANCH   2   3
ATOM      3  N   UNL A   1      34.157  20.446  25.845  1.00  0.00    -0.352 N 
ATOM      4  C   UNL A   1      32.879  20.633  25.368  1.00  0.00     0.255 C 
ATOM      5  O   UNL A   1      32.152  19.651  25.221  1.00  0.00    -0.269 OA
ATOM      6  H   UNL A   1      34.392  19.518  26.074  1.00  0.00     0.163 HD
BRANCH   4   7
ATOM      7  C   UNL A   1      32.323  21.987  25.102  1.00  0.00     0.081 A 
ATOM      8  C   UNL A   1      32.435  22.690  23.900  1.00  0.00     0.132 A 
ATOM      9  C   UNL A   1      32.061  24.039  23.841  1.00  0.00     0.056 A 
ATOM     10  C   UNL A   1      31.478  24.692  24.940  1.00  0.00    -0.015 A 
ATOM     11  C   UNL A   1      31.653  22.597  26.174  1.00  0.00     0.018 A 
ATOM     12  C   UNL A   1      31.229  23.929  26.090  1.00  0.00     0.010 A 
BRANCH   8  13
ATOM     13  O   UNL A   1      32.988  22.194  22.751  1.00  0.00    -0.496 OA
ATOM     14  C   UNL A   1      33.288  23.220  21.805  1.00  0.00     0.278 C 
ENDBRANCH   8  13
BRANCH  10  15
ATOM     15  C   UNL A   1      31.211  26.142  24.895  1.00  0.00    -0.017 A 
ATOM     16  C   UNL A   1      30.360  26.704  23.928  1.00  0.00     0.012 A 
ATOM     17  C   UNL A   1      31.868  27.021  25.780  1.00  0.00     0.025 A 
ATOM     18  C   UNL A   1      30.192  28.087  23.831  1.00  0.00     0.040 A 
ATOM     19  C   UNL A   1      31.706  28.415  25.692  1.00  0.00     0.092 A 
ATOM     20  C   UNL A   1      30.868  28.927  24.708  1.00  0.00     0.135 A 
ATOM     21  F   UNL A   1      30.710  30.251  24.587  1.00  0.00    -0.206 F 
BRANCH  19  22
ATOM     22  C   UNL A   1      32.427  29.358  26.606  1.00  0.00     0.419 C 
ATOM     23  F   UNL A   1      33.091  28.721  27.609  1.00  0.00    -0.166 F 
ATOM     24  F   UNL A   1      33.349  30.123  25.960  1.00  0.00    -0.166 F 
ATOM     25  F   UNL A   1      31.592  30.241  27.227  1.00  0.00    -0.166 F 
ENDBRANCH  19  22
ENDBRANCH  10  15
ENDBRANCH   4   7
ENDBRANCH   2   3
ENDBRANCH   1   2
BRANCH   1  26
ATOM     26  C   UNL A   1      37.332  20.475  24.921  1.00  0.00     0.023 C 
BRANCH  26  27
ATOM     27  C   UNL A   1      38.597  20.804  25.709  1.00  0.00     0.116 C 
BRANCH  27  28
ATOM     28  N   UNL A   1      39.601  19.751  25.686  1.00  0.00    -0.352 N 
ATOM     29  C   UNL A   1      40.929  19.764  26.052  1.00  0.00     0.251 C 
ATOM     30  H   UNL A   1      39.276  18.883  25.352  1.00  0.00     0.163 HD
ATOM     31  O   UNL A   1      41.617  18.766  25.876  1.00  0.00    -0.269 OA
BRANCH  29  32
ATOM     32  C   UNL A   1      41.550  20.989  26.607  1.00  0.00     0.039 A 
ATOM     33  C   UNL A   1      42.134  21.899  25.720  1.00  0.00     0.014 A 
ATOM     34  C   UNL A   1      41.558  21.255  27.978  1.00  0.00     0.014 A 
ATOM     35  C   UNL A   1      42.628  23.116  26.197  1.00  0.00     0.010 A 
ATOM     36  C   UNL A   1      41.970  22.505  28.442  1.00  0.00     0.010 A 
ATOM     37  C   UNL A   1      42.496  23.456  27.554  1.00  0.00    -0.014 A 
BRANCH  37  38
ATOM     38  C   UNL A   1      42.854  24.816  28.036  1.00  0.00     0.031 A 
ATOM     39  C   UNL A   1      41.801  25.866  28.258  1.00  0.00     0.074 A 
ATOM     40  C   UNL A   1      44.152  25.126  28.226  1.00  0.00     0.049 A 
ATOM     41  N   UNL A   1      41.941  27.094  28.693  1.00  0.00    -0.248 NA
ATOM     42  C   UNL A   1      40.417  25.501  27.923  1.00  0.00     0.031 C 
ATOM     43  C   UNL A   1      45.282  24.224  27.989  1.00  0.00     0.029 A 
ATOM     44  N   UNL A   1      44.741  26.285  28.668  1.00  0.00    -0.354 N 
ATOM     45  C   UNL A   1      40.668  27.650  28.675  1.00  0.00     0.074 A 
ATOM     46  C   UNL A   1      39.779  26.643  28.132  1.00  0.00     0.031 C 
ATOM     47  C   UNL A   1      46.420  24.844  28.336  1.00  0.00     0.029 A 
ATOM     48  C   UNL A   1      46.107  26.197  28.784  1.00  0.00     0.049 A 
ATOM     49  H   UNL A   1      44.232  27.099  28.882  1.00  0.00     0.167 HD
ATOM     50  C   UNL A   1      40.267  28.876  29.090  1.00  0.00     0.031 A 
ATOM     51  C   UNL A   1      47.010  27.099  29.211  1.00  0.00     0.031 A 
ATOM     52  C   UNL A   1      41.146  29.880  29.628  1.00  0.00     0.049 A 
ATOM     53  C   UNL A   1      46.544  28.453  29.665  1.00  0.00     0.074 A 
ATOM     54  C   UNL A   1      40.825  31.128  30.137  1.00  0.00     0.029 A 
ATOM     55  N   UNL A   1      42.524  29.757  29.719  1.00  0.00    -0.354 N 
ATOM     56  N   UNL A   1      45.325  28.930  29.723  1.00  0.00    -0.248 NA
ATOM     57  C   UNL A   1      47.582  29.386  30.123  1.00  0.00     0.031 C 
ATOM     58  C   UNL A   1      42.014  31.779  30.485  1.00  0.00     0.029 A 
ATOM     59  C   UNL A   1      43.071  30.916  30.247  1.00  0.00     0.049 A 
ATOM     60  H   UNL A   1      43.039  28.962  29.449  1.00  0.00     0.167 HD
ATOM     61  C   UNL A   1      45.446  30.212  30.242  1.00  0.00     0.074 A 
ATOM     62  C   UNL A   1      46.855  30.427  30.503  1.00  0.00     0.031 C 
ATOM     63  C   UNL A   1      44.476  31.128  30.481  1.00  0.00     0.031 A 
BRANCH  50  64
ATOM     64  C   UNL A   1      38.801  29.196  28.964  1.00  0.00    -0.014 A 
ATOM     65  C   UNL A   1      37.923  29.026  30.047  1.00  0.00     0.009 A 
ATOM     66  C   UNL A   1      38.293  29.685  27.750  1.00  0.00     0.009 A 
ATOM     67  C   UNL A   1      36.559  29.291  29.903  1.00  0.00     0.001 A 
ATOM     68  C   UNL A   1      36.935  29.980  27.618  1.00  0.00     0.001 A 
ATOM     69  C   UNL A   1      36.067  29.771  28.690  1.00  0.00     0.000 A 
ENDBRANCH  50  64
BRANCH  51  70
ATOM     70  C   UNL A   1      48.450  26.733  29.272  1.00  0.00    -0.014 A 
ATOM     71  C   UNL A   1      49.285  26.966  28.169  1.00  0.00     0.009 A 
ATOM     72  C   UNL A   1      48.997  26.166  30.432  1.00  0.00     0.009 A 
ATOM     73  C   UNL A   1      50.636  26.618  28.220  1.00  0.00     0.001 A 
ATOM     74  C   UNL A   1      50.355  25.844  30.489  1.00  0.00     0.001 A 
ATOM     75  C   UNL A   1      51.171  26.064  29.381  1.00  0.00     0.000 A 
ENDBRANCH  51  70
BRANCH  63  76
ATOM     76  C   UNL A   1      44.912  32.443  31.067  1.00  0.00    -0.014 A 
ATOM     77  C   UNL A   1      44.988  32.632  32.456  1.00  0.00     0.009 A 
ATOM     78  C   UNL A   1      45.261  33.504  30.217  1.00  0.00     0.009 A 
ATOM     79  C   UNL A   1      45.365  33.869  32.982  1.00  0.00     0.001 A 
ATOM     80  C   UNL A   1      45.666  34.731  30.745  1.00  0.00     0.001 A 
ATOM     81  C   UNL A   1      45.706  34.917  32.127  1.00  0.00     0.000 A 
ENDBRANCH  63  76
ENDBRANCH  37  38
ENDBRANCH  29  32
ENDBRANCH  27  28
ENDBRANCH  26  27
ENDBRANCH   1  26
TORSDOF 14
ENDMDL
