MODEL 1
REMARK VINA RESULT:     -11.0      0.000      0.000
REMARK SMILES C[C@@H](C(=O)NCCCCNC(=O)c1ccc(-c2c3nc(c(-c4ccccc4)c4ccc([nH]4)c(-c4ccccc4)c4nc(c(-c5ccccc5)c5ccc2[nH]5)C=C4)C=C3)cc1)c1ccc(-c2cccc(OC(=O)NCCC3CCCCC3)c2)c(F)c1
REMARK SMILES IDX 3 1 4 2 5 3 2 5 1 6 61 7 62 8 85 9 63 10 83 11 64 12 84 13
REMARK SMILES IDX 65 14 66 15 82 16 67 17 69 18 68 19 70 20 71 21 72 22 73 23
REMARK SMILES IDX 74 25 75 26 76 27 77 28 81 29 78 30 80 31 79 32 6 33 7 34
REMARK SMILES IDX 8 35 9 36 10 37 11 38 12 40 13 41 14 42 60 43 15 44 59 45
REMARK SMILES IDX 16 46 17 47 18 48 53 49 19 50 58 51 52 52 54 53 20 54 57 55
REMARK SMILES IDX 51 56 50 57 21 59 43 60 28 61 42 62 29 63 32 64 41 65 55 66
REMARK SMILES IDX 30 67 31 68 40 70 56 71 33 72 22 73 23 74 27 75 24 76 26 77
REMARK SMILES IDX 25 78 44 79 45 80 49 81 46 82 48 83 47 84 34 85 35 86 39 87
REMARK SMILES IDX 36 88 38 89 37 90
REMARK H PARENT 5 4 73 24 10 39 54 58 32 69
REMARK Flexibility Score: inf
ROOT
ATOM      1  C   UNL A   1      42.716  21.537  26.492  1.00  0.00     0.227 C 
ATOM      2  O   UNL A   1      42.869  21.156  25.331  1.00  0.00    -0.274 OA
ATOM      3  N   UNL A   1      43.670  22.381  26.982  1.00  0.00    -0.356 N 
ATOM      4  H   UNL A   1      44.324  22.703  26.322  1.00  0.00     0.163 HD
ENDROOT
BRANCH   1   5
ATOM      5  C   UNL A   1      41.512  21.151  27.370  1.00  0.00     0.105 C 
ATOM      6  C   UNL A   1      41.485  19.668  27.750  1.00  0.00     0.023 C 
BRANCH   5   7
ATOM      7  C   UNL A   1      40.181  21.498  26.720  1.00  0.00    -0.033 A 
ATOM      8  C   UNL A   1      39.621  22.778  26.862  1.00  0.00     0.005 A 
ATOM      9  C   UNL A   1      39.510  20.554  25.938  1.00  0.00     0.044 A 
ATOM     10  C   UNL A   1      38.414  23.104  26.244  1.00  0.00     0.012 A 
ATOM     11  C   UNL A   1      38.307  20.890  25.320  1.00  0.00     0.131 A 
ATOM     12  C   UNL A   1      37.733  22.162  25.462  1.00  0.00     0.018 A 
ATOM     13  F   UNL A   1      37.696  19.949  24.582  1.00  0.00    -0.206 F 
BRANCH  12  14
ATOM     14  C   UNL A   1      36.416  22.483  24.902  1.00  0.00    -0.012 A 
ATOM     15  C   UNL A   1      36.271  23.167  23.686  1.00  0.00     0.009 A 
ATOM     16  C   UNL A   1      35.263  22.160  25.633  1.00  0.00     0.056 A 
ATOM     17  C   UNL A   1      35.004  23.523  23.216  1.00  0.00     0.004 A 
ATOM     18  C   UNL A   1      34.004  22.540  25.181  1.00  0.00     0.133 A 
ATOM     19  C   UNL A   1      33.869  23.214  23.967  1.00  0.00     0.047 A 
BRANCH  18  20
ATOM     20  O   UNL A   1      32.804  22.300  25.895  1.00  0.00    -0.410 OA
BRANCH  20  21
ATOM     21  C   UNL A   1      32.493  22.865  27.128  1.00  0.00     0.412 C 
ATOM     22  O   UNL A   1      33.088  22.702  28.188  1.00  0.00    -0.224 OA
ATOM     23  N   UNL A   1      31.418  23.703  27.095  1.00  0.00    -0.321 N 
ATOM     24  H   UNL A   1      31.188  24.144  27.944  1.00  0.00     0.167 HD
BRANCH  23  25
ATOM     25  C   UNL A   1      30.575  24.020  25.965  1.00  0.00     0.119 C 
BRANCH  25  26
ATOM     26  C   UNL A   1      30.925  25.390  25.382  1.00  0.00     0.025 C 
BRANCH  26  27
ATOM     27  C   UNL A   1      31.862  26.241  26.268  1.00  0.00    -0.009 C 
ATOM     28  C   UNL A   1      33.206  26.526  25.576  1.00  0.00     0.003 C 
ATOM     29  C   UNL A   1      31.162  27.552  26.661  1.00  0.00     0.003 C 
ATOM     30  C   UNL A   1      34.100  27.443  26.410  1.00  0.00     0.000 C 
ATOM     31  C   UNL A   1      32.067  28.445  27.506  1.00  0.00     0.000 C 
ATOM     32  C   UNL A   1      33.383  28.734  26.794  1.00  0.00     0.000 C 
ENDBRANCH  26  27
ENDBRANCH  25  26
ENDBRANCH  23  25
ENDBRANCH  20  21
ENDBRANCH  18  20
ENDBRANCH  12  14
ENDBRANCH   5   7
ENDBRANCH   1   5
BRANCH   3  33
ATOM     33  C   UNL A   1      43.861  22.872  28.329  1.00  0.00     0.116 C 
BRANCH  33  34
ATOM     34  C   UNL A   1      45.075  23.800  28.396  1.00  0.00     0.023 C 
BRANCH  34  35
ATOM     35  C   UNL A   1      45.846  23.927  27.080  1.00  0.00     0.023 C 
BRANCH  35  36
ATOM     36  C   UNL A   1      45.649  25.248  26.351  1.00  0.00     0.116 C 
BRANCH  36  37
ATOM     37  N   UNL A   1      44.569  25.192  25.380  1.00  0.00    -0.352 N 
ATOM     38  C   UNL A   1      43.270  25.614  25.507  1.00  0.00     0.251 C 
ATOM     39  H   UNL A   1      44.802  24.797  24.508  1.00  0.00     0.163 HD
ATOM     40  O   UNL A   1      42.450  25.342  24.637  1.00  0.00    -0.269 OA
BRANCH  38  41
ATOM     41  C   UNL A   1      42.857  26.375  26.705  1.00  0.00     0.039 A 
ATOM     42  C   UNL A   1      43.333  27.677  26.868  1.00  0.00     0.014 A 
ATOM     43  C   UNL A   1      42.019  25.807  27.669  1.00  0.00     0.014 A 
ATOM     44  C   UNL A   1      42.944  28.420  27.983  1.00  0.00     0.010 A 
ATOM     45  C   UNL A   1      41.559  26.580  28.730  1.00  0.00     0.010 A 
ATOM     46  C   UNL A   1      42.040  27.883  28.914  1.00  0.00    -0.014 A 
BRANCH  46  47
ATOM     47  C   UNL A   1      41.623  28.663  30.106  1.00  0.00     0.031 A 
ATOM     48  C   UNL A   1      42.411  28.566  31.385  1.00  0.00     0.074 A 
ATOM     49  C   UNL A   1      40.524  29.440  30.047  1.00  0.00     0.049 A 
ATOM     50  N   UNL A   1      42.219  29.185  32.522  1.00  0.00    -0.248 NA
ATOM     51  C   UNL A   1      43.551  27.634  31.397  1.00  0.00     0.031 C 
ATOM     52  C   UNL A   1      39.653  29.589  28.879  1.00  0.00     0.029 A 
ATOM     53  N   UNL A   1      39.959  30.260  30.991  1.00  0.00    -0.354 N 
ATOM     54  C   UNL A   1      43.198  28.703  33.385  1.00  0.00     0.074 A 
ATOM     55  C   UNL A   1      43.943  27.699  32.660  1.00  0.00     0.031 C 
ATOM     56  C   UNL A   1      38.693  30.486  29.162  1.00  0.00     0.029 A 
ATOM     57  C   UNL A   1      38.855  30.941  30.538  1.00  0.00     0.049 A 
ATOM     58  H   UNL A   1      40.311  30.350  31.906  1.00  0.00     0.167 HD
ATOM     59  C   UNL A   1      43.468  29.077  34.657  1.00  0.00     0.031 A 
ATOM     60  C   UNL A   1      38.068  31.837  31.161  1.00  0.00     0.031 A 
ATOM     61  C   UNL A   1      42.731  30.083  35.374  1.00  0.00     0.049 A 
ATOM     62  C   UNL A   1      38.382  32.227  32.580  1.00  0.00     0.074 A 
ATOM     63  C   UNL A   1      42.962  30.580  36.645  1.00  0.00     0.029 A 
ATOM     64  N   UNL A   1      41.612  30.741  34.885  1.00  0.00    -0.354 N 
ATOM     65  N   UNL A   1      39.361  31.823  33.353  1.00  0.00    -0.248 NA
ATOM     66  C   UNL A   1      37.488  33.210  33.204  1.00  0.00     0.031 C 
ATOM     67  C   UNL A   1      41.946  31.491  36.949  1.00  0.00     0.029 A 
ATOM     68  C   UNL A   1      41.125  31.618  35.839  1.00  0.00     0.049 A 
ATOM     69  H   UNL A   1      41.224  30.605  33.991  1.00  0.00     0.167 HD
ATOM     70  C   UNL A   1      39.224  32.533  34.540  1.00  0.00     0.074 A 
ATOM     71  C   UNL A   1      38.077  33.402  34.375  1.00  0.00     0.031 C 
ATOM     72  C   UNL A   1      39.982  32.475  35.662  1.00  0.00     0.031 A 
BRANCH  59  73
ATOM     73  C   UNL A   1      44.602  28.380  35.360  1.00  0.00    -0.014 A 
ATOM     74  C   UNL A   1      45.915  28.875  35.307  1.00  0.00     0.009 A 
ATOM     75  C   UNL A   1      44.347  27.219  36.107  1.00  0.00     0.009 A 
ATOM     76  C   UNL A   1      46.954  28.198  35.951  1.00  0.00     0.001 A 
ATOM     77  C   UNL A   1      45.382  26.564  36.779  1.00  0.00     0.001 A 
ATOM     78  C   UNL A   1      46.686  27.047  36.689  1.00  0.00     0.000 A 
ENDBRANCH  59  73
BRANCH  60  79
ATOM     79  C   UNL A   1      36.926  32.459  30.440  1.00  0.00    -0.014 A 
ATOM     80  C   UNL A   1      35.645  31.887  30.507  1.00  0.00     0.009 A 
ATOM     81  C   UNL A   1      37.111  33.615  29.666  1.00  0.00     0.009 A 
ATOM     82  C   UNL A   1      34.584  32.439  29.787  1.00  0.00     0.001 A 
ATOM     83  C   UNL A   1      36.040  34.184  28.974  1.00  0.00     0.001 A 
ATOM     84  C   UNL A   1      34.781  33.589  29.025  1.00  0.00     0.000 A 
ENDBRANCH  60  79
BRANCH  72  85
ATOM     85  C   UNL A   1      39.626  33.418  36.781  1.00  0.00    -0.014 A 
ATOM     86  C   UNL A   1      38.816  33.016  37.854  1.00  0.00     0.009 A 
ATOM     87  C   UNL A   1      40.134  34.726  36.767  1.00  0.00     0.009 A 
ATOM     88  C   UNL A   1      38.483  33.921  38.864  1.00  0.00     0.001 A 
ATOM     89  C   UNL A   1      39.830  35.617  37.797  1.00  0.00     0.001 A 
ATOM     90  C   UNL A   1      38.993  35.218  38.836  1.00  0.00     0.000 A 
ENDBRANCH  72  85
ENDBRANCH  46  47
ENDBRANCH  38  41
ENDBRANCH  36  37
ENDBRANCH  35  36
ENDBRANCH  34  35
ENDBRANCH  33  34
ENDBRANCH   3  33
TORSDOF 18
ENDMDL
MODEL 2
REMARK VINA RESULT:     -10.9      1.650      2.421
REMARK SMILES C[C@@H](C(=O)NCCCCNC(=O)c1ccc(-c2c3nc(c(-c4ccccc4)c4ccc([nH]4)c(-c4ccccc4)c4nc(c(-c5ccccc5)c5ccc2[nH]5)C=C4)C=C3)cc1)c1ccc(-c2cccc(OC(=O)NCCC3CCCCC3)c2)c(F)c1
REMARK SMILES IDX 3 1 4 2 5 3 2 5 1 6 61 7 62 8 85 9 63 10 83 11 64 12 84 13
REMARK SMILES IDX 65 14 66 15 82 16 67 17 69 18 68 19 70 20 71 21 72 22 73 23
REMARK SMILES IDX 74 25 75 26 76 27 77 28 81 29 78 30 80 31 79 32 6 33 7 34
REMARK SMILES IDX 8 35 9 36 10 37 11 38 12 40 13 41 14 42 60 43 15 44 59 45
REMARK SMILES IDX 16 46 17 47 18 48 53 49 19 50 58 51 52 52 54 53 20 54 57 55
REMARK SMILES IDX 51 56 50 57 21 59 43 60 28 61 42 62 29 63 32 64 41 65 55 66
REMARK SMILES IDX 30 67 31 68 40 70 56 71 33 72 22 73 23 74 27 75 24 76 26 77
REMARK SMILES IDX 25 78 44 79 45 80 49 81 46 82 48 83 47 84 34 85 35 86 39 87
REMARK SMILES IDX 36 88 38 89 37 90
REMARK H PARENT 5 4 73 24 10 39 54 58 32 69
REMARK Flexibility Score: inf
ROOT
ATOM      1  C   UNL A   1      40.787  21.553  27.289  1.00  0.00     0.227 C 
ATOM      2  O   UNL A   1      40.388  21.502  28.453  1.00  0.00    -0.274 OA
ATOM      3  N   UNL A   1      41.673  20.587  26.910  1.00  0.00    -0.356 N 
ATOM      4  H   UNL A   1      41.816  19.869  27.566  1.00  0.00     0.163 HD
ENDROOT
BRANCH   1   5
ATOM      5  C   UNL A   1      40.309  22.598  26.265  1.00  0.00     0.105 C 
ATOM      6  C   UNL A   1      40.655  24.038  26.655  1.00  0.00     0.023 C 
BRANCH   5   7
ATOM      7  C   UNL A   1      38.811  22.523  26.009  1.00  0.00    -0.033 A 
ATOM      8  C   UNL A   1      37.999  23.662  26.140  1.00  0.00     0.005 A 
ATOM      9  C   UNL A   1      38.223  21.321  25.604  1.00  0.00     0.044 A 
ATOM     10  C   UNL A   1      36.631  23.599  25.878  1.00  0.00     0.012 A 
ATOM     11  C   UNL A   1      36.857  21.269  25.341  1.00  0.00     0.131 A 
ATOM     12  C   UNL A   1      36.034  22.397  25.476  1.00  0.00     0.018 A 
ATOM     13  F   UNL A   1      36.335  20.091  24.958  1.00  0.00    -0.206 F 
BRANCH  12  14
ATOM     14  C   UNL A   1      34.579  22.319  25.305  1.00  0.00    -0.012 A 
ATOM     15  C   UNL A   1      33.994  21.866  24.113  1.00  0.00     0.009 A 
ATOM     16  C   UNL A   1      33.741  22.773  26.334  1.00  0.00     0.056 A 
ATOM     17  C   UNL A   1      32.606  21.873  23.954  1.00  0.00     0.004 A 
ATOM     18  C   UNL A   1      32.362  22.808  26.167  1.00  0.00     0.133 A 
ATOM     19  C   UNL A   1      31.788  22.349  24.981  1.00  0.00     0.047 A 
BRANCH  18  20
ATOM     20  O   UNL A   1      31.462  23.308  27.139  1.00  0.00    -0.410 OA
BRANCH  20  21
ATOM     21  C   UNL A   1      30.075  23.298  27.011  1.00  0.00     0.412 C 
ATOM     22  O   UNL A   1      29.315  22.372  27.272  1.00  0.00    -0.224 OA
ATOM     23  N   UNL A   1      29.554  24.477  26.569  1.00  0.00    -0.321 N 
ATOM     24  H   UNL A   1      28.573  24.516  26.495  1.00  0.00     0.167 HD
BRANCH  23  25
ATOM     25  C   UNL A   1      30.267  25.677  26.193  1.00  0.00     0.119 C 
BRANCH  25  26
ATOM     26  C   UNL A   1      30.086  25.985  24.707  1.00  0.00     0.025 C 
BRANCH  26  27
ATOM     27  C   UNL A   1      31.406  26.184  23.930  1.00  0.00    -0.009 C 
ATOM     28  C   UNL A   1      32.639  26.016  24.835  1.00  0.00     0.003 C 
ATOM     29  C   UNL A   1      31.466  25.211  22.741  1.00  0.00     0.003 C 
ATOM     30  C   UNL A   1      33.947  26.122  24.052  1.00  0.00     0.000 C 
ATOM     31  C   UNL A   1      32.774  25.345  21.965  1.00  0.00     0.000 C 
ATOM     32  C   UNL A   1      33.981  25.154  22.875  1.00  0.00     0.000 C 
ENDBRANCH  26  27
ENDBRANCH  25  26
ENDBRANCH  23  25
ENDBRANCH  20  21
ENDBRANCH  18  20
ENDBRANCH  12  14
ENDBRANCH   5   7
ENDBRANCH   1   5
BRANCH   3  33
ATOM     33  C   UNL A   1      42.433  20.465  25.685  1.00  0.00     0.116 C 
BRANCH  33  34
ATOM     34  C   UNL A   1      43.678  21.351  25.735  1.00  0.00     0.023 C 
BRANCH  34  35
ATOM     35  C   UNL A   1      43.873  22.237  24.502  1.00  0.00     0.023 C 
BRANCH  35  36
ATOM     36  C   UNL A   1      43.861  23.732  24.783  1.00  0.00     0.116 C 
BRANCH  36  37
ATOM     37  N   UNL A   1      45.159  24.349  24.568  1.00  0.00    -0.352 N 
ATOM     38  C   UNL A   1      45.694  25.464  25.162  1.00  0.00     0.251 C 
ATOM     39  H   UNL A   1      45.735  23.906  23.904  1.00  0.00     0.163 HD
ATOM     40  O   UNL A   1      46.745  25.937  24.742  1.00  0.00    -0.269 OA
BRANCH  38  41
ATOM     41  C   UNL A   1      44.991  26.106  26.293  1.00  0.00     0.039 A 
ATOM     42  C   UNL A   1      44.956  27.499  26.355  1.00  0.00     0.014 A 
ATOM     43  C   UNL A   1      44.384  25.342  27.294  1.00  0.00     0.014 A 
ATOM     44  C   UNL A   1      44.285  28.127  27.405  1.00  0.00     0.010 A 
ATOM     45  C   UNL A   1      43.638  25.967  28.287  1.00  0.00     0.010 A 
ATOM     46  C   UNL A   1      43.605  27.366  28.370  1.00  0.00    -0.014 A 
BRANCH  46  47
ATOM     47  C   UNL A   1      42.893  28.023  29.493  1.00  0.00     0.031 A 
ATOM     48  C   UNL A   1      43.553  28.139  30.842  1.00  0.00     0.074 A 
ATOM     49  C   UNL A   1      41.644  28.495  29.310  1.00  0.00     0.049 A 
ATOM     50  N   UNL A   1      43.102  28.697  31.937  1.00  0.00    -0.248 NA
ATOM     51  C   UNL A   1      44.884  27.527  30.988  1.00  0.00     0.031 C 
ATOM     52  C   UNL A   1      40.880  28.410  28.063  1.00  0.00     0.029 A 
ATOM     53  N   UNL A   1      40.803  29.151  30.172  1.00  0.00    -0.354 N 
ATOM     54  C   UNL A   1      44.082  28.486  32.900  1.00  0.00     0.074 A 
ATOM     55  C   UNL A   1      45.123  27.699  32.279  1.00  0.00     0.031 C 
ATOM     56  C   UNL A   1      39.703  29.035  28.228  1.00  0.00     0.029 A 
ATOM     57  C   UNL A   1      39.612  29.526  29.598  1.00  0.00     0.049 A 
ATOM     58  H   UNL A   1      41.030  29.335  31.111  1.00  0.00     0.167 HD
ATOM     59  C   UNL A   1      44.126  28.926  34.179  1.00  0.00     0.031 A 
ATOM     60  C   UNL A   1      38.568  30.198  30.118  1.00  0.00     0.031 A 
ATOM     61  C   UNL A   1      43.093  29.717  34.793  1.00  0.00     0.049 A 
ATOM     62  C   UNL A   1      38.635  30.665  31.547  1.00  0.00     0.074 A 
ATOM     63  C   UNL A   1      43.068  30.266  36.064  1.00  0.00     0.029 A 
ATOM     64  N   UNL A   1      41.898  30.065  34.183  1.00  0.00    -0.354 N 
ATOM     65  N   UNL A   1      39.605  30.529  32.418  1.00  0.00    -0.248 NA
ATOM     66  C   UNL A   1      37.466  31.394  32.055  1.00  0.00     0.031 C 
ATOM     67  C   UNL A   1      41.830  30.891  36.245  1.00  0.00     0.029 A 
ATOM     68  C   UNL A   1      41.115  30.797  35.061  1.00  0.00     0.049 A 
ATOM     69  H   UNL A   1      41.644  29.828  33.262  1.00  0.00     0.167 HD
ATOM     70  C   UNL A   1      39.179  31.190  33.565  1.00  0.00     0.074 A 
ATOM     71  C   UNL A   1      37.872  31.738  33.268  1.00  0.00     0.031 C 
ATOM     72  C   UNL A   1      39.816  31.335  34.753  1.00  0.00     0.031 A 
BRANCH  59  73
ATOM     73  C   UNL A   1      45.325  28.544  35.004  1.00  0.00    -0.014 A 
ATOM     74  C   UNL A   1      46.334  29.473  35.308  1.00  0.00     0.009 A 
ATOM     75  C   UNL A   1      45.436  27.238  35.507  1.00  0.00     0.009 A 
ATOM     76  C   UNL A   1      47.448  29.089  36.058  1.00  0.00     0.001 A 
ATOM     77  C   UNL A   1      46.533  26.867  36.286  1.00  0.00     0.001 A 
ATOM     78  C   UNL A   1      47.544  27.789  36.550  1.00  0.00     0.000 A 
ENDBRANCH  59  73
BRANCH  60  79
ATOM     79  C   UNL A   1      37.381  30.504  29.276  1.00  0.00    -0.014 A 
ATOM     80  C   UNL A   1      36.545  29.472  28.821  1.00  0.00     0.009 A 
ATOM     81  C   UNL A   1      37.086  31.825  28.906  1.00  0.00     0.009 A 
ATOM     82  C   UNL A   1      35.462  29.752  27.987  1.00  0.00     0.001 A 
ATOM     83  C   UNL A   1      35.982  32.106  28.098  1.00  0.00     0.001 A 
ATOM     84  C   UNL A   1      35.178  31.069  27.630  1.00  0.00     0.000 A 
ENDBRANCH  60  79
BRANCH  72  85
ATOM     85  C   UNL A   1      39.127  32.164  35.804  1.00  0.00    -0.014 A 
ATOM     86  C   UNL A   1      39.296  33.556  35.873  1.00  0.00     0.009 A 
ATOM     87  C   UNL A   1      38.274  31.537  36.725  1.00  0.00     0.009 A 
ATOM     88  C   UNL A   1      38.663  34.295  36.875  1.00  0.00     0.001 A 
ATOM     89  C   UNL A   1      37.613  32.284  37.702  1.00  0.00     0.001 A 
ATOM     90  C   UNL A   1      37.819  33.658  37.785  1.00  0.00     0.000 A 
ENDBRANCH  72  85
ENDBRANCH  46  47
ENDBRANCH  38  41
ENDBRANCH  36  37
ENDBRANCH  35  36
ENDBRANCH  34  35
ENDBRANCH  33  34
ENDBRANCH   3  33
TORSDOF 18
ENDMDL
MODEL 3
REMARK VINA RESULT:     -10.8      4.943      7.382
REMARK SMILES C[C@@H](C(=O)NCCCCNC(=O)c1ccc(-c2c3nc(c(-c4ccccc4)c4ccc([nH]4)c(-c4ccccc4)c4nc(c(-c5ccccc5)c5ccc2[nH]5)C=C4)C=C3)cc1)c1ccc(-c2cccc(OC(=O)NCCC3CCCCC3)c2)c(F)c1
REMARK SMILES IDX 3 1 4 2 5 3 2 5 1 6 61 7 62 8 85 9 63 10 83 11 64 12 84 13
REMARK SMILES IDX 65 14 66 15 82 16 67 17 69 18 68 19 70 20 71 21 72 22 73 23
REMARK SMILES IDX 74 25 75 26 76 27 77 28 81 29 78 30 80 31 79 32 6 33 7 34
REMARK SMILES IDX 8 35 9 36 10 37 11 38 12 40 13 41 14 42 60 43 15 44 59 45
REMARK SMILES IDX 16 46 17 47 18 48 53 49 19 50 58 51 52 52 54 53 20 54 57 55
REMARK SMILES IDX 51 56 50 57 21 59 43 60 28 61 42 62 29 63 32 64 41 65 55 66
REMARK SMILES IDX 30 67 31 68 40 70 56 71 33 72 22 73 23 74 27 75 24 76 26 77
REMARK SMILES IDX 25 78 44 79 45 80 49 81 46 82 48 83 47 84 34 85 35 86 39 87
REMARK SMILES IDX 36 88 38 89 37 90
REMARK H PARENT 5 4 73 24 10 39 54 58 32 69
REMARK Flexibility Score: inf
ROOT
ATOM      1  C   UNL A   1      39.342  22.737  26.422  1.00  0.00     0.227 C 
ATOM      2  O   UNL A   1      39.369  23.960  26.281  1.00  0.00    -0.274 OA
ATOM      3  N   UNL A   1      40.417  22.176  27.048  1.00  0.00    -0.356 N 
ATOM      4  H   UNL A   1      41.056  22.815  27.437  1.00  0.00     0.163 HD
ENDROOT
BRANCH   1   5
ATOM      5  C   UNL A   1      38.166  21.849  25.978  1.00  0.00     0.105 C 
ATOM      6  C   UNL A   1      38.590  20.671  25.095  1.00  0.00     0.023 C 
BRANCH   5   7
ATOM      7  C   UNL A   1      37.089  22.630  25.241  1.00  0.00    -0.033 A 
ATOM      8  C   UNL A   1      36.841  22.406  23.877  1.00  0.00     0.005 A 
ATOM      9  C   UNL A   1      36.302  23.564  25.923  1.00  0.00     0.044 A 
ATOM     10  C   UNL A   1      35.835  23.103  23.208  1.00  0.00     0.012 A 
ATOM     11  C   UNL A   1      35.297  24.252  25.248  1.00  0.00     0.131 A 
ATOM     12  C   UNL A   1      35.045  24.043  23.883  1.00  0.00     0.018 A 
ATOM     13  F   UNL A   1      34.570  25.142  25.942  1.00  0.00    -0.206 F 
BRANCH  12  14
ATOM     14  C   UNL A   1      34.061  24.842  23.147  1.00  0.00    -0.012 A 
ATOM     15  C   UNL A   1      33.492  24.399  21.943  1.00  0.00     0.009 A 
ATOM     16  C   UNL A   1      33.724  26.120  23.618  1.00  0.00     0.056 A 
ATOM     17  C   UNL A   1      32.614  25.217  21.228  1.00  0.00     0.004 A 
ATOM     18  C   UNL A   1      32.873  26.946  22.893  1.00  0.00     0.133 A 
ATOM     19  C   UNL A   1      32.307  26.494  21.700  1.00  0.00     0.047 A 
BRANCH  18  20
ATOM     20  O   UNL A   1      32.538  28.267  23.278  1.00  0.00    -0.410 OA
BRANCH  20  21
ATOM     21  C   UNL A   1      32.502  28.720  24.594  1.00  0.00     0.412 C 
ATOM     22  O   UNL A   1      33.213  29.583  25.098  1.00  0.00    -0.224 OA
ATOM     23  N   UNL A   1      31.537  28.130  25.354  1.00  0.00    -0.321 N 
ATOM     24  H   UNL A   1      31.463  28.449  26.283  1.00  0.00     0.167 HD
BRANCH  23  25
ATOM     25  C   UNL A   1      30.611  27.091  24.964  1.00  0.00     0.119 C 
BRANCH  25  26
ATOM     26  C   UNL A   1      30.258  26.192  26.148  1.00  0.00     0.025 C 
BRANCH  26  27
ATOM     27  C   UNL A   1      30.477  24.684  25.894  1.00  0.00    -0.009 C 
ATOM     28  C   UNL A   1      30.656  24.372  24.398  1.00  0.00     0.003 C 
ATOM     29  C   UNL A   1      31.685  24.186  26.703  1.00  0.00     0.003 C 
ATOM     30  C   UNL A   1      30.964  22.895  24.151  1.00  0.00     0.000 C 
ATOM     31  C   UNL A   1      31.964  22.707  26.453  1.00  0.00     0.000 C 
ATOM     32  C   UNL A   1      32.161  22.422  24.968  1.00  0.00     0.000 C 
ENDBRANCH  26  27
ENDBRANCH  25  26
ENDBRANCH  23  25
ENDBRANCH  20  21
ENDBRANCH  18  20
ENDBRANCH  12  14
ENDBRANCH   5   7
ENDBRANCH   1   5
BRANCH   3  33
ATOM     33  C   UNL A   1      40.756  20.781  27.223  1.00  0.00     0.116 C 
BRANCH  33  34
ATOM     34  C   UNL A   1      42.175  20.506  26.724  1.00  0.00     0.023 C 
BRANCH  34  35
ATOM     35  C   UNL A   1      42.374  19.114  26.119  1.00  0.00     0.023 C 
BRANCH  35  36
ATOM     36  C   UNL A   1      43.824  18.668  26.009  1.00  0.00     0.116 C 
BRANCH  36  37
ATOM     37  N   UNL A   1      44.292  18.632  24.633  1.00  0.00    -0.352 N 
ATOM     38  C   UNL A   1      44.707  19.667  23.835  1.00  0.00     0.251 C 
ATOM     39  H   UNL A   1      44.313  17.740  24.216  1.00  0.00     0.163 HD
ATOM     40  O   UNL A   1      44.918  19.473  22.642  1.00  0.00    -0.269 OA
BRANCH  38  41
ATOM     41  C   UNL A   1      44.879  21.018  24.409  1.00  0.00     0.039 A 
ATOM     42  C   UNL A   1      44.335  22.108  23.729  1.00  0.00     0.014 A 
ATOM     43  C   UNL A   1      45.582  21.212  25.601  1.00  0.00     0.014 A 
ATOM     44  C   UNL A   1      44.472  23.391  24.260  1.00  0.00     0.010 A 
ATOM     45  C   UNL A   1      45.637  22.478  26.175  1.00  0.00     0.010 A 
ATOM     46  C   UNL A   1      45.108  23.584  25.497  1.00  0.00    -0.014 A 
BRANCH  46  47
ATOM     47  C   UNL A   1      45.262  24.945  26.069  1.00  0.00     0.031 A 
ATOM     48  C   UNL A   1      46.600  25.635  26.025  1.00  0.00     0.074 A 
ATOM     49  C   UNL A   1      44.208  25.551  26.648  1.00  0.00     0.049 A 
ATOM     50  N   UNL A   1      46.927  26.829  26.450  1.00  0.00    -0.248 NA
ATOM     51  C   UNL A   1      47.723  24.877  25.450  1.00  0.00     0.031 C 
ATOM     52  C   UNL A   1      42.869  24.973  26.789  1.00  0.00     0.029 A 
ATOM     53  N   UNL A   1      44.096  26.795  27.217  1.00  0.00    -0.354 N 
ATOM     54  C   UNL A   1      48.291  26.954  26.212  1.00  0.00     0.074 A 
ATOM     55  C   UNL A   1      48.742  25.696  25.662  1.00  0.00     0.031 C 
ATOM     56  C   UNL A   1      42.059  25.880  27.360  1.00  0.00     0.029 A 
ATOM     57  C   UNL A   1      42.828  27.083  27.662  1.00  0.00     0.049 A 
ATOM     58  H   UNL A   1      44.851  27.420  27.298  1.00  0.00     0.167 HD
ATOM     59  C   UNL A   1      49.094  28.026  26.411  1.00  0.00     0.031 A 
ATOM     60  C   UNL A   1      42.340  28.195  28.242  1.00  0.00     0.031 A 
ATOM     61  C   UNL A   1      48.642  29.280  26.950  1.00  0.00     0.049 A 
ATOM     62  C   UNL A   1      43.256  29.368  28.465  1.00  0.00     0.074 A 
ATOM     63  C   UNL A   1      49.361  30.449  27.135  1.00  0.00     0.029 A 
ATOM     64  N   UNL A   1      47.354  29.528  27.401  1.00  0.00    -0.354 N 
ATOM     65  N   UNL A   1      44.524  29.499  28.158  1.00  0.00    -0.248 NA
ATOM     66  C   UNL A   1      42.663  30.552  29.099  1.00  0.00     0.031 C 
ATOM     67  C   UNL A   1      48.526  31.382  27.756  1.00  0.00     0.029 A 
ATOM     68  C   UNL A   1      47.265  30.821  27.890  1.00  0.00     0.049 A 
ATOM     69  H   UNL A   1      46.613  28.880  27.376  1.00  0.00     0.167 HD
ATOM     70  C   UNL A   1      44.870  30.793  28.525  1.00  0.00     0.074 A 
ATOM     71  C   UNL A   1      43.674  31.409  29.062  1.00  0.00     0.031 C 
ATOM     72  C   UNL A   1      46.069  31.419  28.422  1.00  0.00     0.031 A 
BRANCH  59  73
ATOM     73  C   UNL A   1      50.549  27.878  26.057  1.00  0.00    -0.014 A 
ATOM     74  C   UNL A   1      51.030  28.194  24.777  1.00  0.00     0.009 A 
ATOM     75  C   UNL A   1      51.460  27.436  27.030  1.00  0.00     0.009 A 
ATOM     76  C   UNL A   1      52.382  28.030  24.466  1.00  0.00     0.001 A 
ATOM     77  C   UNL A   1      52.817  27.306  26.728  1.00  0.00     0.001 A 
ATOM     78  C   UNL A   1      53.274  27.590  25.442  1.00  0.00     0.000 A 
ENDBRANCH  59  73
BRANCH  60  79
ATOM     79  C   UNL A   1      40.905  28.272  28.623  1.00  0.00    -0.014 A 
ATOM     80  C   UNL A   1      39.967  28.856  27.756  1.00  0.00     0.009 A 
ATOM     81  C   UNL A   1      40.465  27.780  29.862  1.00  0.00     0.009 A 
ATOM     82  C   UNL A   1      38.629  28.977  28.136  1.00  0.00     0.001 A 
ATOM     83  C   UNL A   1      39.119  27.872  30.225  1.00  0.00     0.001 A 
ATOM     84  C   UNL A   1      38.206  28.481  29.367  1.00  0.00     0.000 A 
ENDBRANCH  60  79
BRANCH  72  85
ATOM     85  C   UNL A   1      46.130  32.860  28.852  1.00  0.00    -0.014 A 
ATOM     86  C   UNL A   1      46.471  33.225  30.163  1.00  0.00     0.009 A 
ATOM     87  C   UNL A   1      45.864  33.870  27.913  1.00  0.00     0.009 A 
ATOM     88  C   UNL A   1      46.496  34.571  30.537  1.00  0.00     0.001 A 
ATOM     89  C   UNL A   1      45.926  35.215  28.281  1.00  0.00     0.001 A 
ATOM     90  C   UNL A   1      46.227  35.563  29.595  1.00  0.00     0.000 A 
ENDBRANCH  72  85
ENDBRANCH  46  47
ENDBRANCH  38  41
ENDBRANCH  36  37
ENDBRANCH  35  36
ENDBRANCH  34  35
ENDBRANCH  33  34
ENDBRANCH   3  33
TORSDOF 18
ENDMDL
