MODEL 1
REMARK VINA RESULT:     -11.5      0.000      0.000
REMARK SMILES CC[C@@H]1CCC[C@@H]([NH+]2CC(n3cc(C(=O)NCCCCNC(=O)c4ccc(-c5c6nc(c(-c7ccccc7)c7ccc([nH]7)c(-c7ccccc7)c7nc(c(-c8ccccc8)c8ccc5[nH]8)C=C7)C=C6)cc4)nn3)C2)C1
REMARK SMILES IDX 18 1 17 2 16 3 14 4 15 5 13 7 11 8 12 9 73 10 72 11 10 12
REMARK SMILES IDX 8 13 9 14 74 15 7 17 3 18 4 19 75 20 5 21 6 22 2 23 1 24
REMARK SMILES IDX 19 25 20 26 21 27 22 28 23 30 24 31 25 32 71 33 26 34 70 35
REMARK SMILES IDX 27 36 28 37 29 38 64 39 30 40 69 41 63 42 65 43 31 44 68 45
REMARK SMILES IDX 62 46 61 47 32 49 54 50 39 51 53 52 40 53 43 54 52 55 66 56
REMARK SMILES IDX 41 57 42 58 51 60 67 61 44 62 33 63 34 64 38 65 35 66 37 67
REMARK SMILES IDX 36 68 55 69 56 70 60 71 57 72 59 73 58 74 45 75 46 76 50 77
REMARK SMILES IDX 47 78 49 79 48 80
REMARK H PARENT 16 6 8 16 21 29 65 48 43 59
REMARK Flexibility Score: inf
ROOT
ATOM      1  C   UNL A   1      32.603  30.834  26.869  1.00  0.00     0.023 C 
ENDROOT
BRANCH   1   2
ATOM      2  C   UNL A   1      32.196  29.918  25.709  1.00  0.00     0.116 C 
BRANCH   2   3
ATOM      3  N   UNL A   1      31.031  30.422  25.002  1.00  0.00    -0.351 N 
ATOM      4  C   UNL A   1      30.253  29.898  23.990  1.00  0.00     0.273 C 
ATOM      5  O   UNL A   1      29.263  30.554  23.663  1.00  0.00    -0.267 OA
ATOM      6  H   UNL A   1      30.740  31.312  25.304  1.00  0.00     0.163 HD
BRANCH   4   7
ATOM      7  C   UNL A   1      30.586  28.631  23.351  1.00  0.00     0.170 A 
ATOM      8  N   UNL A   1      31.269  26.625  22.853  1.00  0.00    -0.237 N 
ATOM      9  C   UNL A   1      31.191  27.519  23.880  1.00  0.00     0.145 A 
ATOM     10  N   UNL A   1      30.817  27.162  21.714  1.00  0.00    -0.066 NA
ATOM     11  N   UNL A   1      30.387  28.390  22.002  1.00  0.00    -0.125 NA
BRANCH   8  12
ATOM     12  C   UNL A   1      32.142  25.520  22.981  1.00  0.00     0.218 C 
ATOM     13  N   UNL A   1      33.792  24.659  23.949  1.00  0.00    -0.329 N 
ATOM     14  C   UNL A   1      32.387  24.929  24.362  1.00  0.00     0.296 C 
ATOM     15  C   UNL A   1      33.651  25.809  22.994  1.00  0.00     0.296 C 
ATOM     16  H   UNL A   1      34.526  24.590  24.656  1.00  0.00     0.348 HD
BRANCH  13  17
ATOM     17  C   UNL A   1      34.092  23.360  23.279  1.00  0.00     0.184 C 
ATOM     18  C   UNL A   1      35.879  22.200  24.763  1.00  0.00    -0.006 C 
ATOM     19  C   UNL A   1      34.940  21.002  24.973  1.00  0.00     0.004 C 
ATOM     20  C   UNL A   1      35.578  22.947  23.448  1.00  0.00     0.068 C 
ATOM     21  C   UNL A   1      33.471  21.341  24.776  1.00  0.00     0.006 C 
ATOM     22  C   UNL A   1      33.227  22.091  23.466  1.00  0.00     0.065 C 
BRANCH  18  23
ATOM     23  C   UNL A   1      37.360  21.807  24.904  1.00  0.00     0.000 C 
ATOM     24  C   UNL A   1      37.643  20.316  24.996  1.00  0.00     0.004 C 
ENDBRANCH  18  23
ENDBRANCH  13  17
ENDBRANCH   8  12
ENDBRANCH   4   7
ENDBRANCH   2   3
ENDBRANCH   1   2
BRANCH   1  25
ATOM     25  C   UNL A   1      33.952  30.480  27.514  1.00  0.00     0.023 C 
BRANCH  25  26
ATOM     26  C   UNL A   1      34.930  31.647  27.624  1.00  0.00     0.116 C 
BRANCH  26  27
ATOM     27  N   UNL A   1      34.953  32.257  28.953  1.00  0.00    -0.352 N 
ATOM     28  C   UNL A   1      35.640  31.816  30.073  1.00  0.00     0.251 C 
ATOM     29  H   UNL A   1      34.418  33.075  29.065  1.00  0.00     0.163 HD
ATOM     30  O   UNL A   1      35.290  32.130  31.197  1.00  0.00    -0.269 OA
BRANCH  28  31
ATOM     31  C   UNL A   1      36.832  30.974  29.869  1.00  0.00     0.039 A 
ATOM     32  C   UNL A   1      38.096  31.527  29.647  1.00  0.00     0.014 A 
ATOM     33  C   UNL A   1      36.656  29.595  29.943  1.00  0.00     0.014 A 
ATOM     34  C   UNL A   1      39.197  30.674  29.584  1.00  0.00     0.010 A 
ATOM     35  C   UNL A   1      37.750  28.776  30.032  1.00  0.00     0.010 A 
ATOM     36  C   UNL A   1      39.016  29.298  29.799  1.00  0.00    -0.014 A 
BRANCH  36  37
ATOM     37  C   UNL A   1      40.158  28.396  29.934  1.00  0.00     0.031 A 
ATOM     38  C   UNL A   1      40.673  28.279  31.326  1.00  0.00     0.074 A 
ATOM     39  C   UNL A   1      40.549  27.562  28.943  1.00  0.00     0.049 A 
ATOM     40  N   UNL A   1      41.816  28.673  31.777  1.00  0.00    -0.248 NA
ATOM     41  C   UNL A   1      39.754  27.800  32.375  1.00  0.00     0.031 C 
ATOM     42  C   UNL A   1      39.921  27.368  27.628  1.00  0.00     0.029 A 
ATOM     43  N   UNL A   1      41.524  26.612  28.944  1.00  0.00    -0.354 N 
ATOM     44  C   UNL A   1      41.852  28.291  33.115  1.00  0.00     0.074 A 
ATOM     45  C   UNL A   1      40.501  27.944  33.471  1.00  0.00     0.031 C 
ATOM     46  C   UNL A   1      40.364  26.217  27.075  1.00  0.00     0.029 A 
ATOM     47  C   UNL A   1      41.434  25.694  27.901  1.00  0.00     0.049 A 
ATOM     48  H   UNL A   1      42.234  26.577  29.625  1.00  0.00     0.167 HD
ATOM     49  C   UNL A   1      43.036  28.011  33.730  1.00  0.00     0.031 A 
ATOM     50  C   UNL A   1      42.181  24.575  27.727  1.00  0.00     0.031 A 
ATOM     51  C   UNL A   1      44.151  28.496  32.955  1.00  0.00     0.049 A 
ATOM     52  C   UNL A   1      43.401  24.738  28.544  1.00  0.00     0.074 A 
ATOM     53  C   UNL A   1      44.601  29.729  32.532  1.00  0.00     0.029 A 
ATOM     54  N   UNL A   1      44.766  27.563  32.157  1.00  0.00    -0.354 N 
ATOM     55  N   UNL A   1      44.311  25.633  28.294  1.00  0.00    -0.248 NA
ATOM     56  C   UNL A   1      43.405  24.197  29.890  1.00  0.00     0.031 C 
ATOM     57  C   UNL A   1      45.134  29.501  31.228  1.00  0.00     0.029 A 
ATOM     58  C   UNL A   1      45.056  28.134  30.949  1.00  0.00     0.049 A 
ATOM     59  H   UNL A   1      44.967  26.634  32.414  1.00  0.00     0.167 HD
ATOM     60  C   UNL A   1      44.688  26.101  29.543  1.00  0.00     0.074 A 
ATOM     61  C   UNL A   1      44.204  25.090  30.482  1.00  0.00     0.031 C 
ATOM     62  C   UNL A   1      45.093  27.395  29.706  1.00  0.00     0.031 A 
BRANCH  49  63
ATOM     63  C   UNL A   1      43.213  26.880  34.726  1.00  0.00    -0.014 A 
ATOM     64  C   UNL A   1      43.745  27.187  35.994  1.00  0.00     0.009 A 
ATOM     65  C   UNL A   1      43.181  25.518  34.375  1.00  0.00     0.009 A 
ATOM     66  C   UNL A   1      44.307  26.198  36.812  1.00  0.00     0.001 A 
ATOM     67  C   UNL A   1      43.705  24.522  35.206  1.00  0.00     0.001 A 
ATOM     68  C   UNL A   1      44.299  24.867  36.410  1.00  0.00     0.000 A 
ENDBRANCH  49  63
BRANCH  50  69
ATOM     69  C   UNL A   1      41.833  23.280  27.104  1.00  0.00    -0.014 A 
ATOM     70  C   UNL A   1      42.800  22.521  26.423  1.00  0.00     0.009 A 
ATOM     71  C   UNL A   1      40.621  22.648  27.437  1.00  0.00     0.009 A 
ATOM     72  C   UNL A   1      42.578  21.168  26.126  1.00  0.00     0.001 A 
ATOM     73  C   UNL A   1      40.402  21.297  27.142  1.00  0.00     0.001 A 
ATOM     74  C   UNL A   1      41.386  20.553  26.501  1.00  0.00     0.000 A 
ENDBRANCH  50  69
BRANCH  62  75
ATOM     75  C   UNL A   1      45.398  28.192  28.459  1.00  0.00    -0.014 A 
ATOM     76  C   UNL A   1      44.474  29.050  27.836  1.00  0.00     0.009 A 
ATOM     77  C   UNL A   1      46.716  28.174  27.980  1.00  0.00     0.009 A 
ATOM     78  C   UNL A   1      44.857  29.845  26.749  1.00  0.00     0.001 A 
ATOM     79  C   UNL A   1      47.103  28.983  26.911  1.00  0.00     0.001 A 
ATOM     80  C   UNL A   1      46.173  29.814  26.291  1.00  0.00     0.000 A 
ENDBRANCH  62  75
ENDBRANCH  36  37
ENDBRANCH  28  31
ENDBRANCH  26  27
ENDBRANCH  25  26
ENDBRANCH   1  25
TORSDOF 14
ENDMDL
MODEL 2
REMARK VINA RESULT:     -11.4      1.984      6.079
REMARK SMILES CC[C@@H]1CCC[C@@H]([NH+]2CC(n3cc(C(=O)NCCCCNC(=O)c4ccc(-c5c6nc(c(-c7ccccc7)c7ccc([nH]7)c(-c7ccccc7)c7nc(c(-c8ccccc8)c8ccc5[nH]8)C=C7)C=C6)cc4)nn3)C2)C1
REMARK SMILES IDX 18 1 17 2 16 3 14 4 15 5 13 7 11 8 12 9 73 10 72 11 10 12
REMARK SMILES IDX 8 13 9 14 74 15 7 17 3 18 4 19 75 20 5 21 6 22 2 23 1 24
REMARK SMILES IDX 19 25 20 26 21 27 22 28 23 30 24 31 25 32 71 33 26 34 70 35
REMARK SMILES IDX 27 36 28 37 29 38 64 39 30 40 69 41 63 42 65 43 31 44 68 45
REMARK SMILES IDX 62 46 61 47 32 49 54 50 39 51 53 52 40 53 43 54 52 55 66 56
REMARK SMILES IDX 41 57 42 58 51 60 67 61 44 62 33 63 34 64 38 65 35 66 37 67
REMARK SMILES IDX 36 68 55 69 56 70 60 71 57 72 59 73 58 74 45 75 46 76 50 77
REMARK SMILES IDX 47 78 49 79 48 80
REMARK H PARENT 16 6 8 16 21 29 65 48 43 59
REMARK Flexibility Score: inf
ROOT
ATOM      1  C   UNL A   1      32.530  29.165  26.700  1.00  0.00     0.023 C 
ENDROOT
BRANCH   1   2
ATOM      2  C   UNL A   1      32.741  29.714  25.285  1.00  0.00     0.116 C 
BRANCH   2   3
ATOM      3  N   UNL A   1      31.486  30.083  24.653  1.00  0.00    -0.351 N 
ATOM      4  C   UNL A   1      30.584  29.378  23.882  1.00  0.00     0.273 C 
ATOM      5  O   UNL A   1      29.552  29.970  23.565  1.00  0.00    -0.267 OA
ATOM      6  H   UNL A   1      31.228  31.020  24.804  1.00  0.00     0.163 HD
BRANCH   4   7
ATOM      7  C   UNL A   1      30.843  28.002  23.476  1.00  0.00     0.170 A 
ATOM      8  N   UNL A   1      31.211  25.859  23.365  1.00  0.00    -0.237 N 
ATOM      9  C   UNL A   1      30.965  26.873  24.245  1.00  0.00     0.145 A 
ATOM     10  N   UNL A   1      31.323  26.325  22.116  1.00  0.00    -0.066 NA
ATOM     11  N   UNL A   1      31.093  27.636  22.164  1.00  0.00    -0.125 NA
BRANCH   8  12
ATOM     12  C   UNL A   1      31.720  24.638  23.864  1.00  0.00     0.218 C 
ATOM     13  N   UNL A   1      32.302  22.660  23.472  1.00  0.00    -0.329 N 
ATOM     14  C   UNL A   1      32.900  23.987  23.158  1.00  0.00     0.296 C 
ATOM     15  C   UNL A   1      30.968  23.352  23.484  1.00  0.00     0.296 C 
ATOM     16  H   UNL A   1      32.521  21.853  22.886  1.00  0.00     0.348 HD
BRANCH  13  17
ATOM     17  C   UNL A   1      32.654  22.018  24.771  1.00  0.00     0.184 C 
ATOM     18  C   UNL A   1      33.016  19.504  24.237  1.00  0.00    -0.006 C 
ATOM     19  C   UNL A   1      34.458  19.590  24.761  1.00  0.00     0.004 C 
ATOM     20  C   UNL A   1      32.104  20.571  24.873  1.00  0.00     0.068 C 
ATOM     21  C   UNL A   1      35.033  20.998  24.725  1.00  0.00     0.006 C 
ATOM     22  C   UNL A   1      34.087  22.019  25.356  1.00  0.00     0.065 C 
BRANCH  18  23
ATOM     23  C   UNL A   1      32.443  18.080  24.350  1.00  0.00     0.000 C 
ATOM     24  C   UNL A   1      32.823  17.312  25.605  1.00  0.00     0.004 C 
ENDBRANCH  18  23
ENDBRANCH  13  17
ENDBRANCH   8  12
ENDBRANCH   4   7
ENDBRANCH   2   3
ENDBRANCH   1   2
BRANCH   1  25
ATOM     25  C   UNL A   1      33.710  28.346  27.246  1.00  0.00     0.023 C 
BRANCH  25  26
ATOM     26  C   UNL A   1      35.048  29.081  27.250  1.00  0.00     0.116 C 
BRANCH  26  27
ATOM     27  N   UNL A   1      35.215  29.967  28.402  1.00  0.00    -0.352 N 
ATOM     28  C   UNL A   1      36.221  29.933  29.355  1.00  0.00     0.251 C 
ATOM     29  H   UNL A   1      34.534  30.669  28.513  1.00  0.00     0.163 HD
ATOM     30  O   UNL A   1      36.063  30.417  30.461  1.00  0.00    -0.269 OA
BRANCH  28  31
ATOM     31  C   UNL A   1      37.507  29.316  28.984  1.00  0.00     0.039 A 
ATOM     32  C   UNL A   1      38.207  29.704  27.838  1.00  0.00     0.014 A 
ATOM     33  C   UNL A   1      38.020  28.351  29.846  1.00  0.00     0.014 A 
ATOM     34  C   UNL A   1      39.474  29.167  27.616  1.00  0.00     0.010 A 
ATOM     35  C   UNL A   1      39.320  27.941  29.707  1.00  0.00     0.010 A 
ATOM     36  C   UNL A   1      40.032  28.299  28.568  1.00  0.00    -0.014 A 
BRANCH  36  37
ATOM     37  C   UNL A   1      41.424  27.865  28.474  1.00  0.00     0.031 A 
ATOM     38  C   UNL A   1      41.610  26.595  27.720  1.00  0.00     0.074 A 
ATOM     39  C   UNL A   1      42.461  28.663  28.819  1.00  0.00     0.049 A 
ATOM     40  N   UNL A   1      42.014  25.458  28.182  1.00  0.00    -0.248 NA
ATOM     41  C   UNL A   1      41.156  26.538  26.319  1.00  0.00     0.031 C 
ATOM     42  C   UNL A   1      42.410  30.056  29.285  1.00  0.00     0.029 A 
ATOM     43  N   UNL A   1      43.799  28.441  28.708  1.00  0.00    -0.354 N 
ATOM     44  C   UNL A   1      42.079  24.601  27.087  1.00  0.00     0.074 A 
ATOM     45  C   UNL A   1      41.362  25.253  26.023  1.00  0.00     0.031 C 
ATOM     46  C   UNL A   1      43.634  30.620  29.178  1.00  0.00     0.029 A 
ATOM     47  C   UNL A   1      44.584  29.587  28.816  1.00  0.00     0.049 A 
ATOM     48  H   UNL A   1      44.181  27.545  28.564  1.00  0.00     0.167 HD
ATOM     49  C   UNL A   1      42.967  23.568  27.061  1.00  0.00     0.031 A 
ATOM     50  C   UNL A   1      45.922  29.686  28.616  1.00  0.00     0.031 A 
ATOM     51  C   UNL A   1      43.500  23.308  28.376  1.00  0.00     0.049 A 
ATOM     52  C   UNL A   1      46.479  28.323  28.734  1.00  0.00     0.074 A 
ATOM     53  C   UNL A   1      42.987  22.907  29.591  1.00  0.00     0.029 A 
ATOM     54  N   UNL A   1      44.726  23.871  28.638  1.00  0.00    -0.354 N 
ATOM     55  N   UNL A   1      46.488  27.651  29.848  1.00  0.00    -0.248 NA
ATOM     56  C   UNL A   1      46.637  27.536  27.525  1.00  0.00     0.031 C 
ATOM     57  C   UNL A   1      43.737  23.631  30.566  1.00  0.00     0.029 A 
ATOM     58  C   UNL A   1      44.719  24.376  29.908  1.00  0.00     0.049 A 
ATOM     59  H   UNL A   1      45.485  23.905  28.012  1.00  0.00     0.167 HD
ATOM     60  C   UNL A   1      46.185  26.352  29.471  1.00  0.00     0.074 A 
ATOM     61  C   UNL A   1      46.425  26.317  28.029  1.00  0.00     0.031 C 
ATOM     62  C   UNL A   1      45.494  25.528  30.314  1.00  0.00     0.031 A 
BRANCH  49  63
ATOM     63  C   UNL A   1      43.728  23.151  25.816  1.00  0.00    -0.014 A 
ATOM     64  C   UNL A   1      43.765  21.781  25.487  1.00  0.00     0.009 A 
ATOM     65  C   UNL A   1      44.648  23.979  25.148  1.00  0.00     0.009 A 
ATOM     66  C   UNL A   1      44.737  21.262  24.623  1.00  0.00     0.001 A 
ATOM     67  C   UNL A   1      45.595  23.470  24.253  1.00  0.00     0.001 A 
ATOM     68  C   UNL A   1      45.661  22.106  24.016  1.00  0.00     0.000 A 
ENDBRANCH  49  63
BRANCH  50  69
ATOM     69  C   UNL A   1      46.731  30.812  28.104  1.00  0.00    -0.014 A 
ATOM     70  C   UNL A   1      46.364  31.491  26.929  1.00  0.00     0.009 A 
ATOM     71  C   UNL A   1      47.697  31.412  28.932  1.00  0.00     0.009 A 
ATOM     72  C   UNL A   1      46.913  32.744  26.619  1.00  0.00     0.001 A 
ATOM     73  C   UNL A   1      48.242  32.665  28.623  1.00  0.00     0.001 A 
ATOM     74  C   UNL A   1      47.838  33.338  27.475  1.00  0.00     0.000 A 
ENDBRANCH  50  69
BRANCH  62  75
ATOM     75  C   UNL A   1      45.342  25.969  31.750  1.00  0.00    -0.014 A 
ATOM     76  C   UNL A   1      44.264  26.740  32.220  1.00  0.00     0.009 A 
ATOM     77  C   UNL A   1      46.258  25.469  32.686  1.00  0.00     0.009 A 
ATOM     78  C   UNL A   1      44.124  27.020  33.585  1.00  0.00     0.001 A 
ATOM     79  C   UNL A   1      46.108  25.729  34.049  1.00  0.00     0.001 A 
ATOM     80  C   UNL A   1      45.045  26.509  34.498  1.00  0.00     0.000 A 
ENDBRANCH  62  75
ENDBRANCH  36  37
ENDBRANCH  28  31
ENDBRANCH  26  27
ENDBRANCH  25  26
ENDBRANCH   1  25
TORSDOF 14
ENDMDL
MODEL 3
REMARK VINA RESULT:     -11.3      3.085      8.141
REMARK SMILES CC[C@@H]1CCC[C@@H]([NH+]2CC(n3cc(C(=O)NCCCCNC(=O)c4ccc(-c5c6nc(c(-c7ccccc7)c7ccc([nH]7)c(-c7ccccc7)c7nc(c(-c8ccccc8)c8ccc5[nH]8)C=C7)C=C6)cc4)nn3)C2)C1
REMARK SMILES IDX 18 1 17 2 16 3 14 4 15 5 13 7 11 8 12 9 73 10 72 11 10 12
REMARK SMILES IDX 8 13 9 14 74 15 7 17 3 18 4 19 75 20 5 21 6 22 2 23 1 24
REMARK SMILES IDX 19 25 20 26 21 27 22 28 23 30 24 31 25 32 71 33 26 34 70 35
REMARK SMILES IDX 27 36 28 37 29 38 64 39 30 40 69 41 63 42 65 43 31 44 68 45
REMARK SMILES IDX 62 46 61 47 32 49 54 50 39 51 53 52 40 53 43 54 52 55 66 56
REMARK SMILES IDX 41 57 42 58 51 60 67 61 44 62 33 63 34 64 38 65 35 66 37 67
REMARK SMILES IDX 36 68 55 69 56 70 60 71 57 72 59 73 58 74 45 75 46 76 50 77
REMARK SMILES IDX 47 78 49 79 48 80
REMARK H PARENT 16 6 8 16 21 29 65 48 43 59
REMARK Flexibility Score: inf
ROOT
ATOM      1  C   UNL A   1      38.226  21.641  25.516  1.00  0.00     0.023 C 
ENDROOT
BRANCH   1   2
ATOM      2  C   UNL A   1      36.709  21.703  25.311  1.00  0.00     0.116 C 
BRANCH   2   3
ATOM      3  N   UNL A   1      36.131  20.383  25.124  1.00  0.00    -0.351 N 
ATOM      4  C   UNL A   1      34.865  19.957  24.778  1.00  0.00     0.273 C 
ATOM      5  O   UNL A   1      34.719  18.745  24.615  1.00  0.00    -0.267 OA
ATOM      6  H   UNL A   1      36.768  19.649  25.273  1.00  0.00     0.163 HD
BRANCH   4   7
ATOM      7  C   UNL A   1      33.765  20.898  24.607  1.00  0.00     0.170 A 
ATOM      8  N   UNL A   1      32.471  22.576  24.110  1.00  0.00    -0.237 N 
ATOM      9  C   UNL A   1      33.745  22.110  23.966  1.00  0.00     0.145 A 
ATOM     10  N   UNL A   1      31.742  21.751  24.869  1.00  0.00    -0.066 NA
ATOM     11  N   UNL A   1      32.517  20.712  25.177  1.00  0.00    -0.125 NA
BRANCH   8  12
ATOM     12  C   UNL A   1      32.217  23.945  23.860  1.00  0.00     0.218 C 
ATOM     13  N   UNL A   1      31.110  25.664  24.331  1.00  0.00    -0.329 N 
ATOM     14  C   UNL A   1      32.192  24.916  25.031  1.00  0.00     0.296 C 
ATOM     15  C   UNL A   1      30.752  24.367  23.663  1.00  0.00     0.296 C 
ATOM     16  H   UNL A   1      30.453  26.229  24.869  1.00  0.00     0.348 HD
BRANCH  13  17
ATOM     17  C   UNL A   1      31.502  26.739  23.375  1.00  0.00     0.184 C 
ATOM     18  C   UNL A   1      29.593  28.496  23.471  1.00  0.00    -0.006 C 
ATOM     19  C   UNL A   1      30.595  29.574  23.911  1.00  0.00     0.004 C 
ATOM     20  C   UNL A   1      30.272  27.368  22.669  1.00  0.00     0.068 C 
ATOM     21  C   UNL A   1      31.844  29.010  24.570  1.00  0.00     0.006 C 
ATOM     22  C   UNL A   1      32.471  27.888  23.743  1.00  0.00     0.065 C 
BRANCH  18  23
ATOM     23  C   UNL A   1      28.375  29.097  22.749  1.00  0.00     0.000 C 
ATOM     24  C   UNL A   1      27.016  28.652  23.262  1.00  0.00     0.004 C 
ENDBRANCH  18  23
ENDBRANCH  13  17
ENDBRANCH   8  12
ENDBRANCH   4   7
ENDBRANCH   2   3
ENDBRANCH   1   2
BRANCH   1  25
ATOM     25  C   UNL A   1      38.847  20.259  25.259  1.00  0.00     0.023 C 
BRANCH  25  26
ATOM     26  C   UNL A   1      39.745  19.746  26.381  1.00  0.00     0.116 C 
BRANCH  26  27
ATOM     27  N   UNL A   1      40.968  19.109  25.894  1.00  0.00    -0.352 N 
ATOM     28  C   UNL A   1      42.192  19.710  25.644  1.00  0.00     0.251 C 
ATOM     29  H   UNL A   1      40.916  18.141  25.726  1.00  0.00     0.163 HD
ATOM     30  O   UNL A   1      42.999  19.210  24.880  1.00  0.00    -0.269 OA
BRANCH  28  31
ATOM     31  C   UNL A   1      42.507  20.964  26.351  1.00  0.00     0.039 A 
ATOM     32  C   UNL A   1      42.907  22.115  25.667  1.00  0.00     0.014 A 
ATOM     33  C   UNL A   1      42.355  20.968  27.735  1.00  0.00     0.014 A 
ATOM     34  C   UNL A   1      43.069  23.297  26.388  1.00  0.00     0.010 A 
ATOM     35  C   UNL A   1      42.368  22.157  28.414  1.00  0.00     0.010 A 
ATOM     36  C   UNL A   1      42.777  23.314  27.762  1.00  0.00    -0.014 A 
BRANCH  36  37
ATOM     37  C   UNL A   1      42.747  24.565  28.515  1.00  0.00     0.031 A 
ATOM     38  C   UNL A   1      41.631  25.473  28.132  1.00  0.00     0.074 A 
ATOM     39  C   UNL A   1      43.504  24.770  29.617  1.00  0.00     0.049 A 
ATOM     40  N   UNL A   1      41.717  26.627  27.560  1.00  0.00    -0.248 NA
ATOM     41  C   UNL A   1      40.249  24.979  28.267  1.00  0.00     0.031 C 
ATOM     42  C   UNL A   1      44.418  23.824  30.272  1.00  0.00     0.029 A 
ATOM     43  N   UNL A   1      43.526  25.832  30.468  1.00  0.00    -0.354 N 
ATOM     44  C   UNL A   1      40.413  27.105  27.465  1.00  0.00     0.074 A 
ATOM     45  C   UNL A   1      39.552  25.982  27.729  1.00  0.00     0.031 C 
ATOM     46  C   UNL A   1      44.703  24.252  31.522  1.00  0.00     0.029 A 
ATOM     47  C   UNL A   1      44.148  25.580  31.689  1.00  0.00     0.049 A 
ATOM     48  H   UNL A   1      43.134  26.706  30.240  1.00  0.00     0.167 HD
ATOM     49  C   UNL A   1      40.158  28.444  27.470  1.00  0.00     0.031 A 
ATOM     50  C   UNL A   1      44.200  26.401  32.767  1.00  0.00     0.031 A 
ATOM     51  C   UNL A   1      41.361  29.202  27.228  1.00  0.00     0.049 A 
ATOM     52  C   UNL A   1      43.913  27.767  32.285  1.00  0.00     0.074 A 
ATOM     53  C   UNL A   1      42.264  29.324  26.193  1.00  0.00     0.029 A 
ATOM     54  N   UNL A   1      41.987  29.690  28.349  1.00  0.00    -0.354 N 
ATOM     55  N   UNL A   1      44.705  28.424  31.490  1.00  0.00    -0.248 NA
ATOM     56  C   UNL A   1      42.542  28.242  32.338  1.00  0.00     0.031 C 
ATOM     57  C   UNL A   1      43.533  29.483  26.826  1.00  0.00     0.029 A 
ATOM     58  C   UNL A   1      43.337  29.530  28.209  1.00  0.00     0.049 A 
ATOM     59  H   UNL A   1      41.536  30.092  29.127  1.00  0.00     0.167 HD
ATOM     60  C   UNL A   1      43.852  29.073  30.611  1.00  0.00     0.074 A 
ATOM     61  C   UNL A   1      42.545  29.037  31.265  1.00  0.00     0.031 C 
ATOM     62  C   UNL A   1      44.235  29.313  29.322  1.00  0.00     0.031 A 
BRANCH  49  63
ATOM     63  C   UNL A   1      38.976  29.067  28.189  1.00  0.00    -0.014 A 
ATOM     64  C   UNL A   1      38.794  28.766  29.553  1.00  0.00     0.009 A 
ATOM     65  C   UNL A   1      37.886  29.662  27.529  1.00  0.00     0.009 A 
ATOM     66  C   UNL A   1      37.558  28.953  30.186  1.00  0.00     0.001 A 
ATOM     67  C   UNL A   1      36.662  29.888  28.168  1.00  0.00     0.001 A 
ATOM     68  C   UNL A   1      36.488  29.501  29.488  1.00  0.00     0.000 A 
ENDBRANCH  49  63
BRANCH  50  69
ATOM     69  C   UNL A   1      44.247  26.082  34.210  1.00  0.00    -0.014 A 
ATOM     70  C   UNL A   1      43.092  25.674  34.899  1.00  0.00     0.009 A 
ATOM     71  C   UNL A   1      45.488  25.889  34.843  1.00  0.00     0.009 A 
ATOM     72  C   UNL A   1      43.181  25.058  36.156  1.00  0.00     0.001 A 
ATOM     73  C   UNL A   1      45.576  25.271  36.097  1.00  0.00     0.001 A 
ATOM     74  C   UNL A   1      44.424  24.841  36.745  1.00  0.00     0.000 A 
ENDBRANCH  50  69
BRANCH  62  75
ATOM     75  C   UNL A   1      45.695  29.122  28.982  1.00  0.00    -0.014 A 
ATOM     76  C   UNL A   1      46.247  27.895  28.576  1.00  0.00     0.009 A 
ATOM     77  C   UNL A   1      46.509  30.264  28.941  1.00  0.00     0.009 A 
ATOM     78  C   UNL A   1      47.584  27.812  28.166  1.00  0.00     0.001 A 
ATOM     79  C   UNL A   1      47.834  30.185  28.513  1.00  0.00     0.001 A 
ATOM     80  C   UNL A   1      48.374  28.959  28.131  1.00  0.00     0.000 A 
ENDBRANCH  62  75
ENDBRANCH  36  37
ENDBRANCH  28  31
ENDBRANCH  26  27
ENDBRANCH  25  26
ENDBRANCH   1  25
TORSDOF 14
ENDMDL
