MODEL 1
REMARK VINA RESULT:     -12.5      0.000      0.000
REMARK SMILES COc1cccc(-c2c(C(=O)NCCCCNC(=O)c3ccc(-c4c5nc(c(-c6ccccc6)c6ccc([nH]6)c(-c6ccccc6)c6nc(c(-c7ccccc7)c7ccc4[nH]7)C=C6)C=C5)cc3)nnn2Cc2ccc(OC(F)(F)F)cc2)c1
REMARK SMILES IDX 13 1 12 2 10 3 11 4 9 6 8 7 70 8 68 9 69 10 7 11 3 12 4 13
REMARK SMILES IDX 83 14 5 15 6 16 2 17 1 18 71 19 72 20 73 21 82 22 74 23
REMARK SMILES IDX 81 24 75 25 76 26 77 27 78 28 79 29 80 30 14 31 15 32 16 33
REMARK SMILES IDX 17 34 18 35 19 37 20 38 21 39 67 40 22 41 66 42 23 43 24 44
REMARK SMILES IDX 25 45 60 46 26 47 65 48 59 49 61 50 27 51 64 52 58 53 57 54
REMARK SMILES IDX 28 56 50 57 35 58 49 59 36 60 39 61 48 62 62 63 37 64 38 65
REMARK SMILES IDX 47 67 63 68 40 69 29 70 30 71 34 72 31 73 33 74 32 75 51 76
REMARK SMILES IDX 52 77 56 78 53 79 55 80 54 81 41 82 42 83 46 84 43 85 45 86
REMARK SMILES IDX 44 87
REMARK H PARENT 12 5 17 36 61 55 39 66
REMARK Flexibility Score: inf
ROOT
ATOM      1  C   UNL A   1      31.841  27.651  27.071  1.00  0.00     0.116 C 
ENDROOT
BRANCH   1   2
ATOM      2  N   UNL A   1      30.659  26.846  26.967  1.00  0.00    -0.351 N 
ATOM      3  C   UNL A   1      30.505  25.500  26.698  1.00  0.00     0.274 C 
ATOM      4  O   UNL A   1      29.336  25.105  26.791  1.00  0.00    -0.267 OA
ATOM      5  H   UNL A   1      29.816  27.335  27.109  1.00  0.00     0.163 HD
BRANCH   3   6
ATOM      6  C   UNL A   1      31.574  24.567  26.278  1.00  0.00     0.178 A 
ATOM      7  C   UNL A   1      32.527  24.485  25.250  1.00  0.00     0.102 A 
ATOM      8  N   UNL A   1      33.176  23.290  25.503  1.00  0.00    -0.239 N 
ATOM      9  N   UNL A   1      31.719  23.435  27.068  1.00  0.00    -0.124 NA
ATOM     10  N   UNL A   1      32.645  22.652  26.555  1.00  0.00    -0.066 NA
BRANCH   7  11
ATOM     11  C   UNL A   1      32.872  25.298  24.084  1.00  0.00     0.006 A 
ATOM     12  C   UNL A   1      32.331  25.968  21.801  1.00  0.00     0.119 A 
ATOM     13  C   UNL A   1      33.253  27.010  21.913  1.00  0.00     0.046 A 
ATOM     14  C   UNL A   1      32.142  25.117  22.888  1.00  0.00     0.056 A 
ATOM     15  C   UNL A   1      33.991  27.192  23.087  1.00  0.00     0.005 A 
ATOM     16  C   UNL A   1      33.814  26.328  24.169  1.00  0.00     0.011 A 
BRANCH  12  17
ATOM     17  O   UNL A   1      31.696  25.886  20.595  1.00  0.00    -0.497 OA
ATOM     18  C   UNL A   1      32.472  25.513  19.461  1.00  0.00     0.278 C 
ENDBRANCH  12  17
ENDBRANCH   7  11
BRANCH   8  19
ATOM     19  C   UNL A   1      34.221  22.628  24.734  1.00  0.00     0.182 C 
BRANCH  19  20
ATOM     20  C   UNL A   1      33.960  21.155  24.551  1.00  0.00    -0.026 A 
ATOM     21  C   UNL A   1      34.922  20.201  24.903  1.00  0.00     0.009 A 
ATOM     22  C   UNL A   1      32.752  20.717  23.993  1.00  0.00     0.009 A 
ATOM     23  C   UNL A   1      34.673  18.841  24.691  1.00  0.00     0.047 A 
ATOM     24  C   UNL A   1      32.500  19.359  23.796  1.00  0.00     0.047 A 
ATOM     25  C   UNL A   1      33.462  18.412  24.140  1.00  0.00     0.129 A 
BRANCH  25  26
ATOM     26  O   UNL A   1      33.351  17.060  23.984  1.00  0.00    -0.406 OA
BRANCH  26  27
ATOM     27  C   UNL A   1      33.216  16.278  25.160  1.00  0.00     0.573 C 
ATOM     28  F   UNL A   1      34.418  15.849  25.601  1.00  0.00    -0.132 F 
ATOM     29  F   UNL A   1      32.596  16.971  26.140  1.00  0.00    -0.132 F 
ATOM     30  F   UNL A   1      32.461  15.194  24.876  1.00  0.00    -0.132 F 
ENDBRANCH  26  27
ENDBRANCH  25  26
ENDBRANCH  19  20
ENDBRANCH   8  19
ENDBRANCH   3   6
ENDBRANCH   1   2
BRANCH   1  31
ATOM     31  C   UNL A   1      31.935  28.877  26.179  1.00  0.00     0.023 C 
BRANCH  31  32
ATOM     32  C   UNL A   1      33.302  29.538  26.060  1.00  0.00     0.023 C 
BRANCH  32  33
ATOM     33  C   UNL A   1      33.836  30.146  27.350  1.00  0.00     0.116 C 
BRANCH  33  34
ATOM     34  N   UNL A   1      34.263  31.539  27.228  1.00  0.00    -0.352 N 
ATOM     35  C   UNL A   1      35.359  32.122  27.847  1.00  0.00     0.251 C 
ATOM     36  H   UNL A   1      33.719  32.121  26.648  1.00  0.00     0.163 HD
ATOM     37  O   UNL A   1      35.454  33.323  28.006  1.00  0.00    -0.269 OA
BRANCH  35  38
ATOM     38  C   UNL A   1      36.446  31.221  28.275  1.00  0.00     0.039 A 
ATOM     39  C   UNL A   1      36.603  29.939  27.743  1.00  0.00     0.014 A 
ATOM     40  C   UNL A   1      37.357  31.744  29.191  1.00  0.00     0.014 A 
ATOM     41  C   UNL A   1      37.741  29.212  28.087  1.00  0.00     0.010 A 
ATOM     42  C   UNL A   1      38.536  31.087  29.419  1.00  0.00     0.010 A 
ATOM     43  C   UNL A   1      38.711  29.804  28.913  1.00  0.00    -0.014 A 
BRANCH  43  44
ATOM     44  C   UNL A   1      40.004  29.170  29.141  1.00  0.00     0.031 A 
ATOM     45  C   UNL A   1      40.278  28.855  30.569  1.00  0.00     0.074 A 
ATOM     46  C   UNL A   1      40.749  28.666  28.132  1.00  0.00     0.049 A 
ATOM     47  N   UNL A   1      41.162  29.398  31.337  1.00  0.00    -0.248 NA
ATOM     48  C   UNL A   1      39.363  27.937  31.274  1.00  0.00     0.031 C 
ATOM     49  C   UNL A   1      40.417  28.614  26.702  1.00  0.00     0.029 A 
ATOM     50  N   UNL A   1      41.914  27.966  28.187  1.00  0.00    -0.354 N 
ATOM     51  C   UNL A   1      41.075  28.724  32.553  1.00  0.00     0.074 A 
ATOM     52  C   UNL A   1      39.827  28.006  32.523  1.00  0.00     0.031 C 
ATOM     53  C   UNL A   1      41.219  27.718  26.081  1.00  0.00     0.029 A 
ATOM     54  C   UNL A   1      42.224  27.263  27.025  1.00  0.00     0.049 A 
ATOM     55  H   UNL A   1      42.492  27.958  28.983  1.00  0.00     0.167 HD
ATOM     56  C   UNL A   1      42.172  28.570  33.347  1.00  0.00     0.031 A 
ATOM     57  C   UNL A   1      43.216  26.352  26.860  1.00  0.00     0.031 A 
ATOM     58  C   UNL A   1      43.242  29.448  32.937  1.00  0.00     0.049 A 
ATOM     59  C   UNL A   1      44.186  26.558  27.960  1.00  0.00     0.074 A 
ATOM     60  C   UNL A   1      43.384  30.813  32.786  1.00  0.00     0.029 A 
ATOM     61  N   UNL A   1      44.256  28.880  32.203  1.00  0.00    -0.354 N 
ATOM     62  N   UNL A   1      44.920  27.626  28.071  1.00  0.00    -0.248 NA
ATOM     63  C   UNL A   1      43.994  25.799  29.185  1.00  0.00     0.031 C 
ATOM     64  C   UNL A   1      44.154  30.969  31.594  1.00  0.00     0.029 A 
ATOM     65  C   UNL A   1      44.518  29.700  31.140  1.00  0.00     0.049 A 
ATOM     66  H   UNL A   1      44.714  28.032  32.406  1.00  0.00     0.167 HD
ATOM     67  C   UNL A   1      44.885  27.932  29.424  1.00  0.00     0.074 A 
ATOM     68  C   UNL A   1      44.388  26.716  30.072  1.00  0.00     0.031 C 
ATOM     69  C   UNL A   1      44.974  29.226  29.852  1.00  0.00     0.031 A 
BRANCH  56  70
ATOM     70  C   UNL A   1      42.451  27.320  34.155  1.00  0.00    -0.014 A 
ATOM     71  C   UNL A   1      43.526  26.499  33.761  1.00  0.00     0.009 A 
ATOM     72  C   UNL A   1      41.543  26.765  35.076  1.00  0.00     0.009 A 
ATOM     73  C   UNL A   1      43.619  25.165  34.180  1.00  0.00     0.001 A 
ATOM     74  C   UNL A   1      41.657  25.447  35.530  1.00  0.00     0.001 A 
ATOM     75  C   UNL A   1      42.676  24.637  35.055  1.00  0.00     0.000 A 
ENDBRANCH  56  70
BRANCH  57  76
ATOM     76  C   UNL A   1      43.273  25.151  25.996  1.00  0.00    -0.014 A 
ATOM     77  C   UNL A   1      44.358  24.940  25.128  1.00  0.00     0.009 A 
ATOM     78  C   UNL A   1      42.409  24.067  26.234  1.00  0.00     0.009 A 
ATOM     79  C   UNL A   1      44.596  23.679  24.561  1.00  0.00     0.001 A 
ATOM     80  C   UNL A   1      42.647  22.809  25.666  1.00  0.00     0.001 A 
ATOM     81  C   UNL A   1      43.750  22.610  24.843  1.00  0.00     0.000 A 
ENDBRANCH  57  76
BRANCH  69  82
ATOM     82  C   UNL A   1      45.357  30.282  28.843  1.00  0.00    -0.014 A 
ATOM     83  C   UNL A   1      46.686  30.655  28.571  1.00  0.00     0.009 A 
ATOM     84  C   UNL A   1      44.341  30.812  28.036  1.00  0.00     0.009 A 
ATOM     85  C   UNL A   1      46.980  31.556  27.541  1.00  0.00     0.001 A 
ATOM     86  C   UNL A   1      44.636  31.693  26.994  1.00  0.00     0.001 A 
ATOM     87  C   UNL A   1      45.955  32.070  26.751  1.00  0.00     0.000 A 
ENDBRANCH  69  82
ENDBRANCH  43  44
ENDBRANCH  35  38
ENDBRANCH  33  34
ENDBRANCH  32  33
ENDBRANCH  31  32
ENDBRANCH   1  31
TORSDOF 17
ENDMDL
MODEL 2
REMARK VINA RESULT:     -12.5      3.684      8.142
REMARK SMILES COc1cccc(-c2c(C(=O)NCCCCNC(=O)c3ccc(-c4c5nc(c(-c6ccccc6)c6ccc([nH]6)c(-c6ccccc6)c6nc(c(-c7ccccc7)c7ccc4[nH]7)C=C6)C=C5)cc3)nnn2Cc2ccc(OC(F)(F)F)cc2)c1
REMARK SMILES IDX 13 1 12 2 10 3 11 4 9 6 8 7 70 8 68 9 69 10 7 11 3 12 4 13
REMARK SMILES IDX 83 14 5 15 6 16 2 17 1 18 71 19 72 20 73 21 82 22 74 23
REMARK SMILES IDX 81 24 75 25 76 26 77 27 78 28 79 29 80 30 14 31 15 32 16 33
REMARK SMILES IDX 17 34 18 35 19 37 20 38 21 39 67 40 22 41 66 42 23 43 24 44
REMARK SMILES IDX 25 45 60 46 26 47 65 48 59 49 61 50 27 51 64 52 58 53 57 54
REMARK SMILES IDX 28 56 50 57 35 58 49 59 36 60 39 61 48 62 62 63 37 64 38 65
REMARK SMILES IDX 47 67 63 68 40 69 29 70 30 71 34 72 31 73 33 74 32 75 51 76
REMARK SMILES IDX 52 77 56 78 53 79 55 80 54 81 41 82 42 83 46 84 43 85 45 86
REMARK SMILES IDX 44 87
REMARK H PARENT 12 5 17 36 61 55 39 66
REMARK Flexibility Score: inf
ROOT
ATOM      1  C   UNL A   1      34.380  23.790  23.275  1.00  0.00     0.116 C 
ENDROOT
BRANCH   1   2
ATOM      2  N   UNL A   1      33.067  23.238  23.108  1.00  0.00    -0.351 N 
ATOM      3  C   UNL A   1      31.853  23.619  23.646  1.00  0.00     0.274 C 
ATOM      4  O   UNL A   1      30.890  22.983  23.200  1.00  0.00    -0.267 OA
ATOM      5  H   UNL A   1      33.024  22.456  22.511  1.00  0.00     0.163 HD
BRANCH   3   6
ATOM      6  C   UNL A   1      31.647  24.641  24.696  1.00  0.00     0.178 A 
ATOM      7  C   UNL A   1      31.409  26.023  24.759  1.00  0.00     0.102 A 
ATOM      8  N   UNL A   1      31.349  26.281  26.117  1.00  0.00    -0.239 N 
ATOM      9  N   UNL A   1      31.707  24.172  26.001  1.00  0.00    -0.124 NA
ATOM     10  N   UNL A   1      31.584  25.178  26.841  1.00  0.00    -0.066 NA
BRANCH   7  11
ATOM     11  C   UNL A   1      31.286  27.103  23.780  1.00  0.00     0.006 A 
ATOM     12  C   UNL A   1      29.819  28.600  22.531  1.00  0.00     0.119 A 
ATOM     13  C   UNL A   1      30.938  29.345  22.155  1.00  0.00     0.046 A 
ATOM     14  C   UNL A   1      29.996  27.483  23.344  1.00  0.00     0.056 A 
ATOM     15  C   UNL A   1      32.220  28.973  22.570  1.00  0.00     0.005 A 
ATOM     16  C   UNL A   1      32.400  27.843  23.371  1.00  0.00     0.011 A 
BRANCH  12  17
ATOM     17  O   UNL A   1      28.630  29.056  22.038  1.00  0.00    -0.497 OA
ATOM     18  C   UNL A   1      27.577  29.300  22.966  1.00  0.00     0.278 C 
ENDBRANCH  12  17
ENDBRANCH   7  11
BRANCH   8  19
ATOM     19  C   UNL A   1      31.191  27.554  26.807  1.00  0.00     0.182 C 
BRANCH  19  20
ATOM     20  C   UNL A   1      32.483  28.324  26.903  1.00  0.00    -0.026 A 
ATOM     21  C   UNL A   1      33.707  27.725  26.583  1.00  0.00     0.009 A 
ATOM     22  C   UNL A   1      32.481  29.652  27.347  1.00  0.00     0.009 A 
ATOM     23  C   UNL A   1      34.898  28.447  26.713  1.00  0.00     0.047 A 
ATOM     24  C   UNL A   1      33.669  30.375  27.463  1.00  0.00     0.047 A 
ATOM     25  C   UNL A   1      34.887  29.774  27.151  1.00  0.00     0.129 A 
BRANCH  25  26
ATOM     26  O   UNL A   1      36.117  30.360  27.237  1.00  0.00    -0.406 OA
BRANCH  26  27
ATOM     27  C   UNL A   1      36.976  29.921  28.277  1.00  0.00     0.573 C 
ATOM     28  F   UNL A   1      37.609  30.963  28.859  1.00  0.00    -0.132 F 
ATOM     29  F   UNL A   1      36.295  29.227  29.214  1.00  0.00    -0.132 F 
ATOM     30  F   UNL A   1      37.912  29.102  27.750  1.00  0.00    -0.132 F 
ENDBRANCH  26  27
ENDBRANCH  25  26
ENDBRANCH  19  20
ENDBRANCH   8  19
ENDBRANCH   3   6
ENDBRANCH   1   2
BRANCH   1  31
ATOM     31  C   UNL A   1      35.472  22.860  23.775  1.00  0.00     0.023 C 
BRANCH  31  32
ATOM     32  C   UNL A   1      35.861  22.982  25.243  1.00  0.00     0.023 C 
BRANCH  32  33
ATOM     33  C   UNL A   1      37.307  23.390  25.492  1.00  0.00     0.116 C 
BRANCH  33  34
ATOM     34  N   UNL A   1      38.125  22.355  26.122  1.00  0.00    -0.352 N 
ATOM     35  C   UNL A   1      39.379  22.527  26.688  1.00  0.00     0.251 C 
ATOM     36  H   UNL A   1      37.747  21.446  26.148  1.00  0.00     0.163 HD
ATOM     37  O   UNL A   1      40.149  21.603  26.857  1.00  0.00    -0.269 OA
BRANCH  35  38
ATOM     38  C   UNL A   1      39.737  23.890  27.126  1.00  0.00     0.039 A 
ATOM     39  C   UNL A   1      38.836  24.954  27.056  1.00  0.00     0.014 A 
ATOM     40  C   UNL A   1      41.006  24.047  27.680  1.00  0.00     0.014 A 
ATOM     41  C   UNL A   1      39.200  26.172  27.629  1.00  0.00     0.010 A 
ATOM     42  C   UNL A   1      41.306  25.196  28.361  1.00  0.00     0.010 A 
ATOM     43  C   UNL A   1      40.432  26.276  28.296  1.00  0.00    -0.014 A 
BRANCH  43  44
ATOM     44  C   UNL A   1      40.775  27.456  29.080  1.00  0.00     0.031 A 
ATOM     45  C   UNL A   1      41.768  28.350  28.423  1.00  0.00     0.074 A 
ATOM     46  C   UNL A   1      40.055  27.841  30.157  1.00  0.00     0.049 A 
ATOM     47  N   UNL A   1      42.983  28.577  28.792  1.00  0.00    -0.248 NA
ATOM     48  C   UNL A   1      41.422  28.944  27.118  1.00  0.00     0.031 C 
ATOM     49  C   UNL A   1      38.839  27.222  30.700  1.00  0.00     0.029 A 
ATOM     50  N   UNL A   1      40.183  28.956  30.926  1.00  0.00    -0.354 N 
ATOM     51  C   UNL A   1      43.479  29.526  27.901  1.00  0.00     0.074 A 
ATOM     52  C   UNL A   1      42.567  29.543  26.787  1.00  0.00     0.031 C 
ATOM     53  C   UNL A   1      38.216  28.092  31.528  1.00  0.00     0.029 A 
ATOM     54  C   UNL A   1      39.068  29.253  31.706  1.00  0.00     0.049 A 
ATOM     55  H   UNL A   1      40.997  29.508  30.931  1.00  0.00     0.167 HD
ATOM     56  C   UNL A   1      44.421  30.429  28.295  1.00  0.00     0.031 A 
ATOM     57  C   UNL A   1      38.849  30.386  32.423  1.00  0.00     0.031 A 
ATOM     58  C   UNL A   1      45.025  30.043  29.549  1.00  0.00     0.049 A 
ATOM     59  C   UNL A   1      40.161  31.046  32.607  1.00  0.00     0.074 A 
ATOM     60  C   UNL A   1      45.711  28.935  30.003  1.00  0.00     0.029 A 
ATOM     61  N   UNL A   1      44.581  30.700  30.672  1.00  0.00    -0.354 N 
ATOM     62  N   UNL A   1      41.118  30.541  33.330  1.00  0.00    -0.248 NA
ATOM     63  C   UNL A   1      40.576  32.021  31.611  1.00  0.00     0.031 C 
ATOM     64  C   UNL A   1      45.225  28.725  31.329  1.00  0.00     0.029 A 
ATOM     65  C   UNL A   1      44.347  29.764  31.642  1.00  0.00     0.049 A 
ATOM     66  H   UNL A   1      44.454  31.672  30.763  1.00  0.00     0.167 HD
ATOM     67  C   UNL A   1      42.268  30.760  32.585  1.00  0.00     0.074 A 
ATOM     68  C   UNL A   1      41.887  31.765  31.590  1.00  0.00     0.031 C 
ATOM     69  C   UNL A   1      43.322  29.895  32.653  1.00  0.00     0.031 A 
BRANCH  56  70
ATOM     70  C   UNL A   1      44.451  31.868  27.822  1.00  0.00    -0.014 A 
ATOM     71  C   UNL A   1      43.731  32.827  28.562  1.00  0.00     0.009 A 
ATOM     72  C   UNL A   1      44.889  32.262  26.544  1.00  0.00     0.009 A 
ATOM     73  C   UNL A   1      43.378  34.064  28.008  1.00  0.00     0.001 A 
ATOM     74  C   UNL A   1      44.576  33.513  26.004  1.00  0.00     0.001 A 
ATOM     75  C   UNL A   1      43.791  34.401  26.724  1.00  0.00     0.000 A 
ENDBRANCH  56  70
BRANCH  57  76
ATOM     76  C   UNL A   1      37.582  31.083  32.738  1.00  0.00    -0.014 A 
ATOM     77  C   UNL A   1      37.465  31.877  33.892  1.00  0.00     0.009 A 
ATOM     78  C   UNL A   1      36.582  31.208  31.757  1.00  0.00     0.009 A 
ATOM     79  C   UNL A   1      36.415  32.796  34.035  1.00  0.00     0.001 A 
ATOM     80  C   UNL A   1      35.532  32.125  31.901  1.00  0.00     0.001 A 
ATOM     81  C   UNL A   1      35.458  32.931  33.033  1.00  0.00     0.000 A 
ENDBRANCH  57  76
BRANCH  69  82
ATOM     82  C   UNL A   1      43.305  28.840  33.734  1.00  0.00    -0.014 A 
ATOM     83  C   UNL A   1      42.667  27.594  33.598  1.00  0.00     0.009 A 
ATOM     84  C   UNL A   1      44.091  29.062  34.874  1.00  0.00     0.009 A 
ATOM     85  C   UNL A   1      42.789  26.614  34.592  1.00  0.00     0.001 A 
ATOM     86  C   UNL A   1      44.230  28.078  35.854  1.00  0.00     0.001 A 
ATOM     87  C   UNL A   1      43.574  26.857  35.716  1.00  0.00     0.000 A 
ENDBRANCH  69  82
ENDBRANCH  43  44
ENDBRANCH  35  38
ENDBRANCH  33  34
ENDBRANCH  32  33
ENDBRANCH  31  32
ENDBRANCH   1  31
TORSDOF 17
ENDMDL
MODEL 3
REMARK VINA RESULT:     -12.3      4.019      9.484
REMARK SMILES COc1cccc(-c2c(C(=O)NCCCCNC(=O)c3ccc(-c4c5nc(c(-c6ccccc6)c6ccc([nH]6)c(-c6ccccc6)c6nc(c(-c7ccccc7)c7ccc4[nH]7)C=C6)C=C5)cc3)nnn2Cc2ccc(OC(F)(F)F)cc2)c1
REMARK SMILES IDX 13 1 12 2 10 3 11 4 9 6 8 7 70 8 68 9 69 10 7 11 3 12 4 13
REMARK SMILES IDX 83 14 5 15 6 16 2 17 1 18 71 19 72 20 73 21 82 22 74 23
REMARK SMILES IDX 81 24 75 25 76 26 77 27 78 28 79 29 80 30 14 31 15 32 16 33
REMARK SMILES IDX 17 34 18 35 19 37 20 38 21 39 67 40 22 41 66 42 23 43 24 44
REMARK SMILES IDX 25 45 60 46 26 47 65 48 59 49 61 50 27 51 64 52 58 53 57 54
REMARK SMILES IDX 28 56 50 57 35 58 49 59 36 60 39 61 48 62 62 63 37 64 38 65
REMARK SMILES IDX 47 67 63 68 40 69 29 70 30 71 34 72 31 73 33 74 32 75 51 76
REMARK SMILES IDX 52 77 56 78 53 79 55 80 54 81 41 82 42 83 46 84 43 85 45 86
REMARK SMILES IDX 44 87
REMARK H PARENT 12 5 17 36 61 55 39 66
REMARK Flexibility Score: inf
ROOT
ATOM      1  C   UNL A   1      44.949  27.154  26.877  1.00  0.00     0.116 C 
ENDROOT
BRANCH   1   2
ATOM      2  N   UNL A   1      44.251  27.630  25.719  1.00  0.00    -0.351 N 
ATOM      3  C   UNL A   1      42.902  27.644  25.421  1.00  0.00     0.274 C 
ATOM      4  O   UNL A   1      42.631  28.235  24.368  1.00  0.00    -0.267 OA
ATOM      5  H   UNL A   1      44.829  28.011  25.019  1.00  0.00     0.163 HD
BRANCH   3   6
ATOM      6  C   UNL A   1      41.830  26.989  26.203  1.00  0.00     0.178 A 
ATOM      7  C   UNL A   1      41.570  25.716  26.735  1.00  0.00     0.102 A 
ATOM      8  N   UNL A   1      40.333  25.860  27.334  1.00  0.00    -0.239 N 
ATOM      9  N   UNL A   1      40.748  27.798  26.521  1.00  0.00    -0.124 NA
ATOM     10  N   UNL A   1      39.833  27.090  27.149  1.00  0.00    -0.066 NA
BRANCH   7  11
ATOM     11  C   UNL A   1      42.256  24.424  26.721  1.00  0.00     0.006 A 
ATOM     12  C   UNL A   1      43.437  22.727  25.426  1.00  0.00     0.119 A 
ATOM     13  C   UNL A   1      43.833  22.123  26.620  1.00  0.00     0.046 A 
ATOM     14  C   UNL A   1      42.652  23.877  25.480  1.00  0.00     0.056 A 
ATOM     15  C   UNL A   1      43.438  22.648  27.854  1.00  0.00     0.005 A 
ATOM     16  C   UNL A   1      42.636  23.790  27.908  1.00  0.00     0.011 A 
BRANCH  12  17
ATOM     17  O   UNL A   1      43.870  22.102  24.291  1.00  0.00    -0.497 OA
ATOM     18  C   UNL A   1      45.017  22.634  23.636  1.00  0.00     0.278 C 
ENDBRANCH  12  17
ENDBRANCH   7  11
BRANCH   8  19
ATOM     19  C   UNL A   1      39.507  24.859  27.995  1.00  0.00     0.182 C 
BRANCH  19  20
ATOM     20  C   UNL A   1      38.803  23.952  27.018  1.00  0.00    -0.026 A 
ATOM     21  C   UNL A   1      37.615  24.347  26.392  1.00  0.00     0.009 A 
ATOM     22  C   UNL A   1      39.316  22.678  26.744  1.00  0.00     0.009 A 
ATOM     23  C   UNL A   1      36.959  23.477  25.517  1.00  0.00     0.047 A 
ATOM     24  C   UNL A   1      38.667  21.816  25.859  1.00  0.00     0.047 A 
ATOM     25  C   UNL A   1      37.481  22.209  25.243  1.00  0.00     0.129 A 
BRANCH  25  26
ATOM     26  O   UNL A   1      36.740  21.460  24.374  1.00  0.00    -0.406 OA
BRANCH  26  27
ATOM     27  C   UNL A   1      35.741  20.618  24.928  1.00  0.00     0.573 C 
ATOM     28  F   UNL A   1      35.506  20.927  26.221  1.00  0.00    -0.132 F 
ATOM     29  F   UNL A   1      34.589  20.699  24.228  1.00  0.00    -0.132 F 
ATOM     30  F   UNL A   1      36.174  19.339  24.873  1.00  0.00    -0.132 F 
ENDBRANCH  26  27
ENDBRANCH  25  26
ENDBRANCH  19  20
ENDBRANCH   8  19
ENDBRANCH   3   6
ENDBRANCH   1   2
BRANCH   1  31
ATOM     31  C   UNL A   1      45.994  26.070  26.668  1.00  0.00     0.023 C 
BRANCH  31  32
ATOM     32  C   UNL A   1      46.112  25.011  27.756  1.00  0.00     0.023 C 
BRANCH  32  33
ATOM     33  C   UNL A   1      46.274  25.556  29.169  1.00  0.00     0.116 C 
BRANCH  33  34
ATOM     34  N   UNL A   1      45.622  24.754  30.202  1.00  0.00    -0.352 N 
ATOM     35  C   UNL A   1      44.737  25.215  31.166  1.00  0.00     0.251 C 
ATOM     36  H   UNL A   1      45.829  23.792  30.215  1.00  0.00     0.163 HD
ATOM     37  O   UNL A   1      44.519  24.605  32.194  1.00  0.00    -0.269 OA
BRANCH  35  38
ATOM     38  C   UNL A   1      44.022  26.473  30.876  1.00  0.00     0.039 A 
ATOM     39  C   UNL A   1      43.101  26.581  29.832  1.00  0.00     0.014 A 
ATOM     40  C   UNL A   1      44.264  27.535  31.745  1.00  0.00     0.014 A 
ATOM     41  C   UNL A   1      42.359  27.756  29.720  1.00  0.00     0.010 A 
ATOM     42  C   UNL A   1      43.441  28.629  31.718  1.00  0.00     0.010 A 
ATOM     43  C   UNL A   1      42.525  28.767  30.680  1.00  0.00    -0.014 A 
BRANCH  43  44
ATOM     44  C   UNL A   1      41.638  29.924  30.727  1.00  0.00     0.031 A 
ATOM     45  C   UNL A   1      42.308  31.211  30.396  1.00  0.00     0.074 A 
ATOM     46  C   UNL A   1      40.294  29.801  30.786  1.00  0.00     0.049 A 
ATOM     47  N   UNL A   1      42.543  32.201  31.191  1.00  0.00    -0.248 NA
ATOM     48  C   UNL A   1      42.927  31.358  29.065  1.00  0.00     0.031 C 
ATOM     49  C   UNL A   1      39.497  28.567  30.771  1.00  0.00     0.029 A 
ATOM     50  N   UNL A   1      39.337  30.766  30.737  1.00  0.00    -0.354 N 
ATOM     51  C   UNL A   1      43.125  33.190  30.403  1.00  0.00     0.074 A 
ATOM     52  C   UNL A   1      43.531  32.543  29.183  1.00  0.00     0.031 C 
ATOM     53  C   UNL A   1      38.212  28.858  30.467  1.00  0.00     0.029 A 
ATOM     54  C   UNL A   1      38.059  30.301  30.433  1.00  0.00     0.049 A 
ATOM     55  H   UNL A   1      39.531  31.716  30.903  1.00  0.00     0.167 HD
ATOM     56  C   UNL A   1      42.948  34.510  30.694  1.00  0.00     0.031 A 
ATOM     57  C   UNL A   1      36.963  31.050  30.147  1.00  0.00     0.031 A 
ATOM     58  C   UNL A   1      42.419  34.686  32.027  1.00  0.00     0.049 A 
ATOM     59  C   UNL A   1      37.225  32.418  30.647  1.00  0.00     0.074 A 
ATOM     60  C   UNL A   1      42.827  34.328  33.296  1.00  0.00     0.029 A 
ATOM     61  N   UNL A   1      41.073  34.951  32.123  1.00  0.00    -0.354 N 
ATOM     62  N   UNL A   1      37.331  32.707  31.912  1.00  0.00    -0.248 NA
ATOM     63  C   UNL A   1      37.840  33.368  29.734  1.00  0.00     0.031 C 
ATOM     64  C   UNL A   1      41.630  33.925  33.962  1.00  0.00     0.029 A 
ATOM     65  C   UNL A   1      40.554  34.147  33.102  1.00  0.00     0.049 A 
ATOM     66  H   UNL A   1      40.571  35.604  31.584  1.00  0.00     0.167 HD
ATOM     67  C   UNL A   1      38.403  33.585  31.978  1.00  0.00     0.074 A 
ATOM     68  C   UNL A   1      38.608  34.035  30.600  1.00  0.00     0.031 C 
ATOM     69  C   UNL A   1      39.205  33.629  33.083  1.00  0.00     0.031 A 
BRANCH  56  70
ATOM     70  C   UNL A   1      42.786  35.586  29.640  1.00  0.00    -0.014 A 
ATOM     71  C   UNL A   1      41.730  35.460  28.716  1.00  0.00     0.009 A 
ATOM     72  C   UNL A   1      43.781  36.531  29.330  1.00  0.00     0.009 A 
ATOM     73  C   UNL A   1      41.733  36.159  27.503  1.00  0.00     0.001 A 
ATOM     74  C   UNL A   1      43.764  37.264  28.139  1.00  0.00     0.001 A 
ATOM     75  C   UNL A   1      42.758  37.052  27.210  1.00  0.00     0.000 A 
ENDBRANCH  56  70
BRANCH  57  76
ATOM     76  C   UNL A   1      35.820  30.760  29.251  1.00  0.00    -0.014 A 
ATOM     77  C   UNL A   1      34.865  31.750  28.961  1.00  0.00     0.009 A 
ATOM     78  C   UNL A   1      35.826  29.605  28.449  1.00  0.00     0.009 A 
ATOM     79  C   UNL A   1      33.984  31.609  27.878  1.00  0.00     0.001 A 
ATOM     80  C   UNL A   1      34.945  29.464  27.369  1.00  0.00     0.001 A 
ATOM     81  C   UNL A   1      34.035  30.474  27.073  1.00  0.00     0.000 A 
ENDBRANCH  57  76
BRANCH  69  82
ATOM     82  C   UNL A   1      38.753  32.885  34.318  1.00  0.00    -0.014 A 
ATOM     83  C   UNL A   1      39.041  31.529  34.560  1.00  0.00     0.009 A 
ATOM     84  C   UNL A   1      38.142  33.625  35.339  1.00  0.00     0.009 A 
ATOM     85  C   UNL A   1      38.695  30.930  35.777  1.00  0.00     0.001 A 
ATOM     86  C   UNL A   1      37.818  33.035  36.560  1.00  0.00     0.001 A 
ATOM     87  C   UNL A   1      38.088  31.686  36.777  1.00  0.00     0.000 A 
ENDBRANCH  69  82
ENDBRANCH  43  44
ENDBRANCH  35  38
ENDBRANCH  33  34
ENDBRANCH  32  33
ENDBRANCH  31  32
ENDBRANCH   1  31
TORSDOF 17
ENDMDL
