MODEL 1
REMARK VINA RESULT:     -12.2      0.000      0.000
REMARK SMILES O=C(Cn1c2ccccc2c(=O)c2ccccc21)N[C@@H](Cc1ccccc1)C(=O)NCCCCNC(=O)c1ccc(-c2c3nc(c(-c4ccccc4)c4ccc([nH]4)c(-c4ccccc4)c4nc(c(-c5ccccc5)c5ccc2[nH]5)C=C4)C=C3)cc1
REMARK SMILES IDX 32 1 31 2 30 3 28 4 29 5 20 7 19 8 1 9 2 10 3 12 4 13 5 14
REMARK SMILES IDX 18 15 6 16 10 17 13 18 17 19 7 20 9 21 11 22 14 23 16 24
REMARK SMILES IDX 8 25 12 26 15 27 21 28 22 29 23 30 27 31 24 32 26 33 25 34
REMARK SMILES IDX 33 35 34 36 35 37 36 38 37 40 38 41 39 42 85 43 40 44 84 45
REMARK SMILES IDX 41 46 42 47 43 48 78 49 44 50 83 51 77 52 79 53 45 54 82 55
REMARK SMILES IDX 76 56 75 57 46 59 68 60 53 61 67 62 54 63 57 64 66 65 80 66
REMARK SMILES IDX 55 67 56 68 65 70 81 71 58 72 47 73 48 74 52 75 49 76 51 77
REMARK SMILES IDX 50 78 69 79 70 80 74 81 71 82 73 83 72 84 59 85 60 86 64 87
REMARK SMILES IDX 61 88 63 89 62 90
REMARK H PARENT 30 6 19 11 35 39 79 58 57 69
REMARK Flexibility Score: inf
ROOT
ATOM      1  C   UNL A   1      31.899  28.783  25.499  1.00  0.00     0.023 C 
ENDROOT
BRANCH   1   2
ATOM      2  C   UNL A   1      33.006  27.782  25.247  1.00  0.00     0.116 C 
BRANCH   2   3
ATOM      3  N   UNL A   1      33.866  28.107  24.143  1.00  0.00    -0.354 N 
ATOM      4  C   UNL A   1      33.893  27.544  22.900  1.00  0.00     0.242 C 
ATOM      5  O   UNL A   1      34.359  28.240  21.992  1.00  0.00    -0.273 OA
ATOM      6  H   UNL A   1      34.520  28.826  24.304  1.00  0.00     0.163 HD
BRANCH   4   7
ATOM      7  C   UNL A   1      33.281  26.151  22.589  1.00  0.00     0.175 C 
BRANCH   7   8
ATOM      8  N   UNL A   1      33.341  25.185  23.701  1.00  0.00    -0.342 N 
ATOM      9  O   UNL A   1      34.026  23.427  22.398  1.00  0.00    -0.273 OA
ATOM     10  C   UNL A   1      33.660  23.852  23.494  1.00  0.00     0.240 C 
ATOM     11  H   UNL A   1      33.150  25.495  24.616  1.00  0.00     0.164 HD
BRANCH  10  12
ATOM     12  C   UNL A   1      33.367  22.885  24.654  1.00  0.00     0.222 C 
BRANCH  12  13
ATOM     13  N   UNL A   1      34.446  21.907  24.926  1.00  0.00    -0.331 N 
ATOM     14  C   UNL A   1      35.721  22.372  25.323  1.00  0.00     0.053 A 
ATOM     15  C   UNL A   1      34.184  20.517  24.808  1.00  0.00     0.053 A 
ATOM     16  C   UNL A   1      35.947  23.627  25.912  1.00  0.00     0.027 A 
ATOM     17  C   UNL A   1      36.838  21.520  25.214  1.00  0.00     0.046 A 
ATOM     18  C   UNL A   1      35.262  19.610  24.738  1.00  0.00     0.046 A 
ATOM     19  C   UNL A   1      32.902  19.943  24.870  1.00  0.00     0.027 A 
ATOM     20  C   UNL A   1      37.221  24.011  26.354  1.00  0.00     0.002 A 
ATOM     21  C   UNL A   1      38.124  21.914  25.613  1.00  0.00     0.014 A 
ATOM     22  C   UNL A   1      36.639  20.140  24.732  1.00  0.00     0.197 A 
ATOM     23  C   UNL A   1      35.085  18.217  24.743  1.00  0.00     0.014 A 
ATOM     24  C   UNL A   1      32.717  18.549  24.900  1.00  0.00     0.002 A 
ATOM     25  C   UNL A   1      38.312  23.161  26.192  1.00  0.00     0.001 A 
ATOM     26  O   UNL A   1      37.592  19.441  24.406  1.00  0.00    -0.288 OA
ATOM     27  C   UNL A   1      33.806  17.688  24.842  1.00  0.00     0.001 A 
ENDBRANCH  12  13
ENDBRANCH  10  12
ENDBRANCH   7   8
BRANCH   7  28
ATOM     28  C   UNL A   1      31.918  26.176  21.838  1.00  0.00     0.070 C 
BRANCH  28  29
ATOM     29  C   UNL A   1      30.713  26.826  22.491  1.00  0.00    -0.045 A 
ATOM     30  C   UNL A   1      29.891  26.087  23.358  1.00  0.00     0.004 A 
ATOM     31  C   UNL A   1      30.371  28.163  22.226  1.00  0.00     0.004 A 
ATOM     32  C   UNL A   1      28.725  26.648  23.888  1.00  0.00     0.000 A 
ATOM     33  C   UNL A   1      29.191  28.714  22.737  1.00  0.00     0.000 A 
ATOM     34  C   UNL A   1      28.364  27.953  23.560  1.00  0.00     0.000 A 
ENDBRANCH  28  29
ENDBRANCH   7  28
ENDBRANCH   4   7
ENDBRANCH   2   3
ENDBRANCH   1   2
BRANCH   1  35
ATOM     35  C   UNL A   1      32.090  29.676  26.711  1.00  0.00     0.023 C 
BRANCH  35  36
ATOM     36  C   UNL A   1      33.539  29.906  27.132  1.00  0.00     0.116 C 
BRANCH  36  37
ATOM     37  N   UNL A   1      33.755  31.015  28.057  1.00  0.00    -0.352 N 
ATOM     38  C   UNL A   1      34.865  31.296  28.838  1.00  0.00     0.251 C 
ATOM     39  H   UNL A   1      33.009  31.651  28.139  1.00  0.00     0.163 HD
ATOM     40  O   UNL A   1      34.877  32.255  29.590  1.00  0.00    -0.269 OA
BRANCH  38  41
ATOM     41  C   UNL A   1      36.014  30.360  28.788  1.00  0.00     0.039 A 
ATOM     42  C   UNL A   1      36.356  29.625  29.919  1.00  0.00     0.014 A 
ATOM     43  C   UNL A   1      36.846  30.360  27.666  1.00  0.00     0.014 A 
ATOM     44  C   UNL A   1      37.654  29.147  30.040  1.00  0.00     0.010 A 
ATOM     45  C   UNL A   1      38.105  29.754  27.746  1.00  0.00     0.010 A 
ATOM     46  C   UNL A   1      38.558  29.228  28.966  1.00  0.00    -0.014 A 
BRANCH  46  47
ATOM     47  C   UNL A   1      39.979  28.827  29.171  1.00  0.00     0.031 A 
ATOM     48  C   UNL A   1      40.480  27.477  28.707  1.00  0.00     0.074 A 
ATOM     49  C   UNL A   1      40.851  29.713  29.689  1.00  0.00     0.049 A 
ATOM     50  N   UNL A   1      41.680  26.961  28.825  1.00  0.00    -0.248 NA
ATOM     51  C   UNL A   1      39.519  26.591  28.028  1.00  0.00     0.031 C 
ATOM     52  C   UNL A   1      40.514  31.069  30.130  1.00  0.00     0.029 A 
ATOM     53  N   UNL A   1      42.207  29.629  29.886  1.00  0.00    -0.354 N 
ATOM     54  C   UNL A   1      41.602  25.682  28.284  1.00  0.00     0.074 A 
ATOM     55  C   UNL A   1      40.239  25.492  27.842  1.00  0.00     0.031 C 
ATOM     56  C   UNL A   1      41.641  31.717  30.456  1.00  0.00     0.029 A 
ATOM     57  C   UNL A   1      42.766  30.796  30.349  1.00  0.00     0.049 A 
ATOM     58  H   UNL A   1      42.728  28.812  29.714  1.00  0.00     0.167 HD
ATOM     59  C   UNL A   1      42.579  24.752  28.163  1.00  0.00     0.031 A 
ATOM     60  C   UNL A   1      44.036  31.096  30.677  1.00  0.00     0.031 A 
ATOM     61  C   UNL A   1      43.949  24.957  28.553  1.00  0.00     0.049 A 
ATOM     62  C   UNL A   1      45.090  30.035  30.578  1.00  0.00     0.074 A 
ATOM     63  C   UNL A   1      45.013  24.077  28.445  1.00  0.00     0.029 A 
ATOM     64  N   UNL A   1      44.447  26.124  29.109  1.00  0.00    -0.354 N 
ATOM     65  N   UNL A   1      44.984  28.815  30.114  1.00  0.00    -0.248 NA
ATOM     66  C   UNL A   1      46.430  30.381  31.073  1.00  0.00     0.031 C 
ATOM     67  C   UNL A   1      46.145  24.694  28.981  1.00  0.00     0.029 A 
ATOM     68  C   UNL A   1      45.798  25.976  29.374  1.00  0.00     0.049 A 
ATOM     69  H   UNL A   1      43.920  26.935  29.289  1.00  0.00     0.167 HD
ATOM     70  C   UNL A   1      46.240  28.245  30.263  1.00  0.00     0.074 A 
ATOM     71  C   UNL A   1      47.099  29.259  30.839  1.00  0.00     0.031 C 
ATOM     72  C   UNL A   1      46.639  26.988  29.956  1.00  0.00     0.031 A 
BRANCH  59  73
ATOM     73  C   UNL A   1      42.214  23.403  27.608  1.00  0.00    -0.014 A 
ATOM     74  C   UNL A   1      42.417  23.142  26.241  1.00  0.00     0.009 A 
ATOM     75  C   UNL A   1      41.579  22.432  28.396  1.00  0.00     0.009 A 
ATOM     76  C   UNL A   1      41.983  21.943  25.674  1.00  0.00     0.001 A 
ATOM     77  C   UNL A   1      41.168  21.222  27.829  1.00  0.00     0.001 A 
ATOM     78  C   UNL A   1      41.362  20.982  26.469  1.00  0.00     0.000 A 
ENDBRANCH  59  73
BRANCH  60  79
ATOM     79  C   UNL A   1      44.355  32.465  31.157  1.00  0.00    -0.014 A 
ATOM     80  C   UNL A   1      44.838  33.439  30.267  1.00  0.00     0.009 A 
ATOM     81  C   UNL A   1      44.250  32.782  32.519  1.00  0.00     0.009 A 
ATOM     82  C   UNL A   1      45.247  34.688  30.735  1.00  0.00     0.001 A 
ATOM     83  C   UNL A   1      44.633  34.045  32.980  1.00  0.00     0.001 A 
ATOM     84  C   UNL A   1      45.142  34.991  32.091  1.00  0.00     0.000 A 
ENDBRANCH  60  79
BRANCH  72  85
ATOM     85  C   UNL A   1      48.068  26.622  30.233  1.00  0.00    -0.014 A 
ATOM     86  C   UNL A   1      49.041  26.805  29.239  1.00  0.00     0.009 A 
ATOM     87  C   UNL A   1      48.427  26.004  31.439  1.00  0.00     0.009 A 
ATOM     88  C   UNL A   1      50.349  26.360  29.442  1.00  0.00     0.001 A 
ATOM     89  C   UNL A   1      49.742  25.582  31.648  1.00  0.00     0.001 A 
ATOM     90  C   UNL A   1      50.698  25.752  30.647  1.00  0.00     0.000 A 
ENDBRANCH  72  85
ENDBRANCH  46  47
ENDBRANCH  38  41
ENDBRANCH  36  37
ENDBRANCH  35  36
ENDBRANCH   1  35
TORSDOF 16
ENDMDL
MODEL 2
REMARK VINA RESULT:     -12.2      0.453      5.539
REMARK SMILES O=C(Cn1c2ccccc2c(=O)c2ccccc21)N[C@@H](Cc1ccccc1)C(=O)NCCCCNC(=O)c1ccc(-c2c3nc(c(-c4ccccc4)c4ccc([nH]4)c(-c4ccccc4)c4nc(c(-c5ccccc5)c5ccc2[nH]5)C=C4)C=C3)cc1
REMARK SMILES IDX 32 1 31 2 30 3 28 4 29 5 20 7 19 8 1 9 2 10 3 12 4 13 5 14
REMARK SMILES IDX 18 15 6 16 10 17 13 18 17 19 7 20 9 21 11 22 14 23 16 24
REMARK SMILES IDX 8 25 12 26 15 27 21 28 22 29 23 30 27 31 24 32 26 33 25 34
REMARK SMILES IDX 33 35 34 36 35 37 36 38 37 40 38 41 39 42 85 43 40 44 84 45
REMARK SMILES IDX 41 46 42 47 43 48 78 49 44 50 83 51 77 52 79 53 45 54 82 55
REMARK SMILES IDX 76 56 75 57 46 59 68 60 53 61 67 62 54 63 57 64 66 65 80 66
REMARK SMILES IDX 55 67 56 68 65 70 81 71 58 72 47 73 48 74 52 75 49 76 51 77
REMARK SMILES IDX 50 78 69 79 70 80 74 81 71 82 73 83 72 84 59 85 60 86 64 87
REMARK SMILES IDX 61 88 63 89 62 90
REMARK H PARENT 30 6 19 11 35 39 79 58 57 69
REMARK Flexibility Score: inf
ROOT
ATOM      1  C   UNL A   1      31.925  29.266  25.436  1.00  0.00     0.023 C 
ENDROOT
BRANCH   1   2
ATOM      2  C   UNL A   1      32.943  28.177  25.185  1.00  0.00     0.116 C 
BRANCH   2   3
ATOM      3  N   UNL A   1      33.870  28.457  24.123  1.00  0.00    -0.354 N 
ATOM      4  C   UNL A   1      33.996  27.819  22.923  1.00  0.00     0.242 C 
ATOM      5  O   UNL A   1      34.507  28.470  22.006  1.00  0.00    -0.273 OA
ATOM      6  H   UNL A   1      34.493  29.203  24.281  1.00  0.00     0.163 HD
BRANCH   4   7
ATOM      7  C   UNL A   1      33.442  26.391  22.663  1.00  0.00     0.175 C 
BRANCH   7   8
ATOM      8  N   UNL A   1      33.518  25.475  23.815  1.00  0.00    -0.342 N 
ATOM      9  O   UNL A   1      34.219  23.670  22.587  1.00  0.00    -0.273 OA
ATOM     10  C   UNL A   1      33.853  24.139  23.666  1.00  0.00     0.240 C 
ATOM     11  H   UNL A   1      33.327  25.823  24.717  1.00  0.00     0.164 HD
BRANCH  10  12
ATOM     12  C   UNL A   1      33.576  23.220  24.868  1.00  0.00     0.222 C 
BRANCH  12  13
ATOM     13  N   UNL A   1      34.580  22.149  25.066  1.00  0.00    -0.331 N 
ATOM     14  C   UNL A   1      35.901  22.495  25.433  1.00  0.00     0.053 A 
ATOM     15  C   UNL A   1      34.202  20.790  24.909  1.00  0.00     0.053 A 
ATOM     16  C   UNL A   1      36.248  23.704  26.058  1.00  0.00     0.027 A 
ATOM     17  C   UNL A   1      36.941  21.562  25.254  1.00  0.00     0.046 A 
ATOM     18  C   UNL A   1      35.200  19.803  24.768  1.00  0.00     0.046 A 
ATOM     19  C   UNL A   1      32.880  20.319  24.996  1.00  0.00     0.027 A 
ATOM     20  C   UNL A   1      37.563  23.969  26.467  1.00  0.00     0.002 A 
ATOM     21  C   UNL A   1      38.267  21.835  25.621  1.00  0.00     0.014 A 
ATOM     22  C   UNL A   1      36.615  20.221  24.732  1.00  0.00     0.197 A 
ATOM     23  C   UNL A   1      34.911  18.429  24.731  1.00  0.00     0.014 A 
ATOM     24  C   UNL A   1      32.584  18.944  24.984  1.00  0.00     0.002 A 
ATOM     25  C   UNL A   1      38.575  23.041  26.237  1.00  0.00     0.001 A 
ATOM     26  O   UNL A   1      37.497  19.461  24.347  1.00  0.00    -0.288 OA
ATOM     27  C   UNL A   1      33.596  18.001  24.856  1.00  0.00     0.001 A 
ENDBRANCH  12  13
ENDBRANCH  10  12
ENDBRANCH   7   8
BRANCH   7  28
ATOM     28  C   UNL A   1      32.092  26.333  21.889  1.00  0.00     0.070 C 
BRANCH  28  29
ATOM     29  C   UNL A   1      30.834  26.884  22.534  1.00  0.00    -0.045 A 
ATOM     30  C   UNL A   1      30.063  26.076  23.387  1.00  0.00     0.004 A 
ATOM     31  C   UNL A   1      30.393  28.192  22.274  1.00  0.00     0.004 A 
ATOM     32  C   UNL A   1      28.852  26.542  23.908  1.00  0.00     0.000 A 
ATOM     33  C   UNL A   1      29.168  28.646  22.776  1.00  0.00     0.000 A 
ATOM     34  C   UNL A   1      28.395  27.818  23.585  1.00  0.00     0.000 A 
ENDBRANCH  28  29
ENDBRANCH   7  28
ENDBRANCH   4   7
ENDBRANCH   2   3
ENDBRANCH   1   2
BRANCH   1  35
ATOM     35  C   UNL A   1      32.101  30.040  26.730  1.00  0.00     0.023 C 
BRANCH  35  36
ATOM     36  C   UNL A   1      33.542  30.193  27.208  1.00  0.00     0.116 C 
BRANCH  36  37
ATOM     37  N   UNL A   1      33.765  31.237  28.205  1.00  0.00    -0.352 N 
ATOM     38  C   UNL A   1      34.879  31.463  28.998  1.00  0.00     0.251 C 
ATOM     39  H   UNL A   1      33.020  31.867  28.333  1.00  0.00     0.163 HD
ATOM     40  O   UNL A   1      34.897  32.370  29.813  1.00  0.00    -0.269 OA
BRANCH  38  41
ATOM     41  C   UNL A   1      36.026  30.532  28.879  1.00  0.00     0.039 A 
ATOM     42  C   UNL A   1      36.335  29.679  29.934  1.00  0.00     0.014 A 
ATOM     43  C   UNL A   1      36.888  30.646  27.786  1.00  0.00     0.014 A 
ATOM     44  C   UNL A   1      37.628  29.183  30.038  1.00  0.00     0.010 A 
ATOM     45  C   UNL A   1      38.143  30.028  27.834  1.00  0.00     0.010 A 
ATOM     46  C   UNL A   1      38.561  29.373  29.004  1.00  0.00    -0.014 A 
BRANCH  46  47
ATOM     47  C   UNL A   1      39.974  28.943  29.203  1.00  0.00     0.031 A 
ATOM     48  C   UNL A   1      40.932  29.779  30.022  1.00  0.00     0.074 A 
ATOM     49  C   UNL A   1      40.378  27.748  28.730  1.00  0.00     0.049 A 
ATOM     50  N   UNL A   1      42.200  29.562  30.278  1.00  0.00    -0.248 NA
ATOM     51  C   UNL A   1      40.410  31.015  30.629  1.00  0.00     0.031 C 
ATOM     52  C   UNL A   1      39.543  26.817  27.968  1.00  0.00     0.029 A 
ATOM     53  N   UNL A   1      41.575  27.088  28.860  1.00  0.00    -0.354 N 
ATOM     54  C   UNL A   1      42.632  30.651  31.027  1.00  0.00     0.074 A 
ATOM     55  C   UNL A   1      41.499  31.534  31.182  1.00  0.00     0.031 C 
ATOM     56  C   UNL A   1      40.218  25.674  27.782  1.00  0.00     0.029 A 
ATOM     57  C   UNL A   1      41.566  25.827  28.315  1.00  0.00     0.049 A 
ATOM     58  H   UNL A   1      42.363  27.480  29.300  1.00  0.00     0.167 HD
ATOM     59  C   UNL A   1      43.862  30.892  31.542  1.00  0.00     0.031 A 
ATOM     60  C   UNL A   1      42.535  24.897  28.226  1.00  0.00     0.031 A 
ATOM     61  C   UNL A   1      44.978  29.990  31.435  1.00  0.00     0.049 A 
ATOM     62  C   UNL A   1      43.900  25.207  28.762  1.00  0.00     0.074 A 
ATOM     63  C   UNL A   1      46.256  30.142  31.948  1.00  0.00     0.029 A 
ATOM     64  N   UNL A   1      44.948  28.767  30.787  1.00  0.00    -0.354 N 
ATOM     65  N   UNL A   1      44.301  26.265  29.421  1.00  0.00    -0.248 NA
ATOM     66  C   UNL A   1      44.951  24.208  28.521  1.00  0.00     0.031 C 
ATOM     67  C   UNL A   1      47.013  29.032  31.567  1.00  0.00     0.029 A 
ATOM     68  C   UNL A   1      46.192  28.166  30.864  1.00  0.00     0.049 A 
ATOM     69  H   UNL A   1      44.161  28.383  30.339  1.00  0.00     0.167 HD
ATOM     70  C   UNL A   1      45.652  26.065  29.670  1.00  0.00     0.074 A 
ATOM     71  C   UNL A   1      45.996  24.772  29.113  1.00  0.00     0.031 C 
ATOM     72  C   UNL A   1      46.526  26.885  30.298  1.00  0.00     0.031 A 
BRANCH  59  73
ATOM     73  C   UNL A   1      44.093  32.196  32.255  1.00  0.00    -0.014 A 
ATOM     74  C   UNL A   1      44.530  33.314  31.523  1.00  0.00     0.009 A 
ATOM     75  C   UNL A   1      43.983  32.300  33.649  1.00  0.00     0.009 A 
ATOM     76  C   UNL A   1      44.863  34.503  32.172  1.00  0.00     0.001 A 
ATOM     77  C   UNL A   1      44.294  33.501  34.294  1.00  0.00     0.001 A 
ATOM     78  C   UNL A   1      44.742  34.597  33.557  1.00  0.00     0.000 A 
ENDBRANCH  59  73
BRANCH  60  79
ATOM     79  C   UNL A   1      42.234  23.598  27.570  1.00  0.00    -0.014 A 
ATOM     80  C   UNL A   1      41.696  22.533  28.312  1.00  0.00     0.009 A 
ATOM     81  C   UNL A   1      42.554  23.393  26.221  1.00  0.00     0.009 A 
ATOM     82  C   UNL A   1      41.521  21.279  27.727  1.00  0.00     0.001 A 
ATOM     83  C   UNL A   1      42.349  22.144  25.630  1.00  0.00     0.001 A 
ATOM     84  C   UNL A   1      41.845  21.086  26.386  1.00  0.00     0.000 A 
ENDBRANCH  60  79
BRANCH  72  85
ATOM     85  C   UNL A   1      47.949  26.425  30.423  1.00  0.00    -0.014 A 
ATOM     86  C   UNL A   1      48.829  26.575  29.340  1.00  0.00     0.009 A 
ATOM     87  C   UNL A   1      48.385  25.754  31.574  1.00  0.00     0.009 A 
ATOM     88  C   UNL A   1      50.119  26.046  29.402  1.00  0.00     0.001 A 
ATOM     89  C   UNL A   1      49.685  25.246  31.641  1.00  0.00     0.001 A 
ATOM     90  C   UNL A   1      50.546  25.385  30.552  1.00  0.00     0.000 A 
ENDBRANCH  72  85
ENDBRANCH  46  47
ENDBRANCH  38  41
ENDBRANCH  36  37
ENDBRANCH  35  36
ENDBRANCH   1  35
TORSDOF 16
ENDMDL
MODEL 3
REMARK VINA RESULT:     -11.8      3.337      8.877
REMARK SMILES O=C(Cn1c2ccccc2c(=O)c2ccccc21)N[C@@H](Cc1ccccc1)C(=O)NCCCCNC(=O)c1ccc(-c2c3nc(c(-c4ccccc4)c4ccc([nH]4)c(-c4ccccc4)c4nc(c(-c5ccccc5)c5ccc2[nH]5)C=C4)C=C3)cc1
REMARK SMILES IDX 32 1 31 2 30 3 28 4 29 5 20 7 19 8 1 9 2 10 3 12 4 13 5 14
REMARK SMILES IDX 18 15 6 16 10 17 13 18 17 19 7 20 9 21 11 22 14 23 16 24
REMARK SMILES IDX 8 25 12 26 15 27 21 28 22 29 23 30 27 31 24 32 26 33 25 34
REMARK SMILES IDX 33 35 34 36 35 37 36 38 37 40 38 41 39 42 85 43 40 44 84 45
REMARK SMILES IDX 41 46 42 47 43 48 78 49 44 50 83 51 77 52 79 53 45 54 82 55
REMARK SMILES IDX 76 56 75 57 46 59 68 60 53 61 67 62 54 63 57 64 66 65 80 66
REMARK SMILES IDX 55 67 56 68 65 70 81 71 58 72 47 73 48 74 52 75 49 76 51 77
REMARK SMILES IDX 50 78 69 79 70 80 74 81 71 82 73 83 72 84 59 85 60 86 64 87
REMARK SMILES IDX 61 88 63 89 62 90
REMARK H PARENT 30 6 19 11 35 39 79 58 57 69
REMARK Flexibility Score: inf
ROOT
ATOM      1  C   UNL A   1      37.390  23.576  25.546  1.00  0.00     0.023 C 
ENDROOT
BRANCH   1   2
ATOM      2  C   UNL A   1      35.976  23.161  25.203  1.00  0.00     0.116 C 
BRANCH   2   3
ATOM      3  N   UNL A   1      35.550  23.525  23.880  1.00  0.00    -0.354 N 
ATOM      4  C   UNL A   1      34.290  23.828  23.452  1.00  0.00     0.242 C 
ATOM      5  O   UNL A   1      34.207  24.533  22.441  1.00  0.00    -0.273 OA
ATOM      6  H   UNL A   1      36.257  23.560  23.194  1.00  0.00     0.163 HD
BRANCH   4   7
ATOM      7  C   UNL A   1      33.011  23.414  24.231  1.00  0.00     0.175 C 
BRANCH   7   8
ATOM      8  N   UNL A   1      32.209  24.538  24.749  1.00  0.00    -0.342 N 
ATOM      9  O   UNL A   1      33.931  25.481  25.933  1.00  0.00    -0.273 OA
ATOM     10  C   UNL A   1      32.738  25.468  25.628  1.00  0.00     0.240 C 
ATOM     11  H   UNL A   1      31.272  24.630  24.461  1.00  0.00     0.164 HD
BRANCH  10  12
ATOM     12  C   UNL A   1      31.734  26.383  26.351  1.00  0.00     0.222 C 
BRANCH  12  13
ATOM     13  N   UNL A   1      31.734  27.788  25.884  1.00  0.00    -0.331 N 
ATOM     14  C   UNL A   1      32.604  28.722  26.493  1.00  0.00     0.053 A 
ATOM     15  C   UNL A   1      30.882  28.177  24.817  1.00  0.00     0.053 A 
ATOM     16  C   UNL A   1      33.773  28.366  27.185  1.00  0.00     0.027 A 
ATOM     17  C   UNL A   1      32.360  30.101  26.344  1.00  0.00     0.046 A 
ATOM     18  C   UNL A   1      30.633  29.547  24.592  1.00  0.00     0.046 A 
ATOM     19  C   UNL A   1      30.339  27.290  23.871  1.00  0.00     0.027 A 
ATOM     20  C   UNL A   1      34.640  29.335  27.709  1.00  0.00     0.002 A 
ATOM     21  C   UNL A   1      33.198  31.077  26.903  1.00  0.00     0.014 A 
ATOM     22  C   UNL A   1      31.225  30.539  25.510  1.00  0.00     0.197 A 
ATOM     23  C   UNL A   1      29.903  30.015  23.487  1.00  0.00     0.014 A 
ATOM     24  C   UNL A   1      29.627  27.752  22.750  1.00  0.00     0.002 A 
ATOM     25  C   UNL A   1      34.347  30.689  27.580  1.00  0.00     0.001 A 
ATOM     26  O   UNL A   1      30.835  31.702  25.532  1.00  0.00    -0.288 OA
ATOM     27  C   UNL A   1      29.413  29.110  22.554  1.00  0.00     0.001 A 
ENDBRANCH  12  13
ENDBRANCH  10  12
ENDBRANCH   7   8
BRANCH   7  28
ATOM     28  C   UNL A   1      32.171  22.280  23.575  1.00  0.00     0.070 C 
BRANCH  28  29
ATOM     29  C   UNL A   1      32.655  20.844  23.659  1.00  0.00    -0.045 A 
ATOM     30  C   UNL A   1      32.153  19.874  22.775  1.00  0.00     0.004 A 
ATOM     31  C   UNL A   1      33.584  20.442  24.633  1.00  0.00     0.004 A 
ATOM     32  C   UNL A   1      32.519  18.531  22.907  1.00  0.00     0.000 A 
ATOM     33  C   UNL A   1      33.928  19.094  24.779  1.00  0.00     0.000 A 
ATOM     34  C   UNL A   1      33.388  18.139  23.922  1.00  0.00     0.000 A 
ENDBRANCH  28  29
ENDBRANCH   7  28
ENDBRANCH   4   7
ENDBRANCH   2   3
ENDBRANCH   1   2
BRANCH   1  35
ATOM     35  C   UNL A   1      38.373  22.438  25.751  1.00  0.00     0.023 C 
BRANCH  35  36
ATOM     36  C   UNL A   1      39.507  22.722  26.732  1.00  0.00     0.116 C 
BRANCH  36  37
ATOM     37  N   UNL A   1      40.783  23.093  26.125  1.00  0.00    -0.352 N 
ATOM     38  C   UNL A   1      41.455  24.304  26.180  1.00  0.00     0.251 C 
ATOM     39  H   UNL A   1      41.226  22.387  25.603  1.00  0.00     0.163 HD
ATOM     40  O   UNL A   1      42.508  24.465  25.587  1.00  0.00    -0.269 OA
BRANCH  38  41
ATOM     41  C   UNL A   1      40.827  25.423  26.923  1.00  0.00     0.039 A 
ATOM     42  C   UNL A   1      41.211  26.733  26.654  1.00  0.00     0.014 A 
ATOM     43  C   UNL A   1      39.990  25.139  28.005  1.00  0.00     0.014 A 
ATOM     44  C   UNL A   1      41.013  27.703  27.627  1.00  0.00     0.010 A 
ATOM     45  C   UNL A   1      39.678  26.155  28.915  1.00  0.00     0.010 A 
ATOM     46  C   UNL A   1      40.268  27.423  28.786  1.00  0.00    -0.014 A 
BRANCH  46  47
ATOM     47  C   UNL A   1      40.186  28.443  29.870  1.00  0.00     0.031 A 
ATOM     48  C   UNL A   1      41.238  28.510  30.954  1.00  0.00     0.074 A 
ATOM     49  C   UNL A   1      39.219  29.380  29.829  1.00  0.00     0.049 A 
ATOM     50  N   UNL A   1      41.307  29.322  31.983  1.00  0.00    -0.248 NA
ATOM     51  C   UNL A   1      42.350  27.547  30.885  1.00  0.00     0.031 C 
ATOM     52  C   UNL A   1      38.170  29.465  28.809  1.00  0.00     0.029 A 
ATOM     53  N   UNL A   1      38.985  30.467  30.634  1.00  0.00    -0.354 N 
ATOM     54  C   UNL A   1      42.434  28.936  32.701  1.00  0.00     0.074 A 
ATOM     55  C   UNL A   1      43.018  27.814  32.001  1.00  0.00     0.031 C 
ATOM     56  C   UNL A   1      37.469  30.591  28.994  1.00  0.00     0.029 A 
ATOM     57  C   UNL A   1      37.945  31.253  30.203  1.00  0.00     0.049 A 
ATOM     58  H   UNL A   1      39.511  30.663  31.442  1.00  0.00     0.167 HD
ATOM     59  C   UNL A   1      42.939  29.469  33.839  1.00  0.00     0.031 A 
ATOM     60  C   UNL A   1      37.409  32.372  30.725  1.00  0.00     0.031 A 
ATOM     61  C   UNL A   1      42.391  30.619  34.509  1.00  0.00     0.049 A 
ATOM     62  C   UNL A   1      37.955  32.916  32.010  1.00  0.00     0.074 A 
ATOM     63  C   UNL A   1      42.852  31.244  35.656  1.00  0.00     0.029 A 
ATOM     64  N   UNL A   1      41.276  31.324  34.088  1.00  0.00    -0.354 N 
ATOM     65  N   UNL A   1      38.988  32.504  32.701  1.00  0.00    -0.248 NA
ATOM     66  C   UNL A   1      37.248  34.060  32.602  1.00  0.00     0.031 C 
ATOM     67  C   UNL A   1      41.986  32.298  35.956  1.00  0.00     0.029 A 
ATOM     68  C   UNL A   1      41.018  32.362  34.967  1.00  0.00     0.049 A 
ATOM     69  H   UNL A   1      40.746  31.118  33.284  1.00  0.00     0.167 HD
ATOM     70  C   UNL A   1      39.055  33.334  33.812  1.00  0.00     0.074 A 
ATOM     71  C   UNL A   1      37.972  34.289  33.690  1.00  0.00     0.031 C 
ATOM     72  C   UNL A   1      39.933  33.298  34.842  1.00  0.00     0.031 A 
BRANCH  59  73
ATOM     73  C   UNL A   1      44.137  28.811  34.465  1.00  0.00    -0.014 A 
ATOM     74  C   UNL A   1      45.426  29.215  34.078  1.00  0.00     0.009 A 
ATOM     75  C   UNL A   1      44.002  27.732  35.350  1.00  0.00     0.009 A 
ATOM     76  C   UNL A   1      46.554  28.546  34.555  1.00  0.00     0.001 A 
ATOM     77  C   UNL A   1      45.135  27.079  35.845  1.00  0.00     0.001 A 
ATOM     78  C   UNL A   1      46.408  27.480  35.441  1.00  0.00     0.000 A 
ENDBRANCH  59  73
BRANCH  60  79
ATOM     79  C   UNL A   1      36.268  33.021  30.030  1.00  0.00    -0.014 A 
ATOM     80  C   UNL A   1      36.488  33.837  28.908  1.00  0.00     0.009 A 
ATOM     81  C   UNL A   1      34.964  32.890  30.529  1.00  0.00     0.009 A 
ATOM     82  C   UNL A   1      35.434  34.540  28.324  1.00  0.00     0.001 A 
ATOM     83  C   UNL A   1      33.905  33.571  29.923  1.00  0.00     0.001 A 
ATOM     84  C   UNL A   1      34.143  34.405  28.830  1.00  0.00     0.000 A 
ENDBRANCH  60  79
BRANCH  72  85
ATOM     85  C   UNL A   1      39.771  34.317  35.932  1.00  0.00    -0.014 A 
ATOM     86  C   UNL A   1      40.443  35.546  35.845  1.00  0.00     0.009 A 
ATOM     87  C   UNL A   1      39.036  34.017  37.088  1.00  0.00     0.009 A 
ATOM     88  C   UNL A   1      40.394  36.452  36.905  1.00  0.00     0.001 A 
ATOM     89  C   UNL A   1      38.971  34.936  38.137  1.00  0.00     0.001 A 
ATOM     90  C   UNL A   1      39.657  36.148  38.048  1.00  0.00     0.000 A 
ENDBRANCH  72  85
ENDBRANCH  46  47
ENDBRANCH  38  41
ENDBRANCH  36  37
ENDBRANCH  35  36
ENDBRANCH   1  35
TORSDOF 16
ENDMDL
