MODEL 1
REMARK VINA RESULT:     -11.1      0.000      0.000
REMARK SMILES COCC[C@]1(C(=O)NCCCCNC(=O)c2ccc(-c3c4nc(c(-c5ccccc5)c5ccc([nH]5)c(-c5ccccc5)c5nc(c(-c6ccccc6)c6ccc3[nH]6)C=C5)C=C4)cc2)CCC[N@@H+](Cc2ccc(C(F)(F)F)nc2)C1
REMARK SMILES IDX 10 1 9 2 8 3 6 4 7 5 5 7 64 8 79 9 65 10 67 11 66 12 4 14
REMARK SMILES IDX 3 15 2 16 1 17 68 18 69 19 70 20 78 21 71 22 77 23 72 24
REMARK SMILES IDX 73 25 74 26 75 27 76 28 11 29 12 30 13 31 14 32 15 34 16 35
REMARK SMILES IDX 17 36 63 37 18 38 62 39 19 40 20 41 21 42 56 43 22 44 61 45
REMARK SMILES IDX 55 46 57 47 23 48 60 49 54 50 53 51 24 53 46 54 31 55 45 56
REMARK SMILES IDX 32 57 35 58 44 59 58 60 33 61 34 62 43 64 59 65 36 66 25 67
REMARK SMILES IDX 26 68 30 69 27 70 29 71 28 72 47 73 48 74 52 75 49 76 51 77
REMARK SMILES IDX 50 78 37 79 38 80 42 81 39 82 41 83 40 84
REMARK H PARENT 8 6 67 13 13 33 57 52 35 63
REMARK Flexibility Score: inf
ROOT
ATOM      1  C   UNL A   1      36.982  21.196  24.369  1.00  0.00     0.023 C 
ENDROOT
BRANCH   1   2
ATOM      2  C   UNL A   1      36.532  22.151  25.474  1.00  0.00     0.116 C 
BRANCH   2   3
ATOM      3  N   UNL A   1      35.590  21.511  26.371  1.00  0.00    -0.355 N 
ATOM      4  C   UNL A   1      34.353  21.886  26.793  1.00  0.00     0.232 C 
ATOM      5  O   UNL A   1      34.071  21.494  27.929  1.00  0.00    -0.274 OA
ATOM      6  H   UNL A   1      35.901  20.651  26.739  1.00  0.00     0.163 HD
BRANCH   4   7
ATOM      7  C   UNL A   1      33.413  22.806  25.981  1.00  0.00     0.100 C 
ATOM      8  C   UNL A   1      32.032  22.727  26.695  1.00  0.00     0.029 C 
ATOM      9  C   UNL A   1      33.899  24.276  25.882  1.00  0.00     0.279 C 
ATOM     10  C   UNL A   1      31.051  23.838  26.335  1.00  0.00     0.063 C 
ATOM     11  N   UNL A   1      32.842  25.162  25.367  1.00  0.00    -0.330 N 
ATOM     12  C   UNL A   1      31.715  25.210  26.300  1.00  0.00     0.262 C 
ATOM     13  H   UNL A   1      32.515  24.740  24.498  1.00  0.00     0.348 HD
BRANCH   7  14
ATOM     14  C   UNL A   1      33.261  22.236  24.522  1.00  0.00     0.051 C 
BRANCH  14  15
ATOM     15  C   UNL A   1      32.615  20.841  24.357  1.00  0.00     0.161 C 
BRANCH  15  16
ATOM     16  O   UNL A   1      33.574  19.793  24.391  1.00  0.00    -0.385 OA
ATOM     17  C   UNL A   1      33.165  18.637  25.105  1.00  0.00     0.194 C 
ENDBRANCH  15  16
ENDBRANCH  14  15
ENDBRANCH   7  14
BRANCH  11  18
ATOM     18  C   UNL A   1      33.295  26.487  24.924  1.00  0.00     0.300 C 
BRANCH  18  19
ATOM     19  C   UNL A   1      32.225  27.467  24.525  1.00  0.00     0.025 A 
ATOM     20  C   UNL A   1      31.329  27.182  23.493  1.00  0.00     0.013 A 
ATOM     21  C   UNL A   1      32.089  28.693  25.163  1.00  0.00     0.121 A 
ATOM     22  C   UNL A   1      30.381  28.125  23.112  1.00  0.00     0.034 A 
ATOM     23  N   UNL A   1      31.171  29.626  24.821  1.00  0.00    -0.251 NA
ATOM     24  C   UNL A   1      30.329  29.347  23.784  1.00  0.00     0.144 A 
BRANCH  24  25
ATOM     25  C   UNL A   1      29.300  30.387  23.360  1.00  0.00     0.433 C 
ATOM     26  F   UNL A   1      28.024  29.908  23.362  1.00  0.00    -0.165 F 
ATOM     27  F   UNL A   1      29.293  31.496  24.153  1.00  0.00    -0.165 F 
ATOM     28  F   UNL A   1      29.510  30.855  22.092  1.00  0.00    -0.165 F 
ENDBRANCH  24  25
ENDBRANCH  18  19
ENDBRANCH  11  18
ENDBRANCH   4   7
ENDBRANCH   2   3
ENDBRANCH   1   2
BRANCH   1  29
ATOM     29  C   UNL A   1      37.780  19.987  24.849  1.00  0.00     0.023 C 
BRANCH  29  30
ATOM     30  C   UNL A   1      38.875  20.306  25.853  1.00  0.00     0.116 C 
BRANCH  30  31
ATOM     31  N   UNL A   1      39.985  19.368  25.795  1.00  0.00    -0.352 N 
ATOM     32  C   UNL A   1      41.317  19.582  26.057  1.00  0.00     0.251 C 
ATOM     33  H   UNL A   1      39.749  18.450  25.530  1.00  0.00     0.163 HD
ATOM     34  O   UNL A   1      42.142  18.716  25.808  1.00  0.00    -0.269 OA
BRANCH  32  35
ATOM     35  C   UNL A   1      41.741  20.880  26.615  1.00  0.00     0.039 A 
ATOM     36  C   UNL A   1      42.177  21.878  25.740  1.00  0.00     0.014 A 
ATOM     37  C   UNL A   1      41.686  21.118  27.991  1.00  0.00     0.014 A 
ATOM     38  C   UNL A   1      42.506  23.135  26.246  1.00  0.00     0.010 A 
ATOM     39  C   UNL A   1      41.924  22.398  28.479  1.00  0.00     0.010 A 
ATOM     40  C   UNL A   1      42.350  23.414  27.613  1.00  0.00    -0.014 A 
BRANCH  40  41
ATOM     41  C   UNL A   1      42.644  24.763  28.152  1.00  0.00     0.031 A 
ATOM     42  C   UNL A   1      44.049  25.130  28.545  1.00  0.00     0.074 A 
ATOM     43  C   UNL A   1      41.639  25.643  28.326  1.00  0.00     0.049 A 
ATOM     44  N   UNL A   1      44.501  26.258  29.032  1.00  0.00    -0.248 NA
ATOM     45  C   UNL A   1      45.077  24.086  28.395  1.00  0.00     0.031 C 
ATOM     46  C   UNL A   1      40.227  25.389  28.030  1.00  0.00     0.029 A 
ATOM     47  N   UNL A   1      41.654  26.935  28.788  1.00  0.00    -0.354 N 
ATOM     48  C   UNL A   1      45.857  26.055  29.255  1.00  0.00     0.074 A 
ATOM     49  C   UNL A   1      46.142  24.679  28.913  1.00  0.00     0.031 C 
ATOM     50  C   UNL A   1      39.519  26.502  28.277  1.00  0.00     0.029 A 
ATOM     51  C   UNL A   1      40.418  27.534  28.785  1.00  0.00     0.049 A 
ATOM     52  H   UNL A   1      42.472  27.389  29.093  1.00  0.00     0.167 HD
ATOM     53  C   UNL A   1      46.788  26.939  29.683  1.00  0.00     0.031 A 
ATOM     54  C   UNL A   1      40.050  28.777  29.148  1.00  0.00     0.031 A 
ATOM     55  C   UNL A   1      46.503  28.307  30.019  1.00  0.00     0.049 A 
ATOM     56  C   UNL A   1      41.101  29.737  29.629  1.00  0.00     0.074 A 
ATOM     57  C   UNL A   1      47.383  29.300  30.413  1.00  0.00     0.029 A 
ATOM     58  N   UNL A   1      45.238  28.876  30.003  1.00  0.00    -0.354 N 
ATOM     59  N   UNL A   1      42.392  29.553  29.763  1.00  0.00    -0.248 NA
ATOM     60  C   UNL A   1      40.644  31.085  29.993  1.00  0.00     0.031 C 
ATOM     61  C   UNL A   1      46.642  30.454  30.693  1.00  0.00     0.029 A 
ATOM     62  C   UNL A   1      45.311  30.200  30.405  1.00  0.00     0.049 A 
ATOM     63  H   UNL A   1      44.411  28.408  29.746  1.00  0.00     0.167 HD
ATOM     64  C   UNL A   1      42.906  30.769  30.194  1.00  0.00     0.074 A 
ATOM     65  C   UNL A   1      41.789  31.687  30.280  1.00  0.00     0.031 C 
ATOM     66  C   UNL A   1      44.188  31.099  30.488  1.00  0.00     0.031 A 
BRANCH  53  67
ATOM     67  C   UNL A   1      48.203  26.445  29.815  1.00  0.00    -0.014 A 
ATOM     68  C   UNL A   1      49.116  26.552  28.753  1.00  0.00     0.009 A 
ATOM     69  C   UNL A   1      48.638  25.887  31.028  1.00  0.00     0.009 A 
ATOM     70  C   UNL A   1      50.422  26.074  28.890  1.00  0.00     0.001 A 
ATOM     71  C   UNL A   1      49.953  25.441  31.172  1.00  0.00     0.001 A 
ATOM     72  C   UNL A   1      50.841  25.525  30.100  1.00  0.00     0.000 A 
ENDBRANCH  53  67
BRANCH  54  73
ATOM     73  C   UNL A   1      38.627  29.195  29.044  1.00  0.00    -0.014 A 
ATOM     74  C   UNL A   1      38.113  29.684  27.833  1.00  0.00     0.009 A 
ATOM     75  C   UNL A   1      37.776  29.118  30.158  1.00  0.00     0.009 A 
ATOM     76  C   UNL A   1      36.788  30.117  27.749  1.00  0.00     0.001 A 
ATOM     77  C   UNL A   1      36.443  29.520  30.062  1.00  0.00     0.001 A 
ATOM     78  C   UNL A   1      35.952  30.030  28.861  1.00  0.00     0.000 A 
ENDBRANCH  54  73
BRANCH  66  79
ATOM     79  C   UNL A   1      44.455  32.523  30.887  1.00  0.00    -0.014 A 
ATOM     80  C   UNL A   1      44.435  32.927  32.231  1.00  0.00     0.009 A 
ATOM     81  C   UNL A   1      44.755  33.473  29.898  1.00  0.00     0.009 A 
ATOM     82  C   UNL A   1      44.666  34.261  32.571  1.00  0.00     0.001 A 
ATOM     83  C   UNL A   1      45.021  34.798  30.242  1.00  0.00     0.001 A 
ATOM     84  C   UNL A   1      44.963  35.194  31.578  1.00  0.00     0.000 A 
ENDBRANCH  66  79
ENDBRANCH  40  41
ENDBRANCH  32  35
ENDBRANCH  30  31
ENDBRANCH  29  30
ENDBRANCH   1  29
TORSDOF 17
ENDMDL
MODEL 2
REMARK VINA RESULT:     -11.0      4.351      9.358
REMARK SMILES COCC[C@]1(C(=O)NCCCCNC(=O)c2ccc(-c3c4nc(c(-c5ccccc5)c5ccc([nH]5)c(-c5ccccc5)c5nc(c(-c6ccccc6)c6ccc3[nH]6)C=C5)C=C4)cc2)CCC[N@@H+](Cc2ccc(C(F)(F)F)nc2)C1
REMARK SMILES IDX 10 1 9 2 8 3 6 4 7 5 5 7 64 8 79 9 65 10 67 11 66 12 4 14
REMARK SMILES IDX 3 15 2 16 1 17 68 18 69 19 70 20 78 21 71 22 77 23 72 24
REMARK SMILES IDX 73 25 74 26 75 27 76 28 11 29 12 30 13 31 14 32 15 34 16 35
REMARK SMILES IDX 17 36 63 37 18 38 62 39 19 40 20 41 21 42 56 43 22 44 61 45
REMARK SMILES IDX 55 46 57 47 23 48 60 49 54 50 53 51 24 53 46 54 31 55 45 56
REMARK SMILES IDX 32 57 35 58 44 59 58 60 33 61 34 62 43 64 59 65 36 66 25 67
REMARK SMILES IDX 26 68 30 69 27 70 29 71 28 72 47 73 48 74 52 75 49 76 51 77
REMARK SMILES IDX 50 78 37 79 38 80 42 81 39 82 41 83 40 84
REMARK H PARENT 8 6 67 13 13 33 57 52 35 63
REMARK Flexibility Score: inf
ROOT
ATOM      1  C   UNL A   1      31.539  30.173  26.528  1.00  0.00     0.023 C 
ENDROOT
BRANCH   1   2
ATOM      2  C   UNL A   1      32.872  29.561  26.103  1.00  0.00     0.116 C 
BRANCH   2   3
ATOM      3  N   UNL A   1      33.097  29.725  24.681  1.00  0.00    -0.355 N 
ATOM      4  C   UNL A   1      33.305  28.814  23.692  1.00  0.00     0.232 C 
ATOM      5  O   UNL A   1      34.019  29.227  22.773  1.00  0.00    -0.274 OA
ATOM      6  H   UNL A   1      33.099  30.662  24.376  1.00  0.00     0.163 HD
BRANCH   4   7
ATOM      7  C   UNL A   1      32.790  27.357  23.747  1.00  0.00     0.100 C 
ATOM      8  C   UNL A   1      33.020  26.780  22.320  1.00  0.00     0.029 C 
ATOM      9  C   UNL A   1      33.493  26.479  24.816  1.00  0.00     0.279 C 
ATOM     10  C   UNL A   1      32.967  25.259  22.219  1.00  0.00     0.063 C 
ATOM     11  N   UNL A   1      33.187  25.051  24.629  1.00  0.00    -0.330 N 
ATOM     12  C   UNL A   1      33.725  24.576  23.353  1.00  0.00     0.262 C 
ATOM     13  H   UNL A   1      32.170  24.980  24.589  1.00  0.00     0.348 HD
BRANCH   7  14
ATOM     14  C   UNL A   1      31.246  27.362  24.048  1.00  0.00     0.051 C 
BRANCH  14  15
ATOM     15  C   UNL A   1      30.315  28.055  23.026  1.00  0.00     0.161 C 
BRANCH  15  16
ATOM     16  O   UNL A   1      30.101  29.427  23.330  1.00  0.00    -0.385 OA
ATOM     17  C   UNL A   1      28.887  29.963  22.830  1.00  0.00     0.194 C 
ENDBRANCH  15  16
ENDBRANCH  14  15
ENDBRANCH   7  14
BRANCH  11  18
ATOM     18  C   UNL A   1      33.521  24.184  25.766  1.00  0.00     0.300 C 
BRANCH  18  19
ATOM     19  C   UNL A   1      33.373  22.702  25.551  1.00  0.00     0.025 A 
ATOM     20  C   UNL A   1      34.488  21.868  25.460  1.00  0.00     0.013 A 
ATOM     21  C   UNL A   1      32.124  22.107  25.433  1.00  0.00     0.121 A 
ATOM     22  C   UNL A   1      34.325  20.509  25.214  1.00  0.00     0.034 A 
ATOM     23  N   UNL A   1      31.933  20.787  25.203  1.00  0.00    -0.251 NA
ATOM     24  C   UNL A   1      33.036  19.993  25.076  1.00  0.00     0.144 A 
BRANCH  24  25
ATOM     25  C   UNL A   1      32.854  18.508  24.793  1.00  0.00     0.433 C 
ATOM     26  F   UNL A   1      34.009  17.890  24.416  1.00  0.00    -0.165 F 
ATOM     27  F   UNL A   1      32.377  17.807  25.861  1.00  0.00    -0.165 F 
ATOM     28  F   UNL A   1      31.966  18.266  23.781  1.00  0.00    -0.165 F 
ENDBRANCH  24  25
ENDBRANCH  18  19
ENDBRANCH  11  18
ENDBRANCH   4   7
ENDBRANCH   2   3
ENDBRANCH   1   2
BRANCH   1  29
ATOM     29  C   UNL A   1      31.510  31.698  26.554  1.00  0.00     0.023 C 
BRANCH  29  30
ATOM     30  C   UNL A   1      32.758  32.347  27.129  1.00  0.00     0.116 C 
BRANCH  30  31
ATOM     31  N   UNL A   1      32.521  33.699  27.609  1.00  0.00    -0.352 N 
ATOM     32  C   UNL A   1      33.237  34.434  28.523  1.00  0.00     0.251 C 
ATOM     33  H   UNL A   1      31.735  34.153  27.226  1.00  0.00     0.163 HD
ATOM     34  O   UNL A   1      32.808  35.504  28.928  1.00  0.00    -0.269 OA
BRANCH  32  35
ATOM     35  C   UNL A   1      34.518  33.902  29.029  1.00  0.00     0.039 A 
ATOM     36  C   UNL A   1      34.503  33.064  30.146  1.00  0.00     0.014 A 
ATOM     37  C   UNL A   1      35.722  34.211  28.389  1.00  0.00     0.014 A 
ATOM     38  C   UNL A   1      35.695  32.492  30.587  1.00  0.00     0.010 A 
ATOM     39  C   UNL A   1      36.890  33.565  28.774  1.00  0.00     0.010 A 
ATOM     40  C   UNL A   1      36.892  32.711  29.885  1.00  0.00    -0.014 A 
BRANCH  40  41
ATOM     41  C   UNL A   1      38.154  32.063  30.313  1.00  0.00     0.031 A 
ATOM     42  C   UNL A   1      39.016  32.709  31.362  1.00  0.00     0.074 A 
ATOM     43  C   UNL A   1      38.543  30.914  29.727  1.00  0.00     0.049 A 
ATOM     44  N   UNL A   1      40.151  32.295  31.866  1.00  0.00    -0.248 NA
ATOM     45  C   UNL A   1      38.559  34.002  31.899  1.00  0.00     0.031 C 
ATOM     46  C   UNL A   1      37.819  30.216  28.662  1.00  0.00     0.029 A 
ATOM     47  N   UNL A   1      39.644  30.127  29.952  1.00  0.00    -0.354 N 
ATOM     48  C   UNL A   1      40.545  33.278  32.766  1.00  0.00     0.074 A 
ATOM     49  C   UNL A   1      39.564  34.337  32.692  1.00  0.00     0.031 C 
ATOM     50  C   UNL A   1      38.471  29.083  28.357  1.00  0.00     0.029 A 
ATOM     51  C   UNL A   1      39.678  28.995  29.173  1.00  0.00     0.049 A 
ATOM     52  H   UNL A   1      40.343  30.351  30.607  1.00  0.00     0.167 HD
ATOM     53  C   UNL A   1      41.612  33.287  33.598  1.00  0.00     0.031 A 
ATOM     54  C   UNL A   1      40.579  27.996  29.125  1.00  0.00     0.031 A 
ATOM     55  C   UNL A   1      42.584  32.230  33.672  1.00  0.00     0.049 A 
ATOM     56  C   UNL A   1      41.761  28.035  30.052  1.00  0.00     0.074 A 
ATOM     57  C   UNL A   1      43.675  32.119  34.516  1.00  0.00     0.029 A 
ATOM     58  N   UNL A   1      42.584  31.101  32.867  1.00  0.00    -0.354 N 
ATOM     59  N   UNL A   1      42.079  28.936  30.951  1.00  0.00    -0.248 NA
ATOM     60  C   UNL A   1      42.701  26.909  29.968  1.00  0.00     0.031 C 
ATOM     61  C   UNL A   1      44.367  30.950  34.182  1.00  0.00     0.029 A 
ATOM     62  C   UNL A   1      43.669  30.299  33.178  1.00  0.00     0.049 A 
ATOM     63  H   UNL A   1      41.912  30.899  32.176  1.00  0.00     0.167 HD
ATOM     64  C   UNL A   1      43.235  28.468  31.562  1.00  0.00     0.074 A 
ATOM     65  C   UNL A   1      43.550  27.197  30.944  1.00  0.00     0.031 C 
ATOM     66  C   UNL A   1      43.970  29.038  32.551  1.00  0.00     0.031 A 
BRANCH  53  67
ATOM     67  C   UNL A   1      41.784  34.487  34.490  1.00  0.00    -0.014 A 
ATOM     68  C   UNL A   1      41.219  34.527  35.775  1.00  0.00     0.009 A 
ATOM     69  C   UNL A   1      42.542  35.582  34.050  1.00  0.00     0.009 A 
ATOM     70  C   UNL A   1      41.375  35.656  36.584  1.00  0.00     0.001 A 
ATOM     71  C   UNL A   1      42.726  36.695  34.873  1.00  0.00     0.001 A 
ATOM     72  C   UNL A   1      42.134  36.735  36.135  1.00  0.00     0.000 A 
ENDBRANCH  53  67
BRANCH  54  73
ATOM     73  C   UNL A   1      40.385  26.860  28.187  1.00  0.00    -0.014 A 
ATOM     74  C   UNL A   1      39.684  25.712  28.590  1.00  0.00     0.009 A 
ATOM     75  C   UNL A   1      40.908  26.911  26.885  1.00  0.00     0.009 A 
ATOM     76  C   UNL A   1      39.541  24.628  27.721  1.00  0.00     0.001 A 
ATOM     77  C   UNL A   1      40.734  25.839  26.008  1.00  0.00     0.001 A 
ATOM     78  C   UNL A   1      40.061  24.693  26.430  1.00  0.00     0.000 A 
ENDBRANCH  54  73
BRANCH  66  79
ATOM     79  C   UNL A   1      45.159  28.267  33.052  1.00  0.00    -0.014 A 
ATOM     80  C   UNL A   1      46.433  28.430  32.488  1.00  0.00     0.009 A 
ATOM     81  C   UNL A   1      45.001  27.377  34.127  1.00  0.00     0.009 A 
ATOM     82  C   UNL A   1      47.515  27.685  32.961  1.00  0.00     0.001 A 
ATOM     83  C   UNL A   1      46.091  26.660  34.622  1.00  0.00     0.001 A 
ATOM     84  C   UNL A   1      47.344  26.806  34.029  1.00  0.00     0.000 A 
ENDBRANCH  66  79
ENDBRANCH  40  41
ENDBRANCH  32  35
ENDBRANCH  30  31
ENDBRANCH  29  30
ENDBRANCH   1  29
TORSDOF 17
ENDMDL
MODEL 3
REMARK VINA RESULT:     -10.9      4.382      9.016
REMARK SMILES COCC[C@]1(C(=O)NCCCCNC(=O)c2ccc(-c3c4nc(c(-c5ccccc5)c5ccc([nH]5)c(-c5ccccc5)c5nc(c(-c6ccccc6)c6ccc3[nH]6)C=C5)C=C4)cc2)CCC[N@@H+](Cc2ccc(C(F)(F)F)nc2)C1
REMARK SMILES IDX 10 1 9 2 8 3 6 4 7 5 5 7 64 8 79 9 65 10 67 11 66 12 4 14
REMARK SMILES IDX 3 15 2 16 1 17 68 18 69 19 70 20 78 21 71 22 77 23 72 24
REMARK SMILES IDX 73 25 74 26 75 27 76 28 11 29 12 30 13 31 14 32 15 34 16 35
REMARK SMILES IDX 17 36 63 37 18 38 62 39 19 40 20 41 21 42 56 43 22 44 61 45
REMARK SMILES IDX 55 46 57 47 23 48 60 49 54 50 53 51 24 53 46 54 31 55 45 56
REMARK SMILES IDX 32 57 35 58 44 59 58 60 33 61 34 62 43 64 59 65 36 66 25 67
REMARK SMILES IDX 26 68 30 69 27 70 29 71 28 72 47 73 48 74 52 75 49 76 51 77
REMARK SMILES IDX 50 78 37 79 38 80 42 81 39 82 41 83 40 84
REMARK H PARENT 8 6 67 13 13 33 57 52 35 63
REMARK Flexibility Score: inf
ROOT
ATOM      1  C   UNL A   1      31.524  30.883  25.925  1.00  0.00     0.023 C 
ENDROOT
BRANCH   1   2
ATOM      2  C   UNL A   1      32.822  30.175  26.309  1.00  0.00     0.116 C 
BRANCH   2   3
ATOM      3  N   UNL A   1      32.606  29.223  27.380  1.00  0.00    -0.355 N 
ATOM      4  C   UNL A   1      32.111  27.956  27.370  1.00  0.00     0.232 C 
ATOM      5  O   UNL A   1      31.515  27.643  28.405  1.00  0.00    -0.274 OA
ATOM      6  H   UNL A   1      32.863  29.551  28.272  1.00  0.00     0.163 HD
BRANCH   4   7
ATOM      7  C   UNL A   1      32.187  27.016  26.145  1.00  0.00     0.100 C 
ATOM      8  C   UNL A   1      31.861  25.594  26.690  1.00  0.00     0.029 C 
ATOM      9  C   UNL A   1      31.220  27.399  24.994  1.00  0.00     0.279 C 
ATOM     10  C   UNL A   1      31.482  24.565  25.630  1.00  0.00     0.063 C 
ATOM     11  N   UNL A   1      31.114  26.322  23.995  1.00  0.00    -0.330 N 
ATOM     12  C   UNL A   1      30.516  25.128  24.593  1.00  0.00     0.262 C 
ATOM     13  H   UNL A   1      32.070  26.093  23.720  1.00  0.00     0.348 HD
BRANCH   7  14
ATOM     14  C   UNL A   1      33.655  27.016  25.580  1.00  0.00     0.051 C 
BRANCH  14  15
ATOM     15  C   UNL A   1      33.976  27.969  24.406  1.00  0.00     0.161 C 
BRANCH  15  16
ATOM     16  O   UNL A   1      33.908  27.318  23.144  1.00  0.00    -0.385 OA
ATOM     17  C   UNL A   1      34.008  28.181  22.024  1.00  0.00     0.194 C 
ENDBRANCH  15  16
ENDBRANCH  14  15
ENDBRANCH   7  14
BRANCH  11  18
ATOM     18  C   UNL A   1      30.502  26.710  22.718  1.00  0.00     0.300 C 
BRANCH  18  19
ATOM     19  C   UNL A   1      29.874  28.076  22.657  1.00  0.00     0.025 A 
ATOM     20  C   UNL A   1      28.560  28.289  23.078  1.00  0.00     0.013 A 
ATOM     21  C   UNL A   1      30.574  29.176  22.179  1.00  0.00     0.121 A 
ATOM     22  C   UNL A   1      27.989  29.552  22.966  1.00  0.00     0.034 A 
ATOM     23  N   UNL A   1      30.049  30.418  22.068  1.00  0.00    -0.251 NA
ATOM     24  C   UNL A   1      28.749  30.599  22.447  1.00  0.00     0.144 A 
BRANCH  24  25
ATOM     25  C   UNL A   1      28.122  31.981  22.311  1.00  0.00     0.433 C 
ATOM     26  F   UNL A   1      27.156  32.222  23.242  1.00  0.00    -0.165 F 
ATOM     27  F   UNL A   1      29.023  32.998  22.422  1.00  0.00    -0.165 F 
ATOM     28  F   UNL A   1      27.515  32.171  21.100  1.00  0.00    -0.165 F 
ENDBRANCH  24  25
ENDBRANCH  18  19
ENDBRANCH  11  18
ENDBRANCH   4   7
ENDBRANCH   2   3
ENDBRANCH   1   2
BRANCH   1  29
ATOM     29  C   UNL A   1      31.271  32.201  26.651  1.00  0.00     0.023 C 
BRANCH  29  30
ATOM     30  C   UNL A   1      32.515  32.857  27.229  1.00  0.00     0.116 C 
BRANCH  30  31
ATOM     31  N   UNL A   1      32.288  34.234  27.637  1.00  0.00    -0.352 N 
ATOM     32  C   UNL A   1      32.959  34.984  28.573  1.00  0.00     0.251 C 
ATOM     33  H   UNL A   1      31.550  34.696  27.177  1.00  0.00     0.163 HD
ATOM     34  O   UNL A   1      32.537  36.082  28.903  1.00  0.00    -0.269 OA
BRANCH  32  35
ATOM     35  C   UNL A   1      34.178  34.434  29.196  1.00  0.00     0.039 A 
ATOM     36  C   UNL A   1      34.058  33.710  30.384  1.00  0.00     0.014 A 
ATOM     37  C   UNL A   1      35.429  34.612  28.598  1.00  0.00     0.014 A 
ATOM     38  C   UNL A   1      35.190  33.118  30.942  1.00  0.00     0.010 A 
ATOM     39  C   UNL A   1      36.536  33.943  29.105  1.00  0.00     0.010 A 
ATOM     40  C   UNL A   1      36.431  33.202  30.289  1.00  0.00    -0.014 A 
BRANCH  40  41
ATOM     41  C   UNL A   1      37.630  32.530  30.845  1.00  0.00     0.031 A 
ATOM     42  C   UNL A   1      38.258  33.034  32.115  1.00  0.00     0.074 A 
ATOM     43  C   UNL A   1      38.176  31.491  30.183  1.00  0.00     0.049 A 
ATOM     44  N   UNL A   1      39.306  32.579  32.754  1.00  0.00    -0.248 NA
ATOM     45  C   UNL A   1      37.646  34.222  32.736  1.00  0.00     0.031 C 
ATOM     46  C   UNL A   1      37.688  30.941  28.916  1.00  0.00     0.029 A 
ATOM     47  N   UNL A   1      39.259  30.707  30.492  1.00  0.00    -0.354 N 
ATOM     48  C   UNL A   1      39.482  33.427  33.840  1.00  0.00     0.074 A 
ATOM     49  C   UNL A   1      38.477  34.460  33.739  1.00  0.00     0.031 C 
ATOM     50  C   UNL A   1      38.443  29.883  28.578  1.00  0.00     0.029 A 
ATOM     51  C   UNL A   1      39.489  29.705  29.581  1.00  0.00     0.049 A 
ATOM     52  H   UNL A   1      39.818  30.850  31.289  1.00  0.00     0.167 HD
ATOM     53  C   UNL A   1      40.384  33.340  34.846  1.00  0.00     0.031 A 
ATOM     54  C   UNL A   1      40.434  28.747  29.557  1.00  0.00     0.031 A 
ATOM     55  C   UNL A   1      41.380  32.309  34.947  1.00  0.00     0.049 A 
ATOM     56  C   UNL A   1      41.430  28.679  30.680  1.00  0.00     0.074 A 
ATOM     57  C   UNL A   1      42.308  32.101  35.951  1.00  0.00     0.029 A 
ATOM     58  N   UNL A   1      41.581  31.312  34.003  1.00  0.00    -0.354 N 
ATOM     59  N   UNL A   1      41.537  29.443  31.741  1.00  0.00    -0.248 NA
ATOM     60  C   UNL A   1      42.427  27.602  30.611  1.00  0.00     0.031 C 
ATOM     61  C   UNL A   1      43.109  31.013  35.588  1.00  0.00     0.029 A 
ATOM     62  C   UNL A   1      42.635  30.501  34.391  1.00  0.00     0.049 A 
ATOM     63  H   UNL A   1      41.054  31.198  33.180  1.00  0.00     0.167 HD
ATOM     64  C   UNL A   1      42.589  28.920  32.481  1.00  0.00     0.074 A 
ATOM     65  C   UNL A   1      43.074  27.763  31.757  1.00  0.00     0.031 C 
ATOM     66  C   UNL A   1      43.106  29.355  33.657  1.00  0.00     0.031 A 
BRANCH  53  67
ATOM     67  C   UNL A   1      40.332  34.398  35.915  1.00  0.00    -0.014 A 
ATOM     68  C   UNL A   1      41.077  35.584  35.806  1.00  0.00     0.009 A 
ATOM     69  C   UNL A   1      39.506  34.219  37.035  1.00  0.00     0.009 A 
ATOM     70  C   UNL A   1      41.028  36.548  36.816  1.00  0.00     0.001 A 
ATOM     71  C   UNL A   1      39.432  35.200  38.026  1.00  0.00     0.001 A 
ATOM     72  C   UNL A   1      40.201  36.358  37.921  1.00  0.00     0.000 A 
ENDBRANCH  53  67
BRANCH  54  73
ATOM     73  C   UNL A   1      40.469  27.759  28.448  1.00  0.00    -0.014 A 
ATOM     74  C   UNL A   1      41.178  28.035  27.267  1.00  0.00     0.009 A 
ATOM     75  C   UNL A   1      39.787  26.537  28.557  1.00  0.00     0.009 A 
ATOM     76  C   UNL A   1      41.173  27.124  26.209  1.00  0.00     0.001 A 
ATOM     77  C   UNL A   1      39.812  25.614  27.511  1.00  0.00     0.001 A 
ATOM     78  C   UNL A   1      40.495  25.912  26.332  1.00  0.00     0.000 A 
ENDBRANCH  54  73
BRANCH  66  79
ATOM     79  C   UNL A   1      44.226  28.548  34.253  1.00  0.00    -0.014 A 
ATOM     80  C   UNL A   1      45.571  28.831  33.966  1.00  0.00     0.009 A 
ATOM     81  C   UNL A   1      43.927  27.501  35.138  1.00  0.00     0.009 A 
ATOM     82  C   UNL A   1      46.589  28.052  34.518  1.00  0.00     0.001 A 
ATOM     83  C   UNL A   1      44.947  26.746  35.717  1.00  0.00     0.001 A 
ATOM     84  C   UNL A   1      46.277  27.014  35.396  1.00  0.00     0.000 A 
ENDBRANCH  66  79
ENDBRANCH  40  41
ENDBRANCH  32  35
ENDBRANCH  30  31
ENDBRANCH  29  30
ENDBRANCH   1  29
TORSDOF 17
ENDMDL
