MODEL 1
REMARK VINA RESULT:     -10.9      0.000      0.000
REMARK SMILES CC(C)(C)OC(=O)N[C@H](Cc1ccc(N=[N+]=[N-])cc1)C(=O)NCCCCNC(=O)c1ccc(-c2c3nc(c(-c4ccccc4)c4ccc([nH]4)c(-c4ccccc4)c4nc(c(-c5ccccc5)c5ccc2[nH]5)C=C4)C=C3)cc1
REMARK SMILES IDX 24 1 23 2 22 3 20 4 21 5 9 7 8 8 6 9 7 10 5 12 2 13 1 14
REMARK SMILES IDX 3 15 4 16 10 17 11 18 12 19 19 20 13 21 18 22 14 23 15 24
REMARK SMILES IDX 16 25 17 26 25 27 26 28 27 29 28 30 29 32 30 33 31 34 77 35
REMARK SMILES IDX 32 36 76 37 33 38 34 39 35 40 70 41 36 42 75 43 69 44 71 45
REMARK SMILES IDX 37 46 74 47 68 48 67 49 38 51 60 52 45 53 59 54 46 55 49 56
REMARK SMILES IDX 58 57 72 58 47 59 48 60 57 62 73 63 50 64 39 65 40 66 44 67
REMARK SMILES IDX 41 68 43 69 42 70 61 71 62 72 66 73 63 74 65 75 64 76 51 77
REMARK SMILES IDX 52 78 56 79 53 80 55 81 54 82
REMARK H PARENT 22 6 8 11 27 31 71 50 49 61
REMARK Flexibility Score: inf
ROOT
ATOM      1  C   UNL A   1      32.139  29.560  26.853  1.00  0.00     0.023 C 
ENDROOT
BRANCH   1   2
ATOM      2  C   UNL A   1      33.488  28.935  26.475  1.00  0.00     0.116 C 
BRANCH   2   3
ATOM      3  N   UNL A   1      33.815  29.218  25.094  1.00  0.00    -0.354 N 
ATOM      4  C   UNL A   1      33.645  28.458  23.972  1.00  0.00     0.243 C 
ATOM      5  O   UNL A   1      34.223  28.847  22.950  1.00  0.00    -0.273 OA
ATOM      6  H   UNL A   1      34.223  30.101  24.939  1.00  0.00     0.163 HD
BRANCH   4   7
ATOM      7  C   UNL A   1      32.895  27.098  23.984  1.00  0.00     0.179 C 
BRANCH   7   8
ATOM      8  N   UNL A   1      33.797  25.968  24.194  1.00  0.00    -0.309 N 
ATOM      9  C   UNL A   1      33.646  24.943  25.076  1.00  0.00     0.408 C 
ATOM     10  O   UNL A   1      34.405  23.984  25.023  1.00  0.00    -0.225 OA
ATOM     11  H   UNL A   1      34.606  25.944  23.633  1.00  0.00     0.167 HD
BRANCH   9  12
ATOM     12  O   UNL A   1      32.642  25.118  25.967  1.00  0.00    -0.444 OA
BRANCH  12  13
ATOM     13  C   UNL A   1      31.404  24.368  25.805  1.00  0.00     0.106 C 
ATOM     14  C   UNL A   1      31.439  23.261  26.872  1.00  0.00     0.056 C 
ATOM     15  C   UNL A   1      31.333  23.694  24.427  1.00  0.00     0.056 C 
ATOM     16  C   UNL A   1      30.178  25.252  26.073  1.00  0.00     0.056 C 
ENDBRANCH  12  13
ENDBRANCH   9  12
ENDBRANCH   7   8
BRANCH   7  17
ATOM     17  C   UNL A   1      31.972  26.963  22.732  1.00  0.00     0.070 C 
BRANCH  17  18
ATOM     18  C   UNL A   1      30.730  27.840  22.688  1.00  0.00    -0.045 A 
ATOM     19  C   UNL A   1      30.745  29.142  22.193  1.00  0.00     0.004 A 
ATOM     20  C   UNL A   1      29.525  27.370  23.209  1.00  0.00     0.004 A 
ATOM     21  C   UNL A   1      29.595  29.948  22.285  1.00  0.00     0.010 A 
ATOM     22  C   UNL A   1      28.394  28.175  23.341  1.00  0.00     0.010 A 
ATOM     23  C   UNL A   1      28.415  29.492  22.889  1.00  0.00     0.038 A 
BRANCH  23  24
ATOM     24  N   UNL A   1      27.329  30.384  22.978  1.00  0.00    -0.061 NA
ATOM     25  N   UNL A   1      27.618  31.599  22.965  1.00  0.00     0.005 N 
ATOM     26  N   UNL A   1      27.881  32.707  22.959  1.00  0.00    -0.003 NA
ENDBRANCH  23  24
ENDBRANCH  17  18
ENDBRANCH   7  17
ENDBRANCH   4   7
ENDBRANCH   2   3
ENDBRANCH   1   2
BRANCH   1  27
ATOM     27  C   UNL A   1      32.007  31.043  26.548  1.00  0.00     0.023 C 
BRANCH  27  28
ATOM     28  C   UNL A   1      33.022  31.909  27.280  1.00  0.00     0.116 C 
BRANCH  28  29
ATOM     29  N   UNL A   1      32.541  33.245  27.627  1.00  0.00    -0.352 N 
ATOM     30  C   UNL A   1      33.144  34.178  28.440  1.00  0.00     0.251 C 
ATOM     31  H   UNL A   1      31.680  33.511  27.228  1.00  0.00     0.163 HD
ATOM     32  O   UNL A   1      32.589  35.236  28.709  1.00  0.00    -0.269 OA
BRANCH  30  33
ATOM     33  C   UNL A   1      34.456  33.844  29.026  1.00  0.00     0.039 A 
ATOM     34  C   UNL A   1      34.501  33.117  30.214  1.00  0.00     0.014 A 
ATOM     35  C   UNL A   1      35.623  34.136  28.318  1.00  0.00     0.014 A 
ATOM     36  C   UNL A   1      35.721  32.597  30.645  1.00  0.00     0.010 A 
ATOM     37  C   UNL A   1      36.812  33.523  28.688  1.00  0.00     0.010 A 
ATOM     38  C   UNL A   1      36.874  32.748  29.856  1.00  0.00    -0.014 A 
BRANCH  38  39
ATOM     39  C   UNL A   1      38.153  32.097  30.227  1.00  0.00     0.031 A 
ATOM     40  C   UNL A   1      39.106  32.796  31.157  1.00  0.00     0.074 A 
ATOM     41  C   UNL A   1      38.487  30.914  29.678  1.00  0.00     0.049 A 
ATOM     42  N   UNL A   1      40.288  32.411  31.566  1.00  0.00    -0.248 NA
ATOM     43  C   UNL A   1      38.692  34.111  31.674  1.00  0.00     0.031 C 
ATOM     44  C   UNL A   1      37.673  30.158  28.721  1.00  0.00     0.029 A 
ATOM     45  N   UNL A   1      39.604  30.134  29.846  1.00  0.00    -0.354 N 
ATOM     46  C   UNL A   1      40.759  33.441  32.372  1.00  0.00     0.074 A 
ATOM     47  C   UNL A   1      39.769  34.493  32.340  1.00  0.00     0.031 C 
ATOM     48  C   UNL A   1      38.298  29.009  28.422  1.00  0.00     0.029 A 
ATOM     49  C   UNL A   1      39.576  28.965  29.122  1.00  0.00     0.049 A 
ATOM     50  H   UNL A   1      40.355  30.388  30.430  1.00  0.00     0.167 HD
ATOM     51  C   UNL A   1      41.901  33.496  33.095  1.00  0.00     0.031 A 
ATOM     52  C   UNL A   1      40.481  27.972  29.030  1.00  0.00     0.031 A 
ATOM     53  C   UNL A   1      42.883  32.446  33.128  1.00  0.00     0.049 A 
ATOM     54  C   UNL A   1      41.755  28.071  29.823  1.00  0.00     0.074 A 
ATOM     55  C   UNL A   1      44.048  32.381  33.873  1.00  0.00     0.029 A 
ATOM     56  N   UNL A   1      42.819  31.281  32.380  1.00  0.00    -0.354 N 
ATOM     57  N   UNL A   1      42.149  29.014  30.644  1.00  0.00    -0.248 NA
ATOM     58  C   UNL A   1      42.705  26.957  29.687  1.00  0.00     0.031 C 
ATOM     59  C   UNL A   1      44.721  31.207  33.525  1.00  0.00     0.029 A 
ATOM     60  C   UNL A   1      43.939  30.505  32.620  1.00  0.00     0.049 A 
ATOM     61  H   UNL A   1      42.086  31.041  31.769  1.00  0.00     0.167 HD
ATOM     62  C   UNL A   1      43.375  28.595  31.145  1.00  0.00     0.074 A 
ATOM     63  C   UNL A   1      43.650  27.303  30.550  1.00  0.00     0.031 C 
ATOM     64  C   UNL A   1      44.199  29.222  32.019  1.00  0.00     0.031 A 
BRANCH  51  65
ATOM     65  C   UNL A   1      42.152  34.741  33.901  1.00  0.00    -0.014 A 
ATOM     66  C   UNL A   1      42.800  35.855  33.343  1.00  0.00     0.009 A 
ATOM     67  C   UNL A   1      41.705  34.812  35.229  1.00  0.00     0.009 A 
ATOM     68  C   UNL A   1      43.032  36.998  34.110  1.00  0.00     0.001 A 
ATOM     69  C   UNL A   1      41.907  35.970  35.984  1.00  0.00     0.001 A 
ATOM     70  C   UNL A   1      42.580  37.057  35.427  1.00  0.00     0.000 A 
ENDBRANCH  51  65
BRANCH  52  71
ATOM     71  C   UNL A   1      40.215  26.793  28.163  1.00  0.00    -0.014 A 
ATOM     72  C   UNL A   1      39.488  25.697  28.652  1.00  0.00     0.009 A 
ATOM     73  C   UNL A   1      40.700  26.750  26.847  1.00  0.00     0.009 A 
ATOM     74  C   UNL A   1      39.281  24.569  27.853  1.00  0.00     0.001 A 
ATOM     75  C   UNL A   1      40.461  25.637  26.038  1.00  0.00     0.001 A 
ATOM     76  C   UNL A   1      39.763  24.542  26.545  1.00  0.00     0.000 A 
ENDBRANCH  52  71
BRANCH  64  77
ATOM     77  C   UNL A   1      45.457  28.501  32.419  1.00  0.00    -0.014 A 
ATOM     78  C   UNL A   1      46.661  28.681  31.720  1.00  0.00     0.009 A 
ATOM     79  C   UNL A   1      45.445  27.663  33.546  1.00  0.00     0.009 A 
ATOM     80  C   UNL A   1      47.816  28.005  32.117  1.00  0.00     0.001 A 
ATOM     81  C   UNL A   1      46.609  27.017  33.963  1.00  0.00     0.001 A 
ATOM     82  C   UNL A   1      47.790  27.179  33.241  1.00  0.00     0.000 A 
ENDBRANCH  64  77
ENDBRANCH  38  39
ENDBRANCH  30  33
ENDBRANCH  28  29
ENDBRANCH  27  28
ENDBRANCH   1  27
TORSDOF 17
ENDMDL
MODEL 2
REMARK VINA RESULT:     -10.8      4.102      9.369
REMARK SMILES CC(C)(C)OC(=O)N[C@H](Cc1ccc(N=[N+]=[N-])cc1)C(=O)NCCCCNC(=O)c1ccc(-c2c3nc(c(-c4ccccc4)c4ccc([nH]4)c(-c4ccccc4)c4nc(c(-c5ccccc5)c5ccc2[nH]5)C=C4)C=C3)cc1
REMARK SMILES IDX 24 1 23 2 22 3 20 4 21 5 9 7 8 8 6 9 7 10 5 12 2 13 1 14
REMARK SMILES IDX 3 15 4 16 10 17 11 18 12 19 19 20 13 21 18 22 14 23 15 24
REMARK SMILES IDX 16 25 17 26 25 27 26 28 27 29 28 30 29 32 30 33 31 34 77 35
REMARK SMILES IDX 32 36 76 37 33 38 34 39 35 40 70 41 36 42 75 43 69 44 71 45
REMARK SMILES IDX 37 46 74 47 68 48 67 49 38 51 60 52 45 53 59 54 46 55 49 56
REMARK SMILES IDX 58 57 72 58 47 59 48 60 57 62 73 63 50 64 39 65 40 66 44 67
REMARK SMILES IDX 41 68 43 69 42 70 61 71 62 72 66 73 63 74 65 75 64 76 51 77
REMARK SMILES IDX 52 78 56 79 53 80 55 81 54 82
REMARK H PARENT 22 6 8 11 27 31 71 50 49 61
REMARK Flexibility Score: inf
ROOT
ATOM      1  C   UNL A   1      37.088  22.105  24.529  1.00  0.00     0.023 C 
ENDROOT
BRANCH   1   2
ATOM      2  C   UNL A   1      36.335  22.876  25.622  1.00  0.00     0.116 C 
BRANCH   2   3
ATOM      3  N   UNL A   1      35.653  21.965  26.515  1.00  0.00    -0.354 N 
ATOM      4  C   UNL A   1      34.319  21.731  26.689  1.00  0.00     0.243 C 
ATOM      5  O   UNL A   1      34.000  21.066  27.682  1.00  0.00    -0.273 OA
ATOM      6  H   UNL A   1      36.246  21.427  27.088  1.00  0.00     0.163 HD
BRANCH   4   7
ATOM      7  C   UNL A   1      33.229  22.372  25.788  1.00  0.00     0.179 C 
BRANCH   7   8
ATOM      8  N   UNL A   1      31.906  22.340  26.408  1.00  0.00    -0.309 N 
ATOM      9  C   UNL A   1      31.190  23.395  26.884  1.00  0.00     0.408 C 
ATOM     10  O   UNL A   1      30.028  23.230  27.229  1.00  0.00    -0.225 OA
ATOM     11  H   UNL A   1      31.484  21.455  26.490  1.00  0.00     0.167 HD
BRANCH   9  12
ATOM     12  O   UNL A   1      31.883  24.556  26.947  1.00  0.00    -0.444 OA
BRANCH  12  13
ATOM     13  C   UNL A   1      31.662  25.576  25.931  1.00  0.00     0.106 C 
ATOM     14  C   UNL A   1      33.056  25.967  25.415  1.00  0.00     0.056 C 
ATOM     15  C   UNL A   1      31.010  26.832  26.530  1.00  0.00     0.056 C 
ATOM     16  C   UNL A   1      30.853  25.021  24.751  1.00  0.00     0.056 C 
ENDBRANCH  12  13
ENDBRANCH   9  12
ENDBRANCH   7   8
BRANCH   7  17
ATOM     17  C   UNL A   1      33.280  21.777  24.345  1.00  0.00     0.070 C 
BRANCH  17  18
ATOM     18  C   UNL A   1      33.341  20.263  24.221  1.00  0.00    -0.045 A 
ATOM     19  C   UNL A   1      32.232  19.491  23.884  1.00  0.00     0.004 A 
ATOM     20  C   UNL A   1      34.526  19.586  24.506  1.00  0.00     0.004 A 
ATOM     21  C   UNL A   1      32.316  18.085  23.900  1.00  0.00     0.010 A 
ATOM     22  C   UNL A   1      34.607  18.194  24.563  1.00  0.00     0.010 A 
ATOM     23  C   UNL A   1      33.490  17.416  24.271  1.00  0.00     0.038 A 
BRANCH  23  24
ATOM     24  N   UNL A   1      33.468  16.008  24.302  1.00  0.00    -0.061 NA
ATOM     25  N   UNL A   1      32.788  15.493  25.213  1.00  0.00     0.005 N 
ATOM     26  N   UNL A   1      32.173  15.022  26.048  1.00  0.00    -0.003 NA
ENDBRANCH  23  24
ENDBRANCH  17  18
ENDBRANCH   7  17
ENDBRANCH   4   7
ENDBRANCH   2   3
ENDBRANCH   1   2
BRANCH   1  27
ATOM     27  C   UNL A   1      37.713  20.796  24.979  1.00  0.00     0.023 C 
BRANCH  27  28
ATOM     28  C   UNL A   1      39.014  20.974  25.750  1.00  0.00     0.116 C 
BRANCH  28  29
ATOM     29  N   UNL A   1      39.916  19.825  25.691  1.00  0.00    -0.352 N 
ATOM     30  C   UNL A   1      41.246  19.773  26.042  1.00  0.00     0.251 C 
ATOM     31  H   UNL A   1      39.523  18.984  25.361  1.00  0.00     0.163 HD
ATOM     32  O   UNL A   1      41.908  18.758  25.868  1.00  0.00    -0.269 OA
BRANCH  30  33
ATOM     33  C   UNL A   1      41.869  20.996  26.585  1.00  0.00     0.039 A 
ATOM     34  C   UNL A   1      42.357  21.956  25.700  1.00  0.00     0.014 A 
ATOM     35  C   UNL A   1      41.835  21.237  27.960  1.00  0.00     0.014 A 
ATOM     36  C   UNL A   1      42.727  23.206  26.193  1.00  0.00     0.010 A 
ATOM     37  C   UNL A   1      42.097  22.516  28.431  1.00  0.00     0.010 A 
ATOM     38  C   UNL A   1      42.546  23.514  27.553  1.00  0.00    -0.014 A 
BRANCH  38  39
ATOM     39  C   UNL A   1      42.812  24.875  28.077  1.00  0.00     0.031 A 
ATOM     40  C   UNL A   1      44.206  25.261  28.487  1.00  0.00     0.074 A 
ATOM     41  C   UNL A   1      41.792  25.738  28.248  1.00  0.00     0.049 A 
ATOM     42  N   UNL A   1      44.631  26.384  29.007  1.00  0.00    -0.248 NA
ATOM     43  C   UNL A   1      45.257  24.243  28.320  1.00  0.00     0.031 C 
ATOM     44  C   UNL A   1      40.385  25.467  27.937  1.00  0.00     0.029 A 
ATOM     45  N   UNL A   1      41.781  27.025  28.725  1.00  0.00    -0.354 N 
ATOM     46  C   UNL A   1      45.988  26.200  29.239  1.00  0.00     0.074 A 
ATOM     47  C   UNL A   1      46.302  24.839  28.869  1.00  0.00     0.031 C 
ATOM     48  C   UNL A   1      39.658  26.565  28.193  1.00  0.00     0.029 A 
ATOM     49  C   UNL A   1      40.532  27.601  28.731  1.00  0.00     0.049 A 
ATOM     50  H   UNL A   1      42.591  27.491  29.035  1.00  0.00     0.167 HD
ATOM     51  C   UNL A   1      46.898  27.092  29.694  1.00  0.00     0.031 A 
ATOM     52  C   UNL A   1      40.137  28.826  29.128  1.00  0.00     0.031 A 
ATOM     53  C   UNL A   1      46.584  28.447  30.058  1.00  0.00     0.049 A 
ATOM     54  C   UNL A   1      41.164  29.789  29.656  1.00  0.00     0.074 A 
ATOM     55  C   UNL A   1      47.444  29.446  30.478  1.00  0.00     0.029 A 
ATOM     56  N   UNL A   1      45.309  28.990  30.052  1.00  0.00    -0.354 N 
ATOM     57  N   UNL A   1      42.458  29.626  29.793  1.00  0.00    -0.248 NA
ATOM     58  C   UNL A   1      40.676  31.111  30.072  1.00  0.00     0.031 C 
ATOM     59  C   UNL A   1      46.680  30.574  30.789  1.00  0.00     0.029 A 
ATOM     60  C   UNL A   1      45.354  30.302  30.491  1.00  0.00     0.049 A 
ATOM     61  H   UNL A   1      44.493  28.514  29.775  1.00  0.00     0.167 HD
ATOM     62  C   UNL A   1      42.942  30.834  30.281  1.00  0.00     0.074 A 
ATOM     63  C   UNL A   1      41.806  31.724  30.397  1.00  0.00     0.031 C 
ATOM     64  C   UNL A   1      44.214  31.175  30.603  1.00  0.00     0.031 A 
BRANCH  51  65
ATOM     65  C   UNL A   1      48.320  26.620  29.833  1.00  0.00    -0.014 A 
ATOM     66  C   UNL A   1      49.250  26.790  28.794  1.00  0.00     0.009 A 
ATOM     67  C   UNL A   1      48.743  26.026  31.032  1.00  0.00     0.009 A 
ATOM     68  C   UNL A   1      50.563  26.337  28.938  1.00  0.00     0.001 A 
ATOM     69  C   UNL A   1      50.067  25.607  31.187  1.00  0.00     0.001 A 
ATOM     70  C   UNL A   1      50.972  25.752  30.136  1.00  0.00     0.000 A 
ENDBRANCH  51  65
BRANCH  52  71
ATOM     71  C   UNL A   1      38.705  29.218  29.034  1.00  0.00    -0.014 A 
ATOM     72  C   UNL A   1      38.191  29.769  27.850  1.00  0.00     0.009 A 
ATOM     73  C   UNL A   1      37.846  29.058  30.133  1.00  0.00     0.009 A 
ATOM     74  C   UNL A   1      36.858  30.183  27.779  1.00  0.00     0.001 A 
ATOM     75  C   UNL A   1      36.505  29.439  30.049  1.00  0.00     0.001 A 
ATOM     76  C   UNL A   1      36.016  30.013  28.877  1.00  0.00     0.000 A 
ENDBRANCH  52  71
BRANCH  64  77
ATOM     77  C   UNL A   1      44.452  32.584  31.072  1.00  0.00    -0.014 A 
ATOM     78  C   UNL A   1      44.715  33.624  30.167  1.00  0.00     0.009 A 
ATOM     79  C   UNL A   1      44.367  32.880  32.442  1.00  0.00     0.009 A 
ATOM     80  C   UNL A   1      44.925  34.925  30.630  1.00  0.00     0.001 A 
ATOM     81  C   UNL A   1      44.541  34.187  32.898  1.00  0.00     0.001 A 
ATOM     82  C   UNL A   1      44.832  35.206  31.993  1.00  0.00     0.000 A 
ENDBRANCH  64  77
ENDBRANCH  38  39
ENDBRANCH  30  33
ENDBRANCH  28  29
ENDBRANCH  27  28
ENDBRANCH   1  27
TORSDOF 17
ENDMDL
MODEL 3
REMARK VINA RESULT:     -10.8      1.714      7.022
REMARK SMILES CC(C)(C)OC(=O)N[C@H](Cc1ccc(N=[N+]=[N-])cc1)C(=O)NCCCCNC(=O)c1ccc(-c2c3nc(c(-c4ccccc4)c4ccc([nH]4)c(-c4ccccc4)c4nc(c(-c5ccccc5)c5ccc2[nH]5)C=C4)C=C3)cc1
REMARK SMILES IDX 24 1 23 2 22 3 20 4 21 5 9 7 8 8 6 9 7 10 5 12 2 13 1 14
REMARK SMILES IDX 3 15 4 16 10 17 11 18 12 19 19 20 13 21 18 22 14 23 15 24
REMARK SMILES IDX 16 25 17 26 25 27 26 28 27 29 28 30 29 32 30 33 31 34 77 35
REMARK SMILES IDX 32 36 76 37 33 38 34 39 35 40 70 41 36 42 75 43 69 44 71 45
REMARK SMILES IDX 37 46 74 47 68 48 67 49 38 51 60 52 45 53 59 54 46 55 49 56
REMARK SMILES IDX 58 57 72 58 47 59 48 60 57 62 73 63 50 64 39 65 40 66 44 67
REMARK SMILES IDX 41 68 43 69 42 70 61 71 62 72 66 73 63 74 65 75 64 76 51 77
REMARK SMILES IDX 52 78 56 79 53 80 55 81 54 82
REMARK H PARENT 22 6 8 11 27 31 71 50 49 61
REMARK Flexibility Score: inf
ROOT
ATOM      1  C   UNL A   1      34.861  22.965  24.166  1.00  0.00     0.023 C 
ENDROOT
BRANCH   1   2
ATOM      2  C   UNL A   1      34.272  24.135  24.966  1.00  0.00     0.116 C 
BRANCH   2   3
ATOM      3  N   UNL A   1      33.306  23.659  25.933  1.00  0.00    -0.354 N 
ATOM      4  C   UNL A   1      32.151  24.233  26.383  1.00  0.00     0.243 C 
ATOM      5  O   UNL A   1      31.632  23.718  27.381  1.00  0.00    -0.273 OA
ATOM      6  H   UNL A   1      33.514  22.782  26.328  1.00  0.00     0.163 HD
BRANCH   4   7
ATOM      7  C   UNL A   1      31.575  25.545  25.786  1.00  0.00     0.179 C 
BRANCH   7   8
ATOM      8  N   UNL A   1      31.078  26.454  26.815  1.00  0.00    -0.309 N 
ATOM      9  C   UNL A   1      31.696  27.561  27.310  1.00  0.00     0.408 C 
ATOM     10  O   UNL A   1      31.084  28.313  28.056  1.00  0.00    -0.225 OA
ATOM     11  H   UNL A   1      30.195  26.243  27.195  1.00  0.00     0.167 HD
BRANCH   9  12
ATOM     12  O   UNL A   1      32.986  27.699  26.922  1.00  0.00    -0.444 OA
BRANCH  12  13
ATOM     13  C   UNL A   1      33.373  28.858  26.130  1.00  0.00     0.106 C 
ATOM     14  C   UNL A   1      32.072  29.623  25.838  1.00  0.00     0.056 C 
ATOM     15  C   UNL A   1      33.988  28.440  24.786  1.00  0.00     0.056 C 
ATOM     16  C   UNL A   1      34.306  29.787  26.920  1.00  0.00     0.056 C 
ENDBRANCH  12  13
ENDBRANCH   9  12
ENDBRANCH   7   8
BRANCH   7  17
ATOM     17  C   UNL A   1      30.550  25.234  24.649  1.00  0.00     0.070 C 
BRANCH  17  18
ATOM     18  C   UNL A   1      29.963  26.421  23.901  1.00  0.00    -0.045 A 
ATOM     19  C   UNL A   1      30.754  27.374  23.263  1.00  0.00     0.004 A 
ATOM     20  C   UNL A   1      28.584  26.622  23.881  1.00  0.00     0.004 A 
ATOM     21  C   UNL A   1      30.164  28.515  22.687  1.00  0.00     0.010 A 
ATOM     22  C   UNL A   1      27.994  27.769  23.349  1.00  0.00     0.010 A 
ATOM     23  C   UNL A   1      28.782  28.747  22.749  1.00  0.00     0.038 A 
BRANCH  23  24
ATOM     24  N   UNL A   1      28.285  29.938  22.186  1.00  0.00    -0.061 NA
ATOM     25  N   UNL A   1      27.716  30.720  22.976  1.00  0.00     0.005 N 
ATOM     26  N   UNL A   1      27.189  31.430  23.694  1.00  0.00    -0.003 NA
ENDBRANCH  23  24
ENDBRANCH  17  18
ENDBRANCH   7  17
ENDBRANCH   4   7
ENDBRANCH   2   3
ENDBRANCH   1   2
BRANCH   1  27
ATOM     27  C   UNL A   1      36.367  23.010  23.975  1.00  0.00     0.023 C 
BRANCH  27  28
ATOM     28  C   UNL A   1      37.134  23.361  25.242  1.00  0.00     0.116 C 
BRANCH  28  29
ATOM     29  N   UNL A   1      38.330  22.553  25.470  1.00  0.00    -0.352 N 
ATOM     30  C   UNL A   1      39.475  22.908  26.148  1.00  0.00     0.251 C 
ATOM     31  H   UNL A   1      38.316  21.643  25.094  1.00  0.00     0.163 HD
ATOM     32  O   UNL A   1      40.441  22.157  26.197  1.00  0.00    -0.269 OA
BRANCH  30  33
ATOM     33  C   UNL A   1      39.528  24.246  26.769  1.00  0.00     0.039 A 
ATOM     34  C   UNL A   1      39.053  24.408  28.069  1.00  0.00     0.014 A 
ATOM     35  C   UNL A   1      40.176  25.290  26.105  1.00  0.00     0.014 A 
ATOM     36  C   UNL A   1      39.315  25.600  28.743  1.00  0.00     0.010 A 
ATOM     37  C   UNL A   1      40.531  26.428  26.815  1.00  0.00     0.010 A 
ATOM     38  C   UNL A   1      40.105  26.595  28.141  1.00  0.00    -0.014 A 
BRANCH  38  39
ATOM     39  C   UNL A   1      40.503  27.816  28.882  1.00  0.00     0.031 A 
ATOM     40  C   UNL A   1      39.537  28.960  29.017  1.00  0.00     0.074 A 
ATOM     41  C   UNL A   1      41.753  27.923  29.375  1.00  0.00     0.049 A 
ATOM     42  N   UNL A   1      39.713  30.124  29.588  1.00  0.00    -0.248 NA
ATOM     43  C   UNL A   1      38.209  28.787  28.405  1.00  0.00     0.031 C 
ATOM     44  C   UNL A   1      42.801  26.904  29.266  1.00  0.00     0.029 A 
ATOM     45  N   UNL A   1      42.355  28.942  30.070  1.00  0.00    -0.354 N 
ATOM     46  C   UNL A   1      38.527  30.821  29.391  1.00  0.00     0.074 A 
ATOM     47  C   UNL A   1      37.667  29.980  28.591  1.00  0.00     0.031 C 
ATOM     48  C   UNL A   1      43.900  27.333  29.907  1.00  0.00     0.029 A 
ATOM     49  C   UNL A   1      43.655  28.672  30.429  1.00  0.00     0.049 A 
ATOM     50  H   UNL A   1      41.899  29.786  30.290  1.00  0.00     0.167 HD
ATOM     51  C   UNL A   1      38.175  32.042  29.855  1.00  0.00     0.031 A 
ATOM     52  C   UNL A   1      44.549  29.422  31.100  1.00  0.00     0.031 A 
ATOM     53  C   UNL A   1      39.031  32.876  30.654  1.00  0.00     0.049 A 
ATOM     54  C   UNL A   1      44.141  30.788  31.582  1.00  0.00     0.074 A 
ATOM     55  C   UNL A   1      38.748  34.107  31.221  1.00  0.00     0.029 A 
ATOM     56  N   UNL A   1      40.340  32.569  30.993  1.00  0.00    -0.354 N 
ATOM     57  N   UNL A   1      42.989  31.399  31.457  1.00  0.00    -0.248 NA
ATOM     58  C   UNL A   1      45.157  31.560  32.311  1.00  0.00     0.031 C 
ATOM     59  C   UNL A   1      39.907  34.573  31.847  1.00  0.00     0.029 A 
ATOM     60  C   UNL A   1      40.888  33.600  31.735  1.00  0.00     0.049 A 
ATOM     61  H   UNL A   1      40.808  31.740  30.744  1.00  0.00     0.167 HD
ATOM     62  C   UNL A   1      43.130  32.614  32.117  1.00  0.00     0.074 A 
ATOM     63  C   UNL A   1      44.473  32.643  32.657  1.00  0.00     0.031 C 
ATOM     64  C   UNL A   1      42.228  33.615  32.264  1.00  0.00     0.031 A 
BRANCH  51  65
ATOM     65  C   UNL A   1      36.804  32.550  29.498  1.00  0.00    -0.014 A 
ATOM     66  C   UNL A   1      36.561  33.200  28.278  1.00  0.00     0.009 A 
ATOM     67  C   UNL A   1      35.735  32.349  30.384  1.00  0.00     0.009 A 
ATOM     68  C   UNL A   1      35.284  33.674  27.969  1.00  0.00     0.001 A 
ATOM     69  C   UNL A   1      34.451  32.791  30.057  1.00  0.00     0.001 A 
ATOM     70  C   UNL A   1      34.230  33.463  28.855  1.00  0.00     0.000 A 
ENDBRANCH  51  65
BRANCH  52  71
ATOM     71  C   UNL A   1      45.916  28.899  31.367  1.00  0.00    -0.014 A 
ATOM     72  C   UNL A   1      46.190  28.181  32.541  1.00  0.00     0.009 A 
ATOM     73  C   UNL A   1      46.959  29.129  30.456  1.00  0.00     0.009 A 
ATOM     74  C   UNL A   1      47.485  27.733  32.814  1.00  0.00     0.001 A 
ATOM     75  C   UNL A   1      48.246  28.649  30.713  1.00  0.00     0.001 A 
ATOM     76  C   UNL A   1      48.511  27.964  31.898  1.00  0.00     0.000 A 
ENDBRANCH  52  71
BRANCH  64  77
ATOM     77  C   UNL A   1      42.649  34.809  33.075  1.00  0.00    -0.014 A 
ATOM     78  C   UNL A   1      42.466  34.853  34.466  1.00  0.00     0.009 A 
ATOM     79  C   UNL A   1      43.281  35.889  32.439  1.00  0.00     0.009 A 
ATOM     80  C   UNL A   1      42.874  35.972  35.196  1.00  0.00     0.001 A 
ATOM     81  C   UNL A   1      43.720  36.990  33.175  1.00  0.00     0.001 A 
ATOM     82  C   UNL A   1      43.505  37.035  34.551  1.00  0.00     0.000 A 
ENDBRANCH  64  77
ENDBRANCH  38  39
ENDBRANCH  30  33
ENDBRANCH  28  29
ENDBRANCH  27  28
ENDBRANCH   1  27
TORSDOF 17
ENDMDL
