MODEL 1
REMARK VINA RESULT:     -12.9      0.000      0.000
REMARK SMILES Cc1ccc(Oc2cc(C(=O)NCCCCNC(=O)c3ccc(-c4c5nc(c(-c6ccccc6)c6ccc([nH]6)c(-c6ccccc6)c6nc(c(-c7ccccc7)c7ccc4[nH]7)C=C6)C=C5)cc3)nc3ccccc23)cc1
REMARK SMILES IDX 14 1 13 2 12 3 10 4 11 5 9 7 7 8 8 9 74 10 69 11 73 12 68 13
REMARK SMILES IDX 70 14 72 15 71 16 6 17 5 18 1 19 2 20 3 21 76 22 4 23 75 24
REMARK SMILES IDX 15 25 16 26 17 27 18 28 19 30 20 31 21 32 67 33 22 34 66 35
REMARK SMILES IDX 23 36 24 37 25 38 60 39 26 40 65 41 59 42 61 43 27 44 64 45
REMARK SMILES IDX 58 46 57 47 28 49 50 50 35 51 49 52 36 53 39 54 48 55 62 56
REMARK SMILES IDX 37 57 38 58 47 60 63 61 40 62 29 63 30 64 34 65 31 66 33 67
REMARK SMILES IDX 32 68 51 69 52 70 56 71 53 72 55 73 54 74 41 75 42 76 46 77
REMARK SMILES IDX 43 78 45 79 44 80
REMARK H PARENT 12 6 17 29 61 48 39 59
REMARK Flexibility Score: inf
ROOT
ATOM      1  C   UNL A   1      38.726  23.036  26.532  1.00  0.00     0.023 C 
ENDROOT
BRANCH   1   2
ATOM      2  C   UNL A   1      37.467  23.627  25.883  1.00  0.00     0.116 C 
BRANCH   2   3
ATOM      3  N   UNL A   1      37.407  23.386  24.449  1.00  0.00    -0.351 N 
ATOM      4  C   UNL A   1      36.349  23.067  23.626  1.00  0.00     0.270 C 
ATOM      5  O   UNL A   1      36.586  22.937  22.423  1.00  0.00    -0.268 OA
ATOM      6  H   UNL A   1      38.273  23.463  23.988  1.00  0.00     0.163 HD
BRANCH   4   7
ATOM      7  C   UNL A   1      34.945  22.886  24.125  1.00  0.00     0.132 A 
ATOM      8  C   UNL A   1      32.883  21.696  24.086  1.00  0.00     0.139 A 
ATOM      9  C   UNL A   1      34.194  21.828  23.638  1.00  0.00     0.082 A 
ATOM     10  C   UNL A   1      32.356  22.582  25.052  1.00  0.00     0.043 A 
ATOM     11  C   UNL A   1      33.199  23.635  25.459  1.00  0.00     0.075 A 
ATOM     12  C   UNL A   1      31.057  22.494  25.609  1.00  0.00     0.014 A 
ATOM     13  N   UNL A   1      34.457  23.776  25.019  1.00  0.00    -0.242 NA
ATOM     14  C   UNL A   1      32.709  24.584  26.343  1.00  0.00     0.029 A 
ATOM     15  C   UNL A   1      30.586  23.464  26.492  1.00  0.00     0.001 A 
ATOM     16  C   UNL A   1      31.411  24.519  26.850  1.00  0.00     0.002 A 
BRANCH   8  17
ATOM     17  O   UNL A   1      32.176  20.632  23.567  1.00  0.00    -0.457 OA
BRANCH  17  18
ATOM     18  C   UNL A   1      32.549  19.350  23.916  1.00  0.00     0.127 A 
ATOM     19  C   UNL A   1      33.388  15.381  25.376  1.00  0.00     0.044 C 
ATOM     20  C   UNL A   1      33.121  16.765  24.864  1.00  0.00    -0.051 A 
ATOM     21  C   UNL A   1      32.854  17.806  25.761  1.00  0.00     0.007 A 
ATOM     22  C   UNL A   1      33.152  17.042  23.493  1.00  0.00     0.007 A 
ATOM     23  C   UNL A   1      32.567  19.089  25.289  1.00  0.00     0.047 A 
ATOM     24  C   UNL A   1      32.882  18.330  23.021  1.00  0.00     0.047 A 
ENDBRANCH  17  18
ENDBRANCH   8  17
ENDBRANCH   4   7
ENDBRANCH   2   3
ENDBRANCH   1   2
BRANCH   1  25
ATOM     25  C   UNL A   1      39.115  21.641  26.023  1.00  0.00     0.023 C 
BRANCH  25  26
ATOM     26  C   UNL A   1      40.233  20.968  26.813  1.00  0.00     0.116 C 
BRANCH  26  27
ATOM     27  N   UNL A   1      41.241  20.288  26.010  1.00  0.00    -0.352 N 
ATOM     28  C   UNL A   1      42.577  20.602  25.801  1.00  0.00     0.251 C 
ATOM     29  H   UNL A   1      40.925  19.480  25.544  1.00  0.00     0.163 HD
ATOM     30  O   UNL A   1      43.231  19.957  25.000  1.00  0.00    -0.269 OA
BRANCH  28  31
ATOM     31  C   UNL A   1      43.254  21.614  26.661  1.00  0.00     0.039 A 
ATOM     32  C   UNL A   1      42.914  21.635  28.022  1.00  0.00     0.014 A 
ATOM     33  C   UNL A   1      44.002  22.655  26.124  1.00  0.00     0.014 A 
ATOM     34  C   UNL A   1      43.059  22.814  28.747  1.00  0.00     0.010 A 
ATOM     35  C   UNL A   1      44.042  23.858  26.799  1.00  0.00     0.010 A 
ATOM     36  C   UNL A   1      43.492  23.956  28.080  1.00  0.00    -0.014 A 
BRANCH  36  37
ATOM     37  C   UNL A   1      43.252  25.308  28.564  1.00  0.00     0.031 A 
ATOM     38  C   UNL A   1      42.051  26.058  28.163  1.00  0.00     0.074 A 
ATOM     39  C   UNL A   1      44.076  25.821  29.504  1.00  0.00     0.049 A 
ATOM     40  N   UNL A   1      41.930  27.338  28.267  1.00  0.00    -0.248 NA
ATOM     41  C   UNL A   1      40.896  25.415  27.553  1.00  0.00     0.031 C 
ATOM     42  C   UNL A   1      43.839  26.968  30.375  1.00  0.00     0.029 A 
ATOM     43  N   UNL A   1      45.418  25.506  29.708  1.00  0.00    -0.354 N 
ATOM     44  C   UNL A   1      40.604  27.637  28.069  1.00  0.00     0.074 A 
ATOM     45  C   UNL A   1      40.032  26.432  27.510  1.00  0.00     0.031 C 
ATOM     46  C   UNL A   1      45.019  27.415  30.833  1.00  0.00     0.029 A 
ATOM     47  C   UNL A   1      46.061  26.682  30.137  1.00  0.00     0.049 A 
ATOM     48  H   UNL A   1      45.837  24.625  29.576  1.00  0.00     0.167 HD
ATOM     49  C   UNL A   1      40.109  28.816  28.544  1.00  0.00     0.031 A 
ATOM     50  C   UNL A   1      47.028  27.255  29.358  1.00  0.00     0.031 A 
ATOM     51  C   UNL A   1      41.164  29.685  29.078  1.00  0.00     0.049 A 
ATOM     52  C   UNL A   1      46.675  28.630  28.821  1.00  0.00     0.074 A 
ATOM     53  C   UNL A   1      41.546  30.086  30.348  1.00  0.00     0.029 A 
ATOM     54  N   UNL A   1      42.195  30.072  28.235  1.00  0.00    -0.354 N 
ATOM     55  N   UNL A   1      45.538  29.237  29.018  1.00  0.00    -0.248 NA
ATOM     56  C   UNL A   1      47.555  29.386  27.925  1.00  0.00     0.031 C 
ATOM     57  C   UNL A   1      42.822  30.716  30.254  1.00  0.00     0.029 A 
ATOM     58  C   UNL A   1      43.206  30.711  28.927  1.00  0.00     0.049 A 
ATOM     59  H   UNL A   1      42.206  29.911  27.264  1.00  0.00     0.167 HD
ATOM     60  C   UNL A   1      45.489  30.379  28.263  1.00  0.00     0.074 A 
ATOM     61  C   UNL A   1      46.780  30.435  27.603  1.00  0.00     0.031 C 
ATOM     62  C   UNL A   1      44.376  31.166  28.193  1.00  0.00     0.031 A 
BRANCH  49  63
ATOM     63  C   UNL A   1      38.632  29.071  28.758  1.00  0.00    -0.014 A 
ATOM     64  C   UNL A   1      37.852  29.574  27.701  1.00  0.00     0.009 A 
ATOM     65  C   UNL A   1      37.958  28.902  29.980  1.00  0.00     0.009 A 
ATOM     66  C   UNL A   1      36.520  29.976  27.880  1.00  0.00     0.001 A 
ATOM     67  C   UNL A   1      36.639  29.332  30.180  1.00  0.00     0.001 A 
ATOM     68  C   UNL A   1      35.921  29.883  29.130  1.00  0.00     0.000 A 
ENDBRANCH  49  63
BRANCH  50  69
ATOM     69  C   UNL A   1      47.855  26.249  28.631  1.00  0.00    -0.014 A 
ATOM     70  C   UNL A   1      47.639  26.081  27.248  1.00  0.00     0.009 A 
ATOM     71  C   UNL A   1      49.051  25.770  29.185  1.00  0.00     0.009 A 
ATOM     72  C   UNL A   1      48.642  25.560  26.426  1.00  0.00     0.001 A 
ATOM     73  C   UNL A   1      50.047  25.236  28.359  1.00  0.00     0.001 A 
ATOM     74  C   UNL A   1      49.857  25.167  26.979  1.00  0.00     0.000 A 
ENDBRANCH  50  69
BRANCH  62  75
ATOM     75  C   UNL A   1      44.286  32.431  27.382  1.00  0.00    -0.014 A 
ATOM     76  C   UNL A   1      44.057  33.689  27.955  1.00  0.00     0.009 A 
ATOM     77  C   UNL A   1      44.311  32.368  25.973  1.00  0.00     0.009 A 
ATOM     78  C   UNL A   1      43.927  34.836  27.161  1.00  0.00     0.001 A 
ATOM     79  C   UNL A   1      44.157  33.505  25.175  1.00  0.00     0.001 A 
ATOM     80  C   UNL A   1      43.978  34.744  25.772  1.00  0.00     0.000 A 
ENDBRANCH  62  75
ENDBRANCH  36  37
ENDBRANCH  28  31
ENDBRANCH  26  27
ENDBRANCH  25  26
ENDBRANCH   1  25
TORSDOF 13
ENDMDL
MODEL 2
REMARK VINA RESULT:     -12.8      5.135     10.071
REMARK SMILES Cc1ccc(Oc2cc(C(=O)NCCCCNC(=O)c3ccc(-c4c5nc(c(-c6ccccc6)c6ccc([nH]6)c(-c6ccccc6)c6nc(c(-c7ccccc7)c7ccc4[nH]7)C=C6)C=C5)cc3)nc3ccccc23)cc1
REMARK SMILES IDX 14 1 13 2 12 3 10 4 11 5 9 7 7 8 8 9 74 10 69 11 73 12 68 13
REMARK SMILES IDX 70 14 72 15 71 16 6 17 5 18 1 19 2 20 3 21 76 22 4 23 75 24
REMARK SMILES IDX 15 25 16 26 17 27 18 28 19 30 20 31 21 32 67 33 22 34 66 35
REMARK SMILES IDX 23 36 24 37 25 38 60 39 26 40 65 41 59 42 61 43 27 44 64 45
REMARK SMILES IDX 58 46 57 47 28 49 50 50 35 51 49 52 36 53 39 54 48 55 62 56
REMARK SMILES IDX 37 57 38 58 47 60 63 61 40 62 29 63 30 64 34 65 31 66 33 67
REMARK SMILES IDX 32 68 51 69 52 70 56 71 53 72 55 73 54 74 41 75 42 76 46 77
REMARK SMILES IDX 43 78 45 79 44 80
REMARK H PARENT 12 6 17 29 61 48 39 59
REMARK Flexibility Score: inf
ROOT
ATOM      1  C   UNL A   1      34.947  30.674  27.549  1.00  0.00     0.023 C 
ENDROOT
BRANCH   1   2
ATOM      2  C   UNL A   1      34.326  29.385  26.994  1.00  0.00     0.116 C 
BRANCH   2   3
ATOM      3  N   UNL A   1      33.162  28.950  27.750  1.00  0.00    -0.351 N 
ATOM      4  C   UNL A   1      32.185  28.023  27.459  1.00  0.00     0.270 C 
ATOM      5  O   UNL A   1      31.311  27.836  28.307  1.00  0.00    -0.268 OA
ATOM      6  H   UNL A   1      33.053  29.397  28.620  1.00  0.00     0.163 HD
BRANCH   4   7
ATOM      7  C   UNL A   1      32.152  27.238  26.179  1.00  0.00     0.132 A 
ATOM      8  C   UNL A   1      30.999  26.557  24.211  1.00  0.00     0.139 A 
ATOM      9  C   UNL A   1      31.026  27.318  25.376  1.00  0.00     0.082 A 
ATOM     10  C   UNL A   1      32.111  25.773  23.833  1.00  0.00     0.043 A 
ATOM     11  C   UNL A   1      33.192  25.746  24.737  1.00  0.00     0.075 A 
ATOM     12  C   UNL A   1      32.199  25.012  22.642  1.00  0.00     0.014 A 
ATOM     13  N   UNL A   1      33.217  26.465  25.868  1.00  0.00    -0.242 NA
ATOM     14  C   UNL A   1      34.278  24.929  24.462  1.00  0.00     0.029 A 
ATOM     15  C   UNL A   1      33.300  24.194  22.390  1.00  0.00     0.001 A 
ATOM     16  C   UNL A   1      34.337  24.144  23.309  1.00  0.00     0.002 A 
BRANCH   8  17
ATOM     17  O   UNL A   1      29.855  26.666  23.450  1.00  0.00    -0.457 OA
BRANCH  17  18
ATOM     18  C   UNL A   1      29.506  27.902  22.943  1.00  0.00     0.127 A 
ATOM     19  C   UNL A   1      28.107  31.799  21.742  1.00  0.00     0.044 C 
ATOM     20  C   UNL A   1      28.594  30.435  22.135  1.00  0.00    -0.051 A 
ATOM     21  C   UNL A   1      27.709  29.512  22.701  1.00  0.00     0.007 A 
ATOM     22  C   UNL A   1      29.925  30.060  21.926  1.00  0.00     0.007 A 
ATOM     23  C   UNL A   1      28.164  28.254  23.106  1.00  0.00     0.047 A 
ATOM     24  C   UNL A   1      30.377  28.795  22.314  1.00  0.00     0.047 A 
ENDBRANCH  17  18
ENDBRANCH   8  17
ENDBRANCH   4   7
ENDBRANCH   2   3
ENDBRANCH   1   2
BRANCH   1  25
ATOM     25  C   UNL A   1      33.940  31.788  27.860  1.00  0.00     0.023 C 
BRANCH  25  26
ATOM     26  C   UNL A   1      34.567  33.152  28.130  1.00  0.00     0.116 C 
BRANCH  26  27
ATOM     27  N   UNL A   1      33.744  34.076  28.899  1.00  0.00    -0.352 N 
ATOM     28  C   UNL A   1      33.737  34.342  30.262  1.00  0.00     0.251 C 
ATOM     29  H   UNL A   1      33.092  34.591  28.370  1.00  0.00     0.163 HD
ATOM     30  O   UNL A   1      32.887  35.082  30.728  1.00  0.00    -0.269 OA
BRANCH  28  31
ATOM     31  C   UNL A   1      34.849  33.859  31.128  1.00  0.00     0.039 A 
ATOM     32  C   UNL A   1      36.015  34.637  31.174  1.00  0.00     0.014 A 
ATOM     33  C   UNL A   1      34.852  32.583  31.678  1.00  0.00     0.014 A 
ATOM     34  C   UNL A   1      37.230  34.034  31.488  1.00  0.00     0.010 A 
ATOM     35  C   UNL A   1      36.063  31.952  31.878  1.00  0.00     0.010 A 
ATOM     36  C   UNL A   1      37.255  32.659  31.699  1.00  0.00    -0.014 A 
BRANCH  36  37
ATOM     37  C   UNL A   1      38.459  31.849  31.573  1.00  0.00     0.031 A 
ATOM     38  C   UNL A   1      38.424  30.528  30.925  1.00  0.00     0.074 A 
ATOM     39  C   UNL A   1      39.646  32.385  31.932  1.00  0.00     0.049 A 
ATOM     40  N   UNL A   1      39.338  29.629  31.067  1.00  0.00    -0.248 NA
ATOM     41  C   UNL A   1      37.308  30.093  30.097  1.00  0.00     0.031 C 
ATOM     42  C   UNL A   1      40.984  31.922  31.574  1.00  0.00     0.029 A 
ATOM     43  N   UNL A   1      39.868  33.368  32.894  1.00  0.00    -0.354 N 
ATOM     44  C   UNL A   1      39.112  28.668  30.112  1.00  0.00     0.074 A 
ATOM     45  C   UNL A   1      37.779  28.938  29.622  1.00  0.00     0.031 C 
ATOM     46  C   UNL A   1      41.865  32.427  32.452  1.00  0.00     0.029 A 
ATOM     47  C   UNL A   1      41.106  33.086  33.501  1.00  0.00     0.049 A 
ATOM     48  H   UNL A   1      39.270  34.120  33.109  1.00  0.00     0.167 HD
ATOM     49  C   UNL A   1      40.137  27.851  29.735  1.00  0.00     0.031 A 
ATOM     50  C   UNL A   1      41.158  32.752  34.825  1.00  0.00     0.031 A 
ATOM     51  C   UNL A   1      41.331  28.038  30.568  1.00  0.00     0.049 A 
ATOM     52  C   UNL A   1      41.636  31.339  35.104  1.00  0.00     0.074 A 
ATOM     53  C   UNL A   1      42.578  28.609  30.368  1.00  0.00     0.029 A 
ATOM     54  N   UNL A   1      41.226  27.833  31.936  1.00  0.00    -0.354 N 
ATOM     55  N   UNL A   1      41.938  30.461  34.187  1.00  0.00    -0.248 NA
ATOM     56  C   UNL A   1      41.710  30.774  36.453  1.00  0.00     0.031 C 
ATOM     57  C   UNL A   1      43.217  28.744  31.637  1.00  0.00     0.029 A 
ATOM     58  C   UNL A   1      42.364  28.242  32.601  1.00  0.00     0.049 A 
ATOM     59  H   UNL A   1      40.436  27.443  32.377  1.00  0.00     0.167 HD
ATOM     60  C   UNL A   1      42.171  29.245  34.774  1.00  0.00     0.074 A 
ATOM     61  C   UNL A   1      42.026  29.492  36.197  1.00  0.00     0.031 C 
ATOM     62  C   UNL A   1      42.412  28.114  34.049  1.00  0.00     0.031 A 
BRANCH  49  63
ATOM     63  C   UNL A   1      40.139  27.062  28.444  1.00  0.00    -0.014 A 
ATOM     64  C   UNL A   1      39.537  25.790  28.403  1.00  0.00     0.009 A 
ATOM     65  C   UNL A   1      40.763  27.473  27.253  1.00  0.00     0.009 A 
ATOM     66  C   UNL A   1      39.642  24.949  27.286  1.00  0.00     0.001 A 
ATOM     67  C   UNL A   1      40.903  26.628  26.143  1.00  0.00     0.001 A 
ATOM     68  C   UNL A   1      40.352  25.357  26.164  1.00  0.00     0.000 A 
ENDBRANCH  49  63
BRANCH  50  69
ATOM     69  C   UNL A   1      40.146  33.479  35.644  1.00  0.00    -0.014 A 
ATOM     70  C   UNL A   1      38.959  32.804  35.993  1.00  0.00     0.009 A 
ATOM     71  C   UNL A   1      40.501  34.627  36.367  1.00  0.00     0.009 A 
ATOM     72  C   UNL A   1      38.216  33.196  37.110  1.00  0.00     0.001 A 
ATOM     73  C   UNL A   1      39.746  35.023  37.477  1.00  0.00     0.001 A 
ATOM     74  C   UNL A   1      38.628  34.286  37.870  1.00  0.00     0.000 A 
ENDBRANCH  50  69
BRANCH  62  75
ATOM     75  C   UNL A   1      42.680  26.763  34.657  1.00  0.00    -0.014 A 
ATOM     76  C   UNL A   1      43.930  26.131  34.589  1.00  0.00     0.009 A 
ATOM     77  C   UNL A   1      41.621  26.022  35.222  1.00  0.00     0.009 A 
ATOM     78  C   UNL A   1      44.124  24.849  35.121  1.00  0.00     0.001 A 
ATOM     79  C   UNL A   1      41.805  24.734  35.732  1.00  0.00     0.001 A 
ATOM     80  C   UNL A   1      43.063  24.152  35.693  1.00  0.00     0.000 A 
ENDBRANCH  62  75
ENDBRANCH  36  37
ENDBRANCH  28  31
ENDBRANCH  26  27
ENDBRANCH  25  26
ENDBRANCH   1  25
TORSDOF 13
ENDMDL
MODEL 3
REMARK VINA RESULT:     -12.7      3.463      8.409
REMARK SMILES Cc1ccc(Oc2cc(C(=O)NCCCCNC(=O)c3ccc(-c4c5nc(c(-c6ccccc6)c6ccc([nH]6)c(-c6ccccc6)c6nc(c(-c7ccccc7)c7ccc4[nH]7)C=C6)C=C5)cc3)nc3ccccc23)cc1
REMARK SMILES IDX 14 1 13 2 12 3 10 4 11 5 9 7 7 8 8 9 74 10 69 11 73 12 68 13
REMARK SMILES IDX 70 14 72 15 71 16 6 17 5 18 1 19 2 20 3 21 76 22 4 23 75 24
REMARK SMILES IDX 15 25 16 26 17 27 18 28 19 30 20 31 21 32 67 33 22 34 66 35
REMARK SMILES IDX 23 36 24 37 25 38 60 39 26 40 65 41 59 42 61 43 27 44 64 45
REMARK SMILES IDX 58 46 57 47 28 49 50 50 35 51 49 52 36 53 39 54 48 55 62 56
REMARK SMILES IDX 37 57 38 58 47 60 63 61 40 62 29 63 30 64 34 65 31 66 33 67
REMARK SMILES IDX 32 68 51 69 52 70 56 71 53 72 55 73 54 74 41 75 42 76 46 77
REMARK SMILES IDX 43 78 45 79 44 80
REMARK H PARENT 12 6 17 29 61 48 39 59
REMARK Flexibility Score: inf
ROOT
ATOM      1  C   UNL A   1      33.850  29.932  27.246  1.00  0.00     0.023 C 
ENDROOT
BRANCH   1   2
ATOM      2  C   UNL A   1      32.668  29.176  26.623  1.00  0.00     0.116 C 
BRANCH   2   3
ATOM      3  N   UNL A   1      32.596  29.338  25.179  1.00  0.00    -0.351 N 
ATOM      4  C   UNL A   1      32.553  28.408  24.163  1.00  0.00     0.270 C 
ATOM      5  O   UNL A   1      32.471  28.833  23.009  1.00  0.00    -0.268 OA
ATOM      6  H   UNL A   1      32.574  30.274  24.876  1.00  0.00     0.163 HD
BRANCH   4   7
ATOM      7  C   UNL A   1      32.590  26.926  24.402  1.00  0.00     0.132 A 
ATOM      8  C   UNL A   1      33.610  24.806  24.036  1.00  0.00     0.139 A 
ATOM      9  C   UNL A   1      33.611  26.183  23.832  1.00  0.00     0.082 A 
ATOM     10  C   UNL A   1      32.629  24.197  24.850  1.00  0.00     0.043 A 
ATOM     11  C   UNL A   1      31.625  25.044  25.358  1.00  0.00     0.075 A 
ATOM     12  C   UNL A   1      32.579  22.816  25.161  1.00  0.00     0.014 A 
ATOM     13  N   UNL A   1      31.612  26.368  25.152  1.00  0.00    -0.242 NA
ATOM     14  C   UNL A   1      30.589  24.491  26.095  1.00  0.00     0.029 A 
ATOM     15  C   UNL A   1      31.523  22.283  25.899  1.00  0.00     0.001 A 
ATOM     16  C   UNL A   1      30.519  23.122  26.358  1.00  0.00     0.002 A 
BRANCH   8  17
ATOM     17  O   UNL A   1      34.641  24.110  23.442  1.00  0.00    -0.457 OA
BRANCH  17  18
ATOM     18  C   UNL A   1      35.666  23.632  24.235  1.00  0.00     0.127 A 
ATOM     19  C   UNL A   1      39.084  21.996  26.290  1.00  0.00     0.044 C 
ATOM     20  C   UNL A   1      37.879  22.555  25.593  1.00  0.00    -0.051 A 
ATOM     21  C   UNL A   1      37.372  21.923  24.453  1.00  0.00     0.007 A 
ATOM     22  C   UNL A   1      37.236  23.699  26.078  1.00  0.00     0.007 A 
ATOM     23  C   UNL A   1      36.274  22.460  23.776  1.00  0.00     0.047 A 
ATOM     24  C   UNL A   1      36.126  24.227  25.412  1.00  0.00     0.047 A 
ENDBRANCH  17  18
ENDBRANCH   8  17
ENDBRANCH   4   7
ENDBRANCH   2   3
ENDBRANCH   1   2
BRANCH   1  25
ATOM     25  C   UNL A   1      33.545  31.383  27.643  1.00  0.00     0.023 C 
BRANCH  25  26
ATOM     26  C   UNL A   1      34.777  32.267  27.809  1.00  0.00     0.116 C 
BRANCH  26  27
ATOM     27  N   UNL A   1      35.176  32.527  29.186  1.00  0.00    -0.352 N 
ATOM     28  C   UNL A   1      35.936  31.756  30.056  1.00  0.00     0.251 C 
ATOM     29  H   UNL A   1      34.858  33.382  29.556  1.00  0.00     0.163 HD
ATOM     30  O   UNL A   1      36.069  32.108  31.215  1.00  0.00    -0.269 OA
BRANCH  28  31
ATOM     31  C   UNL A   1      36.714  30.592  29.544  1.00  0.00     0.039 A 
ATOM     32  C   UNL A   1      36.744  29.437  30.338  1.00  0.00     0.014 A 
ATOM     33  C   UNL A   1      37.576  30.702  28.459  1.00  0.00     0.014 A 
ATOM     34  C   UNL A   1      37.817  28.557  30.229  1.00  0.00     0.010 A 
ATOM     35  C   UNL A   1      38.699  29.901  28.423  1.00  0.00     0.010 A 
ATOM     36  C   UNL A   1      38.857  28.881  29.364  1.00  0.00    -0.014 A 
BRANCH  36  37
ATOM     37  C   UNL A   1      40.202  28.333  29.484  1.00  0.00     0.031 A 
ATOM     38  C   UNL A   1      40.537  27.012  28.932  1.00  0.00     0.074 A 
ATOM     39  C   UNL A   1      41.182  29.115  29.987  1.00  0.00     0.049 A 
ATOM     40  N   UNL A   1      41.574  26.326  29.276  1.00  0.00    -0.248 NA
ATOM     41  C   UNL A   1      39.684  26.326  27.971  1.00  0.00     0.031 C 
ATOM     42  C   UNL A   1      42.625  28.927  29.876  1.00  0.00     0.029 A 
ATOM     43  N   UNL A   1      41.041  30.156  30.902  1.00  0.00    -0.354 N 
ATOM     44  C   UNL A   1      41.706  25.306  28.367  1.00  0.00     0.074 A 
ATOM     45  C   UNL A   1      40.447  25.277  27.657  1.00  0.00     0.031 C 
ATOM     46  C   UNL A   1      43.230  29.633  30.844  1.00  0.00     0.029 A 
ATOM     47  C   UNL A   1      42.191  30.158  31.713  1.00  0.00     0.049 A 
ATOM     48  H   UNL A   1      40.278  30.776  30.969  1.00  0.00     0.167 HD
ATOM     49  C   UNL A   1      42.921  24.705  28.212  1.00  0.00     0.031 A 
ATOM     50  C   UNL A   1      42.086  29.889  33.049  1.00  0.00     0.031 A 
ATOM     51  C   UNL A   1      43.898  25.165  29.206  1.00  0.00     0.049 A 
ATOM     52  C   UNL A   1      42.780  28.616  33.495  1.00  0.00     0.074 A 
ATOM     53  C   UNL A   1      45.023  25.973  29.165  1.00  0.00     0.029 A 
ATOM     54  N   UNL A   1      43.608  24.991  30.551  1.00  0.00    -0.354 N 
ATOM     55  N   UNL A   1      43.399  27.788  32.700  1.00  0.00    -0.248 NA
ATOM     56  C   UNL A   1      42.739  28.127  34.876  1.00  0.00     0.031 C 
ATOM     57  C   UNL A   1      45.401  26.282  30.505  1.00  0.00     0.029 A 
ATOM     58  C   UNL A   1      44.516  25.650  31.357  1.00  0.00     0.049 A 
ATOM     59  H   UNL A   1      42.849  24.463  30.890  1.00  0.00     0.167 HD
ATOM     60  C   UNL A   1      43.767  26.668  33.399  1.00  0.00     0.074 A 
ATOM     61  C   UNL A   1      43.341  26.930  34.761  1.00  0.00     0.031 C 
ATOM     62  C   UNL A   1      44.345  25.586  32.800  1.00  0.00     0.031 A 
BRANCH  49  63
ATOM     63  C   UNL A   1      43.295  23.888  26.994  1.00  0.00    -0.014 A 
ATOM     64  C   UNL A   1      43.799  24.534  25.850  1.00  0.00     0.009 A 
ATOM     65  C   UNL A   1      43.121  22.498  26.876  1.00  0.00     0.009 A 
ATOM     66  C   UNL A   1      44.015  23.854  24.642  1.00  0.00     0.001 A 
ATOM     67  C   UNL A   1      43.301  21.815  25.665  1.00  0.00     0.001 A 
ATOM     68  C   UNL A   1      43.737  22.498  24.541  1.00  0.00     0.000 A 
ENDBRANCH  49  63
BRANCH  50  69
ATOM     69  C   UNL A   1      40.828  30.421  33.648  1.00  0.00    -0.014 A 
ATOM     70  C   UNL A   1      40.762  31.795  33.953  1.00  0.00     0.009 A 
ATOM     71  C   UNL A   1      39.630  29.696  33.557  1.00  0.00     0.009 A 
ATOM     72  C   UNL A   1      39.530  32.449  34.043  1.00  0.00     0.001 A 
ATOM     73  C   UNL A   1      38.399  30.354  33.661  1.00  0.00     0.001 A 
ATOM     74  C   UNL A   1      38.350  31.733  33.866  1.00  0.00     0.000 A 
ENDBRANCH  50  69
BRANCH  62  75
ATOM     75  C   UNL A   1      44.770  24.342  33.534  1.00  0.00    -0.014 A 
ATOM     76  C   UNL A   1      43.874  23.327  33.895  1.00  0.00     0.009 A 
ATOM     77  C   UNL A   1      46.096  24.215  33.997  1.00  0.00     0.009 A 
ATOM     78  C   UNL A   1      44.299  22.208  34.624  1.00  0.00     0.001 A 
ATOM     79  C   UNL A   1      46.520  23.114  34.745  1.00  0.00     0.001 A 
ATOM     80  C   UNL A   1      45.622  22.102  35.048  1.00  0.00     0.000 A 
ENDBRANCH  62  75
ENDBRANCH  36  37
ENDBRANCH  28  31
ENDBRANCH  26  27
ENDBRANCH  25  26
ENDBRANCH   1  25
TORSDOF 13
ENDMDL
