MODEL 1
REMARK VINA RESULT:     -10.0      0.000      0.000
REMARK SMILES C#CC[N@@H+](CC(=O)NCCCCNC(=O)c1ccc(-c2c3nc(c(-c4ccccc4)c4ccc([nH]4)c(-c4ccccc4)c4nc(c(-c5ccccc5)c5ccc2[nH]5)C=C4)C=C3)cc1)[C@@H]1CCO[C@@](C)(CC)C1
REMARK SMILES IDX 10 1 9 2 8 3 6 4 7 5 5 7 4 8 3 10 2 11 1 12 64 13 65 14
REMARK SMILES IDX 72 15 66 16 68 17 67 18 69 19 70 20 71 21 11 22 12 23 13 24
REMARK SMILES IDX 14 25 15 27 16 28 17 29 63 30 18 31 62 32 19 33 20 34 21 35
REMARK SMILES IDX 56 36 22 37 61 38 55 39 57 40 23 41 60 42 54 43 53 44 24 46
REMARK SMILES IDX 46 47 31 48 45 49 32 50 35 51 44 52 58 53 33 54 34 55 43 57
REMARK SMILES IDX 59 58 36 59 25 60 26 61 30 62 27 63 29 64 28 65 47 66 48 67
REMARK SMILES IDX 52 68 49 69 51 70 50 71 37 72 38 73 42 74 39 75 41 76 40 77
REMARK H PARENT 8 6 4 9 13 26 57 45 35 56
REMARK Flexibility Score: inf
ROOT
ATOM      1  C   UNL A   1      32.749  29.420  27.309  1.00  0.00     0.023 C 
ENDROOT
BRANCH   1   2
ATOM      2  C   UNL A   1      34.072  28.802  26.831  1.00  0.00     0.116 C 
BRANCH   2   3
ATOM      3  N   UNL A   1      34.229  28.947  25.398  1.00  0.00    -0.351 N 
ATOM      4  C   UNL A   1      33.999  28.093  24.361  1.00  0.00     0.275 C 
ATOM      5  O   UNL A   1      34.201  28.570  23.239  1.00  0.00    -0.269 OA
ATOM      6  H   UNL A   1      34.564  29.830  25.121  1.00  0.00     0.163 HD
BRANCH   4   7
ATOM      7  C   UNL A   1      33.440  26.659  24.536  1.00  0.00     0.364 C 
BRANCH   7   8
ATOM      8  N   UNL A   1      32.034  26.508  25.041  1.00  0.00    -0.314 N 
ATOM      9  H   UNL A   1      31.646  27.437  25.200  1.00  0.00     0.349 HD
BRANCH   8  10
ATOM     10  C   UNL A   1      32.110  25.757  26.307  1.00  0.00     0.354 C 
BRANCH  10  11
ATOM     11  C   UNL A   1      31.357  24.451  26.502  1.00  0.00    -0.047 C 
ATOM     12  C   UNL A   1      30.711  23.331  26.670  1.00  0.00     0.010 C 
ENDBRANCH  10  11
ENDBRANCH   8  10
BRANCH   8  13
ATOM     13  C   UNL A   1      31.037  25.984  24.069  1.00  0.00     0.190 C 
ATOM     14  C   UNL A   1      31.407  25.885  22.571  1.00  0.00     0.093 C 
ATOM     15  C   UNL A   1      29.724  26.816  24.094  1.00  0.00     0.100 C 
ATOM     16  C   UNL A   1      31.471  27.224  21.865  1.00  0.00     0.167 C 
ATOM     17  C   UNL A   1      29.761  28.135  23.286  1.00  0.00     0.071 C 
ATOM     18  O   UNL A   1      30.223  27.900  21.950  1.00  0.00    -0.375 OA
ATOM     19  C   UNL A   1      30.631  29.211  23.960  1.00  0.00     0.042 C 
BRANCH  17  20
ATOM     20  C   UNL A   1      28.332  28.733  23.150  1.00  0.00     0.032 C 
ATOM     21  C   UNL A   1      28.128  29.680  21.969  1.00  0.00     0.007 C 
ENDBRANCH  17  20
ENDBRANCH   8  13
ENDBRANCH   7   8
ENDBRANCH   4   7
ENDBRANCH   2   3
ENDBRANCH   1   2
BRANCH   1  22
ATOM     22  C   UNL A   1      32.483  30.841  26.863  1.00  0.00     0.023 C 
BRANCH  22  23
ATOM     23  C   UNL A   1      33.393  31.871  27.493  1.00  0.00     0.116 C 
BRANCH  23  24
ATOM     24  N   UNL A   1      32.764  33.171  27.732  1.00  0.00    -0.352 N 
ATOM     25  C   UNL A   1      33.230  34.191  28.522  1.00  0.00     0.251 C 
ATOM     26  H   UNL A   1      31.908  33.330  27.273  1.00  0.00     0.163 HD
ATOM     27  O   UNL A   1      32.601  35.229  28.676  1.00  0.00    -0.269 OA
BRANCH  25  28
ATOM     28  C   UNL A   1      34.495  33.962  29.234  1.00  0.00     0.039 A 
ATOM     29  C   UNL A   1      34.486  33.178  30.389  1.00  0.00     0.014 A 
ATOM     30  C   UNL A   1      35.699  34.298  28.600  1.00  0.00     0.014 A 
ATOM     31  C   UNL A   1      35.677  32.623  30.846  1.00  0.00     0.010 A 
ATOM     32  C   UNL A   1      36.860  33.655  28.994  1.00  0.00     0.010 A 
ATOM     33  C   UNL A   1      36.860  32.797  30.108  1.00  0.00    -0.014 A 
BRANCH  33  34
ATOM     34  C   UNL A   1      38.117  32.096  30.461  1.00  0.00     0.031 A 
ATOM     35  C   UNL A   1      39.068  32.744  31.428  1.00  0.00     0.074 A 
ATOM     36  C   UNL A   1      38.465  30.952  29.839  1.00  0.00     0.049 A 
ATOM     37  N   UNL A   1      40.304  32.427  31.711  1.00  0.00    -0.248 NA
ATOM     38  C   UNL A   1      38.580  33.949  32.119  1.00  0.00     0.031 C 
ATOM     39  C   UNL A   1      37.667  30.240  28.836  1.00  0.00     0.029 A 
ATOM     40  N   UNL A   1      39.599  30.188  29.959  1.00  0.00    -0.354 N 
ATOM     41  C   UNL A   1      40.763  33.435  32.546  1.00  0.00     0.074 A 
ATOM     42  C   UNL A   1      39.682  34.381  32.709  1.00  0.00     0.031 C 
ATOM     43  C   UNL A   1      38.315  29.122  28.469  1.00  0.00     0.029 A 
ATOM     44  C   UNL A   1      39.590  29.060  29.175  1.00  0.00     0.049 A 
ATOM     45  H   UNL A   1      40.348  30.425  30.550  1.00  0.00     0.167 HD
ATOM     46  C   UNL A   1      41.974  33.560  33.135  1.00  0.00     0.031 A 
ATOM     47  C   UNL A   1      40.509  28.084  29.044  1.00  0.00     0.031 A 
ATOM     48  C   UNL A   1      43.015  32.576  33.054  1.00  0.00     0.049 A 
ATOM     49  C   UNL A   1      41.795  28.177  29.812  1.00  0.00     0.074 A 
ATOM     50  C   UNL A   1      44.246  32.566  33.684  1.00  0.00     0.029 A 
ATOM     51  N   UNL A   1      42.927  31.404  32.320  1.00  0.00    -0.354 N 
ATOM     52  N   UNL A   1      42.213  29.132  30.606  1.00  0.00    -0.248 NA
ATOM     53  C   UNL A   1      42.736  27.057  29.664  1.00  0.00     0.031 C 
ATOM     54  C   UNL A   1      44.904  31.381  33.332  1.00  0.00     0.029 A 
ATOM     55  C   UNL A   1      44.074  30.654  32.494  1.00  0.00     0.049 A 
ATOM     56  H   UNL A   1      42.161  31.146  31.758  1.00  0.00     0.167 HD
ATOM     57  C   UNL A   1      43.457  28.724  31.063  1.00  0.00     0.074 A 
ATOM     58  C   UNL A   1      43.724  27.431  30.465  1.00  0.00     0.031 C 
ATOM     59  C   UNL A   1      44.307  29.366  31.900  1.00  0.00     0.031 A 
BRANCH  46  60
ATOM     60  C   UNL A   1      42.216  34.816  33.917  1.00  0.00    -0.014 A 
ATOM     61  C   UNL A   1      42.738  35.963  33.301  1.00  0.00     0.009 A 
ATOM     62  C   UNL A   1      41.952  34.837  35.292  1.00  0.00     0.009 A 
ATOM     63  C   UNL A   1      43.035  37.095  34.061  1.00  0.00     0.001 A 
ATOM     64  C   UNL A   1      42.227  35.980  36.046  1.00  0.00     0.001 A 
ATOM     65  C   UNL A   1      42.779  37.102  35.432  1.00  0.00     0.000 A 
ENDBRANCH  46  60
BRANCH  47  66
ATOM     66  C   UNL A   1      40.230  26.910  28.182  1.00  0.00    -0.014 A 
ATOM     67  C   UNL A   1      39.474  25.841  28.683  1.00  0.00     0.009 A 
ATOM     68  C   UNL A   1      40.719  26.845  26.870  1.00  0.00     0.009 A 
ATOM     69  C   UNL A   1      39.226  24.718  27.891  1.00  0.00     0.001 A 
ATOM     70  C   UNL A   1      40.458  25.726  26.076  1.00  0.00     0.001 A 
ATOM     71  C   UNL A   1      39.717  24.662  26.589  1.00  0.00     0.000 A 
ENDBRANCH  47  66
BRANCH  59  72
ATOM     72  C   UNL A   1      45.584  28.663  32.240  1.00  0.00    -0.014 A 
ATOM     73  C   UNL A   1      45.649  27.784  33.330  1.00  0.00     0.009 A 
ATOM     74  C   UNL A   1      46.717  28.846  31.434  1.00  0.00     0.009 A 
ATOM     75  C   UNL A   1      46.837  27.109  33.617  1.00  0.00     0.001 A 
ATOM     76  C   UNL A   1      47.898  28.163  31.717  1.00  0.00     0.001 A 
ATOM     77  C   UNL A   1      47.958  27.297  32.809  1.00  0.00     0.000 A 
ENDBRANCH  59  72
ENDBRANCH  33  34
ENDBRANCH  25  28
ENDBRANCH  23  24
ENDBRANCH  22  23
ENDBRANCH   1  22
TORSDOF 16
ENDMDL
MODEL 2
REMARK VINA RESULT:      -9.9      3.229      8.249
REMARK SMILES C#CC[N@@H+](CC(=O)NCCCCNC(=O)c1ccc(-c2c3nc(c(-c4ccccc4)c4ccc([nH]4)c(-c4ccccc4)c4nc(c(-c5ccccc5)c5ccc2[nH]5)C=C4)C=C3)cc1)[C@@H]1CCO[C@@](C)(CC)C1
REMARK SMILES IDX 10 1 9 2 8 3 6 4 7 5 5 7 4 8 3 10 2 11 1 12 64 13 65 14
REMARK SMILES IDX 72 15 66 16 68 17 67 18 69 19 70 20 71 21 11 22 12 23 13 24
REMARK SMILES IDX 14 25 15 27 16 28 17 29 63 30 18 31 62 32 19 33 20 34 21 35
REMARK SMILES IDX 56 36 22 37 61 38 55 39 57 40 23 41 60 42 54 43 53 44 24 46
REMARK SMILES IDX 46 47 31 48 45 49 32 50 35 51 44 52 58 53 33 54 34 55 43 57
REMARK SMILES IDX 59 58 36 59 25 60 26 61 30 62 27 63 29 64 28 65 47 66 48 67
REMARK SMILES IDX 52 68 49 69 51 70 50 71 37 72 38 73 42 74 39 75 41 76 40 77
REMARK H PARENT 8 6 4 9 13 26 57 45 35 56
REMARK Flexibility Score: inf
ROOT
ATOM      1  C   UNL A   1      36.401  22.408  24.255  1.00  0.00     0.023 C 
ENDROOT
BRANCH   1   2
ATOM      2  C   UNL A   1      34.879  22.394  24.048  1.00  0.00     0.116 C 
BRANCH   2   3
ATOM      3  N   UNL A   1      34.483  23.337  23.022  1.00  0.00    -0.351 N 
ATOM      4  C   UNL A   1      33.268  23.835  22.657  1.00  0.00     0.275 C 
ATOM      5  O   UNL A   1      33.301  24.674  21.750  1.00  0.00    -0.269 OA
ATOM      6  H   UNL A   1      35.234  23.685  22.489  1.00  0.00     0.163 HD
BRANCH   4   7
ATOM      7  C   UNL A   1      31.939  23.468  23.364  1.00  0.00     0.364 C 
BRANCH   7   8
ATOM      8  N   UNL A   1      31.676  24.058  24.718  1.00  0.00    -0.314 N 
ATOM      9  H   UNL A   1      32.477  24.630  24.984  1.00  0.00     0.349 HD
BRANCH   8  10
ATOM     10  C   UNL A   1      31.514  22.931  25.655  1.00  0.00     0.354 C 
BRANCH  10  11
ATOM     11  C   UNL A   1      32.506  22.686  26.781  1.00  0.00    -0.047 C 
ATOM     12  C   UNL A   1      33.357  22.476  27.746  1.00  0.00     0.010 C 
ENDBRANCH  10  11
ENDBRANCH   8  10
BRANCH   8  13
ATOM     13  C   UNL A   1      30.602  25.084  24.793  1.00  0.00     0.190 C 
ATOM     14  C   UNL A   1      30.460  26.127  23.660  1.00  0.00     0.093 C 
ATOM     15  C   UNL A   1      30.710  25.931  26.093  1.00  0.00     0.100 C 
ATOM     16  C   UNL A   1      31.544  27.185  23.661  1.00  0.00     0.167 C 
ATOM     17  C   UNL A   1      31.749  27.077  26.053  1.00  0.00     0.071 C 
ATOM     18  O   UNL A   1      31.556  27.896  24.892  1.00  0.00    -0.375 OA
ATOM     19  C   UNL A   1      33.197  26.557  26.093  1.00  0.00     0.042 C 
BRANCH  17  20
ATOM     20  C   UNL A   1      31.574  28.017  27.278  1.00  0.00     0.032 C 
ATOM     21  C   UNL A   1      32.427  29.283  27.260  1.00  0.00     0.007 C 
ENDBRANCH  17  20
ENDBRANCH   8  13
ENDBRANCH   7   8
ENDBRANCH   4   7
ENDBRANCH   2   3
ENDBRANCH   1   2
BRANCH   1  22
ATOM     22  C   UNL A   1      36.886  22.020  25.635  1.00  0.00     0.023 C 
BRANCH  22  23
ATOM     23  C   UNL A   1      38.389  21.912  25.758  1.00  0.00     0.116 C 
BRANCH  23  24
ATOM     24  N   UNL A   1      38.917  20.558  25.585  1.00  0.00    -0.352 N 
ATOM     25  C   UNL A   1      40.159  20.094  25.935  1.00  0.00     0.251 C 
ATOM     26  H   UNL A   1      38.309  19.906  25.166  1.00  0.00     0.163 HD
ATOM     27  O   UNL A   1      40.507  18.943  25.712  1.00  0.00    -0.269 OA
BRANCH  25  28
ATOM     28  C   UNL A   1      41.088  21.061  26.538  1.00  0.00     0.039 A 
ATOM     29  C   UNL A   1      41.725  21.989  25.713  1.00  0.00     0.014 A 
ATOM     30  C   UNL A   1      41.104  21.205  27.933  1.00  0.00     0.014 A 
ATOM     31  C   UNL A   1      42.276  23.136  26.274  1.00  0.00     0.010 A 
ATOM     32  C   UNL A   1      41.555  22.397  28.472  1.00  0.00     0.010 A 
ATOM     33  C   UNL A   1      42.129  23.383  27.650  1.00  0.00    -0.014 A 
BRANCH  33  34
ATOM     34  C   UNL A   1      42.554  24.661  28.268  1.00  0.00     0.031 A 
ATOM     35  C   UNL A   1      41.523  25.720  28.539  1.00  0.00     0.074 A 
ATOM     36  C   UNL A   1      43.860  24.924  28.475  1.00  0.00     0.049 A 
ATOM     37  N   UNL A   1      41.691  26.975  28.864  1.00  0.00    -0.248 NA
ATOM     38  C   UNL A   1      40.116  25.326  28.358  1.00  0.00     0.031 C 
ATOM     39  C   UNL A   1      44.976  24.013  28.204  1.00  0.00     0.029 A 
ATOM     40  N   UNL A   1      44.470  26.054  28.961  1.00  0.00    -0.354 N 
ATOM     41  C   UNL A   1      40.422  27.536  28.846  1.00  0.00     0.074 A 
ATOM     42  C   UNL A   1      39.499  26.492  28.462  1.00  0.00     0.031 C 
ATOM     43  C   UNL A   1      46.126  24.602  28.570  1.00  0.00     0.029 A 
ATOM     44  C   UNL A   1      45.836  25.944  29.060  1.00  0.00     0.049 A 
ATOM     45  H   UNL A   1      43.976  26.866  29.214  1.00  0.00     0.167 HD
ATOM     46  C   UNL A   1      40.054  28.805  29.132  1.00  0.00     0.031 A 
ATOM     47  C   UNL A   1      46.749  26.830  29.499  1.00  0.00     0.031 A 
ATOM     48  C   UNL A   1      40.953  29.818  29.607  1.00  0.00     0.049 A 
ATOM     49  C   UNL A   1      46.301  28.193  29.940  1.00  0.00     0.074 A 
ATOM     50  C   UNL A   1      40.666  31.109  30.009  1.00  0.00     0.029 A 
ATOM     51  N   UNL A   1      42.315  29.634  29.778  1.00  0.00    -0.354 N 
ATOM     52  N   UNL A   1      45.096  28.707  29.926  1.00  0.00    -0.248 NA
ATOM     53  C   UNL A   1      47.340  29.097  30.455  1.00  0.00     0.031 C 
ATOM     54  C   UNL A   1      41.860  31.709  30.428  1.00  0.00     0.029 A 
ATOM     55  C   UNL A   1      42.882  30.783  30.296  1.00  0.00     0.049 A 
ATOM     56  H   UNL A   1      42.806  28.808  29.562  1.00  0.00     0.167 HD
ATOM     57  C   UNL A   1      45.228  29.988  30.441  1.00  0.00     0.074 A 
ATOM     58  C   UNL A   1      46.628  30.172  30.767  1.00  0.00     0.031 C 
ATOM     59  C   UNL A   1      44.274  30.933  30.624  1.00  0.00     0.031 A 
BRANCH  46  60
ATOM     60  C   UNL A   1      38.609  29.148  28.934  1.00  0.00    -0.014 A 
ATOM     61  C   UNL A   1      38.133  29.589  27.690  1.00  0.00     0.009 A 
ATOM     62  C   UNL A   1      37.722  29.062  30.015  1.00  0.00     0.009 A 
ATOM     63  C   UNL A   1      36.801  29.983  27.546  1.00  0.00     0.001 A 
ATOM     64  C   UNL A   1      36.384  29.434  29.861  1.00  0.00     0.001 A 
ATOM     65  C   UNL A   1      35.930  29.904  28.632  1.00  0.00     0.000 A 
ENDBRANCH  46  60
BRANCH  47  66
ATOM     66  C   UNL A   1      48.178  26.444  29.587  1.00  0.00    -0.014 A 
ATOM     67  C   UNL A   1      49.030  26.664  28.494  1.00  0.00     0.009 A 
ATOM     68  C   UNL A   1      48.697  25.851  30.746  1.00  0.00     0.009 A 
ATOM     69  C   UNL A   1      50.371  26.282  28.554  1.00  0.00     0.001 A 
ATOM     70  C   UNL A   1      50.043  25.481  30.808  1.00  0.00     0.001 A 
ATOM     71  C   UNL A   1      50.876  25.692  29.710  1.00  0.00     0.000 A 
ENDBRANCH  47  66
BRANCH  59  72
ATOM     72  C   UNL A   1      44.710  32.229  31.231  1.00  0.00    -0.014 A 
ATOM     73  C   UNL A   1      45.128  33.295  30.422  1.00  0.00     0.009 A 
ATOM     74  C   UNL A   1      44.655  32.401  32.622  1.00  0.00     0.009 A 
ATOM     75  C   UNL A   1      45.500  34.510  30.999  1.00  0.00     0.001 A 
ATOM     76  C   UNL A   1      45.017  33.619  33.195  1.00  0.00     0.001 A 
ATOM     77  C   UNL A   1      45.441  34.671  32.383  1.00  0.00     0.000 A 
ENDBRANCH  59  72
ENDBRANCH  33  34
ENDBRANCH  25  28
ENDBRANCH  23  24
ENDBRANCH  22  23
ENDBRANCH   1  22
TORSDOF 16
ENDMDL
MODEL 3
REMARK VINA RESULT:      -9.9      3.502      8.455
REMARK SMILES C#CC[N@@H+](CC(=O)NCCCCNC(=O)c1ccc(-c2c3nc(c(-c4ccccc4)c4ccc([nH]4)c(-c4ccccc4)c4nc(c(-c5ccccc5)c5ccc2[nH]5)C=C4)C=C3)cc1)[C@@H]1CCO[C@@](C)(CC)C1
REMARK SMILES IDX 10 1 9 2 8 3 6 4 7 5 5 7 4 8 3 10 2 11 1 12 64 13 65 14
REMARK SMILES IDX 72 15 66 16 68 17 67 18 69 19 70 20 71 21 11 22 12 23 13 24
REMARK SMILES IDX 14 25 15 27 16 28 17 29 63 30 18 31 62 32 19 33 20 34 21 35
REMARK SMILES IDX 56 36 22 37 61 38 55 39 57 40 23 41 60 42 54 43 53 44 24 46
REMARK SMILES IDX 46 47 31 48 45 49 32 50 35 51 44 52 58 53 33 54 34 55 43 57
REMARK SMILES IDX 59 58 36 59 25 60 26 61 30 62 27 63 29 64 28 65 47 66 48 67
REMARK SMILES IDX 52 68 49 69 51 70 50 71 37 72 38 73 42 74 39 75 41 76 40 77
REMARK H PARENT 8 6 4 9 13 26 57 45 35 56
REMARK Flexibility Score: inf
ROOT
ATOM      1  C   UNL A   1      36.870  20.340  24.826  1.00  0.00     0.023 C 
ENDROOT
BRANCH   1   2
ATOM      2  C   UNL A   1      35.372  20.498  25.128  1.00  0.00     0.116 C 
BRANCH   2   3
ATOM      3  N   UNL A   1      35.163  21.243  26.354  1.00  0.00    -0.351 N 
ATOM      4  C   UNL A   1      34.084  21.917  26.842  1.00  0.00     0.275 C 
ATOM      5  O   UNL A   1      34.242  22.410  27.964  1.00  0.00    -0.269 OA
ATOM      6  H   UNL A   1      35.949  21.265  26.946  1.00  0.00     0.163 HD
BRANCH   4   7
ATOM      7  C   UNL A   1      32.720  22.001  26.112  1.00  0.00     0.364 C 
BRANCH   7   8
ATOM      8  N   UNL A   1      32.353  23.297  25.450  1.00  0.00    -0.314 N 
ATOM      9  H   UNL A   1      33.193  23.871  25.373  1.00  0.00     0.349 HD
BRANCH   8  10
ATOM     10  C   UNL A   1      31.358  23.956  26.315  1.00  0.00     0.354 C 
BRANCH  10  11
ATOM     11  C   UNL A   1      30.169  23.196  26.879  1.00  0.00    -0.047 C 
ATOM     12  C   UNL A   1      29.148  22.543  27.363  1.00  0.00     0.010 C 
ENDBRANCH  10  11
ENDBRANCH   8  10
BRANCH   8  13
ATOM     13  C   UNL A   1      31.972  23.220  24.015  1.00  0.00     0.190 C 
ATOM     14  C   UNL A   1      32.857  22.421  23.030  1.00  0.00     0.093 C 
ATOM     15  C   UNL A   1      31.857  24.634  23.378  1.00  0.00     0.100 C 
ATOM     16  C   UNL A   1      34.172  23.097  22.699  1.00  0.00     0.167 C 
ATOM     17  C   UNL A   1      33.196  25.279  22.948  1.00  0.00     0.071 C 
ATOM     18  O   UNL A   1      33.952  24.379  22.126  1.00  0.00    -0.375 OA
ATOM     19  C   UNL A   1      34.044  25.727  24.151  1.00  0.00     0.042 C 
BRANCH  17  20
ATOM     20  C   UNL A   1      32.941  26.544  22.081  1.00  0.00     0.032 C 
ATOM     21  C   UNL A   1      32.988  27.873  22.832  1.00  0.00     0.007 C 
ENDBRANCH  17  20
ENDBRANCH   8  13
ENDBRANCH   7   8
ENDBRANCH   4   7
ENDBRANCH   2   3
ENDBRANCH   1   2
BRANCH   1  22
ATOM     22  C   UNL A   1      37.718  21.579  25.011  1.00  0.00     0.023 C 
BRANCH  22  23
ATOM     23  C   UNL A   1      38.891  21.397  25.948  1.00  0.00     0.116 C 
BRANCH  23  24
ATOM     24  N   UNL A   1      39.628  20.147  25.760  1.00  0.00    -0.352 N 
ATOM     25  C   UNL A   1      40.949  19.906  26.040  1.00  0.00     0.251 C 
ATOM     26  H   UNL A   1      39.117  19.392  25.388  1.00  0.00     0.163 HD
ATOM     27  O   UNL A   1      41.474  18.825  25.811  1.00  0.00    -0.269 OA
BRANCH  25  28
ATOM     28  C   UNL A   1      41.735  21.029  26.573  1.00  0.00     0.039 A 
ATOM     29  C   UNL A   1      42.254  21.971  25.684  1.00  0.00     0.014 A 
ATOM     30  C   UNL A   1      41.714  21.274  27.953  1.00  0.00     0.014 A 
ATOM     31  C   UNL A   1      42.641  23.219  26.161  1.00  0.00     0.010 A 
ATOM     32  C   UNL A   1      41.997  22.551  28.405  1.00  0.00     0.010 A 
ATOM     33  C   UNL A   1      42.445  23.543  27.514  1.00  0.00    -0.014 A 
BRANCH  33  34
ATOM     34  C   UNL A   1      42.690  24.908  28.038  1.00  0.00     0.031 A 
ATOM     35  C   UNL A   1      44.082  25.290  28.457  1.00  0.00     0.074 A 
ATOM     36  C   UNL A   1      41.665  25.756  28.252  1.00  0.00     0.049 A 
ATOM     37  N   UNL A   1      44.485  26.333  29.136  1.00  0.00    -0.248 NA
ATOM     38  C   UNL A   1      45.153  24.338  28.120  1.00  0.00     0.031 C 
ATOM     39  C   UNL A   1      40.255  25.498  27.948  1.00  0.00     0.029 A 
ATOM     40  N   UNL A   1      41.659  27.020  28.789  1.00  0.00    -0.354 N 
ATOM     41  C   UNL A   1      45.835  26.120  29.375  1.00  0.00     0.074 A 
ATOM     42  C   UNL A   1      46.178  24.845  28.786  1.00  0.00     0.031 C 
ATOM     43  C   UNL A   1      39.530  26.584  28.260  1.00  0.00     0.029 A 
ATOM     44  C   UNL A   1      40.413  27.598  28.823  1.00  0.00     0.049 A 
ATOM     45  H   UNL A   1      42.469  27.470  29.118  1.00  0.00     0.167 HD
ATOM     46  C   UNL A   1      46.715  26.918  30.019  1.00  0.00     0.031 A 
ATOM     47  C   UNL A   1      40.030  28.812  29.261  1.00  0.00     0.031 A 
ATOM     48  C   UNL A   1      46.403  28.226  30.519  1.00  0.00     0.049 A 
ATOM     49  C   UNL A   1      41.053  29.738  29.854  1.00  0.00     0.074 A 
ATOM     50  C   UNL A   1      47.244  29.150  31.109  1.00  0.00     0.029 A 
ATOM     51  N   UNL A   1      45.147  28.808  30.451  1.00  0.00    -0.354 N 
ATOM     52  N   UNL A   1      42.328  29.528  30.065  1.00  0.00    -0.248 NA
ATOM     53  C   UNL A   1      40.581  31.067  30.268  1.00  0.00     0.031 C 
ATOM     54  C   UNL A   1      46.496  30.298  31.396  1.00  0.00     0.029 A 
ATOM     55  C   UNL A   1      45.194  30.086  30.974  1.00  0.00     0.049 A 
ATOM     56  H   UNL A   1      44.342  28.374  30.087  1.00  0.00     0.167 HD
ATOM     57  C   UNL A   1      42.815  30.700  30.624  1.00  0.00     0.074 A 
ATOM     58  C   UNL A   1      41.701  31.622  30.711  1.00  0.00     0.031 C 
ATOM     59  C   UNL A   1      44.074  30.987  31.034  1.00  0.00     0.031 A 
BRANCH  46  60
ATOM     60  C   UNL A   1      48.101  26.378  30.207  1.00  0.00    -0.014 A 
ATOM     61  C   UNL A   1      48.468  25.721  31.390  1.00  0.00     0.009 A 
ATOM     62  C   UNL A   1      49.058  26.562  29.200  1.00  0.00     0.009 A 
ATOM     63  C   UNL A   1      49.785  25.299  31.581  1.00  0.00     0.001 A 
ATOM     64  C   UNL A   1      50.370  26.116  29.385  1.00  0.00     0.001 A 
ATOM     65  C   UNL A   1      50.733  25.497  30.578  1.00  0.00     0.000 A 
ENDBRANCH  46  60
BRANCH  47  66
ATOM     66  C   UNL A   1      38.619  29.244  29.118  1.00  0.00    -0.014 A 
ATOM     67  C   UNL A   1      38.161  29.736  27.887  1.00  0.00     0.009 A 
ATOM     68  C   UNL A   1      37.729  29.177  30.199  1.00  0.00     0.009 A 
ATOM     69  C   UNL A   1      36.842  30.170  27.744  1.00  0.00     0.001 A 
ATOM     70  C   UNL A   1      36.406  29.600  30.050  1.00  0.00     0.001 A 
ATOM     71  C   UNL A   1      35.966  30.101  28.825  1.00  0.00     0.000 A 
ENDBRANCH  47  66
BRANCH  59  72
ATOM     72  C   UNL A   1      44.314  32.359  31.580  1.00  0.00    -0.014 A 
ATOM     73  C   UNL A   1      44.231  32.607  32.958  1.00  0.00     0.009 A 
ATOM     74  C   UNL A   1      44.675  33.401  30.713  1.00  0.00     0.009 A 
ATOM     75  C   UNL A   1      44.490  33.884  33.457  1.00  0.00     0.001 A 
ATOM     76  C   UNL A   1      44.944  34.673  31.217  1.00  0.00     0.001 A 
ATOM     77  C   UNL A   1      44.849  34.913  32.588  1.00  0.00     0.000 A 
ENDBRANCH  59  72
ENDBRANCH  33  34
ENDBRANCH  25  28
ENDBRANCH  23  24
ENDBRANCH  22  23
ENDBRANCH   1  22
TORSDOF 16
ENDMDL
