MODEL 1
REMARK VINA RESULT:     -11.3      0.000      0.000
REMARK SMILES O=C(NCCCCNC(=O)c1ccc(-c2c3nc(c(-c4ccccc4)c4ccc([nH]4)c(-c4ccccc4)c4nc(c(-c5ccccc5)c5ccc2[nH]5)C=C4)C=C3)cc1)c1ccc(Cc2nc3ccccc3s2)cc1
REMARK SMILES IDX 5 1 4 2 3 3 1 4 2 5 59 7 60 8 74 9 61 10 73 11 62 12 63 13
REMARK SMILES IDX 64 14 65 15 72 16 66 17 71 18 67 19 70 20 68 21 69 22 6 23
REMARK SMILES IDX 7 24 8 25 9 26 10 28 11 29 12 30 58 31 13 32 57 33 14 34
REMARK SMILES IDX 15 35 16 36 51 37 17 38 56 39 50 40 52 41 18 42 55 43 49 44
REMARK SMILES IDX 48 45 19 47 41 48 26 49 40 50 27 51 30 52 39 53 53 54 28 55
REMARK SMILES IDX 29 56 38 58 54 59 31 60 20 61 21 62 25 63 22 64 24 65 23 66
REMARK SMILES IDX 42 67 43 68 47 69 44 70 46 71 45 72 32 73 33 74 37 75 34 76
REMARK SMILES IDX 36 77 35 78
REMARK H PARENT 3 6 8 27 52 46 30 57
REMARK Flexibility Score: inf
ROOT
ATOM      1  C   UNL A   1      33.280  29.429  24.752  1.00  0.00     0.023 C 
ENDROOT
BRANCH   1   2
ATOM      2  C   UNL A   1      33.354  28.960  23.301  1.00  0.00     0.116 C 
BRANCH   2   3
ATOM      3  N   UNL A   1      32.073  29.036  22.616  1.00  0.00    -0.352 N 
ATOM      4  O   UNL A   1      30.077  28.284  21.868  1.00  0.00    -0.269 OA
ATOM      5  C   UNL A   1      31.047  28.121  22.599  1.00  0.00     0.251 C 
ATOM      6  H   UNL A   1      31.920  29.856  22.094  1.00  0.00     0.163 HD
BRANCH   5   7
ATOM      7  C   UNL A   1      31.140  26.915  23.446  1.00  0.00     0.039 A 
ATOM      8  C   UNL A   1      30.598  26.904  24.735  1.00  0.00     0.014 A 
ATOM      9  C   UNL A   1      31.826  25.804  22.954  1.00  0.00     0.014 A 
ATOM     10  C   UNL A   1      30.842  25.819  25.575  1.00  0.00     0.005 A 
ATOM     11  C   UNL A   1      32.060  24.714  23.793  1.00  0.00     0.005 A 
ATOM     12  C   UNL A   1      31.599  24.728  25.120  1.00  0.00    -0.041 A 
BRANCH  12  13
ATOM     13  C   UNL A   1      32.000  23.627  26.080  1.00  0.00     0.103 C 
BRANCH  13  14
ATOM     14  C   UNL A   1      33.443  23.216  25.930  1.00  0.00     0.098 A 
ATOM     15  N   UNL A   1      34.482  23.980  26.200  1.00  0.00    -0.241 NA
ATOM     16  S   UNL A   1      33.823  21.644  25.345  1.00  0.00    -0.118 S 
ATOM     17  C   UNL A   1      35.660  23.294  25.960  1.00  0.00     0.082 A 
ATOM     18  C   UNL A   1      35.504  21.994  25.480  1.00  0.00     0.055 A 
ATOM     19  C   UNL A   1      36.963  23.795  26.158  1.00  0.00     0.030 A 
ATOM     20  C   UNL A   1      36.609  21.177  25.185  1.00  0.00     0.021 A 
ATOM     21  C   UNL A   1      38.069  22.990  25.869  1.00  0.00     0.002 A 
ATOM     22  C   UNL A   1      37.891  21.698  25.387  1.00  0.00     0.002 A 
ENDBRANCH  13  14
ENDBRANCH  12  13
ENDBRANCH   5   7
ENDBRANCH   2   3
ENDBRANCH   1   2
BRANCH   1  23
ATOM     23  C   UNL A   1      33.822  28.446  25.789  1.00  0.00     0.023 C 
BRANCH  23  24
ATOM     24  C   UNL A   1      33.406  28.711  27.231  1.00  0.00     0.116 C 
BRANCH  24  25
ATOM     25  N   UNL A   1      33.458  30.118  27.598  1.00  0.00    -0.352 N 
ATOM     26  C   UNL A   1      34.485  30.843  28.157  1.00  0.00     0.251 C 
ATOM     27  H   UNL A   1      32.635  30.627  27.419  1.00  0.00     0.163 HD
ATOM     28  O   UNL A   1      34.302  32.004  28.498  1.00  0.00    -0.269 OA
BRANCH  26  29
ATOM     29  C   UNL A   1      35.804  30.210  28.385  1.00  0.00     0.039 A 
ATOM     30  C   UNL A   1      36.735  30.206  27.342  1.00  0.00     0.014 A 
ATOM     31  C   UNL A   1      36.129  29.630  29.614  1.00  0.00     0.014 A 
ATOM     32  C   UNL A   1      38.017  29.693  27.557  1.00  0.00     0.010 A 
ATOM     33  C   UNL A   1      37.428  29.185  29.848  1.00  0.00     0.010 A 
ATOM     34  C   UNL A   1      38.387  29.215  28.825  1.00  0.00    -0.014 A 
BRANCH  34  35
ATOM     35  C   UNL A   1      39.772  28.753  29.101  1.00  0.00     0.031 A 
ATOM     36  C   UNL A   1      40.770  29.684  29.733  1.00  0.00     0.074 A 
ATOM     37  C   UNL A   1      40.154  27.516  28.722  1.00  0.00     0.049 A 
ATOM     38  N   UNL A   1      42.042  29.487  29.979  1.00  0.00    -0.248 NA
ATOM     39  C   UNL A   1      40.282  31.017  30.120  1.00  0.00     0.031 C 
ATOM     40  C   UNL A   1      39.297  26.526  28.066  1.00  0.00     0.029 A 
ATOM     41  N   UNL A   1      41.368  26.885  28.826  1.00  0.00    -0.354 N 
ATOM     42  C   UNL A   1      42.507  30.674  30.532  1.00  0.00     0.074 A 
ATOM     43  C   UNL A   1      41.395  31.599  30.545  1.00  0.00     0.031 C 
ATOM     44  C   UNL A   1      40.007  25.407  27.848  1.00  0.00     0.029 A 
ATOM     45  C   UNL A   1      41.375  25.612  28.308  1.00  0.00     0.049 A 
ATOM     46  H   UNL A   1      42.160  27.306  29.233  1.00  0.00     0.167 HD
ATOM     47  C   UNL A   1      43.742  30.963  31.006  1.00  0.00     0.031 A 
ATOM     48  C   UNL A   1      42.373  24.715  28.205  1.00  0.00     0.031 A 
ATOM     49  C   UNL A   1      44.848  30.043  31.008  1.00  0.00     0.049 A 
ATOM     50  C   UNL A   1      43.740  25.069  28.724  1.00  0.00     0.074 A 
ATOM     51  C   UNL A   1      46.124  30.232  31.510  1.00  0.00     0.029 A 
ATOM     52  N   UNL A   1      44.807  28.760  30.486  1.00  0.00    -0.354 N 
ATOM     53  N   UNL A   1      44.145  26.175  29.298  1.00  0.00    -0.248 NA
ATOM     54  C   UNL A   1      44.784  24.041  28.590  1.00  0.00     0.031 C 
ATOM     55  C   UNL A   1      46.870  29.077  31.252  1.00  0.00     0.029 A 
ATOM     56  C   UNL A   1      46.042  28.151  30.638  1.00  0.00     0.049 A 
ATOM     57  H   UNL A   1      44.018  28.343  30.070  1.00  0.00     0.167 HD
ATOM     58  C   UNL A   1      45.480  25.966  29.620  1.00  0.00     0.074 A 
ATOM     59  C   UNL A   1      45.811  24.623  29.192  1.00  0.00     0.031 C 
ATOM     60  C   UNL A   1      46.354  26.812  30.216  1.00  0.00     0.031 A 
BRANCH  47  61
ATOM     61  C   UNL A   1      43.965  32.339  31.568  1.00  0.00    -0.014 A 
ATOM     62  C   UNL A   1      43.778  32.601  32.934  1.00  0.00     0.009 A 
ATOM     63  C   UNL A   1      44.414  33.373  30.732  1.00  0.00     0.009 A 
ATOM     64  C   UNL A   1      44.008  33.879  33.447  1.00  0.00     0.001 A 
ATOM     65  C   UNL A   1      44.669  34.643  31.253  1.00  0.00     0.001 A 
ATOM     66  C   UNL A   1      44.458  34.897  32.607  1.00  0.00     0.000 A 
ENDBRANCH  47  61
BRANCH  48  67
ATOM     67  C   UNL A   1      42.125  23.384  27.590  1.00  0.00    -0.014 A 
ATOM     68  C   UNL A   1      42.409  23.162  26.233  1.00  0.00     0.009 A 
ATOM     69  C   UNL A   1      41.574  22.339  28.347  1.00  0.00     0.009 A 
ATOM     70  C   UNL A   1      42.115  21.932  25.640  1.00  0.00     0.001 A 
ATOM     71  C   UNL A   1      41.309  21.101  27.759  1.00  0.00     0.001 A 
ATOM     72  C   UNL A   1      41.569  20.902  26.404  1.00  0.00     0.000 A 
ENDBRANCH  48  67
BRANCH  60  73
ATOM     73  C   UNL A   1      47.740  26.296  30.480  1.00  0.00    -0.014 A 
ATOM     74  C   UNL A   1      48.086  25.732  31.717  1.00  0.00     0.009 A 
ATOM     75  C   UNL A   1      48.702  26.343  29.458  1.00  0.00     0.009 A 
ATOM     76  C   UNL A   1      49.380  25.253  31.936  1.00  0.00     0.001 A 
ATOM     77  C   UNL A   1      49.986  25.839  29.672  1.00  0.00     0.001 A 
ATOM     78  C   UNL A   1      50.326  25.303  30.914  1.00  0.00     0.000 A 
ENDBRANCH  60  73
ENDBRANCH  34  35
ENDBRANCH  26  29
ENDBRANCH  24  25
ENDBRANCH  23  24
ENDBRANCH   1  23
TORSDOF 13
ENDMDL
MODEL 2
REMARK VINA RESULT:     -11.1      0.610      5.964
REMARK SMILES O=C(NCCCCNC(=O)c1ccc(-c2c3nc(c(-c4ccccc4)c4ccc([nH]4)c(-c4ccccc4)c4nc(c(-c5ccccc5)c5ccc2[nH]5)C=C4)C=C3)cc1)c1ccc(Cc2nc3ccccc3s2)cc1
REMARK SMILES IDX 5 1 4 2 3 3 1 4 2 5 59 7 60 8 74 9 61 10 73 11 62 12 63 13
REMARK SMILES IDX 64 14 65 15 72 16 66 17 71 18 67 19 70 20 68 21 69 22 6 23
REMARK SMILES IDX 7 24 8 25 9 26 10 28 11 29 12 30 58 31 13 32 57 33 14 34
REMARK SMILES IDX 15 35 16 36 51 37 17 38 56 39 50 40 52 41 18 42 55 43 49 44
REMARK SMILES IDX 48 45 19 47 41 48 26 49 40 50 27 51 30 52 39 53 53 54 28 55
REMARK SMILES IDX 29 56 38 58 54 59 31 60 20 61 21 62 25 63 22 64 24 65 23 66
REMARK SMILES IDX 42 67 43 68 47 69 44 70 46 71 45 72 32 73 33 74 37 75 34 76
REMARK SMILES IDX 36 77 35 78
REMARK H PARENT 3 6 8 27 52 46 30 57
REMARK Flexibility Score: inf
ROOT
ATOM      1  C   UNL A   1      33.309  29.342  24.825  1.00  0.00     0.023 C 
ENDROOT
BRANCH   1   2
ATOM      2  C   UNL A   1      33.261  28.966  23.346  1.00  0.00     0.116 C 
BRANCH   2   3
ATOM      3  N   UNL A   1      31.965  29.228  22.739  1.00  0.00    -0.352 N 
ATOM      4  O   UNL A   1      29.941  28.713  21.874  1.00  0.00    -0.269 OA
ATOM      5  C   UNL A   1      30.925  28.358  22.512  1.00  0.00     0.251 C 
ATOM      6  H   UNL A   1      31.812  30.157  22.450  1.00  0.00     0.163 HD
BRANCH   5   7
ATOM      7  C   UNL A   1      31.019  26.973  23.015  1.00  0.00     0.039 A 
ATOM      8  C   UNL A   1      30.514  26.634  24.274  1.00  0.00     0.014 A 
ATOM      9  C   UNL A   1      31.670  26.020  22.231  1.00  0.00     0.014 A 
ATOM     10  C   UNL A   1      30.760  25.366  24.797  1.00  0.00     0.005 A 
ATOM     11  C   UNL A   1      31.908  24.748  22.752  1.00  0.00     0.005 A 
ATOM     12  C   UNL A   1      31.485  24.422  24.051  1.00  0.00    -0.041 A 
BRANCH  12  13
ATOM     13  C   UNL A   1      31.892  23.106  24.681  1.00  0.00     0.103 C 
BRANCH  13  14
ATOM     14  C   UNL A   1      33.375  23.012  24.933  1.00  0.00     0.098 A 
ATOM     15  N   UNL A   1      34.135  21.983  24.616  1.00  0.00    -0.241 NA
ATOM     16  S   UNL A   1      34.190  24.311  25.711  1.00  0.00    -0.118 S 
ATOM     17  C   UNL A   1      35.449  22.224  24.979  1.00  0.00     0.082 A 
ATOM     18  C   UNL A   1      35.678  23.452  25.600  1.00  0.00     0.055 A 
ATOM     19  C   UNL A   1      36.536  21.350  24.775  1.00  0.00     0.030 A 
ATOM     20  C   UNL A   1      36.960  23.835  26.031  1.00  0.00     0.021 A 
ATOM     21  C   UNL A   1      37.816  21.723  25.197  1.00  0.00     0.002 A 
ATOM     22  C   UNL A   1      38.022  22.949  25.819  1.00  0.00     0.002 A 
ENDBRANCH  13  14
ENDBRANCH  12  13
ENDBRANCH   5   7
ENDBRANCH   2   3
ENDBRANCH   1   2
BRANCH   1  23
ATOM     23  C   UNL A   1      33.644  28.199  25.783  1.00  0.00     0.023 C 
BRANCH  23  24
ATOM     24  C   UNL A   1      33.419  28.491  27.263  1.00  0.00     0.116 C 
BRANCH  24  25
ATOM     25  N   UNL A   1      33.424  29.911  27.578  1.00  0.00    -0.352 N 
ATOM     26  C   UNL A   1      34.433  30.694  28.090  1.00  0.00     0.251 C 
ATOM     27  H   UNL A   1      32.579  30.382  27.399  1.00  0.00     0.163 HD
ATOM     28  O   UNL A   1      34.211  31.859  28.393  1.00  0.00    -0.269 OA
BRANCH  26  29
ATOM     29  C   UNL A   1      35.780  30.120  28.313  1.00  0.00     0.039 A 
ATOM     30  C   UNL A   1      36.712  30.173  27.272  1.00  0.00     0.014 A 
ATOM     31  C   UNL A   1      36.130  29.541  29.535  1.00  0.00     0.014 A 
ATOM     32  C   UNL A   1      38.015  29.716  27.483  1.00  0.00     0.010 A 
ATOM     33  C   UNL A   1      37.447  29.153  29.766  1.00  0.00     0.010 A 
ATOM     34  C   UNL A   1      38.406  29.241  28.745  1.00  0.00    -0.014 A 
BRANCH  34  35
ATOM     35  C   UNL A   1      39.811  28.841  29.019  1.00  0.00     0.031 A 
ATOM     36  C   UNL A   1      40.297  27.470  28.636  1.00  0.00     0.074 A 
ATOM     37  C   UNL A   1      40.632  29.687  29.673  1.00  0.00     0.049 A 
ATOM     38  N   UNL A   1      41.461  26.914  28.863  1.00  0.00    -0.248 NA
ATOM     39  C   UNL A   1      39.345  26.602  27.925  1.00  0.00     0.031 C 
ATOM     40  C   UNL A   1      40.276  31.031  30.133  1.00  0.00     0.029 A 
ATOM     41  N   UNL A   1      41.936  29.535  30.073  1.00  0.00    -0.354 N 
ATOM     42  C   UNL A   1      41.375  25.631  28.339  1.00  0.00     0.074 A 
ATOM     43  C   UNL A   1      40.032  25.473  27.823  1.00  0.00     0.031 C 
ATOM     44  C   UNL A   1      41.343  31.587  30.732  1.00  0.00     0.029 A 
ATOM     45  C   UNL A   1      42.442  30.627  30.736  1.00  0.00     0.049 A 
ATOM     46  H   UNL A   1      42.460  28.718  29.902  1.00  0.00     0.167 HD
ATOM     47  C   UNL A   1      42.332  24.675  28.273  1.00  0.00     0.031 A 
ATOM     48  C   UNL A   1      43.650  30.831  31.293  1.00  0.00     0.031 A 
ATOM     49  C   UNL A   1      43.672  24.830  28.772  1.00  0.00     0.049 A 
ATOM     50  C   UNL A   1      44.689  29.745  31.220  1.00  0.00     0.074 A 
ATOM     51  C   UNL A   1      44.724  23.932  28.708  1.00  0.00     0.029 A 
ATOM     52  N   UNL A   1      44.146  25.957  29.423  1.00  0.00    -0.354 N 
ATOM     53  N   UNL A   1      44.607  28.560  30.668  1.00  0.00    -0.248 NA
ATOM     54  C   UNL A   1      45.990  30.034  31.840  1.00  0.00     0.031 C 
ATOM     55  C   UNL A   1      45.823  24.500  29.361  1.00  0.00     0.029 A 
ATOM     56  C   UNL A   1      45.470  25.772  29.783  1.00  0.00     0.049 A 
ATOM     57  H   UNL A   1      43.619  26.770  29.603  1.00  0.00     0.167 HD
ATOM     58  C   UNL A   1      45.854  27.974  30.848  1.00  0.00     0.074 A 
ATOM     59  C   UNL A   1      46.677  28.939  31.545  1.00  0.00     0.031 C 
ATOM     60  C   UNL A   1      46.279  26.744  30.469  1.00  0.00     0.031 A 
BRANCH  47  61
ATOM     61  C   UNL A   1      41.962  23.366  27.633  1.00  0.00    -0.014 A 
ATOM     62  C   UNL A   1      41.314  22.359  28.366  1.00  0.00     0.009 A 
ATOM     63  C   UNL A   1      42.218  23.157  26.269  1.00  0.00     0.009 A 
ATOM     64  C   UNL A   1      40.958  21.156  27.753  1.00  0.00     0.001 A 
ATOM     65  C   UNL A   1      41.836  21.964  25.653  1.00  0.00     0.001 A 
ATOM     66  C   UNL A   1      41.214  20.962  26.397  1.00  0.00     0.000 A 
ENDBRANCH  47  61
BRANCH  48  67
ATOM     67  C   UNL A   1      43.957  32.120  31.968  1.00  0.00    -0.014 A 
ATOM     68  C   UNL A   1      44.522  33.184  31.248  1.00  0.00     0.009 A 
ATOM     69  C   UNL A   1      43.716  32.282  33.341  1.00  0.00     0.009 A 
ATOM     70  C   UNL A   1      44.870  34.371  31.896  1.00  0.00     0.001 A 
ATOM     71  C   UNL A   1      44.038  33.481  33.980  1.00  0.00     0.001 A 
ATOM     72  C   UNL A   1      44.625  34.520  33.260  1.00  0.00     0.000 A 
ENDBRANCH  48  67
BRANCH  60  73
ATOM     73  C   UNL A   1      47.708  26.390  30.761  1.00  0.00    -0.014 A 
ATOM     74  C   UNL A   1      48.083  25.823  31.989  1.00  0.00     0.009 A 
ATOM     75  C   UNL A   1      48.688  26.591  29.775  1.00  0.00     0.009 A 
ATOM     76  C   UNL A   1      49.419  25.496  32.235  1.00  0.00     0.001 A 
ATOM     77  C   UNL A   1      50.016  26.237  30.015  1.00  0.00     0.001 A 
ATOM     78  C   UNL A   1      50.381  25.698  31.248  1.00  0.00     0.000 A 
ENDBRANCH  60  73
ENDBRANCH  34  35
ENDBRANCH  26  29
ENDBRANCH  24  25
ENDBRANCH  23  24
ENDBRANCH   1  23
TORSDOF 13
ENDMDL
MODEL 3
REMARK VINA RESULT:     -11.0      2.793      7.915
REMARK SMILES O=C(NCCCCNC(=O)c1ccc(-c2c3nc(c(-c4ccccc4)c4ccc([nH]4)c(-c4ccccc4)c4nc(c(-c5ccccc5)c5ccc2[nH]5)C=C4)C=C3)cc1)c1ccc(Cc2nc3ccccc3s2)cc1
REMARK SMILES IDX 5 1 4 2 3 3 1 4 2 5 59 7 60 8 74 9 61 10 73 11 62 12 63 13
REMARK SMILES IDX 64 14 65 15 72 16 66 17 71 18 67 19 70 20 68 21 69 22 6 23
REMARK SMILES IDX 7 24 8 25 9 26 10 28 11 29 12 30 58 31 13 32 57 33 14 34
REMARK SMILES IDX 15 35 16 36 51 37 17 38 56 39 50 40 52 41 18 42 55 43 49 44
REMARK SMILES IDX 48 45 19 47 41 48 26 49 40 50 27 51 30 52 39 53 53 54 28 55
REMARK SMILES IDX 29 56 38 58 54 59 31 60 20 61 21 62 25 63 22 64 24 65 23 66
REMARK SMILES IDX 42 67 43 68 47 69 44 70 46 71 45 72 32 73 33 74 37 75 34 76
REMARK SMILES IDX 36 77 35 78
REMARK H PARENT 3 6 8 27 52 46 30 57
REMARK Flexibility Score: inf
ROOT
ATOM      1  C   UNL A   1      35.665  21.793  26.191  1.00  0.00     0.023 C 
ENDROOT
BRANCH   1   2
ATOM      2  C   UNL A   1      34.345  21.526  26.909  1.00  0.00     0.116 C 
BRANCH   2   3
ATOM      3  N   UNL A   1      33.625  20.385  26.363  1.00  0.00    -0.352 N 
ATOM      4  O   UNL A   1      32.028  19.325  25.165  1.00  0.00    -0.269 OA
ATOM      5  C   UNL A   1      32.617  20.367  25.428  1.00  0.00     0.251 C 
ATOM      6  H   UNL A   1      33.898  19.506  26.710  1.00  0.00     0.163 HD
BRANCH   5   7
ATOM      7  C   UNL A   1      32.222  21.627  24.768  1.00  0.00     0.039 A 
ATOM      8  C   UNL A   1      32.813  22.017  23.562  1.00  0.00     0.014 A 
ATOM      9  C   UNL A   1      31.283  22.445  25.397  1.00  0.00     0.014 A 
ATOM     10  C   UNL A   1      32.547  23.284  23.044  1.00  0.00     0.005 A 
ATOM     11  C   UNL A   1      31.012  23.709  24.871  1.00  0.00     0.005 A 
ATOM     12  C   UNL A   1      31.666  24.151  23.710  1.00  0.00    -0.041 A 
BRANCH  12  13
ATOM     13  C   UNL A   1      31.504  25.580  23.237  1.00  0.00     0.103 C 
BRANCH  13  14
ATOM     14  C   UNL A   1      32.048  26.587  24.219  1.00  0.00     0.098 A 
ATOM     15  N   UNL A   1      31.377  27.610  24.708  1.00  0.00    -0.241 NA
ATOM     16  S   UNL A   1      33.674  26.452  24.763  1.00  0.00    -0.118 S 
ATOM     17  C   UNL A   1      32.167  28.330  25.586  1.00  0.00     0.082 A 
ATOM     18  C   UNL A   1      33.468  27.851  25.746  1.00  0.00     0.055 A 
ATOM     19  C   UNL A   1      31.770  29.474  26.308  1.00  0.00     0.030 A 
ATOM     20  C   UNL A   1      34.389  28.481  26.599  1.00  0.00     0.021 A 
ATOM     21  C   UNL A   1      32.678  30.107  27.162  1.00  0.00     0.002 A 
ATOM     22  C   UNL A   1      33.972  29.616  27.302  1.00  0.00     0.002 A 
ENDBRANCH  13  14
ENDBRANCH  12  13
ENDBRANCH   5   7
ENDBRANCH   2   3
ENDBRANCH   1   2
BRANCH   1  23
ATOM     23  C   UNL A   1      35.808  23.184  25.576  1.00  0.00     0.023 C 
BRANCH  23  24
ATOM     24  C   UNL A   1      37.165  23.494  24.951  1.00  0.00     0.116 C 
BRANCH  24  25
ATOM     25  N   UNL A   1      38.219  22.589  25.383  1.00  0.00    -0.352 N 
ATOM     26  C   UNL A   1      39.321  22.836  26.168  1.00  0.00     0.251 C 
ATOM     27  H   UNL A   1      38.130  21.662  25.065  1.00  0.00     0.163 HD
ATOM     28  O   UNL A   1      40.163  21.963  26.335  1.00  0.00    -0.269 OA
BRANCH  26  29
ATOM     29  C   UNL A   1      39.513  24.168  26.784  1.00  0.00     0.039 A 
ATOM     30  C   UNL A   1      38.993  24.399  28.061  1.00  0.00     0.014 A 
ATOM     31  C   UNL A   1      40.204  25.184  26.117  1.00  0.00     0.014 A 
ATOM     32  C   UNL A   1      39.233  25.618  28.699  1.00  0.00     0.010 A 
ATOM     33  C   UNL A   1      40.504  26.370  26.782  1.00  0.00     0.010 A 
ATOM     34  C   UNL A   1      40.026  26.599  28.081  1.00  0.00    -0.014 A 
BRANCH  34  35
ATOM     35  C   UNL A   1      40.374  27.864  28.781  1.00  0.00     0.031 A 
ATOM     36  C   UNL A   1      41.707  28.013  29.460  1.00  0.00     0.074 A 
ATOM     37  C   UNL A   1      39.464  28.855  28.862  1.00  0.00     0.049 A 
ATOM     38  N   UNL A   1      42.159  29.007  30.184  1.00  0.00    -0.248 NA
ATOM     39  C   UNL A   1      42.649  26.890  29.327  1.00  0.00     0.031 C 
ATOM     40  C   UNL A   1      38.120  28.826  28.280  1.00  0.00     0.029 A 
ATOM     41  N   UNL A   1      39.530  30.080  29.479  1.00  0.00    -0.354 N 
ATOM     42  C   UNL A   1      43.425  28.622  30.605  1.00  0.00     0.074 A 
ATOM     43  C   UNL A   1      43.654  27.288  30.094  1.00  0.00     0.031 C 
ATOM     44  C   UNL A   1      37.499  29.987  28.549  1.00  0.00     0.029 A 
ATOM     45  C   UNL A   1      38.381  30.824  29.356  1.00  0.00     0.049 A 
ATOM     46  H   UNL A   1      40.326  30.395  29.966  1.00  0.00     0.167 HD
ATOM     47  C   UNL A   1      44.326  29.323  31.333  1.00  0.00     0.031 A 
ATOM     48  C   UNL A   1      38.068  32.038  29.845  1.00  0.00     0.031 A 
ATOM     49  C   UNL A   1      44.110  30.655  31.832  1.00  0.00     0.049 A 
ATOM     50  C   UNL A   1      39.082  32.787  30.665  1.00  0.00     0.074 A 
ATOM     51  C   UNL A   1      44.984  31.462  32.540  1.00  0.00     0.029 A 
ATOM     52  N   UNL A   1      42.938  31.376  31.672  1.00  0.00    -0.354 N 
ATOM     53  N   UNL A   1      40.297  32.431  31.002  1.00  0.00    -0.248 NA
ATOM     54  C   UNL A   1      38.681  34.112  31.161  1.00  0.00     0.031 C 
ATOM     55  C   UNL A   1      44.324  32.656  32.846  1.00  0.00     0.029 A 
ATOM     56  C   UNL A   1      43.059  32.613  32.283  1.00  0.00     0.049 A 
ATOM     57  H   UNL A   1      42.138  31.057  31.194  1.00  0.00     0.167 HD
ATOM     58  C   UNL A   1      40.816  33.499  31.724  1.00  0.00     0.074 A 
ATOM     59  C   UNL A   1      39.790  34.520  31.762  1.00  0.00     0.031 C 
ATOM     60  C   UNL A   1      42.034  33.622  32.305  1.00  0.00     0.031 A 
BRANCH  47  61
ATOM     61  C   UNL A   1      45.640  28.659  31.635  1.00  0.00    -0.014 A 
ATOM     62  C   UNL A   1      46.739  28.803  30.773  1.00  0.00     0.009 A 
ATOM     63  C   UNL A   1      45.798  27.922  32.819  1.00  0.00     0.009 A 
ATOM     64  C   UNL A   1      47.960  28.197  31.076  1.00  0.00     0.001 A 
ATOM     65  C   UNL A   1      47.027  27.341  33.133  1.00  0.00     0.001 A 
ATOM     66  C   UNL A   1      48.104  27.472  32.257  1.00  0.00     0.000 A 
ENDBRANCH  47  61
BRANCH  48  67
ATOM     67  C   UNL A   1      36.734  32.636  29.570  1.00  0.00    -0.014 A 
ATOM     68  C   UNL A   1      36.493  33.315  28.366  1.00  0.00     0.009 A 
ATOM     69  C   UNL A   1      35.707  32.558  30.523  1.00  0.00     0.009 A 
ATOM     70  C   UNL A   1      35.261  33.933  28.136  1.00  0.00     0.001 A 
ATOM     71  C   UNL A   1      34.467  33.150  30.277  1.00  0.00     0.001 A 
ATOM     72  C   UNL A   1      34.249  33.847  29.090  1.00  0.00     0.000 A 
ENDBRANCH  48  67
BRANCH  60  73
ATOM     73  C   UNL A   1      42.340  34.921  32.993  1.00  0.00    -0.014 A 
ATOM     74  C   UNL A   1      41.877  35.187  34.291  1.00  0.00     0.009 A 
ATOM     75  C   UNL A   1      43.138  35.877  32.344  1.00  0.00     0.009 A 
ATOM     76  C   UNL A   1      42.181  36.400  34.913  1.00  0.00     0.001 A 
ATOM     77  C   UNL A   1      43.463  37.077  32.980  1.00  0.00     0.001 A 
ATOM     78  C   UNL A   1      42.976  37.340  34.259  1.00  0.00     0.000 A 
ENDBRANCH  60  73
ENDBRANCH  34  35
ENDBRANCH  26  29
ENDBRANCH  24  25
ENDBRANCH  23  24
ENDBRANCH   1  23
TORSDOF 13
ENDMDL
