MODEL 1
REMARK VINA RESULT:     -10.2      0.000      0.000
REMARK SMILES CCOc1cc(/C=C/C(=O)NCCCCNC(=O)c2ccc(-c3c4nc(c(-c5ccccc5)c5ccc([nH]5)c(-c5ccccc5)c5nc(c(-c6ccccc6)c6ccc3[nH]6)C=C5)C=C4)cc2)c(Br)cc1OCC#N
REMARK SMILES IDX 12 1 11 2 9 3 10 4 8 6 7 7 6 8 4 9 5 10 70 11 69 12 67 13
REMARK SMILES IDX 68 14 3 15 2 16 1 17 71 18 72 19 73 20 74 21 13 22 14 23
REMARK SMILES IDX 15 24 16 25 17 26 18 28 19 29 20 30 66 31 21 32 65 33 22 34
REMARK SMILES IDX 23 35 24 36 59 37 25 38 64 39 58 40 60 41 26 42 63 43 57 44
REMARK SMILES IDX 56 45 27 47 49 48 34 49 48 50 35 51 38 52 47 53 61 54 36 55
REMARK SMILES IDX 37 56 46 58 62 59 39 60 28 61 29 62 33 63 30 64 32 65 31 66
REMARK SMILES IDX 50 67 51 68 55 69 52 70 54 71 53 72 40 73 41 74 45 75 42 76
REMARK SMILES IDX 44 77 43 78
REMARK H PARENT 11 5 16 27 60 46 38 57
REMARK Flexibility Score: inf
ROOT
ATOM      1  C   UNL A   1      36.490  22.454  25.755  1.00  0.00     0.116 C 
ENDROOT
BRANCH   1   2
ATOM      2  N   UNL A   1      35.483  21.832  26.590  1.00  0.00    -0.353 N 
ATOM      3  C   UNL A   1      34.193  22.208  26.801  1.00  0.00     0.243 C 
ATOM      4  O   UNL A   1      33.447  21.513  27.486  1.00  0.00    -0.270 OA
ATOM      5  H   UNL A   1      35.772  21.023  27.071  1.00  0.00     0.163 HD
BRANCH   3   6
ATOM      6  C   UNL A   1      33.661  23.420  26.144  1.00  0.00     0.072 C 
ATOM      7  C   UNL A   1      32.544  24.045  26.548  1.00  0.00     0.015 C 
BRANCH   7   8
ATOM      8  C   UNL A   1      31.963  25.192  25.845  1.00  0.00    -0.007 A 
ATOM      9  C   UNL A   1      31.632  27.613  25.837  1.00  0.00     0.161 A 
ATOM     10  C   UNL A   1      32.088  26.447  26.451  1.00  0.00     0.059 A 
ATOM     11  C   UNL A   1      30.966  27.517  24.607  1.00  0.00     0.163 A 
ATOM     12  C   UNL A   1      30.861  26.267  23.980  1.00  0.00     0.066 A 
ATOM     13  C   UNL A   1      31.364  25.113  24.584  1.00  0.00     0.029 A 
ATOM     14  Br  UNL A   1      31.163  23.472  23.649  1.00  0.00    -0.050 Br
BRANCH   9  15
ATOM     15  O   UNL A   1      31.747  28.817  26.471  1.00  0.00    -0.490 OA
BRANCH  15  16
ATOM     16  C   UNL A   1      32.970  29.543  26.318  1.00  0.00     0.226 C 
ATOM     17  C   UNL A   1      32.991  30.849  27.101  1.00  0.00     0.049 C 
ENDBRANCH  15  16
ENDBRANCH   9  15
BRANCH  11  18
ATOM     18  O   UNL A   1      30.365  28.511  23.880  1.00  0.00    -0.475 OA
BRANCH  18  19
ATOM     19  C   UNL A   1      29.385  28.176  22.894  1.00  0.00     0.349 C 
BRANCH  19  20
ATOM     20  C   UNL A   1      28.146  29.054  22.966  1.00  0.00     0.104 C 
ATOM     21  N   UNL A   1      27.119  29.783  23.026  1.00  0.00    -0.195 NA
ENDBRANCH  19  20
ENDBRANCH  18  19
ENDBRANCH  11  18
ENDBRANCH   7   8
ENDBRANCH   3   6
ENDBRANCH   1   2
BRANCH   1  22
ATOM     22  C   UNL A   1      36.853  21.558  24.570  1.00  0.00     0.023 C 
BRANCH  22  23
ATOM     23  C   UNL A   1      37.664  20.319  24.940  1.00  0.00     0.023 C 
BRANCH  23  24
ATOM     24  C   UNL A   1      38.912  20.604  25.761  1.00  0.00     0.116 C 
BRANCH  24  25
ATOM     25  N   UNL A   1      39.898  19.536  25.707  1.00  0.00    -0.352 N 
ATOM     26  C   UNL A   1      41.228  19.604  26.047  1.00  0.00     0.251 C 
ATOM     27  H   UNL A   1      39.575  18.662  25.389  1.00  0.00     0.163 HD
ATOM     28  O   UNL A   1      41.978  18.654  25.865  1.00  0.00    -0.269 OA
BRANCH  26  29
ATOM     29  C   UNL A   1      41.744  20.874  26.589  1.00  0.00     0.039 A 
ATOM     30  C   UNL A   1      42.248  21.826  25.702  1.00  0.00     0.014 A 
ATOM     31  C   UNL A   1      41.650  21.146  27.956  1.00  0.00     0.014 A 
ATOM     32  C   UNL A   1      42.599  23.088  26.181  1.00  0.00     0.010 A 
ATOM     33  C   UNL A   1      41.934  22.423  28.420  1.00  0.00     0.010 A 
ATOM     34  C   UNL A   1      42.408  23.404  27.536  1.00  0.00    -0.014 A 
BRANCH  34  35
ATOM     35  C   UNL A   1      42.701  24.762  28.052  1.00  0.00     0.031 A 
ATOM     36  C   UNL A   1      44.099  25.120  28.463  1.00  0.00     0.074 A 
ATOM     37  C   UNL A   1      41.695  25.642  28.217  1.00  0.00     0.049 A 
ATOM     38  N   UNL A   1      44.543  26.232  28.994  1.00  0.00    -0.248 NA
ATOM     39  C   UNL A   1      45.130  24.086  28.279  1.00  0.00     0.031 C 
ATOM     40  C   UNL A   1      40.287  25.394  27.899  1.00  0.00     0.029 A 
ATOM     41  N   UNL A   1      41.706  26.925  28.703  1.00  0.00    -0.354 N 
ATOM     42  C   UNL A   1      45.897  26.021  29.224  1.00  0.00     0.074 A 
ATOM     43  C   UNL A   1      46.191  24.664  28.821  1.00  0.00     0.031 C 
ATOM     44  C   UNL A   1      39.574  26.499  28.173  1.00  0.00     0.029 A 
ATOM     45  C   UNL A   1      40.467  27.518  28.717  1.00  0.00     0.049 A 
ATOM     46  H   UNL A   1      42.524  27.378  29.011  1.00  0.00     0.167 HD
ATOM     47  C   UNL A   1      46.816  26.887  29.711  1.00  0.00     0.031 A 
ATOM     48  C   UNL A   1      40.094  28.745  29.124  1.00  0.00     0.031 A 
ATOM     49  C   UNL A   1      46.526  28.242  30.095  1.00  0.00     0.049 A 
ATOM     50  C   UNL A   1      41.135  29.689  29.656  1.00  0.00     0.074 A 
ATOM     51  C   UNL A   1      47.399  29.217  30.540  1.00  0.00     0.029 A 
ATOM     52  N   UNL A   1      45.262  28.810  30.077  1.00  0.00    -0.354 N 
ATOM     53  N   UNL A   1      42.424  29.500  29.802  1.00  0.00    -0.248 NA
ATOM     54  C   UNL A   1      40.670  31.022  30.067  1.00  0.00     0.031 C 
ATOM     55  C   UNL A   1      46.657  30.367  30.830  1.00  0.00     0.029 A 
ATOM     56  C   UNL A   1      45.329  30.119  30.522  1.00  0.00     0.049 A 
ATOM     57  H   UNL A   1      44.440  28.351  29.791  1.00  0.00     0.167 HD
ATOM     58  C   UNL A   1      42.927  30.695  30.299  1.00  0.00     0.074 A 
ATOM     59  C   UNL A   1      41.807  31.607  30.414  1.00  0.00     0.031 C 
ATOM     60  C   UNL A   1      44.203  31.009  30.628  1.00  0.00     0.031 A 
BRANCH  47  61
ATOM     61  C   UNL A   1      48.224  26.384  29.856  1.00  0.00    -0.014 A 
ATOM     62  C   UNL A   1      49.134  26.458  28.789  1.00  0.00     0.009 A 
ATOM     63  C   UNL A   1      48.653  25.850  31.080  1.00  0.00     0.009 A 
ATOM     64  C   UNL A   1      50.435  25.972  28.935  1.00  0.00     0.001 A 
ATOM     65  C   UNL A   1      49.962  25.389  31.232  1.00  0.00     0.001 A 
ATOM     66  C   UNL A   1      50.849  25.443  30.157  1.00  0.00     0.000 A 
ENDBRANCH  47  61
BRANCH  48  67
ATOM     67  C   UNL A   1      38.672  29.163  29.023  1.00  0.00    -0.014 A 
ATOM     68  C   UNL A   1      37.816  29.035  30.127  1.00  0.00     0.009 A 
ATOM     69  C   UNL A   1      38.163  29.686  27.824  1.00  0.00     0.009 A 
ATOM     70  C   UNL A   1      36.472  29.400  30.025  1.00  0.00     0.001 A 
ATOM     71  C   UNL A   1      36.825  30.072  27.734  1.00  0.00     0.001 A 
ATOM     72  C   UNL A   1      35.978  29.921  28.831  1.00  0.00     0.000 A 
ENDBRANCH  48  67
BRANCH  60  73
ATOM     73  C   UNL A   1      44.460  32.406  31.114  1.00  0.00    -0.014 A 
ATOM     74  C   UNL A   1      44.423  32.717  32.482  1.00  0.00     0.009 A 
ATOM     75  C   UNL A   1      44.783  33.414  30.192  1.00  0.00     0.009 A 
ATOM     76  C   UNL A   1      44.679  34.020  32.914  1.00  0.00     0.001 A 
ATOM     77  C   UNL A   1      45.064  34.708  30.629  1.00  0.00     0.001 A 
ATOM     78  C   UNL A   1      45.004  35.012  31.988  1.00  0.00     0.000 A 
ENDBRANCH  60  73
ENDBRANCH  34  35
ENDBRANCH  26  29
ENDBRANCH  24  25
ENDBRANCH  23  24
ENDBRANCH  22  23
ENDBRANCH   1  22
TORSDOF 17
ENDMDL
MODEL 2
REMARK VINA RESULT:     -10.0      1.315      6.282
REMARK SMILES CCOc1cc(/C=C/C(=O)NCCCCNC(=O)c2ccc(-c3c4nc(c(-c5ccccc5)c5ccc([nH]5)c(-c5ccccc5)c5nc(c(-c6ccccc6)c6ccc3[nH]6)C=C5)C=C4)cc2)c(Br)cc1OCC#N
REMARK SMILES IDX 12 1 11 2 9 3 10 4 8 6 7 7 6 8 4 9 5 10 70 11 69 12 67 13
REMARK SMILES IDX 68 14 3 15 2 16 1 17 71 18 72 19 73 20 74 21 13 22 14 23
REMARK SMILES IDX 15 24 16 25 17 26 18 28 19 29 20 30 66 31 21 32 65 33 22 34
REMARK SMILES IDX 23 35 24 36 59 37 25 38 64 39 58 40 60 41 26 42 63 43 57 44
REMARK SMILES IDX 56 45 27 47 49 48 34 49 48 50 35 51 38 52 47 53 61 54 36 55
REMARK SMILES IDX 37 56 46 58 62 59 39 60 28 61 29 62 33 63 30 64 32 65 31 66
REMARK SMILES IDX 50 67 51 68 55 69 52 70 54 71 53 72 40 73 41 74 45 75 42 76
REMARK SMILES IDX 44 77 43 78
REMARK H PARENT 11 5 16 27 60 46 38 57
REMARK Flexibility Score: inf
ROOT
ATOM      1  C   UNL A   1      36.643  23.315  25.423  1.00  0.00     0.116 C 
ENDROOT
BRANCH   1   2
ATOM      2  N   UNL A   1      35.689  22.953  26.452  1.00  0.00    -0.353 N 
ATOM      3  C   UNL A   1      34.412  23.389  26.629  1.00  0.00     0.243 C 
ATOM      4  O   UNL A   1      33.710  22.913  27.518  1.00  0.00    -0.270 OA
ATOM      5  H   UNL A   1      36.009  22.299  27.115  1.00  0.00     0.163 HD
BRANCH   3   6
ATOM      6  C   UNL A   1      33.839  24.387  25.702  1.00  0.00     0.072 C 
ATOM      7  C   UNL A   1      33.448  25.611  26.091  1.00  0.00     0.015 C 
BRANCH   7   8
ATOM      8  C   UNL A   1      32.796  26.570  25.195  1.00  0.00    -0.007 A 
ATOM      9  C   UNL A   1      32.301  27.175  22.881  1.00  0.00     0.161 A 
ATOM     10  C   UNL A   1      32.936  26.363  23.819  1.00  0.00     0.059 A 
ATOM     11  C   UNL A   1      31.556  28.276  23.328  1.00  0.00     0.163 A 
ATOM     12  C   UNL A   1      31.387  28.475  24.706  1.00  0.00     0.066 A 
ATOM     13  C   UNL A   1      31.990  27.626  25.636  1.00  0.00     0.029 A 
ATOM     14  Br  UNL A   1      31.700  27.990  27.477  1.00  0.00    -0.050 Br
BRANCH   9  15
ATOM     15  O   UNL A   1      32.484  26.959  21.545  1.00  0.00    -0.490 OA
BRANCH  15  16
ATOM     16  C   UNL A   1      31.976  25.745  20.986  1.00  0.00     0.226 C 
ATOM     17  C   UNL A   1      32.601  25.400  19.640  1.00  0.00     0.049 C 
ENDBRANCH  15  16
ENDBRANCH   9  15
BRANCH  11  18
ATOM     18  O   UNL A   1      30.931  29.245  22.587  1.00  0.00    -0.475 OA
BRANCH  18  19
ATOM     19  C   UNL A   1      29.511  29.208  22.424  1.00  0.00     0.349 C 
BRANCH  19  20
ATOM     20  C   UNL A   1      28.968  30.412  21.672  1.00  0.00     0.104 C 
ATOM     21  N   UNL A   1      28.518  31.411  21.047  1.00  0.00    -0.195 NA
ENDBRANCH  19  20
ENDBRANCH  18  19
ENDBRANCH  11  18
ENDBRANCH   7   8
ENDBRANCH   3   6
ENDBRANCH   1   2
BRANCH   1  22
ATOM     22  C   UNL A   1      36.728  22.233  24.346  1.00  0.00     0.023 C 
BRANCH  22  23
ATOM     23  C   UNL A   1      37.352  20.922  24.817  1.00  0.00     0.023 C 
BRANCH  23  24
ATOM     24  C   UNL A   1      38.611  21.086  25.653  1.00  0.00     0.116 C 
BRANCH  24  25
ATOM     25  N   UNL A   1      39.499  19.935  25.599  1.00  0.00    -0.352 N 
ATOM     26  C   UNL A   1      40.817  19.873  25.983  1.00  0.00     0.251 C 
ATOM     27  H   UNL A   1      39.109  19.103  25.247  1.00  0.00     0.163 HD
ATOM     28  O   UNL A   1      41.483  18.864  25.798  1.00  0.00    -0.269 OA
BRANCH  26  29
ATOM     29  C   UNL A   1      41.427  21.077  26.577  1.00  0.00     0.039 A 
ATOM     30  C   UNL A   1      41.964  22.044  25.728  1.00  0.00     0.014 A 
ATOM     31  C   UNL A   1      41.388  21.275  27.959  1.00  0.00     0.014 A 
ATOM     32  C   UNL A   1      42.407  23.253  26.264  1.00  0.00     0.010 A 
ATOM     33  C   UNL A   1      41.764  22.505  28.483  1.00  0.00     0.010 A 
ATOM     34  C   UNL A   1      42.275  23.504  27.640  1.00  0.00    -0.014 A 
BRANCH  34  35
ATOM     35  C   UNL A   1      42.666  24.809  28.220  1.00  0.00     0.031 A 
ATOM     36  C   UNL A   1      41.630  25.875  28.430  1.00  0.00     0.074 A 
ATOM     37  C   UNL A   1      43.962  25.057  28.489  1.00  0.00     0.049 A 
ATOM     38  N   UNL A   1      41.784  27.099  28.867  1.00  0.00    -0.248 NA
ATOM     39  C   UNL A   1      40.243  25.529  28.079  1.00  0.00     0.031 C 
ATOM     40  C   UNL A   1      45.068  24.118  28.283  1.00  0.00     0.029 A 
ATOM     41  N   UNL A   1      44.569  26.181  28.989  1.00  0.00    -0.354 N 
ATOM     42  C   UNL A   1      40.520  27.673  28.822  1.00  0.00     0.074 A 
ATOM     43  C   UNL A   1      39.621  26.683  28.274  1.00  0.00     0.031 C 
ATOM     44  C   UNL A   1      46.214  24.696  28.678  1.00  0.00     0.029 A 
ATOM     45  C   UNL A   1      45.929  26.054  29.131  1.00  0.00     0.049 A 
ATOM     46  H   UNL A   1      44.076  27.000  29.223  1.00  0.00     0.167 HD
ATOM     47  C   UNL A   1      40.138  28.910  29.220  1.00  0.00     0.031 A 
ATOM     48  C   UNL A   1      46.844  26.936  29.576  1.00  0.00     0.031 A 
ATOM     49  C   UNL A   1      41.030  29.888  29.783  1.00  0.00     0.049 A 
ATOM     50  C   UNL A   1      46.393  28.300  30.016  1.00  0.00     0.074 A 
ATOM     51  C   UNL A   1      40.729  31.145  30.274  1.00  0.00     0.029 A 
ATOM     52  N   UNL A   1      42.397  29.714  29.927  1.00  0.00    -0.354 N 
ATOM     53  N   UNL A   1      45.184  28.804  30.034  1.00  0.00    -0.248 NA
ATOM     54  C   UNL A   1      47.436  29.212  30.510  1.00  0.00     0.031 C 
ATOM     55  C   UNL A   1      41.923  31.750  30.681  1.00  0.00     0.029 A 
ATOM     56  C   UNL A   1      42.959  30.850  30.484  1.00  0.00     0.049 A 
ATOM     57  H   UNL A   1      42.894  28.905  29.672  1.00  0.00     0.167 HD
ATOM     58  C   UNL A   1      45.315  30.081  30.562  1.00  0.00     0.074 A 
ATOM     59  C   UNL A   1      46.720  30.269  30.865  1.00  0.00     0.031 C 
ATOM     60  C   UNL A   1      44.358  31.016  30.778  1.00  0.00     0.031 A 
BRANCH  47  61
ATOM     61  C   UNL A   1      38.689  29.267  29.055  1.00  0.00    -0.014 A 
ATOM     62  C   UNL A   1      37.797  29.201  30.137  1.00  0.00     0.009 A 
ATOM     63  C   UNL A   1      38.214  29.698  27.807  1.00  0.00     0.009 A 
ATOM     64  C   UNL A   1      36.449  29.522  29.964  1.00  0.00     0.001 A 
ATOM     65  C   UNL A   1      36.871  30.044  27.643  1.00  0.00     0.001 A 
ATOM     66  C   UNL A   1      35.989  29.947  28.718  1.00  0.00     0.000 A 
ENDBRANCH  47  61
BRANCH  48  67
ATOM     67  C   UNL A   1      48.276  26.549  29.650  1.00  0.00    -0.014 A 
ATOM     68  C   UNL A   1      49.142  26.829  28.583  1.00  0.00     0.009 A 
ATOM     69  C   UNL A   1      48.783  25.895  30.784  1.00  0.00     0.009 A 
ATOM     70  C   UNL A   1      50.482  26.440  28.639  1.00  0.00     0.001 A 
ATOM     71  C   UNL A   1      50.129  25.530  30.846  1.00  0.00     0.001 A 
ATOM     72  C   UNL A   1      50.976  25.794  29.771  1.00  0.00     0.000 A 
ENDBRANCH  48  67
BRANCH  60  73
ATOM     73  C   UNL A   1      44.793  32.310  31.400  1.00  0.00    -0.014 A 
ATOM     74  C   UNL A   1      45.170  33.406  30.608  1.00  0.00     0.009 A 
ATOM     75  C   UNL A   1      44.786  32.447  32.797  1.00  0.00     0.009 A 
ATOM     76  C   UNL A   1      45.558  34.606  31.206  1.00  0.00     0.001 A 
ATOM     77  C   UNL A   1      45.149  33.656  33.391  1.00  0.00     0.001 A 
ATOM     78  C   UNL A   1      45.543  34.731  32.596  1.00  0.00     0.000 A 
ENDBRANCH  60  73
ENDBRANCH  34  35
ENDBRANCH  26  29
ENDBRANCH  24  25
ENDBRANCH  23  24
ENDBRANCH  22  23
ENDBRANCH   1  22
TORSDOF 17
ENDMDL
MODEL 3
REMARK VINA RESULT:     -10.0      3.386      8.785
REMARK SMILES CCOc1cc(/C=C/C(=O)NCCCCNC(=O)c2ccc(-c3c4nc(c(-c5ccccc5)c5ccc([nH]5)c(-c5ccccc5)c5nc(c(-c6ccccc6)c6ccc3[nH]6)C=C5)C=C4)cc2)c(Br)cc1OCC#N
REMARK SMILES IDX 12 1 11 2 9 3 10 4 8 6 7 7 6 8 4 9 5 10 70 11 69 12 67 13
REMARK SMILES IDX 68 14 3 15 2 16 1 17 71 18 72 19 73 20 74 21 13 22 14 23
REMARK SMILES IDX 15 24 16 25 17 26 18 28 19 29 20 30 66 31 21 32 65 33 22 34
REMARK SMILES IDX 23 35 24 36 59 37 25 38 64 39 58 40 60 41 26 42 63 43 57 44
REMARK SMILES IDX 56 45 27 47 49 48 34 49 48 50 35 51 38 52 47 53 61 54 36 55
REMARK SMILES IDX 37 56 46 58 62 59 39 60 28 61 29 62 33 63 30 64 32 65 31 66
REMARK SMILES IDX 50 67 51 68 55 69 52 70 54 71 53 72 40 73 41 74 45 75 42 76
REMARK SMILES IDX 44 77 43 78
REMARK H PARENT 11 5 16 27 60 46 38 57
REMARK Flexibility Score: inf
ROOT
ATOM      1  C   UNL A   1      33.684  28.908  25.891  1.00  0.00     0.116 C 
ENDROOT
BRANCH   1   2
ATOM      2  N   UNL A   1      33.953  28.888  24.468  1.00  0.00    -0.353 N 
ATOM      3  C   UNL A   1      33.886  27.846  23.597  1.00  0.00     0.243 C 
ATOM      4  O   UNL A   1      34.073  28.025  22.396  1.00  0.00    -0.270 OA
ATOM      5  H   UNL A   1      34.222  29.751  24.076  1.00  0.00     0.163 HD
BRANCH   3   6
ATOM      6  C   UNL A   1      33.512  26.501  24.084  1.00  0.00     0.072 C 
ATOM      7  C   UNL A   1      34.217  25.395  23.801  1.00  0.00     0.015 C 
BRANCH   7   8
ATOM      8  C   UNL A   1      33.801  24.049  24.205  1.00  0.00    -0.007 A 
ATOM      9  C   UNL A   1      31.981  22.653  25.044  1.00  0.00     0.161 A 
ATOM     10  C   UNL A   1      32.500  23.899  24.696  1.00  0.00     0.059 A 
ATOM     11  C   UNL A   1      32.810  21.525  24.966  1.00  0.00     0.163 A 
ATOM     12  C   UNL A   1      34.106  21.662  24.449  1.00  0.00     0.066 A 
ATOM     13  C   UNL A   1      34.598  22.909  24.059  1.00  0.00     0.029 A 
ATOM     14  Br  UNL A   1      36.370  22.982  23.377  1.00  0.00    -0.050 Br
BRANCH   9  15
ATOM     15  O   UNL A   1      30.715  22.549  25.547  1.00  0.00    -0.490 OA
BRANCH  15  16
ATOM     16  C   UNL A   1      30.516  22.849  26.931  1.00  0.00     0.226 C 
ATOM     17  C   UNL A   1      29.068  22.681  27.376  1.00  0.00     0.049 C 
ENDBRANCH  15  16
ENDBRANCH   9  15
BRANCH  11  18
ATOM     18  O   UNL A   1      32.537  20.234  25.339  1.00  0.00    -0.475 OA
BRANCH  18  19
ATOM     19  C   UNL A   1      33.389  19.173  24.899  1.00  0.00     0.349 C 
BRANCH  19  20
ATOM     20  C   UNL A   1      32.870  17.797  25.281  1.00  0.00     0.104 C 
ATOM     21  N   UNL A   1      32.440  16.655  25.599  1.00  0.00    -0.195 NA
ENDBRANCH  19  20
ENDBRANCH  18  19
ENDBRANCH  11  18
ENDBRANCH   7   8
ENDBRANCH   3   6
ENDBRANCH   1   2
BRANCH   1  22
ATOM     22  C   UNL A   1      32.184  29.034  26.165  1.00  0.00     0.023 C 
BRANCH  22  23
ATOM     23  C   UNL A   1      31.784  30.296  26.925  1.00  0.00     0.023 C 
BRANCH  23  24
ATOM     24  C   UNL A   1      32.891  31.331  27.056  1.00  0.00     0.116 C 
BRANCH  24  25
ATOM     25  N   UNL A   1      32.402  32.669  27.350  1.00  0.00    -0.352 N 
ATOM     26  C   UNL A   1      33.013  33.638  28.108  1.00  0.00     0.251 C 
ATOM     27  H   UNL A   1      31.531  32.908  26.959  1.00  0.00     0.163 HD
ATOM     28  O   UNL A   1      32.451  34.695  28.358  1.00  0.00    -0.269 OA
BRANCH  26  29
ATOM     29  C   UNL A   1      34.350  33.349  28.661  1.00  0.00     0.039 A 
ATOM     30  C   UNL A   1      34.441  32.612  29.842  1.00  0.00     0.014 A 
ATOM     31  C   UNL A   1      35.497  33.738  27.967  1.00  0.00     0.014 A 
ATOM     32  C   UNL A   1      35.694  32.202  30.296  1.00  0.00     0.010 A 
ATOM     33  C   UNL A   1      36.738  33.272  28.382  1.00  0.00     0.010 A 
ATOM     34  C   UNL A   1      36.845  32.499  29.548  1.00  0.00    -0.014 A 
BRANCH  34  35
ATOM     35  C   UNL A   1      38.178  32.008  29.969  1.00  0.00     0.031 A 
ATOM     36  C   UNL A   1      38.688  30.693  29.454  1.00  0.00     0.074 A 
ATOM     37  C   UNL A   1      38.893  32.711  30.868  1.00  0.00     0.049 A 
ATOM     38  N   UNL A   1      39.798  30.066  29.751  1.00  0.00    -0.248 NA
ATOM     39  C   UNL A   1      37.827  29.976  28.500  1.00  0.00     0.031 C 
ATOM     40  C   UNL A   1      38.483  33.978  31.477  1.00  0.00     0.029 A 
ATOM     41  N   UNL A   1      40.117  32.452  31.432  1.00  0.00    -0.354 N 
ATOM     42  C   UNL A   1      39.756  28.875  29.038  1.00  0.00     0.074 A 
ATOM     43  C   UNL A   1      38.495  28.845  28.332  1.00  0.00     0.031 C 
ATOM     44  C   UNL A   1      39.449  34.399  32.309  1.00  0.00     0.029 A 
ATOM     45  C   UNL A   1      40.529  33.417  32.318  1.00  0.00     0.049 A 
ATOM     46  H   UNL A   1      40.648  31.651  31.220  1.00  0.00     0.167 HD
ATOM     47  C   UNL A   1      40.694  27.901  28.964  1.00  0.00     0.031 A 
ATOM     48  C   UNL A   1      41.651  33.498  33.057  1.00  0.00     0.031 A 
ATOM     49  C   UNL A   1      41.956  27.941  29.652  1.00  0.00     0.049 A 
ATOM     50  C   UNL A   1      42.678  32.406  32.951  1.00  0.00     0.074 A 
ATOM     51  C   UNL A   1      42.999  27.034  29.592  1.00  0.00     0.029 A 
ATOM     52  N   UNL A   1      42.343  28.944  30.526  1.00  0.00    -0.354 N 
ATOM     53  N   UNL A   1      42.657  31.320  32.219  1.00  0.00    -0.248 NA
ATOM     54  C   UNL A   1      43.892  32.560  33.767  1.00  0.00     0.031 C 
ATOM     55  C   UNL A   1      44.004  27.469  30.461  1.00  0.00     0.029 A 
ATOM     56  C   UNL A   1      43.604  28.669  31.028  1.00  0.00     0.049 A 
ATOM     57  H   UNL A   1      41.803  29.734  30.756  1.00  0.00     0.167 HD
ATOM     58  C   UNL A   1      43.860  30.673  32.466  1.00  0.00     0.074 A 
ATOM     59  C   UNL A   1      44.594  31.497  33.405  1.00  0.00     0.031 C 
ATOM     60  C   UNL A   1      44.317  29.503  31.960  1.00  0.00     0.031 A 
BRANCH  47  61
ATOM     61  C   UNL A   1      40.380  26.710  28.105  1.00  0.00    -0.014 A 
ATOM     62  C   UNL A   1      40.921  26.581  26.816  1.00  0.00     0.009 A 
ATOM     63  C   UNL A   1      39.550  25.692  28.599  1.00  0.00     0.009 A 
ATOM     64  C   UNL A   1      40.607  25.475  26.024  1.00  0.00     0.001 A 
ATOM     65  C   UNL A   1      39.258  24.574  27.816  1.00  0.00     0.001 A 
ATOM     66  C   UNL A   1      39.780  24.471  26.526  1.00  0.00     0.000 A 
ENDBRANCH  47  61
BRANCH  48  67
ATOM     67  C   UNL A   1      41.875  34.668  33.943  1.00  0.00    -0.014 A 
ATOM     68  C   UNL A   1      42.531  35.810  33.458  1.00  0.00     0.009 A 
ATOM     69  C   UNL A   1      41.441  34.649  35.278  1.00  0.00     0.009 A 
ATOM     70  C   UNL A   1      42.769  36.899  34.297  1.00  0.00     0.001 A 
ATOM     71  C   UNL A   1      41.659  35.751  36.107  1.00  0.00     0.001 A 
ATOM     72  C   UNL A   1      42.330  36.871  35.620  1.00  0.00     0.000 A 
ENDBRANCH  48  67
BRANCH  60  73
ATOM     73  C   UNL A   1      45.686  29.061  32.386  1.00  0.00    -0.014 A 
ATOM     74  C   UNL A   1      45.867  28.229  33.502  1.00  0.00     0.009 A 
ATOM     75  C   UNL A   1      46.807  29.449  31.636  1.00  0.00     0.009 A 
ATOM     76  C   UNL A   1      47.148  27.818  33.874  1.00  0.00     0.001 A 
ATOM     77  C   UNL A   1      48.083  29.015  31.994  1.00  0.00     0.001 A 
ATOM     78  C   UNL A   1      48.254  28.207  33.117  1.00  0.00     0.000 A 
ENDBRANCH  60  73
ENDBRANCH  34  35
ENDBRANCH  26  29
ENDBRANCH  24  25
ENDBRANCH  23  24
ENDBRANCH  22  23
ENDBRANCH   1  22
TORSDOF 17
ENDMDL
