MODEL 1
REMARK VINA RESULT:     -10.8      0.000      0.000
REMARK SMILES CC(C)=CC[N@H+]1CCCC[C@H]1C(=O)NCCCCNC(=O)c1ccc(-c2c3nc(c(-c4ccccc4)c4ccc([nH]4)c(-c4ccccc4)c4nc(c(-c5ccccc5)c5ccc2[nH]5)C=C4)C=C3)cc1
REMARK SMILES IDX 16 1 15 2 14 3 12 4 13 5 11 7 6 8 7 9 8 11 10 12 9 13 5 14
REMARK SMILES IDX 4 15 1 16 2 17 3 18 17 19 18 20 19 21 20 22 21 24 22 25
REMARK SMILES IDX 23 26 69 27 24 28 68 29 25 30 26 31 27 32 62 33 28 34 67 35
REMARK SMILES IDX 61 36 63 37 29 38 66 39 60 40 59 41 30 43 52 44 37 45 51 46
REMARK SMILES IDX 38 47 41 48 50 49 64 50 39 51 40 52 49 54 65 55 42 56 31 57
REMARK SMILES IDX 32 58 36 59 33 60 35 61 34 62 53 63 54 64 58 65 55 66 57 67
REMARK SMILES IDX 56 68 43 69 44 70 48 71 45 72 47 73 46 74
REMARK H PARENT 14 6 6 10 19 23 63 42 41 53
REMARK Flexibility Score: inf
ROOT
ATOM      1  C   UNL A   1      31.589  30.435  26.178  1.00  0.00     0.023 C 
ENDROOT
BRANCH   1   2
ATOM      2  C   UNL A   1      33.027  29.926  26.092  1.00  0.00     0.116 C 
BRANCH   2   3
ATOM      3  N   UNL A   1      33.506  29.766  24.733  1.00  0.00    -0.351 N 
ATOM      4  C   UNL A   1      33.211  28.795  23.810  1.00  0.00     0.278 C 
ATOM      5  O   UNL A   1      33.610  29.001  22.659  1.00  0.00    -0.268 OA
ATOM      6  H   UNL A   1      34.136  30.457  24.428  1.00  0.00     0.163 HD
BRANCH   4   7
ATOM      7  C   UNL A   1      32.491  27.486  24.242  1.00  0.00     0.274 C 
ATOM      8  N   UNL A   1      31.240  27.205  23.508  1.00  0.00    -0.321 N 
ATOM      9  C   UNL A   1      31.409  26.864  22.099  1.00  0.00     0.263 C 
ATOM     10  H   UNL A   1      30.978  26.336  23.973  1.00  0.00     0.349 HD
ATOM     11  C   UNL A   1      32.350  25.671  21.932  1.00  0.00     0.062 C 
ATOM     12  C   UNL A   1      33.479  26.314  24.084  1.00  0.00     0.076 C 
ATOM     13  C   UNL A   1      33.686  25.894  22.628  1.00  0.00     0.012 C 
BRANCH   8  14
ATOM     14  C   UNL A   1      30.065  28.020  23.789  1.00  0.00     0.291 C 
BRANCH  14  15
ATOM     15  C   UNL A   1      29.621  28.999  22.742  1.00  0.00     0.032 C 
ATOM     16  C   UNL A   1      27.152  28.814  23.152  1.00  0.00     0.039 C 
ATOM     17  C   UNL A   1      28.361  29.380  22.462  1.00  0.00    -0.075 C 
ATOM     18  C   UNL A   1      28.074  30.385  21.383  1.00  0.00     0.039 C 
ENDBRANCH  14  15
ENDBRANCH   8  14
ENDBRANCH   4   7
ENDBRANCH   2   3
ENDBRANCH   1   2
BRANCH   1  19
ATOM     19  C   UNL A   1      31.402  31.920  26.502  1.00  0.00     0.023 C 
BRANCH  19  20
ATOM     20  C   UNL A   1      32.556  32.621  27.216  1.00  0.00     0.116 C 
BRANCH  20  21
ATOM     21  N   UNL A   1      32.261  33.987  27.615  1.00  0.00    -0.352 N 
ATOM     22  C   UNL A   1      32.944  34.816  28.477  1.00  0.00     0.251 C 
ATOM     23  H   UNL A   1      31.455  34.377  27.208  1.00  0.00     0.163 HD
ATOM     24  O   UNL A   1      32.500  35.928  28.735  1.00  0.00    -0.269 OA
BRANCH  22  25
ATOM     25  C   UNL A   1      34.189  34.355  29.135  1.00  0.00     0.039 A 
ATOM     26  C   UNL A   1      34.086  33.727  30.380  1.00  0.00     0.014 A 
ATOM     27  C   UNL A   1      35.442  34.527  28.542  1.00  0.00     0.014 A 
ATOM     28  C   UNL A   1      35.228  33.196  30.989  1.00  0.00     0.010 A 
ATOM     29  C   UNL A   1      36.573  33.949  29.124  1.00  0.00     0.010 A 
ATOM     30  C   UNL A   1      36.473  33.262  30.344  1.00  0.00    -0.014 A 
BRANCH  30  31
ATOM     31  C   UNL A   1      37.657  32.566  30.913  1.00  0.00     0.031 A 
ATOM     32  C   UNL A   1      38.327  33.065  32.162  1.00  0.00     0.074 A 
ATOM     33  C   UNL A   1      38.170  31.501  30.263  1.00  0.00     0.049 A 
ATOM     34  N   UNL A   1      39.367  32.575  32.790  1.00  0.00    -0.248 NA
ATOM     35  C   UNL A   1      37.771  34.280  32.774  1.00  0.00     0.031 C 
ATOM     36  C   UNL A   1      37.653  30.944  29.011  1.00  0.00     0.029 A 
ATOM     37  N   UNL A   1      39.245  30.702  30.564  1.00  0.00    -0.354 N 
ATOM     38  C   UNL A   1      39.597  33.425  33.864  1.00  0.00     0.074 A 
ATOM     39  C   UNL A   1      38.613  34.485  33.777  1.00  0.00     0.031 C 
ATOM     40  C   UNL A   1      38.396  29.881  28.664  1.00  0.00     0.029 A 
ATOM     41  C   UNL A   1      39.458  29.700  29.648  1.00  0.00     0.049 A 
ATOM     42  H   UNL A   1      39.809  30.833  31.359  1.00  0.00     0.167 HD
ATOM     43  C   UNL A   1      40.531  33.328  34.841  1.00  0.00     0.031 A 
ATOM     44  C   UNL A   1      40.400  28.739  29.602  1.00  0.00     0.031 A 
ATOM     45  C   UNL A   1      41.509  32.277  34.934  1.00  0.00     0.049 A 
ATOM     46  C   UNL A   1      41.423  28.651  30.698  1.00  0.00     0.074 A 
ATOM     47  C   UNL A   1      42.448  32.059  35.929  1.00  0.00     0.029 A 
ATOM     48  N   UNL A   1      41.686  31.275  33.993  1.00  0.00    -0.354 N 
ATOM     49  N   UNL A   1      41.566  29.410  31.757  1.00  0.00    -0.248 NA
ATOM     50  C   UNL A   1      42.407  27.563  30.599  1.00  0.00     0.031 C 
ATOM     51  C   UNL A   1      43.225  30.953  35.565  1.00  0.00     0.029 A 
ATOM     52  C   UNL A   1      42.736  30.453  34.369  1.00  0.00     0.049 A 
ATOM     53  H   UNL A   1      41.144  31.164  33.179  1.00  0.00     0.167 HD
ATOM     54  C   UNL A   1      42.640  28.880  32.460  1.00  0.00     0.074 A 
ATOM     55  C   UNL A   1      43.100  27.724  31.718  1.00  0.00     0.031 C 
ATOM     56  C   UNL A   1      43.195  29.314  33.618  1.00  0.00     0.031 A 
BRANCH  43  57
ATOM     57  C   UNL A   1      40.544  34.405  35.891  1.00  0.00    -0.014 A 
ATOM     58  C   UNL A   1      39.760  34.298  37.050  1.00  0.00     0.009 A 
ATOM     59  C   UNL A   1      41.380  35.522  35.736  1.00  0.00     0.009 A 
ATOM     60  C   UNL A   1      39.783  35.308  38.015  1.00  0.00     0.001 A 
ATOM     61  C   UNL A   1      41.421  36.516  36.714  1.00  0.00     0.001 A 
ATOM     62  C   UNL A   1      40.616  36.413  37.848  1.00  0.00     0.000 A 
ENDBRANCH  43  57
BRANCH  44  63
ATOM     63  C   UNL A   1      40.411  27.766  28.479  1.00  0.00    -0.014 A 
ATOM     64  C   UNL A   1      39.720  26.549  28.585  1.00  0.00     0.009 A 
ATOM     65  C   UNL A   1      41.111  28.050  27.297  1.00  0.00     0.009 A 
ATOM     66  C   UNL A   1      39.751  25.627  27.537  1.00  0.00     0.001 A 
ATOM     67  C   UNL A   1      41.119  27.136  26.242  1.00  0.00     0.001 A 
ATOM     68  C   UNL A   1      40.446  25.922  26.366  1.00  0.00     0.000 A 
ENDBRANCH  44  63
BRANCH  56  69
ATOM     69  C   UNL A   1      44.350  28.522  34.163  1.00  0.00    -0.014 A 
ATOM     70  C   UNL A   1      45.675  28.849  33.834  1.00  0.00     0.009 A 
ATOM     71  C   UNL A   1      44.111  27.452  35.038  1.00  0.00     0.009 A 
ATOM     72  C   UNL A   1      46.736  28.098  34.345  1.00  0.00     0.001 A 
ATOM     73  C   UNL A   1      45.175  26.720  35.569  1.00  0.00     0.001 A 
ATOM     74  C   UNL A   1      46.485  27.038  35.215  1.00  0.00     0.000 A 
ENDBRANCH  56  69
ENDBRANCH  30  31
ENDBRANCH  22  25
ENDBRANCH  20  21
ENDBRANCH  19  20
ENDBRANCH   1  19
TORSDOF 13
ENDMDL
MODEL 2
REMARK VINA RESULT:     -10.7      5.882     10.655
REMARK SMILES CC(C)=CC[N@H+]1CCCC[C@H]1C(=O)NCCCCNC(=O)c1ccc(-c2c3nc(c(-c4ccccc4)c4ccc([nH]4)c(-c4ccccc4)c4nc(c(-c5ccccc5)c5ccc2[nH]5)C=C4)C=C3)cc1
REMARK SMILES IDX 16 1 15 2 14 3 12 4 13 5 11 7 6 8 7 9 8 11 10 12 9 13 5 14
REMARK SMILES IDX 4 15 1 16 2 17 3 18 17 19 18 20 19 21 20 22 21 24 22 25
REMARK SMILES IDX 23 26 69 27 24 28 68 29 25 30 26 31 27 32 62 33 28 34 67 35
REMARK SMILES IDX 61 36 63 37 29 38 66 39 60 40 59 41 30 43 52 44 37 45 51 46
REMARK SMILES IDX 38 47 41 48 50 49 64 50 39 51 40 52 49 54 65 55 42 56 31 57
REMARK SMILES IDX 32 58 36 59 33 60 35 61 34 62 53 63 54 64 58 65 55 66 57 67
REMARK SMILES IDX 56 68 43 69 44 70 48 71 45 72 47 73 46 74
REMARK H PARENT 14 6 6 10 19 23 63 42 41 53
REMARK Flexibility Score: inf
ROOT
ATOM      1  C   UNL A   1      37.022  21.090  24.437  1.00  0.00     0.023 C 
ENDROOT
BRANCH   1   2
ATOM      2  C   UNL A   1      36.999  22.291  25.380  1.00  0.00     0.116 C 
BRANCH   2   3
ATOM      3  N   UNL A   1      36.078  22.141  26.489  1.00  0.00    -0.351 N 
ATOM      4  C   UNL A   1      34.706  22.098  26.488  1.00  0.00     0.278 C 
ATOM      5  O   UNL A   1      34.172  21.771  27.552  1.00  0.00    -0.268 OA
ATOM      6  H   UNL A   1      36.498  22.057  27.375  1.00  0.00     0.163 HD
BRANCH   4   7
ATOM      7  C   UNL A   1      33.904  22.527  25.226  1.00  0.00     0.274 C 
ATOM      8  N   UNL A   1      32.508  22.044  25.196  1.00  0.00    -0.321 N 
ATOM      9  C   UNL A   1      31.621  22.642  26.189  1.00  0.00     0.263 C 
ATOM     10  H   UNL A   1      32.225  22.440  24.299  1.00  0.00     0.349 HD
ATOM     11  C   UNL A   1      31.611  24.165  26.070  1.00  0.00     0.062 C 
ATOM     12  C   UNL A   1      33.939  24.065  25.129  1.00  0.00     0.076 C 
ATOM     13  C   UNL A   1      33.014  24.754  26.133  1.00  0.00     0.012 C 
BRANCH   8  14
ATOM     14  C   UNL A   1      32.263  20.628  24.949  1.00  0.00     0.291 C 
BRANCH  14  15
ATOM     15  C   UNL A   1      33.428  19.771  24.552  1.00  0.00     0.032 C 
ATOM     16  C   UNL A   1      32.526  17.587  25.397  1.00  0.00     0.039 C 
ATOM     17  C   UNL A   1      33.556  18.441  24.713  1.00  0.00    -0.075 C 
ATOM     18  C   UNL A   1      34.788  17.717  24.251  1.00  0.00     0.039 C 
ENDBRANCH  14  15
ENDBRANCH   8  14
ENDBRANCH   4   7
ENDBRANCH   2   3
ENDBRANCH   1   2
BRANCH   1  19
ATOM     19  C   UNL A   1      37.843  19.877  24.885  1.00  0.00     0.023 C 
BRANCH  19  20
ATOM     20  C   UNL A   1      39.041  20.152  25.790  1.00  0.00     0.116 C 
BRANCH  20  21
ATOM     21  N   UNL A   1      40.060  19.116  25.751  1.00  0.00    -0.352 N 
ATOM     22  C   UNL A   1      41.411  19.204  25.998  1.00  0.00     0.251 C 
ATOM     23  H   UNL A   1      39.735  18.218  25.513  1.00  0.00     0.163 HD
ATOM     24  O   UNL A   1      42.125  18.220  25.855  1.00  0.00    -0.269 OA
BRANCH  22  25
ATOM     25  C   UNL A   1      42.020  20.497  26.391  1.00  0.00     0.039 A 
ATOM     26  C   UNL A   1      42.480  21.347  25.380  1.00  0.00     0.014 A 
ATOM     27  C   UNL A   1      42.136  20.880  27.730  1.00  0.00     0.014 A 
ATOM     28  C   UNL A   1      42.975  22.614  25.705  1.00  0.00     0.010 A 
ATOM     29  C   UNL A   1      42.579  22.166  28.050  1.00  0.00     0.010 A 
ATOM     30  C   UNL A   1      42.987  23.051  27.040  1.00  0.00    -0.014 A 
BRANCH  30  31
ATOM     31  C   UNL A   1      43.365  24.449  27.374  1.00  0.00     0.031 A 
ATOM     32  C   UNL A   1      44.798  24.900  27.321  1.00  0.00     0.074 A 
ATOM     33  C   UNL A   1      42.412  25.309  27.786  1.00  0.00     0.049 A 
ATOM     34  N   UNL A   1      45.299  26.082  27.580  1.00  0.00    -0.248 NA
ATOM     35  C   UNL A   1      45.799  23.890  26.947  1.00  0.00     0.031 C 
ATOM     36  C   UNL A   1      40.991  24.989  27.936  1.00  0.00     0.029 A 
ATOM     37  N   UNL A   1      42.497  26.628  28.159  1.00  0.00    -0.354 N 
ATOM     38  C   UNL A   1      46.672  25.957  27.412  1.00  0.00     0.074 A 
ATOM     39  C   UNL A   1      46.929  24.574  27.069  1.00  0.00     0.031 C 
ATOM     40  C   UNL A   1      40.335  26.086  28.348  1.00  0.00     0.029 A 
ATOM     41  C   UNL A   1      41.290  27.176  28.519  1.00  0.00     0.049 A 
ATOM     42  H   UNL A   1      43.343  27.132  28.168  1.00  0.00     0.167 HD
ATOM     43  C   UNL A   1      47.631  26.908  27.519  1.00  0.00     0.031 A 
ATOM     44  C   UNL A   1      40.981  28.417  28.940  1.00  0.00     0.031 A 
ATOM     45  C   UNL A   1      47.383  28.285  27.857  1.00  0.00     0.049 A 
ATOM     46  C   UNL A   1      42.062  29.454  29.049  1.00  0.00     0.074 A 
ATOM     47  C   UNL A   1      48.286  29.333  27.918  1.00  0.00     0.029 A 
ATOM     48  N   UNL A   1      46.146  28.803  28.205  1.00  0.00    -0.354 N 
ATOM     49  N   UNL A   1      43.343  29.341  28.794  1.00  0.00    -0.248 NA
ATOM     50  C   UNL A   1      41.651  30.795  29.490  1.00  0.00     0.031 C 
ATOM     51  C   UNL A   1      47.603  30.476  28.350  1.00  0.00     0.029 A 
ATOM     52  C   UNL A   1      46.266  30.150  28.509  1.00  0.00     0.049 A 
ATOM     53  H   UNL A   1      45.306  28.291  28.231  1.00  0.00     0.167 HD
ATOM     54  C   UNL A   1      43.886  30.599  29.023  1.00  0.00     0.074 A 
ATOM     55  C   UNL A   1      42.794  31.463  29.419  1.00  0.00     0.031 C 
ATOM     56  C   UNL A   1      45.176  30.999  28.914  1.00  0.00     0.031 A 
BRANCH  43  57
ATOM     57  C   UNL A   1      49.053  26.482  27.275  1.00  0.00    -0.014 A 
ATOM     58  C   UNL A   1      49.879  26.067  28.332  1.00  0.00     0.009 A 
ATOM     59  C   UNL A   1      49.561  26.460  25.967  1.00  0.00     0.009 A 
ATOM     60  C   UNL A   1      51.197  25.676  28.088  1.00  0.00     0.001 A 
ATOM     61  C   UNL A   1      50.871  26.043  25.723  1.00  0.00     0.001 A 
ATOM     62  C   UNL A   1      51.690  25.661  26.785  1.00  0.00     0.000 A 
ENDBRANCH  43  57
BRANCH  44  63
ATOM     63  C   UNL A   1      39.574  28.755  29.277  1.00  0.00    -0.014 A 
ATOM     64  C   UNL A   1      39.087  28.558  30.578  1.00  0.00     0.009 A 
ATOM     65  C   UNL A   1      38.713  29.275  28.299  1.00  0.00     0.009 A 
ATOM     66  C   UNL A   1      37.757  28.853  30.886  1.00  0.00     0.001 A 
ATOM     67  C   UNL A   1      37.391  29.594  28.618  1.00  0.00     0.001 A 
ATOM     68  C   UNL A   1      36.912  29.375  29.908  1.00  0.00     0.000 A 
ENDBRANCH  44  63
BRANCH  56  69
ATOM     69  C   UNL A   1      45.473  32.442  29.210  1.00  0.00    -0.014 A 
ATOM     70  C   UNL A   1      45.863  32.856  30.493  1.00  0.00     0.009 A 
ATOM     71  C   UNL A   1      45.387  33.396  28.184  1.00  0.00     0.009 A 
ATOM     72  C   UNL A   1      46.129  34.203  30.751  1.00  0.00     0.001 A 
ATOM     73  C   UNL A   1      45.679  34.738  28.439  1.00  0.00     0.001 A 
ATOM     74  C   UNL A   1      46.040  35.141  29.723  1.00  0.00     0.000 A 
ENDBRANCH  56  69
ENDBRANCH  30  31
ENDBRANCH  22  25
ENDBRANCH  20  21
ENDBRANCH  19  20
ENDBRANCH   1  19
TORSDOF 13
ENDMDL
MODEL 3
REMARK VINA RESULT:     -10.7      0.668      6.175
REMARK SMILES CC(C)=CC[N@H+]1CCCC[C@H]1C(=O)NCCCCNC(=O)c1ccc(-c2c3nc(c(-c4ccccc4)c4ccc([nH]4)c(-c4ccccc4)c4nc(c(-c5ccccc5)c5ccc2[nH]5)C=C4)C=C3)cc1
REMARK SMILES IDX 16 1 15 2 14 3 12 4 13 5 11 7 6 8 7 9 8 11 10 12 9 13 5 14
REMARK SMILES IDX 4 15 1 16 2 17 3 18 17 19 18 20 19 21 20 22 21 24 22 25
REMARK SMILES IDX 23 26 69 27 24 28 68 29 25 30 26 31 27 32 62 33 28 34 67 35
REMARK SMILES IDX 61 36 63 37 29 38 66 39 60 40 59 41 30 43 52 44 37 45 51 46
REMARK SMILES IDX 38 47 41 48 50 49 64 50 39 51 40 52 49 54 65 55 42 56 31 57
REMARK SMILES IDX 32 58 36 59 33 60 35 61 34 62 53 63 54 64 58 65 55 66 57 67
REMARK SMILES IDX 56 68 43 69 44 70 48 71 45 72 47 73 46 74
REMARK H PARENT 14 6 6 10 19 23 63 42 41 53
REMARK Flexibility Score: inf
ROOT
ATOM      1  C   UNL A   1      31.650  30.668  26.009  1.00  0.00     0.023 C 
ENDROOT
BRANCH   1   2
ATOM      2  C   UNL A   1      32.977  29.937  26.210  1.00  0.00     0.116 C 
BRANCH   2   3
ATOM      3  N   UNL A   1      33.674  29.649  24.972  1.00  0.00    -0.351 N 
ATOM      4  C   UNL A   1      33.456  28.651  24.056  1.00  0.00     0.278 C 
ATOM      5  O   UNL A   1      34.074  28.747  22.991  1.00  0.00    -0.268 OA
ATOM      6  H   UNL A   1      34.414  30.261  24.757  1.00  0.00     0.163 HD
BRANCH   4   7
ATOM      7  C   UNL A   1      32.545  27.441  24.408  1.00  0.00     0.274 C 
ATOM      8  N   UNL A   1      31.310  27.350  23.602  1.00  0.00    -0.321 N 
ATOM      9  C   UNL A   1      31.510  27.025  22.193  1.00  0.00     0.263 C 
ATOM     10  H   UNL A   1      30.909  26.513  24.024  1.00  0.00     0.349 HD
ATOM     11  C   UNL A   1      32.291  25.720  22.036  1.00  0.00     0.062 C 
ATOM     12  C   UNL A   1      33.375  26.150  24.263  1.00  0.00     0.076 C 
ATOM     13  C   UNL A   1      33.604  25.743  22.807  1.00  0.00     0.012 C 
BRANCH   8  14
ATOM     14  C   UNL A   1      30.240  28.310  23.848  1.00  0.00     0.291 C 
BRANCH  14  15
ATOM     15  C   UNL A   1      29.460  28.811  22.670  1.00  0.00     0.032 C 
ATOM     16  C   UNL A   1      28.877  31.066  23.604  1.00  0.00     0.039 C 
ATOM     17  C   UNL A   1      28.878  30.017  22.529  1.00  0.00    -0.075 C 
ATOM     18  C   UNL A   1      28.134  30.379  21.275  1.00  0.00     0.039 C 
ENDBRANCH  14  15
ENDBRANCH   8  14
ENDBRANCH   4   7
ENDBRANCH   2   3
ENDBRANCH   1   2
BRANCH   1  19
ATOM     19  C   UNL A   1      31.404  31.901  26.883  1.00  0.00     0.023 C 
BRANCH  19  20
ATOM     20  C   UNL A   1      32.625  32.740  27.252  1.00  0.00     0.116 C 
BRANCH  20  21
ATOM     21  N   UNL A   1      32.312  34.116  27.600  1.00  0.00    -0.352 N 
ATOM     22  C   UNL A   1      32.953  34.968  28.472  1.00  0.00     0.251 C 
ATOM     23  H   UNL A   1      31.527  34.495  27.146  1.00  0.00     0.163 HD
ATOM     24  O   UNL A   1      32.498  36.085  28.680  1.00  0.00    -0.269 OA
BRANCH  22  25
ATOM     25  C   UNL A   1      34.165  34.525  29.201  1.00  0.00     0.039 A 
ATOM     26  C   UNL A   1      34.010  34.007  30.491  1.00  0.00     0.014 A 
ATOM     27  C   UNL A   1      35.438  34.607  28.631  1.00  0.00     0.014 A 
ATOM     28  C   UNL A   1      35.117  33.493  31.174  1.00  0.00     0.010 A 
ATOM     29  C   UNL A   1      36.534  34.045  29.291  1.00  0.00     0.010 A 
ATOM     30  C   UNL A   1      36.380  33.466  30.561  1.00  0.00    -0.014 A 
BRANCH  30  31
ATOM     31  C   UNL A   1      37.525  32.783  31.218  1.00  0.00     0.031 A 
ATOM     32  C   UNL A   1      38.163  31.569  30.602  1.00  0.00     0.074 A 
ATOM     33  C   UNL A   1      37.961  33.228  32.413  1.00  0.00     0.049 A 
ATOM     34  N   UNL A   1      39.168  30.854  31.043  1.00  0.00    -0.248 NA
ATOM     35  C   UNL A   1      37.586  31.083  29.340  1.00  0.00     0.031 C 
ATOM     36  C   UNL A   1      37.397  34.362  33.150  1.00  0.00     0.029 A 
ATOM     37  N   UNL A   1      38.974  32.776  33.222  1.00  0.00    -0.354 N 
ATOM     38  C   UNL A   1      39.338  29.830  30.121  1.00  0.00     0.074 A 
ATOM     39  C   UNL A   1      38.306  29.992  29.118  1.00  0.00     0.031 C 
ATOM     40  C   UNL A   1      38.086  34.530  34.290  1.00  0.00     0.029 A 
ATOM     41  C   UNL A   1      39.118  33.502  34.380  1.00  0.00     0.049 A 
ATOM     42  H   UNL A   1      39.543  32.006  32.994  1.00  0.00     0.167 HD
ATOM     43  C   UNL A   1      40.276  28.852  30.100  1.00  0.00     0.031 A 
ATOM     44  C   UNL A   1      39.982  33.359  35.402  1.00  0.00     0.031 A 
ATOM     45  C   UNL A   1      41.306  28.686  31.091  1.00  0.00     0.049 A 
ATOM     46  C   UNL A   1      41.013  32.268  35.355  1.00  0.00     0.074 A 
ATOM     47  C   UNL A   1      42.341  27.767  31.113  1.00  0.00     0.029 A 
ATOM     48  N   UNL A   1      41.425  29.447  32.243  1.00  0.00    -0.354 N 
ATOM     49  N   UNL A   1      41.218  31.366  34.427  1.00  0.00    -0.248 NA
ATOM     50  C   UNL A   1      41.942  32.186  36.493  1.00  0.00     0.031 C 
ATOM     51  C   UNL A   1      43.058  27.940  32.303  1.00  0.00     0.029 A 
ATOM     52  C   UNL A   1      42.498  29.001  32.997  1.00  0.00     0.049 A 
ATOM     53  H   UNL A   1      40.834  30.195  32.489  1.00  0.00     0.167 HD
ATOM     54  C   UNL A   1      42.311  30.623  34.857  1.00  0.00     0.074 A 
ATOM     55  C   UNL A   1      42.736  31.191  36.119  1.00  0.00     0.031 C 
ATOM     56  C   UNL A   1      42.906  29.564  34.257  1.00  0.00     0.031 A 
BRANCH  43  57
ATOM     57  C   UNL A   1      40.221  27.869  28.963  1.00  0.00    -0.014 A 
ATOM     58  C   UNL A   1      40.880  28.123  27.750  1.00  0.00     0.009 A 
ATOM     59  C   UNL A   1      39.532  26.655  29.121  1.00  0.00     0.009 A 
ATOM     60  C   UNL A   1      40.817  27.200  26.704  1.00  0.00     0.001 A 
ATOM     61  C   UNL A   1      39.495  25.723  28.083  1.00  0.00     0.001 A 
ATOM     62  C   UNL A   1      40.129  26.000  26.873  1.00  0.00     0.000 A 
ENDBRANCH  43  57
BRANCH  44  63
ATOM     63  C   UNL A   1      39.921  34.290  36.558  1.00  0.00    -0.014 A 
ATOM     64  C   UNL A   1      39.205  33.944  37.715  1.00  0.00     0.009 A 
ATOM     65  C   UNL A   1      40.576  35.530  36.510  1.00  0.00     0.009 A 
ATOM     66  C   UNL A   1      39.128  34.831  38.790  1.00  0.00     0.001 A 
ATOM     67  C   UNL A   1      40.519  36.404  37.598  1.00  0.00     0.001 A 
ATOM     68  C   UNL A   1      39.788  36.057  38.733  1.00  0.00     0.000 A 
ENDBRANCH  44  63
BRANCH  56  69
ATOM     69  C   UNL A   1      44.096  28.963  34.952  1.00  0.00    -0.014 A 
ATOM     70  C   UNL A   1      45.392  29.455  34.730  1.00  0.00     0.009 A 
ATOM     71  C   UNL A   1      43.914  27.910  35.860  1.00  0.00     0.009 A 
ATOM     72  C   UNL A   1      46.486  28.881  35.380  1.00  0.00     0.001 A 
ATOM     73  C   UNL A   1      45.008  27.355  36.529  1.00  0.00     0.001 A 
ATOM     74  C   UNL A   1      46.292  27.835  36.281  1.00  0.00     0.000 A 
ENDBRANCH  56  69
ENDBRANCH  30  31
ENDBRANCH  22  25
ENDBRANCH  20  21
ENDBRANCH  19  20
ENDBRANCH   1  19
TORSDOF 13
ENDMDL
