MODEL 1
REMARK VINA RESULT:     -11.0      0.000      0.000
REMARK SMILES C[NH2+][C@]1(C(=O)NCCCCNC(=O)c2ccc(-c3c4nc(c(-c5ccccc5)c5ccc([nH]5)c(-c5ccccc5)c5nc(c(-c6ccccc6)c6ccc3[nH]6)C=C5)C=C4)cc2)CCC[C@@H]1CC[N@H+]1CCC[C@H]([NH+](C)C)C1
REMARK SMILES IDX 7 1 6 2 4 3 5 4 3 6 62 7 65 8 63 9 64 10 2 11 1 12 66 15
REMARK SMILES IDX 67 16 68 17 69 18 76 19 70 21 72 22 71 23 73 24 74 25 75 26
REMARK SMILES IDX 8 28 9 29 10 30 11 31 12 32 13 34 14 35 15 36 61 37 16 38
REMARK SMILES IDX 60 39 17 40 18 41 19 42 54 43 20 44 59 45 53 46 55 47 21 48
REMARK SMILES IDX 58 49 52 50 51 51 22 53 44 54 29 55 43 56 30 57 33 58 42 59
REMARK SMILES IDX 56 60 31 61 32 62 41 64 57 65 34 66 23 67 24 68 28 69 25 70
REMARK SMILES IDX 27 71 26 72 45 73 46 74 50 75 47 76 49 77 48 78 35 79 36 80
REMARK SMILES IDX 40 81 37 82 39 83 38 84
REMARK H PARENT 6 5 2 13 2 14 68 20 73 27 11 33 55 52 33 63
REMARK Flexibility Score: inf
ROOT
ATOM      1  C   UNL A   1      36.324  22.554  25.711  1.00  0.00     0.116 C 
ENDROOT
BRANCH   1   2
ATOM      2  N   UNL A   1      35.854  23.886  25.375  1.00  0.00    -0.351 N 
ATOM      3  C   UNL A   1      34.623  24.469  25.443  1.00  0.00     0.281 C 
ATOM      4  O   UNL A   1      34.579  25.657  25.092  1.00  0.00    -0.268 OA
ATOM      5  H   UNL A   1      36.559  24.482  25.032  1.00  0.00     0.163 HD
BRANCH   3   6
ATOM      6  C   UNL A   1      33.310  23.709  25.876  1.00  0.00     0.178 C 
ATOM      7  C   UNL A   1      32.350  24.695  26.564  1.00  0.00     0.079 C 
ATOM      8  C   UNL A   1      32.522  23.181  24.644  1.00  0.00     0.066 C 
ATOM      9  C   UNL A   1      30.936  24.273  26.180  1.00  0.00     0.008 C 
ATOM     10  C   UNL A   1      31.045  23.247  25.051  1.00  0.00     0.011 C 
BRANCH   6  11
ATOM     11  N   UNL A   1      33.739  22.585  26.755  1.00  0.00    -0.336 N 
ATOM     12  C   UNL A   1      33.140  22.441  28.065  1.00  0.00     0.331 C 
ATOM     13  H   UNL A   1      33.552  21.721  26.246  1.00  0.00     0.346 HD
ATOM     14  H   UNL A   1      34.715  22.796  26.959  1.00  0.00     0.346 HD
ENDBRANCH   6  11
BRANCH   8  15
ATOM     15  C   UNL A   1      32.958  21.784  24.146  1.00  0.00     0.072 C 
BRANCH  15  16
ATOM     16  C   UNL A   1      32.112  20.616  24.679  1.00  0.00     0.262 C 
BRANCH  16  17
ATOM     17  N   UNL A   1      32.558  19.261  24.295  1.00  0.00    -0.330 N 
ATOM     18  C   UNL A   1      32.314  18.944  22.883  1.00  0.00     0.262 C 
ATOM     19  C   UNL A   1      34.003  19.122  24.582  1.00  0.00     0.327 C 
ATOM     20  H   UNL A   1      32.006  18.604  24.847  1.00  0.00     0.348 HD
ATOM     21  C   UNL A   1      32.671  17.488  22.594  1.00  0.00     0.068 C 
ATOM     22  C   UNL A   1      34.577  17.699  24.322  1.00  0.00     0.239 C 
ATOM     23  C   UNL A   1      34.113  17.154  22.955  1.00  0.00     0.077 C 
BRANCH  22  24
ATOM     24  N   UNL A   1      34.435  16.704  25.415  1.00  0.00    -0.333 N 
ATOM     25  C   UNL A   1      33.139  16.022  25.357  1.00  0.00     0.332 C 
ATOM     26  C   UNL A   1      35.502  15.712  25.484  1.00  0.00     0.332 C 
ATOM     27  H   UNL A   1      34.501  17.261  26.267  1.00  0.00     0.348 HD
ENDBRANCH  22  24
ENDBRANCH  16  17
ENDBRANCH  15  16
ENDBRANCH   8  15
ENDBRANCH   3   6
ENDBRANCH   1   2
BRANCH   1  28
ATOM     28  C   UNL A   1      36.574  21.690  24.478  1.00  0.00     0.023 C 
BRANCH  28  29
ATOM     29  C   UNL A   1      37.530  20.510  24.673  1.00  0.00     0.023 C 
BRANCH  29  30
ATOM     30  C   UNL A   1      38.664  20.719  25.673  1.00  0.00     0.116 C 
BRANCH  30  31
ATOM     31  N   UNL A   1      39.674  19.674  25.635  1.00  0.00    -0.352 N 
ATOM     32  C   UNL A   1      40.989  19.715  26.037  1.00  0.00     0.251 C 
ATOM     33  H   UNL A   1      39.373  18.812  25.268  1.00  0.00     0.163 HD
ATOM     34  O   UNL A   1      41.716  18.745  25.861  1.00  0.00    -0.269 OA
BRANCH  32  35
ATOM     35  C   UNL A   1      41.543  20.957  26.620  1.00  0.00     0.039 A 
ATOM     36  C   UNL A   1      42.110  21.897  25.755  1.00  0.00     0.014 A 
ATOM     37  C   UNL A   1      41.476  21.214  27.991  1.00  0.00     0.014 A 
ATOM     38  C   UNL A   1      42.526  23.134  26.253  1.00  0.00     0.010 A 
ATOM     39  C   UNL A   1      41.836  22.470  28.477  1.00  0.00     0.010 A 
ATOM     40  C   UNL A   1      42.348  23.447  27.610  1.00  0.00    -0.014 A 
BRANCH  40  41
ATOM     41  C   UNL A   1      42.652  24.809  28.121  1.00  0.00     0.031 A 
ATOM     42  C   UNL A   1      44.049  25.182  28.527  1.00  0.00     0.074 A 
ATOM     43  C   UNL A   1      41.649  25.696  28.274  1.00  0.00     0.049 A 
ATOM     44  N   UNL A   1      44.488  26.311  29.024  1.00  0.00    -0.248 NA
ATOM     45  C   UNL A   1      45.082  24.148  28.373  1.00  0.00     0.031 C 
ATOM     46  C   UNL A   1      40.241  25.449  27.958  1.00  0.00     0.029 A 
ATOM     47  N   UNL A   1      41.662  26.987  28.742  1.00  0.00    -0.354 N 
ATOM     48  C   UNL A   1      45.843  26.119  29.256  1.00  0.00     0.074 A 
ATOM     49  C   UNL A   1      46.146  24.755  28.881  1.00  0.00     0.031 C 
ATOM     50  C   UNL A   1      39.529  26.558  28.218  1.00  0.00     0.029 A 
ATOM     51  C   UNL A   1      40.423  27.583  28.749  1.00  0.00     0.049 A 
ATOM     52  H   UNL A   1      42.480  27.443  29.044  1.00  0.00     0.167 HD
ATOM     53  C   UNL A   1      46.757  27.003  29.724  1.00  0.00     0.031 A 
ATOM     54  C   UNL A   1      40.046  28.814  29.141  1.00  0.00     0.031 A 
ATOM     55  C   UNL A   1      46.463  28.363  30.090  1.00  0.00     0.049 A 
ATOM     56  C   UNL A   1      41.078  29.773  29.660  1.00  0.00     0.074 A 
ATOM     57  C   UNL A   1      47.337  29.348  30.519  1.00  0.00     0.029 A 
ATOM     58  N   UNL A   1      45.199  28.929  30.073  1.00  0.00    -0.354 N 
ATOM     59  N   UNL A   1      42.368  29.597  29.806  1.00  0.00    -0.248 NA
ATOM     60  C   UNL A   1      40.602  31.106  30.059  1.00  0.00     0.031 C 
ATOM     61  C   UNL A   1      46.593  30.499  30.802  1.00  0.00     0.029 A 
ATOM     62  C   UNL A   1      45.265  30.244  30.506  1.00  0.00     0.049 A 
ATOM     63  H   UNL A   1      44.376  28.466  29.796  1.00  0.00     0.167 HD
ATOM     64  C   UNL A   1      42.862  30.802  30.289  1.00  0.00     0.074 A 
ATOM     65  C   UNL A   1      41.735  31.705  30.400  1.00  0.00     0.031 C 
ATOM     66  C   UNL A   1      44.136  31.130  30.612  1.00  0.00     0.031 A 
BRANCH  53  67
ATOM     67  C   UNL A   1      48.170  26.516  29.873  1.00  0.00    -0.014 A 
ATOM     68  C   UNL A   1      48.592  25.863  31.042  1.00  0.00     0.009 A 
ATOM     69  C   UNL A   1      49.082  26.683  28.819  1.00  0.00     0.009 A 
ATOM     70  C   UNL A   1      49.910  25.418  31.165  1.00  0.00     0.001 A 
ATOM     71  C   UNL A   1      50.392  26.216  28.936  1.00  0.00     0.001 A 
ATOM     72  C   UNL A   1      50.807  25.591  30.112  1.00  0.00     0.000 A 
ENDBRANCH  53  67
BRANCH  54  73
ATOM     73  C   UNL A   1      38.622  29.221  29.040  1.00  0.00    -0.014 A 
ATOM     74  C   UNL A   1      38.112  29.727  27.834  1.00  0.00     0.009 A 
ATOM     75  C   UNL A   1      37.766  29.112  30.147  1.00  0.00     0.009 A 
ATOM     76  C   UNL A   1      36.780  30.137  27.745  1.00  0.00     0.001 A 
ATOM     77  C   UNL A   1      36.429  29.500  30.048  1.00  0.00     0.001 A 
ATOM     78  C   UNL A   1      35.939  30.020  28.851  1.00  0.00     0.000 A 
ENDBRANCH  54  73
BRANCH  66  79
ATOM     79  C   UNL A   1      44.384  32.533  31.085  1.00  0.00    -0.014 A 
ATOM     80  C   UNL A   1      44.347  32.857  32.451  1.00  0.00     0.009 A 
ATOM     81  C   UNL A   1      44.695  33.537  30.154  1.00  0.00     0.009 A 
ATOM     82  C   UNL A   1      44.588  34.167  32.870  1.00  0.00     0.001 A 
ATOM     83  C   UNL A   1      44.959  34.839  30.579  1.00  0.00     0.001 A 
ATOM     84  C   UNL A   1      44.897  35.155  31.935  1.00  0.00     0.000 A 
ENDBRANCH  66  79
ENDBRANCH  40  41
ENDBRANCH  32  35
ENDBRANCH  30  31
ENDBRANCH  29  30
ENDBRANCH  28  29
ENDBRANCH   1  28
TORSDOF 16
ENDMDL
MODEL 2
REMARK VINA RESULT:     -10.8      2.147      7.335
REMARK SMILES C[NH2+][C@]1(C(=O)NCCCCNC(=O)c2ccc(-c3c4nc(c(-c5ccccc5)c5ccc([nH]5)c(-c5ccccc5)c5nc(c(-c6ccccc6)c6ccc3[nH]6)C=C5)C=C4)cc2)CCC[C@@H]1CC[N@H+]1CCC[C@H]([NH+](C)C)C1
REMARK SMILES IDX 7 1 6 2 4 3 5 4 3 6 62 7 65 8 63 9 64 10 2 11 1 12 66 15
REMARK SMILES IDX 67 16 68 17 69 18 76 19 70 21 72 22 71 23 73 24 74 25 75 26
REMARK SMILES IDX 8 28 9 29 10 30 11 31 12 32 13 34 14 35 15 36 61 37 16 38
REMARK SMILES IDX 60 39 17 40 18 41 19 42 54 43 20 44 59 45 53 46 55 47 21 48
REMARK SMILES IDX 58 49 52 50 51 51 22 53 44 54 29 55 43 56 30 57 33 58 42 59
REMARK SMILES IDX 56 60 31 61 32 62 41 64 57 65 34 66 23 67 24 68 28 69 25 70
REMARK SMILES IDX 27 71 26 72 45 73 46 74 50 75 47 76 49 77 48 78 35 79 36 80
REMARK SMILES IDX 40 81 37 82 39 83 38 84
REMARK H PARENT 6 5 2 13 2 14 68 20 73 27 11 33 55 52 33 63
REMARK Flexibility Score: inf
ROOT
ATOM      1  C   UNL A   1      37.916  23.673  26.026  1.00  0.00     0.116 C 
ENDROOT
BRANCH   1   2
ATOM      2  N   UNL A   1      37.564  23.455  24.633  1.00  0.00    -0.351 N 
ATOM      3  C   UNL A   1      36.388  23.134  24.023  1.00  0.00     0.281 C 
ATOM      4  O   UNL A   1      36.437  23.048  22.788  1.00  0.00    -0.268 OA
ATOM      5  H   UNL A   1      38.321  23.560  24.011  1.00  0.00     0.163 HD
BRANCH   3   6
ATOM      6  C   UNL A   1      35.048  22.829  24.797  1.00  0.00     0.178 C 
ATOM      7  C   UNL A   1      35.194  21.508  25.573  1.00  0.00     0.079 C 
ATOM      8  C   UNL A   1      34.760  23.900  25.887  1.00  0.00     0.066 C 
ATOM      9  C   UNL A   1      34.405  21.668  26.867  1.00  0.00     0.008 C 
ATOM     10  C   UNL A   1      34.042  23.146  27.014  1.00  0.00     0.011 C 
BRANCH   6  11
ATOM     11  N   UNL A   1      33.961  22.803  23.777  1.00  0.00    -0.336 N 
ATOM     12  C   UNL A   1      33.070  21.664  23.719  1.00  0.00     0.331 C 
ATOM     13  H   UNL A   1      33.382  23.626  23.939  1.00  0.00     0.346 HD
ATOM     14  H   UNL A   1      34.464  22.760  22.891  1.00  0.00     0.346 HD
ENDBRANCH   6  11
BRANCH   8  15
ATOM     15  C   UNL A   1      33.985  25.140  25.388  1.00  0.00     0.072 C 
BRANCH  15  16
ATOM     16  C   UNL A   1      32.618  25.358  26.057  1.00  0.00     0.262 C 
BRANCH  16  17
ATOM     17  N   UNL A   1      32.042  26.713  25.935  1.00  0.00    -0.330 N 
ATOM     18  C   UNL A   1      32.502  27.640  26.977  1.00  0.00     0.262 C 
ATOM     19  C   UNL A   1      32.379  27.270  24.607  1.00  0.00     0.327 C 
ATOM     20  H   UNL A   1      31.033  26.614  26.050  1.00  0.00     0.348 HD
ATOM     21  C   UNL A   1      31.763  28.971  26.870  1.00  0.00     0.068 C 
ATOM     22  C   UNL A   1      31.738  28.656  24.307  1.00  0.00     0.239 C 
ATOM     23  C   UNL A   1      31.918  29.620  25.500  1.00  0.00     0.077 C 
BRANCH  22  24
ATOM     24  N   UNL A   1      30.353  28.658  23.772  1.00  0.00    -0.333 N 
ATOM     25  C   UNL A   1      29.827  30.021  23.645  1.00  0.00     0.332 C 
ATOM     26  C   UNL A   1      30.183  27.953  22.506  1.00  0.00     0.332 C 
ATOM     27  H   UNL A   1      29.818  28.139  24.468  1.00  0.00     0.348 HD
ENDBRANCH  22  24
ENDBRANCH  16  17
ENDBRANCH  15  16
ENDBRANCH   8  15
ENDBRANCH   3   6
ENDBRANCH   1   2
BRANCH   1  28
ATOM     28  C   UNL A   1      39.120  22.844  26.464  1.00  0.00     0.023 C 
BRANCH  28  29
ATOM     29  C   UNL A   1      39.354  21.547  25.686  1.00  0.00     0.023 C 
BRANCH  29  30
ATOM     30  C   UNL A   1      39.579  20.289  26.521  1.00  0.00     0.116 C 
BRANCH  30  31
ATOM     31  N   UNL A   1      40.624  19.423  26.001  1.00  0.00    -0.352 N 
ATOM     32  C   UNL A   1      41.984  19.626  25.950  1.00  0.00     0.251 C 
ATOM     33  H   UNL A   1      40.313  18.565  25.632  1.00  0.00     0.163 HD
ATOM     34  O   UNL A   1      42.708  18.802  25.405  1.00  0.00    -0.269 OA
BRANCH  32  35
ATOM     35  C   UNL A   1      42.562  20.876  26.492  1.00  0.00     0.039 A 
ATOM     36  C   UNL A   1      43.111  21.795  25.594  1.00  0.00     0.014 A 
ATOM     37  C   UNL A   1      42.535  21.159  27.860  1.00  0.00     0.014 A 
ATOM     38  C   UNL A   1      43.549  23.038  26.056  1.00  0.00     0.010 A 
ATOM     39  C   UNL A   1      42.917  22.422  28.310  1.00  0.00     0.010 A 
ATOM     40  C   UNL A   1      43.411  23.379  27.411  1.00  0.00    -0.014 A 
BRANCH  40  41
ATOM     41  C   UNL A   1      43.738  24.748  27.886  1.00  0.00     0.031 A 
ATOM     42  C   UNL A   1      42.649  25.746  28.154  1.00  0.00     0.074 A 
ATOM     43  C   UNL A   1      45.029  25.111  28.019  1.00  0.00     0.049 A 
ATOM     44  N   UNL A   1      42.752  26.994  28.539  1.00  0.00    -0.248 NA
ATOM     45  C   UNL A   1      41.266  25.292  27.945  1.00  0.00     0.031 C 
ATOM     46  C   UNL A   1      46.185  24.252  27.751  1.00  0.00     0.029 A 
ATOM     47  N   UNL A   1      45.586  26.304  28.409  1.00  0.00    -0.354 N 
ATOM     48  C   UNL A   1      41.452  27.477  28.605  1.00  0.00     0.074 A 
ATOM     49  C   UNL A   1      40.580  26.401  28.183  1.00  0.00     0.031 C 
ATOM     50  C   UNL A   1      47.311  24.938  28.006  1.00  0.00     0.029 A 
ATOM     51  C   UNL A   1      46.960  26.292  28.424  1.00  0.00     0.049 A 
ATOM     52  H   UNL A   1      45.052  27.093  28.654  1.00  0.00     0.167 HD
ATOM     53  C   UNL A   1      41.021  28.700  28.995  1.00  0.00     0.031 A 
ATOM     54  C   UNL A   1      47.841  27.261  28.737  1.00  0.00     0.031 A 
ATOM     55  C   UNL A   1      41.882  29.771  29.424  1.00  0.00     0.049 A 
ATOM     56  C   UNL A   1      47.336  28.609  29.162  1.00  0.00     0.074 A 
ATOM     57  C   UNL A   1      41.529  31.025  29.892  1.00  0.00     0.029 A 
ATOM     58  N   UNL A   1      43.266  29.714  29.434  1.00  0.00    -0.354 N 
ATOM     59  N   UNL A   1      46.101  29.027  29.285  1.00  0.00    -0.248 NA
ATOM     60  C   UNL A   1      48.351  29.618  29.501  1.00  0.00     0.031 C 
ATOM     61  C   UNL A   1      42.704  31.743  30.145  1.00  0.00     0.029 A 
ATOM     62  C   UNL A   1      43.784  30.919  29.879  1.00  0.00     0.049 A 
ATOM     63  H   UNL A   1      43.802  28.933  29.163  1.00  0.00     0.167 HD
ATOM     64  C   UNL A   1      46.187  30.336  29.740  1.00  0.00     0.074 A 
ATOM     65  C   UNL A   1      47.596  30.640  29.883  1.00  0.00     0.031 C 
ATOM     66  C   UNL A   1      45.188  31.208  30.015  1.00  0.00     0.031 A 
BRANCH  53  67
ATOM     67  C   UNL A   1      39.539  28.947  28.968  1.00  0.00    -0.014 A 
ATOM     68  C   UNL A   1      38.745  28.716  30.103  1.00  0.00     0.009 A 
ATOM     69  C   UNL A   1      38.935  29.448  27.804  1.00  0.00     0.009 A 
ATOM     70  C   UNL A   1      37.369  28.949  30.060  1.00  0.00     0.001 A 
ATOM     71  C   UNL A   1      37.563  29.703  27.774  1.00  0.00     0.001 A 
ATOM     72  C   UNL A   1      36.780  29.445  28.898  1.00  0.00     0.000 A 
ENDBRANCH  53  67
BRANCH  54  73
ATOM     73  C   UNL A   1      49.299  26.984  28.677  1.00  0.00    -0.014 A 
ATOM     74  C   UNL A   1      49.983  26.533  29.817  1.00  0.00     0.009 A 
ATOM     75  C   UNL A   1      50.015  27.175  27.486  1.00  0.00     0.009 A 
ATOM     76  C   UNL A   1      51.359  26.301  29.771  1.00  0.00     0.001 A 
ATOM     77  C   UNL A   1      51.386  26.919  27.437  1.00  0.00     0.001 A 
ATOM     78  C   UNL A   1      52.058  26.491  28.580  1.00  0.00     0.000 A 
ENDBRANCH  54  73
BRANCH  66  79
ATOM     79  C   UNL A   1      45.581  32.563  30.527  1.00  0.00    -0.014 A 
ATOM     80  C   UNL A   1      45.781  33.642  29.652  1.00  0.00     0.009 A 
ATOM     81  C   UNL A   1      45.719  32.771  31.909  1.00  0.00     0.009 A 
ATOM     82  C   UNL A   1      46.140  34.896  30.150  1.00  0.00     0.001 A 
ATOM     83  C   UNL A   1      46.053  34.031  32.405  1.00  0.00     0.001 A 
ATOM     84  C   UNL A   1      46.271  35.090  31.525  1.00  0.00     0.000 A 
ENDBRANCH  66  79
ENDBRANCH  40  41
ENDBRANCH  32  35
ENDBRANCH  30  31
ENDBRANCH  29  30
ENDBRANCH  28  29
ENDBRANCH   1  28
TORSDOF 16
ENDMDL
MODEL 3
REMARK VINA RESULT:     -10.8      2.143      4.505
REMARK SMILES C[NH2+][C@]1(C(=O)NCCCCNC(=O)c2ccc(-c3c4nc(c(-c5ccccc5)c5ccc([nH]5)c(-c5ccccc5)c5nc(c(-c6ccccc6)c6ccc3[nH]6)C=C5)C=C4)cc2)CCC[C@@H]1CC[N@H+]1CCC[C@H]([NH+](C)C)C1
REMARK SMILES IDX 7 1 6 2 4 3 5 4 3 6 62 7 65 8 63 9 64 10 2 11 1 12 66 15
REMARK SMILES IDX 67 16 68 17 69 18 76 19 70 21 72 22 71 23 73 24 74 25 75 26
REMARK SMILES IDX 8 28 9 29 10 30 11 31 12 32 13 34 14 35 15 36 61 37 16 38
REMARK SMILES IDX 60 39 17 40 18 41 19 42 54 43 20 44 59 45 53 46 55 47 21 48
REMARK SMILES IDX 58 49 52 50 51 51 22 53 44 54 29 55 43 56 30 57 33 58 42 59
REMARK SMILES IDX 56 60 31 61 32 62 41 64 57 65 34 66 23 67 24 68 28 69 25 70
REMARK SMILES IDX 27 71 26 72 45 73 46 74 50 75 47 76 49 77 48 78 35 79 36 80
REMARK SMILES IDX 40 81 37 82 39 83 38 84
REMARK H PARENT 6 5 2 13 2 14 68 20 73 27 11 33 55 52 33 63
REMARK Flexibility Score: inf
ROOT
ATOM      1  C   UNL A   1      37.773  23.721  26.018  1.00  0.00     0.116 C 
ENDROOT
BRANCH   1   2
ATOM      2  N   UNL A   1      37.415  23.449  24.636  1.00  0.00    -0.351 N 
ATOM      3  C   UNL A   1      36.241  23.080  24.048  1.00  0.00     0.281 C 
ATOM      4  O   UNL A   1      36.282  22.955  22.816  1.00  0.00    -0.268 OA
ATOM      5  H   UNL A   1      38.163  23.551  24.004  1.00  0.00     0.163 HD
BRANCH   3   6
ATOM      6  C   UNL A   1      34.916  22.769  24.845  1.00  0.00     0.178 C 
ATOM      7  C   UNL A   1      35.210  21.733  25.944  1.00  0.00     0.079 C 
ATOM      8  C   UNL A   1      34.398  24.021  25.608  1.00  0.00     0.066 C 
ATOM      9  C   UNL A   1      34.324  22.088  27.132  1.00  0.00     0.008 C 
ATOM     10  C   UNL A   1      33.732  23.475  26.876  1.00  0.00     0.011 C 
BRANCH   6  11
ATOM     11  N   UNL A   1      33.914  22.305  23.843  1.00  0.00    -0.336 N 
ATOM     12  C   UNL A   1      33.251  21.034  24.040  1.00  0.00     0.331 C 
ATOM     13  H   UNL A   1      33.185  23.017  23.799  1.00  0.00     0.346 HD
ATOM     14  H   UNL A   1      34.466  22.160  22.999  1.00  0.00     0.346 HD
ENDBRANCH   6  11
BRANCH   8  15
ATOM     15  C   UNL A   1      33.478  24.948  24.783  1.00  0.00     0.072 C 
BRANCH  15  16
ATOM     16  C   UNL A   1      32.107  25.228  25.419  1.00  0.00     0.262 C 
BRANCH  16  17
ATOM     17  N   UNL A   1      31.716  26.649  25.524  1.00  0.00    -0.330 N 
ATOM     18  C   UNL A   1      32.334  27.344  26.659  1.00  0.00     0.262 C 
ATOM     19  C   UNL A   1      32.076  27.349  24.271  1.00  0.00     0.327 C 
ATOM     20  H   UNL A   1      30.707  26.664  25.680  1.00  0.00     0.348 HD
ATOM     21  C   UNL A   1      31.779  28.760  26.784  1.00  0.00     0.068 C 
ATOM     22  C   UNL A   1      31.617  28.835  24.208  1.00  0.00     0.239 C 
ATOM     23  C   UNL A   1      31.969  29.580  25.514  1.00  0.00     0.077 C 
BRANCH  22  24
ATOM     24  N   UNL A   1      30.226  29.094  23.757  1.00  0.00    -0.333 N 
ATOM     25  C   UNL A   1      29.885  30.517  23.852  1.00  0.00     0.332 C 
ATOM     26  C   UNL A   1      29.916  28.609  22.417  1.00  0.00     0.332 C 
ATOM     27  H   UNL A   1      29.652  28.551  24.402  1.00  0.00     0.348 HD
ENDBRANCH  22  24
ENDBRANCH  16  17
ENDBRANCH  15  16
ENDBRANCH   8  15
ENDBRANCH   3   6
ENDBRANCH   1   2
BRANCH   1  28
ATOM     28  C   UNL A   1      38.946  22.870  26.498  1.00  0.00     0.023 C 
BRANCH  28  29
ATOM     29  C   UNL A   1      39.159  21.550  25.754  1.00  0.00     0.023 C 
BRANCH  29  30
ATOM     30  C   UNL A   1      39.758  20.405  26.566  1.00  0.00     0.116 C 
BRANCH  30  31
ATOM     31  N   UNL A   1      40.874  19.746  25.909  1.00  0.00    -0.352 N 
ATOM     32  C   UNL A   1      42.172  20.173  25.750  1.00  0.00     0.251 C 
ATOM     33  H   UNL A   1      40.672  18.863  25.522  1.00  0.00     0.163 HD
ATOM     34  O   UNL A   1      42.965  19.503  25.100  1.00  0.00    -0.269 OA
BRANCH  32  35
ATOM     35  C   UNL A   1      42.592  21.478  26.308  1.00  0.00     0.039 A 
ATOM     36  C   UNL A   1      42.858  22.522  25.419  1.00  0.00     0.014 A 
ATOM     37  C   UNL A   1      42.687  21.685  27.687  1.00  0.00     0.014 A 
ATOM     38  C   UNL A   1      43.131  23.800  25.913  1.00  0.00     0.010 A 
ATOM     39  C   UNL A   1      42.901  22.973  28.177  1.00  0.00     0.010 A 
ATOM     40  C   UNL A   1      43.108  24.045  27.296  1.00  0.00    -0.014 A 
BRANCH  40  41
ATOM     41  C   UNL A   1      43.252  25.425  27.824  1.00  0.00     0.031 A 
ATOM     42  C   UNL A   1      44.600  25.961  28.212  1.00  0.00     0.074 A 
ATOM     43  C   UNL A   1      42.151  26.181  28.010  1.00  0.00     0.049 A 
ATOM     44  N   UNL A   1      44.907  27.128  28.721  1.00  0.00    -0.248 NA
ATOM     45  C   UNL A   1      45.750  25.065  28.022  1.00  0.00     0.031 C 
ATOM     46  C   UNL A   1      40.778  25.767  27.714  1.00  0.00     0.029 A 
ATOM     47  N   UNL A   1      42.014  27.456  28.500  1.00  0.00    -0.354 N 
ATOM     48  C   UNL A   1      46.280  27.101  28.925  1.00  0.00     0.074 A 
ATOM     49  C   UNL A   1      46.741  25.789  28.521  1.00  0.00     0.031 C 
ATOM     50  C   UNL A   1      39.941  26.776  28.006  1.00  0.00     0.029 A 
ATOM     51  C   UNL A   1      40.713  27.895  28.539  1.00  0.00     0.049 A 
ATOM     52  H   UNL A   1      42.777  28.004  28.795  1.00  0.00     0.167 HD
ATOM     53  C   UNL A   1      47.088  28.083  29.392  1.00  0.00     0.031 A 
ATOM     54  C   UNL A   1      40.195  29.065  28.959  1.00  0.00     0.031 A 
ATOM     55  C   UNL A   1      46.637  29.391  29.787  1.00  0.00     0.049 A 
ATOM     56  C   UNL A   1      41.112  30.135  29.476  1.00  0.00     0.074 A 
ATOM     57  C   UNL A   1      47.392  30.469  30.217  1.00  0.00     0.029 A 
ATOM     58  N   UNL A   1      45.313  29.798  29.802  1.00  0.00    -0.354 N 
ATOM     59  N   UNL A   1      42.417  30.117  29.597  1.00  0.00    -0.248 NA
ATOM     60  C   UNL A   1      40.484  31.393  29.906  1.00  0.00     0.031 C 
ATOM     61  C   UNL A   1      46.518  31.516  30.534  1.00  0.00     0.029 A 
ATOM     62  C   UNL A   1      45.226  31.104  30.256  1.00  0.00     0.049 A 
ATOM     63  H   UNL A   1      44.547  29.241  29.531  1.00  0.00     0.167 HD
ATOM     64  C   UNL A   1      42.768  31.366  30.092  1.00  0.00     0.074 A 
ATOM     65  C   UNL A   1      41.542  32.122  30.237  1.00  0.00     0.031 C 
ATOM     66  C   UNL A   1      43.999  31.843  30.397  1.00  0.00     0.031 A 
BRANCH  53  67
ATOM     67  C   UNL A   1      48.553  27.771  29.508  1.00  0.00    -0.014 A 
ATOM     68  C   UNL A   1      49.443  28.074  28.465  1.00  0.00     0.009 A 
ATOM     69  C   UNL A   1      49.055  27.197  30.686  1.00  0.00     0.009 A 
ATOM     70  C   UNL A   1      50.802  27.776  28.588  1.00  0.00     0.001 A 
ATOM     71  C   UNL A   1      50.417  26.924  30.815  1.00  0.00     0.001 A 
ATOM     72  C   UNL A   1      51.287  27.205  29.763  1.00  0.00     0.000 A 
ENDBRANCH  53  67
BRANCH  54  73
ATOM     73  C   UNL A   1      38.730  29.295  28.890  1.00  0.00    -0.014 A 
ATOM     74  C   UNL A   1      37.932  29.137  30.033  1.00  0.00     0.009 A 
ATOM     75  C   UNL A   1      38.121  29.666  27.682  1.00  0.00     0.009 A 
ATOM     76  C   UNL A   1      36.550  29.324  29.963  1.00  0.00     0.001 A 
ATOM     77  C   UNL A   1      36.742  29.876  27.620  1.00  0.00     0.001 A 
ATOM     78  C   UNL A   1      35.957  29.697  28.757  1.00  0.00     0.000 A 
ENDBRANCH  54  73
BRANCH  66  79
ATOM     79  C   UNL A   1      44.082  33.259  30.890  1.00  0.00    -0.014 A 
ATOM     80  C   UNL A   1      44.149  34.338  29.995  1.00  0.00     0.009 A 
ATOM     81  C   UNL A   1      44.057  33.517  32.270  1.00  0.00     0.009 A 
ATOM     82  C   UNL A   1      44.218  35.648  30.476  1.00  0.00     0.001 A 
ATOM     83  C   UNL A   1      44.101  34.828  32.746  1.00  0.00     0.001 A 
ATOM     84  C   UNL A   1      44.191  35.891  31.849  1.00  0.00     0.000 A 
ENDBRANCH  66  79
ENDBRANCH  40  41
ENDBRANCH  32  35
ENDBRANCH  30  31
ENDBRANCH  29  30
ENDBRANCH  28  29
ENDBRANCH   1  28
TORSDOF 16
ENDMDL
