MODEL 1
REMARK VINA RESULT:     -13.4      0.000      0.000
REMARK SMILES Cc1ccccc1C(=O)Nc1ccc(OCC(=O)NCCCCNC(=O)c2ccc(-c3c4nc(c(-c5ccccc5)c5ccc([nH]5)c(-c5ccccc5)c5nc(c(-c6ccccc6)c6ccc3[nH]6)C=C5)C=C4)cc2)c(-c2nc3ccccc3s2)c1
REMARK SMILES IDX 20 1 19 2 17 3 18 4 16 6 15 7 14 8 11 9 12 10 85 11 13 12
REMARK SMILES IDX 75 13 10 14 8 15 9 16 7 18 1 19 2 20 3 21 4 22 6 23 5 24
REMARK SMILES IDX 76 25 77 26 84 27 78 28 83 29 79 30 82 31 80 32 81 33 21 34
REMARK SMILES IDX 22 35 23 36 24 37 25 38 26 40 27 41 28 42 74 43 29 44 73 45
REMARK SMILES IDX 30 46 31 47 32 48 67 49 33 50 72 51 66 52 68 53 34 54 71 55
REMARK SMILES IDX 65 56 64 57 35 59 57 60 42 61 56 62 43 63 46 64 55 65 69 66
REMARK SMILES IDX 44 67 45 68 54 70 70 71 47 72 36 73 37 74 41 75 38 76 40 77
REMARK SMILES IDX 39 78 58 79 59 80 63 81 60 82 62 83 61 84 48 85 49 86 53 87
REMARK SMILES IDX 50 88 52 89 51 90
REMARK H PARENT 19 5 10 17 24 39 68 58 46 69
REMARK Flexibility Score: inf
ROOT
ATOM      1  C   UNL A   1      35.030  30.791  27.679  1.00  0.00     0.116 C 
ENDROOT
BRANCH   1   2
ATOM      2  N   UNL A   1      33.675  30.321  27.885  1.00  0.00    -0.353 N 
ATOM      3  C   UNL A   1      32.949  29.401  27.186  1.00  0.00     0.257 C 
ATOM      4  O   UNL A   1      31.736  29.397  27.395  1.00  0.00    -0.271 OA
ATOM      5  H   UNL A   1      33.206  30.730  28.647  1.00  0.00     0.163 HD
BRANCH   3   6
ATOM      6  C   UNL A   1      33.669  28.394  26.250  1.00  0.00     0.329 C 
BRANCH   6   7
ATOM      7  O   UNL A   1      33.109  27.866  25.050  1.00  0.00    -0.483 OA
BRANCH   7   8
ATOM      8  C   UNL A   1      32.744  26.552  25.128  1.00  0.00     0.130 A 
ATOM      9  C   UNL A   1      32.161  23.825  25.301  1.00  0.00     0.042 A 
ATOM     10  C   UNL A   1      33.195  24.362  26.069  1.00  0.00     0.030 A 
ATOM     11  C   UNL A   1      31.336  24.680  24.568  1.00  0.00     0.041 A 
ATOM     12  C   UNL A   1      33.511  25.716  25.951  1.00  0.00     0.049 A 
ATOM     13  C   UNL A   1      31.579  26.071  24.501  1.00  0.00     0.055 A 
BRANCH   9  14
ATOM     14  N   UNL A   1      32.038  22.428  25.266  1.00  0.00    -0.322 N 
ATOM     15  C   UNL A   1      32.923  21.456  24.844  1.00  0.00     0.255 C 
ATOM     16  O   UNL A   1      32.515  20.297  24.739  1.00  0.00    -0.269 OA
ATOM     17  H   UNL A   1      31.178  22.085  25.599  1.00  0.00     0.170 HD
BRANCH  15  18
ATOM     18  C   UNL A   1      34.374  21.720  24.600  1.00  0.00     0.043 A 
ATOM     19  C   UNL A   1      34.062  23.190  22.511  1.00  0.00     0.045 C 
ATOM     20  C   UNL A   1      34.894  22.455  23.517  1.00  0.00    -0.038 A 
ATOM     21  C   UNL A   1      36.290  22.586  23.384  1.00  0.00     0.004 A 
ATOM     22  C   UNL A   1      37.152  22.125  24.376  1.00  0.00     0.000 A 
ATOM     23  C   UNL A   1      35.255  21.301  25.614  1.00  0.00     0.014 A 
ATOM     24  C   UNL A   1      36.631  21.516  25.510  1.00  0.00     0.001 A 
ENDBRANCH  15  18
ENDBRANCH   9  14
BRANCH  13  25
ATOM     25  C   UNL A   1      30.615  26.884  23.719  1.00  0.00     0.128 A 
ATOM     26  N   UNL A   1      30.991  27.834  22.879  1.00  0.00    -0.236 NA
ATOM     27  S   UNL A   1      28.902  26.702  23.812  1.00  0.00    -0.114 S 
ATOM     28  C   UNL A   1      29.914  28.642  22.563  1.00  0.00     0.082 A 
ATOM     29  C   UNL A   1      28.693  28.240  23.097  1.00  0.00     0.055 A 
ATOM     30  C   UNL A   1      29.963  29.828  21.810  1.00  0.00     0.030 A 
ATOM     31  C   UNL A   1      27.536  29.025  23.002  1.00  0.00     0.021 A 
ATOM     32  C   UNL A   1      28.814  30.618  21.695  1.00  0.00     0.002 A 
ATOM     33  C   UNL A   1      27.625  30.232  22.308  1.00  0.00     0.002 A 
ENDBRANCH  13  25
ENDBRANCH   7   8
ENDBRANCH   6   7
ENDBRANCH   3   6
ENDBRANCH   1   2
BRANCH   1  34
ATOM     34  C   UNL A   1      35.142  32.295  27.953  1.00  0.00     0.023 C 
BRANCH  34  35
ATOM     35  C   UNL A   1      34.623  32.736  29.327  1.00  0.00     0.023 C 
BRANCH  35  36
ATOM     36  C   UNL A   1      34.423  34.230  29.505  1.00  0.00     0.116 C 
BRANCH  36  37
ATOM     37  N   UNL A   1      33.597  34.615  30.634  1.00  0.00    -0.352 N 
ATOM     38  C   UNL A   1      33.848  34.464  31.992  1.00  0.00     0.251 C 
ATOM     39  H   UNL A   1      32.740  35.043  30.405  1.00  0.00     0.163 HD
ATOM     40  O   UNL A   1      33.018  34.801  32.807  1.00  0.00    -0.269 OA
BRANCH  38  41
ATOM     41  C   UNL A   1      35.201  34.020  32.435  1.00  0.00     0.039 A 
ATOM     42  C   UNL A   1      36.281  34.864  32.152  1.00  0.00     0.014 A 
ATOM     43  C   UNL A   1      35.434  32.734  32.916  1.00  0.00     0.014 A 
ATOM     44  C   UNL A   1      37.565  34.327  32.084  1.00  0.00     0.010 A 
ATOM     45  C   UNL A   1      36.685  32.174  32.757  1.00  0.00     0.010 A 
ATOM     46  C   UNL A   1      37.733  32.953  32.269  1.00  0.00    -0.014 A 
BRANCH  46  47
ATOM     47  C   UNL A   1      38.958  32.254  31.911  1.00  0.00     0.031 A 
ATOM     48  C   UNL A   1      38.875  31.034  31.084  1.00  0.00     0.074 A 
ATOM     49  C   UNL A   1      40.161  32.689  32.355  1.00  0.00     0.049 A 
ATOM     50  N   UNL A   1      39.615  29.991  31.263  1.00  0.00    -0.248 NA
ATOM     51  C   UNL A   1      37.912  30.887  29.994  1.00  0.00     0.031 C 
ATOM     52  C   UNL A   1      41.467  32.123  32.018  1.00  0.00     0.029 A 
ATOM     53  N   UNL A   1      40.460  33.604  33.370  1.00  0.00    -0.354 N 
ATOM     54  C   UNL A   1      39.446  29.189  30.158  1.00  0.00     0.074 A 
ATOM     55  C   UNL A   1      38.310  29.733  29.449  1.00  0.00     0.031 C 
ATOM     56  C   UNL A   1      42.328  32.426  33.004  1.00  0.00     0.029 A 
ATOM     57  C   UNL A   1      41.563  33.076  34.055  1.00  0.00     0.049 A 
ATOM     58  H   UNL A   1      39.992  34.448  33.562  1.00  0.00     0.167 HD
ATOM     59  C   UNL A   1      40.376  28.248  29.843  1.00  0.00     0.031 A 
ATOM     60  C   UNL A   1      41.547  32.691  35.366  1.00  0.00     0.031 A 
ATOM     61  C   UNL A   1      41.499  28.251  30.770  1.00  0.00     0.049 A 
ATOM     62  C   UNL A   1      41.939  31.237  35.567  1.00  0.00     0.074 A 
ATOM     63  C   UNL A   1      42.759  28.826  30.703  1.00  0.00     0.029 A 
ATOM     64  N   UNL A   1      41.299  27.893  32.096  1.00  0.00    -0.354 N 
ATOM     65  N   UNL A   1      41.944  30.352  34.609  1.00  0.00    -0.248 NA
ATOM     66  C   UNL A   1      42.305  30.651  36.857  1.00  0.00     0.031 C 
ATOM     67  C   UNL A   1      43.292  28.869  32.015  1.00  0.00     0.029 A 
ATOM     68  C   UNL A   1      42.371  28.293  32.871  1.00  0.00     0.049 A 
ATOM     69  H   UNL A   1      40.506  27.419  32.436  1.00  0.00     0.167 HD
ATOM     70  C   UNL A   1      42.310  29.127  35.105  1.00  0.00     0.074 A 
ATOM     71  C   UNL A   1      42.531  29.367  36.519  1.00  0.00     0.031 C 
ATOM     72  C   UNL A   1      42.394  28.023  34.302  1.00  0.00     0.031 A 
BRANCH  59  73
ATOM     73  C   UNL A   1      40.390  27.584  28.493  1.00  0.00    -0.014 A 
ATOM     74  C   UNL A   1      39.774  26.333  28.316  1.00  0.00     0.009 A 
ATOM     75  C   UNL A   1      41.042  28.131  27.374  1.00  0.00     0.009 A 
ATOM     76  C   UNL A   1      39.887  25.619  27.118  1.00  0.00     0.001 A 
ATOM     77  C   UNL A   1      41.189  27.405  26.184  1.00  0.00     0.001 A 
ATOM     78  C   UNL A   1      40.620  26.142  26.061  1.00  0.00     0.000 A 
ENDBRANCH  59  73
BRANCH  60  79
ATOM     79  C   UNL A   1      40.572  33.428  36.213  1.00  0.00    -0.014 A 
ATOM     80  C   UNL A   1      39.557  32.692  36.855  1.00  0.00     0.009 A 
ATOM     81  C   UNL A   1      40.857  34.719  36.675  1.00  0.00     0.009 A 
ATOM     82  C   UNL A   1      38.938  33.182  38.009  1.00  0.00     0.001 A 
ATOM     83  C   UNL A   1      40.227  35.209  37.826  1.00  0.00     0.001 A 
ATOM     84  C   UNL A   1      39.302  34.426  38.516  1.00  0.00     0.000 A 
ENDBRANCH  60  79
BRANCH  72  85
ATOM     85  C   UNL A   1      42.587  26.590  34.743  1.00  0.00    -0.014 A 
ATOM     86  C   UNL A   1      41.648  25.841  35.462  1.00  0.00     0.009 A 
ATOM     87  C   UNL A   1      43.739  25.894  34.303  1.00  0.00     0.009 A 
ATOM     88  C   UNL A   1      41.866  24.487  35.759  1.00  0.00     0.001 A 
ATOM     89  C   UNL A   1      43.939  24.536  34.556  1.00  0.00     0.001 A 
ATOM     90  C   UNL A   1      43.004  23.832  35.297  1.00  0.00     0.000 A 
ENDBRANCH  72  85
ENDBRANCH  46  47
ENDBRANCH  38  41
ENDBRANCH  36  37
ENDBRANCH  35  36
ENDBRANCH  34  35
ENDBRANCH   1  34
TORSDOF 16
ENDMDL
MODEL 2
REMARK VINA RESULT:     -13.4      4.792     10.413
REMARK SMILES Cc1ccccc1C(=O)Nc1ccc(OCC(=O)NCCCCNC(=O)c2ccc(-c3c4nc(c(-c5ccccc5)c5ccc([nH]5)c(-c5ccccc5)c5nc(c(-c6ccccc6)c6ccc3[nH]6)C=C5)C=C4)cc2)c(-c2nc3ccccc3s2)c1
REMARK SMILES IDX 20 1 19 2 17 3 18 4 16 6 15 7 14 8 11 9 12 10 85 11 13 12
REMARK SMILES IDX 75 13 10 14 8 15 9 16 7 18 1 19 2 20 3 21 4 22 6 23 5 24
REMARK SMILES IDX 76 25 77 26 84 27 78 28 83 29 79 30 82 31 80 32 81 33 21 34
REMARK SMILES IDX 22 35 23 36 24 37 25 38 26 40 27 41 28 42 74 43 29 44 73 45
REMARK SMILES IDX 30 46 31 47 32 48 67 49 33 50 72 51 66 52 68 53 34 54 71 55
REMARK SMILES IDX 65 56 64 57 35 59 57 60 42 61 56 62 43 63 46 64 55 65 69 66
REMARK SMILES IDX 44 67 45 68 54 70 70 71 47 72 36 73 37 74 41 75 38 76 40 77
REMARK SMILES IDX 39 78 58 79 59 80 63 81 60 82 62 83 61 84 48 85 49 86 53 87
REMARK SMILES IDX 50 88 52 89 51 90
REMARK H PARENT 19 5 10 17 24 39 68 58 46 69
REMARK Flexibility Score: inf
ROOT
ATOM      1  C   UNL A   1      38.699  22.561  26.104  1.00  0.00     0.116 C 
ENDROOT
BRANCH   1   2
ATOM      2  N   UNL A   1      37.904  21.570  25.406  1.00  0.00    -0.353 N 
ATOM      3  C   UNL A   1      36.574  21.283  25.506  1.00  0.00     0.257 C 
ATOM      4  O   UNL A   1      36.213  20.214  25.015  1.00  0.00    -0.271 OA
ATOM      5  H   UNL A   1      38.401  21.020  24.760  1.00  0.00     0.163 HD
BRANCH   3   6
ATOM      6  C   UNL A   1      35.604  22.312  26.147  1.00  0.00     0.329 C 
BRANCH   6   7
ATOM      7  O   UNL A   1      34.289  22.006  26.603  1.00  0.00    -0.483 OA
BRANCH   7   8
ATOM      8  C   UNL A   1      33.297  22.712  25.984  1.00  0.00     0.130 A 
ATOM      9  C   UNL A   1      31.268  24.260  24.849  1.00  0.00     0.042 A 
ATOM     10  C   UNL A   1      32.296  24.880  25.559  1.00  0.00     0.030 A 
ATOM     11  C   UNL A   1      31.343  22.890  24.587  1.00  0.00     0.041 A 
ATOM     12  C   UNL A   1      33.287  24.102  26.160  1.00  0.00     0.049 A 
ATOM     13  C   UNL A   1      32.386  22.090  25.110  1.00  0.00     0.055 A 
BRANCH   9  14
ATOM     14  N   UNL A   1      30.172  25.050  24.474  1.00  0.00    -0.322 N 
ATOM     15  C   UNL A   1      30.103  26.378  24.099  1.00  0.00     0.255 C 
ATOM     16  O   UNL A   1      28.992  26.900  23.989  1.00  0.00    -0.269 OA
ATOM     17  H   UNL A   1      29.307  24.579  24.478  1.00  0.00     0.170 HD
BRANCH  15  18
ATOM     18  C   UNL A   1      31.305  27.185  23.726  1.00  0.00     0.043 A 
ATOM     19  C   UNL A   1      31.792  25.984  21.503  1.00  0.00     0.045 C 
ATOM     20  C   UNL A   1      32.102  26.974  22.584  1.00  0.00    -0.038 A 
ATOM     21  C   UNL A   1      33.237  27.782  22.380  1.00  0.00     0.004 A 
ATOM     22  C   UNL A   1      33.501  28.871  23.207  1.00  0.00     0.000 A 
ATOM     23  C   UNL A   1      31.560  28.315  24.525  1.00  0.00     0.014 A 
ATOM     24  C   UNL A   1      32.639  29.160  24.258  1.00  0.00     0.001 A 
ENDBRANCH  15  18
ENDBRANCH   9  14
BRANCH  13  25
ATOM     25  C   UNL A   1      32.380  20.654  24.738  1.00  0.00     0.128 A 
ATOM     26  N   UNL A   1      32.304  19.680  25.629  1.00  0.00    -0.236 NA
ATOM     27  S   UNL A   1      32.481  20.079  23.114  1.00  0.00    -0.114 S 
ATOM     28  C   UNL A   1      32.664  18.477  25.050  1.00  0.00     0.082 A 
ATOM     29  C   UNL A   1      32.923  18.530  23.684  1.00  0.00     0.055 A 
ATOM     30  C   UNL A   1      32.831  17.253  25.722  1.00  0.00     0.030 A 
ATOM     31  C   UNL A   1      33.445  17.439  22.975  1.00  0.00     0.021 A 
ATOM     32  C   UNL A   1      33.340  16.151  25.028  1.00  0.00     0.002 A 
ATOM     33  C   UNL A   1      33.668  16.253  23.678  1.00  0.00     0.002 A 
ENDBRANCH  13  25
ENDBRANCH   7   8
ENDBRANCH   6   7
ENDBRANCH   3   6
ENDBRANCH   1   2
BRANCH   1  34
ATOM     34  C   UNL A   1      39.880  21.909  26.832  1.00  0.00     0.023 C 
BRANCH  34  35
ATOM     35  C   UNL A   1      41.212  21.970  26.076  1.00  0.00     0.023 C 
BRANCH  35  36
ATOM     36  C   UNL A   1      42.204  20.868  26.402  1.00  0.00     0.116 C 
BRANCH  36  37
ATOM     37  N   UNL A   1      43.051  20.451  25.301  1.00  0.00    -0.352 N 
ATOM     38  C   UNL A   1      44.121  21.121  24.719  1.00  0.00     0.251 C 
ATOM     39  H   UNL A   1      42.839  19.571  24.913  1.00  0.00     0.163 HD
ATOM     40  O   UNL A   1      44.694  20.643  23.766  1.00  0.00    -0.269 OA
BRANCH  38  41
ATOM     41  C   UNL A   1      44.644  22.356  25.371  1.00  0.00     0.039 A 
ATOM     42  C   UNL A   1      45.188  22.227  26.653  1.00  0.00     0.014 A 
ATOM     43  C   UNL A   1      44.417  23.622  24.837  1.00  0.00     0.014 A 
ATOM     44  C   UNL A   1      45.236  23.343  27.487  1.00  0.00     0.010 A 
ATOM     45  C   UNL A   1      44.371  24.710  25.686  1.00  0.00     0.010 A 
ATOM     46  C   UNL A   1      44.708  24.551  27.029  1.00  0.00    -0.014 A 
BRANCH  46  47
ATOM     47  C   UNL A   1      44.422  25.671  27.913  1.00  0.00     0.031 A 
ATOM     48  C   UNL A   1      43.055  26.230  27.948  1.00  0.00     0.074 A 
ATOM     49  C   UNL A   1      45.398  26.224  28.673  1.00  0.00     0.049 A 
ATOM     50  N   UNL A   1      42.795  27.491  28.044  1.00  0.00    -0.248 NA
ATOM     51  C   UNL A   1      41.861  25.392  27.845  1.00  0.00     0.031 C 
ATOM     52  C   UNL A   1      45.233  27.303  29.647  1.00  0.00     0.029 A 
ATOM     53  N   UNL A   1      46.786  26.080  28.585  1.00  0.00    -0.354 N 
ATOM     54  C   UNL A   1      41.451  27.600  28.318  1.00  0.00     0.074 A 
ATOM     55  C   UNL A   1      40.896  26.286  28.086  1.00  0.00     0.031 C 
ATOM     56  C   UNL A   1      46.412  27.930  29.789  1.00  0.00     0.029 A 
ATOM     57  C   UNL A   1      47.323  27.355  28.813  1.00  0.00     0.049 A 
ATOM     58  H   UNL A   1      47.284  25.251  28.402  1.00  0.00     0.167 HD
ATOM     59  C   UNL A   1      40.955  28.734  28.882  1.00  0.00     0.031 A 
ATOM     60  C   UNL A   1      48.039  28.067  27.893  1.00  0.00     0.031 A 
ATOM     61  C   UNL A   1      41.995  29.716  29.154  1.00  0.00     0.049 A 
ATOM     62  C   UNL A   1      47.434  29.427  27.586  1.00  0.00     0.074 A 
ATOM     63  C   UNL A   1      42.701  30.029  30.304  1.00  0.00     0.029 A 
ATOM     64  N   UNL A   1      42.679  30.305  28.098  1.00  0.00    -0.354 N 
ATOM     65  N   UNL A   1      46.203  29.751  27.873  1.00  0.00    -0.248 NA
ATOM     66  C   UNL A   1      48.138  30.508  26.894  1.00  0.00     0.031 C 
ATOM     67  C   UNL A   1      43.856  30.759  29.927  1.00  0.00     0.029 A 
ATOM     68  C   UNL A   1      43.832  30.915  28.552  1.00  0.00     0.049 A 
ATOM     69  H   UNL A   1      42.384  30.289  27.159  1.00  0.00     0.167 HD
ATOM     70  C   UNL A   1      45.943  31.027  27.446  1.00  0.00     0.074 A 
ATOM     71  C   UNL A   1      47.189  31.462  26.843  1.00  0.00     0.031 C 
ATOM     72  C   UNL A   1      44.719  31.609  27.627  1.00  0.00     0.031 A 
BRANCH  59  73
ATOM     73  C   UNL A   1      39.575  28.769  29.481  1.00  0.00    -0.014 A 
ATOM     74  C   UNL A   1      38.498  29.288  28.741  1.00  0.00     0.009 A 
ATOM     75  C   UNL A   1      39.296  28.347  30.792  1.00  0.00     0.009 A 
ATOM     76  C   UNL A   1      37.233  29.470  29.311  1.00  0.00     0.001 A 
ATOM     77  C   UNL A   1      38.041  28.560  31.379  1.00  0.00     0.001 A 
ATOM     78  C   UNL A   1      37.012  29.133  30.640  1.00  0.00     0.000 A 
ENDBRANCH  59  73
BRANCH  60  79
ATOM     79  C   UNL A   1      48.786  27.235  26.913  1.00  0.00    -0.014 A 
ATOM     80  C   UNL A   1      48.435  27.332  25.552  1.00  0.00     0.009 A 
ATOM     81  C   UNL A   1      50.025  26.674  27.246  1.00  0.00     0.009 A 
ATOM     82  C   UNL A   1      49.353  27.002  24.551  1.00  0.00     0.001 A 
ATOM     83  C   UNL A   1      50.938  26.335  26.239  1.00  0.00     0.001 A 
ATOM     84  C   UNL A   1      50.619  26.539  24.897  1.00  0.00     0.000 A 
ENDBRANCH  60  79
BRANCH  72  85
ATOM     85  C   UNL A   1      44.236  32.915  27.038  1.00  0.00    -0.014 A 
ATOM     86  C   UNL A   1      44.038  33.152  25.673  1.00  0.00     0.009 A 
ATOM     87  C   UNL A   1      43.832  33.948  27.919  1.00  0.00     0.009 A 
ATOM     88  C   UNL A   1      43.504  34.365  25.212  1.00  0.00     0.001 A 
ATOM     89  C   UNL A   1      43.257  35.138  27.469  1.00  0.00     0.001 A 
ATOM     90  C   UNL A   1      43.103  35.351  26.108  1.00  0.00     0.000 A 
ENDBRANCH  72  85
ENDBRANCH  46  47
ENDBRANCH  38  41
ENDBRANCH  36  37
ENDBRANCH  35  36
ENDBRANCH  34  35
ENDBRANCH   1  34
TORSDOF 16
ENDMDL
MODEL 3
REMARK VINA RESULT:     -13.1      2.011      3.297
REMARK SMILES Cc1ccccc1C(=O)Nc1ccc(OCC(=O)NCCCCNC(=O)c2ccc(-c3c4nc(c(-c5ccccc5)c5ccc([nH]5)c(-c5ccccc5)c5nc(c(-c6ccccc6)c6ccc3[nH]6)C=C5)C=C4)cc2)c(-c2nc3ccccc3s2)c1
REMARK SMILES IDX 20 1 19 2 17 3 18 4 16 6 15 7 14 8 11 9 12 10 85 11 13 12
REMARK SMILES IDX 75 13 10 14 8 15 9 16 7 18 1 19 2 20 3 21 4 22 6 23 5 24
REMARK SMILES IDX 76 25 77 26 84 27 78 28 83 29 79 30 82 31 80 32 81 33 21 34
REMARK SMILES IDX 22 35 23 36 24 37 25 38 26 40 27 41 28 42 74 43 29 44 73 45
REMARK SMILES IDX 30 46 31 47 32 48 67 49 33 50 72 51 66 52 68 53 34 54 71 55
REMARK SMILES IDX 65 56 64 57 35 59 57 60 42 61 56 62 43 63 46 64 55 65 69 66
REMARK SMILES IDX 44 67 45 68 54 70 70 71 47 72 36 73 37 74 41 75 38 76 40 77
REMARK SMILES IDX 39 78 58 79 59 80 63 81 60 82 62 83 61 84 48 85 49 86 53 87
REMARK SMILES IDX 50 88 52 89 51 90
REMARK H PARENT 19 5 10 17 24 39 68 58 46 69
REMARK Flexibility Score: inf
ROOT
ATOM      1  C   UNL A   1      32.829  30.502  26.837  1.00  0.00     0.116 C 
ENDROOT
BRANCH   1   2
ATOM      2  N   UNL A   1      33.174  29.850  25.589  1.00  0.00    -0.353 N 
ATOM      3  C   UNL A   1      33.470  28.543  25.334  1.00  0.00     0.257 C 
ATOM      4  O   UNL A   1      34.003  28.310  24.249  1.00  0.00    -0.271 OA
ATOM      5  H   UNL A   1      33.199  30.444  24.804  1.00  0.00     0.163 HD
BRANCH   3   6
ATOM      6  C   UNL A   1      33.071  27.444  26.355  1.00  0.00     0.329 C 
BRANCH   6   7
ATOM      7  O   UNL A   1      31.756  26.915  26.499  1.00  0.00    -0.483 OA
BRANCH   7   8
ATOM      8  C   UNL A   1      31.614  25.627  26.066  1.00  0.00     0.130 A 
ATOM      9  C   UNL A   1      31.474  22.959  25.251  1.00  0.00     0.042 A 
ATOM     10  C   UNL A   1      32.014  23.274  26.498  1.00  0.00     0.030 A 
ATOM     11  C   UNL A   1      30.876  23.964  24.489  1.00  0.00     0.041 A 
ATOM     12  C   UNL A   1      32.121  24.611  26.887  1.00  0.00     0.049 A 
ATOM     13  C   UNL A   1      30.890  25.317  24.899  1.00  0.00     0.055 A 
BRANCH   9  14
ATOM     14  N   UNL A   1      31.609  21.637  24.802  1.00  0.00    -0.322 N 
ATOM     15  C   UNL A   1      32.679  20.990  24.214  1.00  0.00     0.255 C 
ATOM     16  O   UNL A   1      32.495  19.868  23.737  1.00  0.00    -0.269 OA
ATOM     17  H   UNL A   1      30.809  21.078  24.928  1.00  0.00     0.170 HD
BRANCH  15  18
ATOM     18  C   UNL A   1      34.068  21.541  24.213  1.00  0.00     0.043 A 
ATOM     19  C   UNL A   1      33.694  23.292  22.365  1.00  0.00     0.045 C 
ATOM     20  C   UNL A   1      34.544  22.540  23.343  1.00  0.00    -0.038 A 
ATOM     21  C   UNL A   1      35.895  22.932  23.421  1.00  0.00     0.004 A 
ATOM     22  C   UNL A   1      36.723  22.453  24.433  1.00  0.00     0.000 A 
ATOM     23  C   UNL A   1      34.905  21.102  25.256  1.00  0.00     0.014 A 
ATOM     24  C   UNL A   1      36.216  21.566  25.374  1.00  0.00     0.001 A 
ENDBRANCH  15  18
ENDBRANCH   9  14
BRANCH  13  25
ATOM     25  C   UNL A   1      30.194  26.292  24.024  1.00  0.00     0.128 A 
ATOM     26  N   UNL A   1      30.835  27.154  23.255  1.00  0.00    -0.236 NA
ATOM     27  S   UNL A   1      28.478  26.428  23.908  1.00  0.00    -0.114 S 
ATOM     28  C   UNL A   1      29.972  28.146  22.828  1.00  0.00     0.082 A 
ATOM     29  C   UNL A   1      28.642  27.976  23.205  1.00  0.00     0.055 A 
ATOM     30  C   UNL A   1      30.327  29.301  22.110  1.00  0.00     0.030 A 
ATOM     31  C   UNL A   1      27.668  28.961  22.988  1.00  0.00     0.021 A 
ATOM     32  C   UNL A   1      29.366  30.289  21.874  1.00  0.00     0.002 A 
ATOM     33  C   UNL A   1      28.060  30.130  22.333  1.00  0.00     0.002 A 
ENDBRANCH  13  25
ENDBRANCH   7   8
ENDBRANCH   6   7
ENDBRANCH   3   6
ENDBRANCH   1   2
BRANCH   1  34
ATOM     34  C   UNL A   1      34.081  31.018  27.555  1.00  0.00     0.023 C 
BRANCH  34  35
ATOM     35  C   UNL A   1      33.963  32.444  28.104  1.00  0.00     0.023 C 
BRANCH  35  36
ATOM     36  C   UNL A   1      35.170  32.958  28.867  1.00  0.00     0.116 C 
BRANCH  36  37
ATOM     37  N   UNL A   1      35.160  32.699  30.294  1.00  0.00    -0.352 N 
ATOM     38  C   UNL A   1      35.757  31.660  30.998  1.00  0.00     0.251 C 
ATOM     39  H   UNL A   1      34.661  33.349  30.839  1.00  0.00     0.163 HD
ATOM     40  O   UNL A   1      35.605  31.569  32.196  1.00  0.00    -0.269 OA
BRANCH  38  41
ATOM     41  C   UNL A   1      36.701  30.751  30.287  1.00  0.00     0.039 A 
ATOM     42  C   UNL A   1      36.951  29.502  30.866  1.00  0.00     0.014 A 
ATOM     43  C   UNL A   1      37.474  31.184  29.212  1.00  0.00     0.014 A 
ATOM     44  C   UNL A   1      38.133  28.831  30.555  1.00  0.00     0.010 A 
ATOM     45  C   UNL A   1      38.689  30.576  28.971  1.00  0.00     0.010 A 
ATOM     46  C   UNL A   1      39.050  29.443  29.697  1.00  0.00    -0.014 A 
BRANCH  46  47
ATOM     47  C   UNL A   1      40.425  28.987  29.561  1.00  0.00     0.031 A 
ATOM     48  C   UNL A   1      40.691  27.682  28.923  1.00  0.00     0.074 A 
ATOM     49  C   UNL A   1      41.453  29.727  30.043  1.00  0.00     0.049 A 
ATOM     50  N   UNL A   1      41.600  26.857  29.323  1.00  0.00    -0.248 NA
ATOM     51  C   UNL A   1      39.917  27.193  27.783  1.00  0.00     0.031 C 
ATOM     52  C   UNL A   1      42.877  29.419  29.915  1.00  0.00     0.029 A 
ATOM     53  N   UNL A   1      41.435  30.806  30.931  1.00  0.00    -0.354 N 
ATOM     54  C   UNL A   1      41.732  25.904  28.340  1.00  0.00     0.074 A 
ATOM     55  C   UNL A   1      40.604  26.093  27.456  1.00  0.00     0.031 C 
ATOM     56  C   UNL A   1      43.534  30.025  30.918  1.00  0.00     0.029 A 
ATOM     57  C   UNL A   1      42.532  30.622  31.786  1.00  0.00     0.049 A 
ATOM     58  H   UNL A   1      40.786  31.546  30.951  1.00  0.00     0.167 HD
ATOM     59  C   UNL A   1      42.865  25.155  28.256  1.00  0.00     0.031 A 
ATOM     60  C   UNL A   1      42.435  30.413  33.133  1.00  0.00     0.031 A 
ATOM     61  C   UNL A   1      43.844  25.521  29.270  1.00  0.00     0.049 A 
ATOM     62  C   UNL A   1      43.086  29.117  33.585  1.00  0.00     0.074 A 
ATOM     63  C   UNL A   1      44.960  26.342  29.233  1.00  0.00     0.029 A 
ATOM     64  N   UNL A   1      43.561  25.299  30.612  1.00  0.00    -0.354 N 
ATOM     65  N   UNL A   1      43.386  28.139  32.775  1.00  0.00    -0.248 NA
ATOM     66  C   UNL A   1      43.405  28.794  34.976  1.00  0.00     0.031 C 
ATOM     67  C   UNL A   1      45.310  26.667  30.567  1.00  0.00     0.029 A 
ATOM     68  C   UNL A   1      44.427  26.019  31.412  1.00  0.00     0.049 A 
ATOM     69  H   UNL A   1      42.845  24.712  30.945  1.00  0.00     0.167 HD
ATOM     70  C   UNL A   1      43.930  27.097  33.481  1.00  0.00     0.074 A 
ATOM     71  C   UNL A   1      43.925  27.557  34.857  1.00  0.00     0.031 C 
ATOM     72  C   UNL A   1      44.332  25.945  32.864  1.00  0.00     0.031 A 
BRANCH  59  73
ATOM     73  C   UNL A   1      43.176  24.344  27.028  1.00  0.00    -0.014 A 
ATOM     74  C   UNL A   1      43.946  24.901  25.992  1.00  0.00     0.009 A 
ATOM     75  C   UNL A   1      42.690  23.042  26.823  1.00  0.00     0.009 A 
ATOM     76  C   UNL A   1      44.138  24.236  24.776  1.00  0.00     0.001 A 
ATOM     77  C   UNL A   1      42.848  22.385  25.595  1.00  0.00     0.001 A 
ATOM     78  C   UNL A   1      43.563  22.988  24.566  1.00  0.00     0.000 A 
ENDBRANCH  59  73
BRANCH  60  79
ATOM     79  C   UNL A   1      41.237  31.023  33.767  1.00  0.00    -0.014 A 
ATOM     80  C   UNL A   1      41.215  32.421  33.943  1.00  0.00     0.009 A 
ATOM     81  C   UNL A   1      40.027  30.321  33.837  1.00  0.00     0.009 A 
ATOM     82  C   UNL A   1      40.003  33.110  34.053  1.00  0.00     0.001 A 
ATOM     83  C   UNL A   1      38.816  31.015  33.957  1.00  0.00     0.001 A 
ATOM     84  C   UNL A   1      38.802  32.408  34.021  1.00  0.00     0.000 A 
ENDBRANCH  60  79
BRANCH  72  85
ATOM     85  C   UNL A   1      44.756  24.656  33.531  1.00  0.00    -0.014 A 
ATOM     86  C   UNL A   1      43.962  23.507  33.628  1.00  0.00     0.009 A 
ATOM     87  C   UNL A   1      46.091  24.536  33.987  1.00  0.00     0.009 A 
ATOM     88  C   UNL A   1      44.461  22.320  34.187  1.00  0.00     0.001 A 
ATOM     89  C   UNL A   1      46.606  23.344  34.500  1.00  0.00     0.001 A 
ATOM     90  C   UNL A   1      45.784  22.235  34.611  1.00  0.00     0.000 A 
ENDBRANCH  72  85
ENDBRANCH  46  47
ENDBRANCH  38  41
ENDBRANCH  36  37
ENDBRANCH  35  36
ENDBRANCH  34  35
ENDBRANCH   1  34
TORSDOF 16
ENDMDL
