MODEL 1
REMARK VINA RESULT:     -11.9      0.000      0.000
REMARK SMILES CC(=O)N/C(=C/c1c[nH]c(-c2ccccc2)n1)C(=O)NCCCCNC(=O)c1ccc(-c2c3nc(c(-c4ccccc4)c4ccc([nH]4)c(-c4ccccc4)c4nc(c(-c5ccccc5)c5ccc2[nH]5)C=C4)C=C3)cc1
REMARK SMILES IDX 22 1 21 2 20 3 18 4 19 5 5 7 6 8 4 9 1 10 2 11 3 12 7 14
REMARK SMILES IDX 8 15 17 16 9 17 10 18 11 20 12 21 16 22 13 23 15 24 14 25
REMARK SMILES IDX 23 26 24 27 25 28 26 29 27 31 28 32 29 33 75 34 30 35 74 36
REMARK SMILES IDX 31 37 32 38 33 39 68 40 34 41 73 42 67 43 69 44 35 45 72 46
REMARK SMILES IDX 66 47 65 48 36 50 58 51 43 52 57 53 44 54 47 55 56 56 70 57
REMARK SMILES IDX 45 58 46 59 55 61 71 62 48 63 37 64 38 65 42 66 39 67 41 68
REMARK SMILES IDX 40 69 59 70 60 71 64 72 61 73 63 74 62 75 49 76 50 77 54 78
REMARK SMILES IDX 51 79 53 80 52 81
REMARK H PARENT 20 6 4 13 9 19 25 30 69 49 47 60
REMARK Flexibility Score: inf
ROOT
ATOM      1  C   UNL A   1      35.709  22.458  24.614  1.00  0.00     0.023 C 
ENDROOT
BRANCH   1   2
ATOM      2  C   UNL A   1      35.066  23.569  25.435  1.00  0.00     0.116 C 
BRANCH   2   3
ATOM      3  N   UNL A   1      34.516  23.209  26.725  1.00  0.00    -0.351 N 
ATOM      4  C   UNL A   1      33.194  23.010  27.055  1.00  0.00     0.267 C 
ATOM      5  O   UNL A   1      32.949  22.352  28.067  1.00  0.00    -0.268 OA
ATOM      6  H   UNL A   1      35.167  23.094  27.454  1.00  0.00     0.163 HD
BRANCH   4   7
ATOM      7  C   UNL A   1      32.074  23.687  26.298  1.00  0.00     0.109 C 
ATOM      8  C   UNL A   1      31.526  23.169  25.175  1.00  0.00     0.062 C 
BRANCH   7   9
ATOM      9  N   UNL A   1      31.507  24.872  26.757  1.00  0.00    -0.322 N 
ATOM     10  C   UNL A   1      32.780  26.745  25.661  1.00  0.00     0.114 C 
ATOM     11  C   UNL A   1      31.709  26.201  26.552  1.00  0.00     0.221 C 
ATOM     12  O   UNL A   1      30.958  26.977  27.156  1.00  0.00    -0.275 OA
ATOM     13  H   UNL A   1      30.772  24.707  27.391  1.00  0.00     0.170 HD
ENDBRANCH   7   9
BRANCH   8  14
ATOM     14  C   UNL A   1      31.850  21.978  24.483  1.00  0.00     0.084 A 
ATOM     15  C   UNL A   1      32.121  21.882  23.140  1.00  0.00     0.112 A 
ATOM     16  N   UNL A   1      32.008  20.781  25.112  1.00  0.00    -0.229 NA
ATOM     17  N   UNL A   1      32.510  20.582  22.963  1.00  0.00    -0.344 N 
ATOM     18  C   UNL A   1      32.430  19.942  24.181  1.00  0.00     0.138 A 
ATOM     19  H   UNL A   1      32.798  20.175  22.114  1.00  0.00     0.168 HD
BRANCH  18  20
ATOM     20  C   UNL A   1      32.825  18.556  24.384  1.00  0.00     0.017 A 
ATOM     21  C   UNL A   1      33.471  17.840  23.370  1.00  0.00     0.012 A 
ATOM     22  C   UNL A   1      32.595  17.932  25.614  1.00  0.00     0.012 A 
ATOM     23  C   UNL A   1      33.899  16.529  23.586  1.00  0.00     0.001 A 
ATOM     24  C   UNL A   1      33.008  16.615  25.826  1.00  0.00     0.001 A 
ATOM     25  C   UNL A   1      33.672  15.919  24.816  1.00  0.00     0.000 A 
ENDBRANCH  18  20
ENDBRANCH   8  14
ENDBRANCH   4   7
ENDBRANCH   2   3
ENDBRANCH   1   2
BRANCH   1  26
ATOM     26  C   UNL A   1      36.476  21.370  25.365  1.00  0.00     0.023 C 
BRANCH  26  27
ATOM     27  C   UNL A   1      37.985  21.553  25.534  1.00  0.00     0.116 C 
BRANCH  27  28
ATOM     28  N   UNL A   1      38.768  20.333  25.430  1.00  0.00    -0.352 N 
ATOM     29  C   UNL A   1      40.040  20.055  25.881  1.00  0.00     0.251 C 
ATOM     30  H   UNL A   1      38.320  19.590  24.966  1.00  0.00     0.163 HD
ATOM     31  O   UNL A   1      40.489  18.919  25.713  1.00  0.00    -0.269 OA
BRANCH  29  32
ATOM     32  C   UNL A   1      40.900  21.085  26.526  1.00  0.00     0.039 A 
ATOM     33  C   UNL A   1      41.728  21.859  25.700  1.00  0.00     0.014 A 
ATOM     34  C   UNL A   1      40.902  21.321  27.903  1.00  0.00     0.014 A 
ATOM     35  C   UNL A   1      42.420  22.955  26.224  1.00  0.00     0.010 A 
ATOM     36  C   UNL A   1      41.544  22.447  28.421  1.00  0.00     0.010 A 
ATOM     37  C   UNL A   1      42.256  23.303  27.573  1.00  0.00    -0.014 A 
BRANCH  37  38
ATOM     38  C   UNL A   1      42.616  24.659  28.052  1.00  0.00     0.031 A 
ATOM     39  C   UNL A   1      41.589  25.730  28.254  1.00  0.00     0.074 A 
ATOM     40  C   UNL A   1      43.929  24.936  28.183  1.00  0.00     0.049 A 
ATOM     41  N   UNL A   1      41.761  26.962  28.660  1.00  0.00    -0.248 NA
ATOM     42  C   UNL A   1      40.196  25.383  27.942  1.00  0.00     0.031 C 
ATOM     43  C   UNL A   1      45.019  23.988  27.926  1.00  0.00     0.029 A 
ATOM     44  N   UNL A   1      44.576  26.089  28.545  1.00  0.00    -0.354 N 
ATOM     45  C   UNL A   1      40.498  27.540  28.659  1.00  0.00     0.074 A 
ATOM     46  C   UNL A   1      39.577  26.535  28.169  1.00  0.00     0.031 C 
ATOM     47  C   UNL A   1      46.194  24.591  28.154  1.00  0.00     0.029 A 
ATOM     48  C   UNL A   1      45.946  25.972  28.543  1.00  0.00     0.049 A 
ATOM     49  H   UNL A   1      44.106  26.921  28.782  1.00  0.00     0.167 HD
ATOM     50  C   UNL A   1      40.146  28.792  29.041  1.00  0.00     0.031 A 
ATOM     51  C   UNL A   1      46.901  26.877  28.823  1.00  0.00     0.031 A 
ATOM     52  C   UNL A   1      41.085  29.791  29.489  1.00  0.00     0.049 A 
ATOM     53  C   UNL A   1      46.484  28.255  29.242  1.00  0.00     0.074 A 
ATOM     54  C   UNL A   1      40.830  31.069  29.958  1.00  0.00     0.029 A 
ATOM     55  N   UNL A   1      42.464  29.630  29.500  1.00  0.00    -0.354 N 
ATOM     56  N   UNL A   1      45.274  28.750  29.353  1.00  0.00    -0.248 NA
ATOM     57  C   UNL A   1      47.558  29.190  29.597  1.00  0.00     0.031 C 
ATOM     58  C   UNL A   1      42.057  31.700  30.196  1.00  0.00     0.029 A 
ATOM     59  C   UNL A   1      43.074  30.795  29.938  1.00  0.00     0.049 A 
ATOM     60  H   UNL A   1      42.938  28.809  29.236  1.00  0.00     0.167 HD
ATOM     61  C   UNL A   1      45.439  30.047  29.816  1.00  0.00     0.074 A 
ATOM     62  C   UNL A   1      46.865  30.253  29.983  1.00  0.00     0.031 C 
ATOM     63  C   UNL A   1      44.496  30.982  30.084  1.00  0.00     0.031 A 
BRANCH  50  64
ATOM     64  C   UNL A   1      38.686  29.154  28.983  1.00  0.00    -0.014 A 
ATOM     65  C   UNL A   1      37.860  29.030  30.113  1.00  0.00     0.009 A 
ATOM     66  C   UNL A   1      38.136  29.674  27.799  1.00  0.00     0.009 A 
ATOM     67  C   UNL A   1      36.509  29.382  30.048  1.00  0.00     0.001 A 
ATOM     68  C   UNL A   1      36.791  30.052  27.746  1.00  0.00     0.001 A 
ATOM     69  C   UNL A   1      35.977  29.896  28.866  1.00  0.00     0.000 A 
ENDBRANCH  50  64
BRANCH  51  70
ATOM     70  C   UNL A   1      48.333  26.486  28.753  1.00  0.00    -0.014 A 
ATOM     71  C   UNL A   1      48.987  25.978  29.885  1.00  0.00     0.009 A 
ATOM     72  C   UNL A   1      49.044  26.588  27.547  1.00  0.00     0.009 A 
ATOM     73  C   UNL A   1      50.330  25.600  29.817  1.00  0.00     0.001 A 
ATOM     74  C   UNL A   1      50.379  26.182  27.475  1.00  0.00     0.001 A 
ATOM     75  C   UNL A   1      51.023  25.696  28.612  1.00  0.00     0.000 A 
ENDBRANCH  51  70
BRANCH  63  76
ATOM     76  C   UNL A   1      44.982  32.304  30.608  1.00  0.00    -0.014 A 
ATOM     77  C   UNL A   1      45.160  32.525  31.982  1.00  0.00     0.009 A 
ATOM     78  C   UNL A   1      45.288  33.336  29.707  1.00  0.00     0.009 A 
ATOM     79  C   UNL A   1      45.597  33.766  32.446  1.00  0.00     0.001 A 
ATOM     80  C   UNL A   1      45.756  34.566  30.171  1.00  0.00     0.001 A 
ATOM     81  C   UNL A   1      45.900  34.783  31.541  1.00  0.00     0.000 A 
ENDBRANCH  63  76
ENDBRANCH  37  38
ENDBRANCH  29  32
ENDBRANCH  27  28
ENDBRANCH  26  27
ENDBRANCH   1  26
TORSDOF 14
ENDMDL
MODEL 2
REMARK VINA RESULT:     -11.9      0.577      5.980
REMARK SMILES CC(=O)N/C(=C/c1c[nH]c(-c2ccccc2)n1)C(=O)NCCCCNC(=O)c1ccc(-c2c3nc(c(-c4ccccc4)c4ccc([nH]4)c(-c4ccccc4)c4nc(c(-c5ccccc5)c5ccc2[nH]5)C=C4)C=C3)cc1
REMARK SMILES IDX 22 1 21 2 20 3 18 4 19 5 5 7 6 8 4 9 1 10 2 11 3 12 7 14
REMARK SMILES IDX 8 15 17 16 9 17 10 18 11 20 12 21 16 22 13 23 15 24 14 25
REMARK SMILES IDX 23 26 24 27 25 28 26 29 27 31 28 32 29 33 75 34 30 35 74 36
REMARK SMILES IDX 31 37 32 38 33 39 68 40 34 41 73 42 67 43 69 44 35 45 72 46
REMARK SMILES IDX 66 47 65 48 36 50 58 51 43 52 57 53 44 54 47 55 56 56 70 57
REMARK SMILES IDX 45 58 46 59 55 61 71 62 48 63 37 64 38 65 42 66 39 67 41 68
REMARK SMILES IDX 40 69 59 70 60 71 64 72 61 73 63 74 62 75 49 76 50 77 54 78
REMARK SMILES IDX 51 79 53 80 52 81
REMARK H PARENT 20 6 4 13 9 19 25 30 69 49 47 60
REMARK Flexibility Score: inf
ROOT
ATOM      1  C   UNL A   1      35.613  21.944  24.887  1.00  0.00     0.023 C 
ENDROOT
BRANCH   1   2
ATOM      2  C   UNL A   1      35.059  23.150  25.636  1.00  0.00     0.116 C 
BRANCH   2   3
ATOM      3  N   UNL A   1      34.414  22.903  26.908  1.00  0.00    -0.351 N 
ATOM      4  C   UNL A   1      33.065  22.861  27.178  1.00  0.00     0.267 C 
ATOM      5  O   UNL A   1      32.701  22.275  28.199  1.00  0.00    -0.268 OA
ATOM      6  H   UNL A   1      35.013  22.748  27.673  1.00  0.00     0.163 HD
BRANCH   4   7
ATOM      7  C   UNL A   1      32.062  23.625  26.342  1.00  0.00     0.109 C 
ATOM      8  C   UNL A   1      31.569  23.156  25.173  1.00  0.00     0.062 C 
BRANCH   7   9
ATOM      9  N   UNL A   1      31.549  24.846  26.768  1.00  0.00    -0.322 N 
ATOM     10  C   UNL A   1      32.924  26.630  25.646  1.00  0.00     0.114 C 
ATOM     11  C   UNL A   1      31.818  26.159  26.537  1.00  0.00     0.221 C 
ATOM     12  O   UNL A   1      31.100  26.983  27.115  1.00  0.00    -0.275 OA
ATOM     13  H   UNL A   1      30.801  24.731  27.398  1.00  0.00     0.170 HD
ENDBRANCH   7   9
BRANCH   8  14
ATOM     14  C   UNL A   1      31.858  21.948  24.495  1.00  0.00     0.084 A 
ATOM     15  C   UNL A   1      32.060  21.818  23.142  1.00  0.00     0.112 A 
ATOM     16  N   UNL A   1      32.051  20.767  25.144  1.00  0.00    -0.229 NA
ATOM     17  N   UNL A   1      32.441  20.515  22.978  1.00  0.00    -0.344 N 
ATOM     18  C   UNL A   1      32.425  19.906  24.214  1.00  0.00     0.138 A 
ATOM     19  H   UNL A   1      32.685  20.087  22.126  1.00  0.00     0.168 HD
BRANCH  18  20
ATOM     20  C   UNL A   1      32.833  18.524  24.430  1.00  0.00     0.017 A 
ATOM     21  C   UNL A   1      32.479  17.850  25.604  1.00  0.00     0.012 A 
ATOM     22  C   UNL A   1      33.554  17.842  23.446  1.00  0.00     0.012 A 
ATOM     23  C   UNL A   1      32.822  16.509  25.785  1.00  0.00     0.001 A 
ATOM     24  C   UNL A   1      33.912  16.504  23.633  1.00  0.00     0.001 A 
ATOM     25  C   UNL A   1      33.534  15.836  24.796  1.00  0.00     0.000 A 
ENDBRANCH  18  20
ENDBRANCH   8  14
ENDBRANCH   4   7
ENDBRANCH   2   3
ENDBRANCH   1   2
BRANCH   1  26
ATOM     26  C   UNL A   1      37.085  21.975  24.476  1.00  0.00     0.023 C 
BRANCH  26  27
ATOM     27  C   UNL A   1      38.134  21.789  25.574  1.00  0.00     0.116 C 
BRANCH  27  28
ATOM     28  N   UNL A   1      38.900  20.556  25.490  1.00  0.00    -0.352 N 
ATOM     29  C   UNL A   1      40.165  20.265  25.951  1.00  0.00     0.251 C 
ATOM     30  H   UNL A   1      38.443  19.814  25.033  1.00  0.00     0.163 HD
ATOM     31  O   UNL A   1      40.598  19.121  25.800  1.00  0.00    -0.269 OA
BRANCH  29  32
ATOM     32  C   UNL A   1      41.037  21.291  26.586  1.00  0.00     0.039 A 
ATOM     33  C   UNL A   1      41.820  22.097  25.748  1.00  0.00     0.014 A 
ATOM     34  C   UNL A   1      41.092  21.492  27.968  1.00  0.00     0.014 A 
ATOM     35  C   UNL A   1      42.518  23.190  26.272  1.00  0.00     0.010 A 
ATOM     36  C   UNL A   1      41.739  22.613  28.488  1.00  0.00     0.010 A 
ATOM     37  C   UNL A   1      42.405  23.501  27.635  1.00  0.00    -0.014 A 
BRANCH  37  38
ATOM     38  C   UNL A   1      42.766  24.849  28.133  1.00  0.00     0.031 A 
ATOM     39  C   UNL A   1      44.151  25.181  28.596  1.00  0.00     0.074 A 
ATOM     40  C   UNL A   1      41.765  25.742  28.273  1.00  0.00     0.049 A 
ATOM     41  N   UNL A   1      44.608  26.315  29.063  1.00  0.00    -0.248 NA
ATOM     42  C   UNL A   1      45.145  24.101  28.549  1.00  0.00     0.031 C 
ATOM     43  C   UNL A   1      40.360  25.490  27.933  1.00  0.00     0.029 A 
ATOM     44  N   UNL A   1      41.763  27.027  28.749  1.00  0.00    -0.354 N 
ATOM     45  C   UNL A   1      45.945  26.090  29.363  1.00  0.00     0.074 A 
ATOM     46  C   UNL A   1      46.213  24.698  29.065  1.00  0.00     0.031 C 
ATOM     47  C   UNL A   1      39.638  26.588  28.194  1.00  0.00     0.029 A 
ATOM     48  C   UNL A   1      40.517  27.609  28.747  1.00  0.00     0.049 A 
ATOM     49  H   UNL A   1      42.574  27.489  29.063  1.00  0.00     0.167 HD
ATOM     50  C   UNL A   1      46.861  26.971  29.834  1.00  0.00     0.031 A 
ATOM     51  C   UNL A   1      40.123  28.831  29.146  1.00  0.00     0.031 A 
ATOM     52  C   UNL A   1      46.564  28.343  30.162  1.00  0.00     0.049 A 
ATOM     53  C   UNL A   1      41.157  29.786  29.664  1.00  0.00     0.074 A 
ATOM     54  C   UNL A   1      47.429  29.338  30.586  1.00  0.00     0.029 A 
ATOM     55  N   UNL A   1      45.296  28.909  30.122  1.00  0.00    -0.354 N 
ATOM     56  N   UNL A   1      42.444  29.595  29.828  1.00  0.00    -0.248 NA
ATOM     57  C   UNL A   1      40.691  31.128  30.031  1.00  0.00     0.031 C 
ATOM     58  C   UNL A   1      46.675  30.485  30.861  1.00  0.00     0.029 A 
ATOM     59  C   UNL A   1      45.351  30.227  30.545  1.00  0.00     0.049 A 
ATOM     60  H   UNL A   1      44.479  28.440  29.837  1.00  0.00     0.167 HD
ATOM     61  C   UNL A   1      42.948  30.801  30.291  1.00  0.00     0.074 A 
ATOM     62  C   UNL A   1      41.829  31.721  30.363  1.00  0.00     0.031 C 
ATOM     63  C   UNL A   1      44.222  31.121  30.622  1.00  0.00     0.031 A 
BRANCH  50  64
ATOM     64  C   UNL A   1      48.269  26.475  30.032  1.00  0.00    -0.014 A 
ATOM     65  C   UNL A   1      49.231  26.592  29.015  1.00  0.00     0.009 A 
ATOM     66  C   UNL A   1      48.655  25.927  31.266  1.00  0.00     0.009 A 
ATOM     67  C   UNL A   1      50.538  26.137  29.217  1.00  0.00     0.001 A 
ATOM     68  C   UNL A   1      49.970  25.500  31.475  1.00  0.00     0.001 A 
ATOM     69  C   UNL A   1      50.906  25.597  30.448  1.00  0.00     0.000 A 
ENDBRANCH  50  64
BRANCH  51  70
ATOM     70  C   UNL A   1      38.694  29.222  29.029  1.00  0.00    -0.014 A 
ATOM     71  C   UNL A   1      38.186  29.704  27.813  1.00  0.00     0.009 A 
ATOM     72  C   UNL A   1      37.822  29.086  30.120  1.00  0.00     0.009 A 
ATOM     73  C   UNL A   1      36.841  30.061  27.698  1.00  0.00     0.001 A 
ATOM     74  C   UNL A   1      36.471  29.416  29.995  1.00  0.00     0.001 A 
ATOM     75  C   UNL A   1      35.984  29.911  28.786  1.00  0.00     0.000 A 
ENDBRANCH  51  70
BRANCH  63  76
ATOM     76  C   UNL A   1      44.472  32.534  31.070  1.00  0.00    -0.014 A 
ATOM     77  C   UNL A   1      44.409  32.892  32.425  1.00  0.00     0.009 A 
ATOM     78  C   UNL A   1      44.796  33.514  30.120  1.00  0.00     0.009 A 
ATOM     79  C   UNL A   1      44.629  34.214  32.816  1.00  0.00     0.001 A 
ATOM     80  C   UNL A   1      45.047  34.828  30.516  1.00  0.00     0.001 A 
ATOM     81  C   UNL A   1      44.953  35.179  31.862  1.00  0.00     0.000 A 
ENDBRANCH  63  76
ENDBRANCH  37  38
ENDBRANCH  29  32
ENDBRANCH  27  28
ENDBRANCH  26  27
ENDBRANCH   1  26
TORSDOF 14
ENDMDL
MODEL 3
REMARK VINA RESULT:     -11.7      1.365      4.004
REMARK SMILES CC(=O)N/C(=C/c1c[nH]c(-c2ccccc2)n1)C(=O)NCCCCNC(=O)c1ccc(-c2c3nc(c(-c4ccccc4)c4ccc([nH]4)c(-c4ccccc4)c4nc(c(-c5ccccc5)c5ccc2[nH]5)C=C4)C=C3)cc1
REMARK SMILES IDX 22 1 21 2 20 3 18 4 19 5 5 7 6 8 4 9 1 10 2 11 3 12 7 14
REMARK SMILES IDX 8 15 17 16 9 17 10 18 11 20 12 21 16 22 13 23 15 24 14 25
REMARK SMILES IDX 23 26 24 27 25 28 26 29 27 31 28 32 29 33 75 34 30 35 74 36
REMARK SMILES IDX 31 37 32 38 33 39 68 40 34 41 73 42 67 43 69 44 35 45 72 46
REMARK SMILES IDX 66 47 65 48 36 50 58 51 43 52 57 53 44 54 47 55 56 56 70 57
REMARK SMILES IDX 45 58 46 59 55 61 71 62 48 63 37 64 38 65 42 66 39 67 41 68
REMARK SMILES IDX 40 69 59 70 60 71 64 72 61 73 63 74 62 75 49 76 50 77 54 78
REMARK SMILES IDX 51 79 53 80 52 81
REMARK H PARENT 20 6 4 13 9 19 25 30 69 49 47 60
REMARK Flexibility Score: inf
ROOT
ATOM      1  C   UNL A   1      36.788  23.225  23.855  1.00  0.00     0.023 C 
ENDROOT
BRANCH   1   2
ATOM      2  C   UNL A   1      35.334  23.677  23.901  1.00  0.00     0.116 C 
BRANCH   2   3
ATOM      3  N   UNL A   1      34.393  22.976  23.053  1.00  0.00    -0.351 N 
ATOM      4  C   UNL A   1      33.349  22.165  23.437  1.00  0.00     0.267 C 
ATOM      5  O   UNL A   1      32.444  21.970  22.625  1.00  0.00    -0.268 OA
ATOM      6  H   UNL A   1      34.515  23.094  22.083  1.00  0.00     0.163 HD
BRANCH   4   7
ATOM      7  C   UNL A   1      33.367  21.415  24.751  1.00  0.00     0.109 C 
ATOM      8  C   UNL A   1      32.866  21.927  25.898  1.00  0.00     0.062 C 
BRANCH   7   9
ATOM      9  N   UNL A   1      33.862  20.117  24.833  1.00  0.00    -0.322 N 
ATOM     10  C   UNL A   1      32.348  18.685  23.424  1.00  0.00     0.114 C 
ATOM     11  C   UNL A   1      33.529  18.904  24.316  1.00  0.00     0.221 C 
ATOM     12  O   UNL A   1      34.253  17.950  24.625  1.00  0.00    -0.275 OA
ATOM     13  H   UNL A   1      34.655  20.062  25.414  1.00  0.00     0.170 HD
ENDBRANCH   7   9
BRANCH   8  14
ATOM     14  C   UNL A   1      32.269  23.188  26.135  1.00  0.00     0.084 A 
ATOM     15  C   UNL A   1      31.005  23.395  26.631  1.00  0.00     0.112 A 
ATOM     16  N   UNL A   1      32.938  24.362  25.965  1.00  0.00    -0.229 NA
ATOM     17  N   UNL A   1      30.930  24.748  26.816  1.00  0.00    -0.344 N 
ATOM     18  C   UNL A   1      32.120  25.304  26.402  1.00  0.00     0.138 A 
ATOM     19  H   UNL A   1      30.159  25.239  27.183  1.00  0.00     0.168 HD
BRANCH  18  20
ATOM     20  C   UNL A   1      32.419  26.725  26.508  1.00  0.00     0.017 A 
ATOM     21  C   UNL A   1      33.634  27.238  26.040  1.00  0.00     0.012 A 
ATOM     22  C   UNL A   1      31.475  27.604  27.048  1.00  0.00     0.012 A 
ATOM     23  C   UNL A   1      33.895  28.608  26.091  1.00  0.00     0.001 A 
ATOM     24  C   UNL A   1      31.743  28.974  27.114  1.00  0.00     0.001 A 
ATOM     25  C   UNL A   1      32.947  29.476  26.623  1.00  0.00     0.000 A 
ENDBRANCH  18  20
ENDBRANCH   8  14
ENDBRANCH   4   7
ENDBRANCH   2   3
ENDBRANCH   1   2
BRANCH   1  26
ATOM     26  C   UNL A   1      37.100  21.786  24.263  1.00  0.00     0.023 C 
BRANCH  26  27
ATOM     27  C   UNL A   1      38.065  21.572  25.431  1.00  0.00     0.116 C 
BRANCH  27  28
ATOM     28  N   UNL A   1      38.832  20.338  25.377  1.00  0.00    -0.352 N 
ATOM     29  C   UNL A   1      40.084  20.049  25.877  1.00  0.00     0.251 C 
ATOM     30  H   UNL A   1      38.388  19.593  24.912  1.00  0.00     0.163 HD
ATOM     31  O   UNL A   1      40.519  18.904  25.746  1.00  0.00    -0.269 OA
BRANCH  29  32
ATOM     32  C   UNL A   1      40.938  21.078  26.530  1.00  0.00     0.039 A 
ATOM     33  C   UNL A   1      41.768  21.858  25.713  1.00  0.00     0.014 A 
ATOM     34  C   UNL A   1      40.931  21.309  27.908  1.00  0.00     0.014 A 
ATOM     35  C   UNL A   1      42.455  22.953  26.245  1.00  0.00     0.010 A 
ATOM     36  C   UNL A   1      41.567  22.434  28.435  1.00  0.00     0.010 A 
ATOM     37  C   UNL A   1      42.283  23.295  27.595  1.00  0.00    -0.014 A 
BRANCH  37  38
ATOM     38  C   UNL A   1      42.637  24.650  28.080  1.00  0.00     0.031 A 
ATOM     39  C   UNL A   1      41.608  25.722  28.268  1.00  0.00     0.074 A 
ATOM     40  C   UNL A   1      43.948  24.925  28.233  1.00  0.00     0.049 A 
ATOM     41  N   UNL A   1      41.776  26.953  28.678  1.00  0.00    -0.248 NA
ATOM     42  C   UNL A   1      40.220  25.377  27.934  1.00  0.00     0.031 C 
ATOM     43  C   UNL A   1      45.040  23.975  27.991  1.00  0.00     0.029 A 
ATOM     44  N   UNL A   1      44.591  26.076  28.606  1.00  0.00    -0.354 N 
ATOM     45  C   UNL A   1      40.514  27.534  28.658  1.00  0.00     0.074 A 
ATOM     46  C   UNL A   1      39.599  26.531  28.153  1.00  0.00     0.031 C 
ATOM     47  C   UNL A   1      46.212  24.576  28.239  1.00  0.00     0.029 A 
ATOM     48  C   UNL A   1      45.960  25.957  28.626  1.00  0.00     0.049 A 
ATOM     49  H   UNL A   1      44.118  26.909  28.837  1.00  0.00     0.167 HD
ATOM     50  C   UNL A   1      40.158  28.785  29.036  1.00  0.00     0.031 A 
ATOM     51  C   UNL A   1      46.912  26.861  28.922  1.00  0.00     0.031 A 
ATOM     52  C   UNL A   1      41.090  29.782  29.500  1.00  0.00     0.049 A 
ATOM     53  C   UNL A   1      46.490  28.239  29.337  1.00  0.00     0.074 A 
ATOM     54  C   UNL A   1      40.831  31.060  29.967  1.00  0.00     0.029 A 
ATOM     55  N   UNL A   1      42.469  29.620  29.533  1.00  0.00    -0.354 N 
ATOM     56  N   UNL A   1      45.280  28.735  29.429  1.00  0.00    -0.248 NA
ATOM     57  C   UNL A   1      47.560  29.172  29.709  1.00  0.00     0.031 C 
ATOM     58  C   UNL A   1      42.054  31.689  30.225  1.00  0.00     0.029 A 
ATOM     59  C   UNL A   1      43.074  30.782  29.982  1.00  0.00     0.049 A 
ATOM     60  H   UNL A   1      42.946  28.798  29.275  1.00  0.00     0.167 HD
ATOM     61  C   UNL A   1      45.440  30.031  29.896  1.00  0.00     0.074 A 
ATOM     62  C   UNL A   1      46.863  30.235  30.086  1.00  0.00     0.031 C 
ATOM     63  C   UNL A   1      44.494  30.968  30.150  1.00  0.00     0.031 A 
BRANCH  50  64
ATOM     64  C   UNL A   1      38.699  29.150  28.955  1.00  0.00    -0.014 A 
ATOM     65  C   UNL A   1      37.853  29.016  30.069  1.00  0.00     0.009 A 
ATOM     66  C   UNL A   1      38.170  29.681  27.767  1.00  0.00     0.009 A 
ATOM     67  C   UNL A   1      36.503  29.370  29.983  1.00  0.00     0.001 A 
ATOM     68  C   UNL A   1      36.827  30.061  27.693  1.00  0.00     0.001 A 
ATOM     69  C   UNL A   1      35.994  29.896  28.798  1.00  0.00     0.000 A 
ENDBRANCH  50  64
BRANCH  51  70
ATOM     70  C   UNL A   1      48.344  26.468  28.874  1.00  0.00    -0.014 A 
ATOM     71  C   UNL A   1      48.970  25.919  30.004  1.00  0.00     0.009 A 
ATOM     72  C   UNL A   1      49.086  26.608  27.690  1.00  0.00     0.009 A 
ATOM     73  C   UNL A   1      50.312  25.540  29.956  1.00  0.00     0.001 A 
ATOM     74  C   UNL A   1      50.421  26.200  27.637  1.00  0.00     0.001 A 
ATOM     75  C   UNL A   1      51.035  25.675  28.772  1.00  0.00     0.000 A 
ENDBRANCH  51  70
BRANCH  63  76
ATOM     76  C   UNL A   1      44.974  32.288  30.683  1.00  0.00    -0.014 A 
ATOM     77  C   UNL A   1      45.125  32.508  32.061  1.00  0.00     0.009 A 
ATOM     78  C   UNL A   1      45.300  33.319  29.789  1.00  0.00     0.009 A 
ATOM     79  C   UNL A   1      45.557  33.749  32.534  1.00  0.00     0.001 A 
ATOM     80  C   UNL A   1      45.763  34.548  30.262  1.00  0.00     0.001 A 
ATOM     81  C   UNL A   1      45.881  34.765  31.634  1.00  0.00     0.000 A 
ENDBRANCH  63  76
ENDBRANCH  37  38
ENDBRANCH  29  32
ENDBRANCH  27  28
ENDBRANCH  26  27
ENDBRANCH   1  26
TORSDOF 14
ENDMDL
