MODEL 1
REMARK VINA RESULT:     -10.9      0.000      0.000
REMARK SMILES [NH3+][C@H]1COC[C@H]1C(=O)N[C@@H]1C=C[C@@H](C(=O)NCCCCNC(=O)c2ccc(-c3c4nc(c(-c5ccccc5)c5ccc([nH]5)c(-c5ccccc5)c5nc(c(-c6ccccc6)c6ccc3[nH]6)C=C5)C=C4)cc2)C1
REMARK SMILES IDX 18 1 17 2 16 3 14 4 15 5 13 7 10 8 11 9 72 10 12 11 9 12
REMARK SMILES IDX 7 13 8 14 6 16 2 17 3 18 4 19 5 20 1 21 19 25 20 26 21 27
REMARK SMILES IDX 22 28 23 30 24 31 25 32 71 33 26 34 70 35 27 36 28 37 29 38
REMARK SMILES IDX 64 39 30 40 69 41 63 42 65 43 31 44 68 45 62 46 61 47 32 49
REMARK SMILES IDX 54 50 39 51 53 52 40 53 43 54 52 55 66 56 41 57 42 58 51 60
REMARK SMILES IDX 67 61 44 62 33 63 34 64 38 65 35 66 37 67 36 68 55 69 56 70
REMARK SMILES IDX 60 71 57 72 59 73 58 74 45 75 46 76 50 77 47 78 49 79 48 80
REMARK H PARENT 16 6 9 15 1 22 1 23 1 24 21 29 65 48 43 59
REMARK Flexibility Score: inf
ROOT
ATOM      1  C   UNL A   1      37.248  21.827  24.076  1.00  0.00     0.023 C 
ENDROOT
BRANCH   1   2
ATOM      2  C   UNL A   1      36.939  22.872  25.144  1.00  0.00     0.116 C 
BRANCH   2   3
ATOM      3  N   UNL A   1      36.083  23.929  24.644  1.00  0.00    -0.356 N 
ATOM      4  C   UNL A   1      34.752  24.161  24.798  1.00  0.00     0.227 C 
ATOM      5  O   UNL A   1      34.313  25.211  24.317  1.00  0.00    -0.274 OA
ATOM      6  H   UNL A   1      36.549  24.599  24.093  1.00  0.00     0.163 HD
BRANCH   4   7
ATOM      7  C   UNL A   1      33.802  23.193  25.514  1.00  0.00     0.103 C 
ATOM      8  C   UNL A   1      34.254  20.863  26.189  1.00  0.00     0.106 C 
ATOM      9  C   UNL A   1      34.213  21.793  27.357  1.00  0.00    -0.006 C 
ATOM     10  C   UNL A   1      33.846  21.752  24.999  1.00  0.00     0.047 C 
ATOM     11  C   UNL A   1      34.010  23.063  26.989  1.00  0.00    -0.016 C 
BRANCH   8  12
ATOM     12  N   UNL A   1      33.315  19.790  26.408  1.00  0.00    -0.349 N 
ATOM     13  C   UNL A   1      33.006  18.701  25.660  1.00  0.00     0.232 C 
ATOM     14  O   UNL A   1      32.070  18.002  26.063  1.00  0.00    -0.274 OA
ATOM     15  H   UNL A   1      32.810  19.859  27.250  1.00  0.00     0.164 HD
BRANCH  13  16
ATOM     16  C   UNL A   1      33.738  18.302  24.387  1.00  0.00     0.164 C 
ATOM     17  C   UNL A   1      34.525  16.991  24.342  1.00  0.00     0.221 C 
ATOM     18  C   UNL A   1      34.406  16.618  22.860  1.00  0.00     0.225 C 
ATOM     19  O   UNL A   1      33.107  17.076  22.454  1.00  0.00    -0.374 OA
ATOM     20  C   UNL A   1      32.884  18.322  23.132  1.00  0.00     0.180 C 
BRANCH  17  21
ATOM     21  N   UNL A   1      34.080  15.872  25.173  1.00  0.00    -0.352 N 
ATOM     22  H   UNL A   1      33.125  15.620  24.921  1.00  0.00     0.344 HD
ATOM     23  H   UNL A   1      34.112  16.144  26.156  1.00  0.00     0.344 HD
ATOM     24  H   UNL A   1      34.695  15.071  25.021  1.00  0.00     0.344 HD
ENDBRANCH  17  21
ENDBRANCH  13  16
ENDBRANCH   8  12
ENDBRANCH   4   7
ENDBRANCH   2   3
ENDBRANCH   1   2
BRANCH   1  25
ATOM     25  C   UNL A   1      37.594  20.441  24.624  1.00  0.00     0.023 C 
BRANCH  25  26
ATOM     26  C   UNL A   1      38.502  20.434  25.849  1.00  0.00     0.116 C 
BRANCH  26  27
ATOM     27  N   UNL A   1      39.609  19.499  25.735  1.00  0.00    -0.352 N 
ATOM     28  C   UNL A   1      40.940  19.694  26.008  1.00  0.00     0.251 C 
ATOM     29  H   UNL A   1      39.370  18.598  25.417  1.00  0.00     0.163 HD
ATOM     30  O   UNL A   1      41.758  18.818  25.731  1.00  0.00    -0.269 OA
BRANCH  28  31
ATOM     31  C   UNL A   1      41.400  20.967  26.602  1.00  0.00     0.039 A 
ATOM     32  C   UNL A   1      41.933  21.944  25.757  1.00  0.00     0.014 A 
ATOM     33  C   UNL A   1      41.311  21.204  27.976  1.00  0.00     0.014 A 
ATOM     34  C   UNL A   1      42.320  23.178  26.282  1.00  0.00     0.010 A 
ATOM     35  C   UNL A   1      41.619  22.463  28.485  1.00  0.00     0.010 A 
ATOM     36  C   UNL A   1      42.134  23.461  27.646  1.00  0.00    -0.014 A 
BRANCH  36  37
ATOM     37  C   UNL A   1      42.469  24.799  28.194  1.00  0.00     0.031 A 
ATOM     38  C   UNL A   1      43.879  25.129  28.604  1.00  0.00     0.074 A 
ATOM     39  C   UNL A   1      41.491  25.713  28.359  1.00  0.00     0.049 A 
ATOM     40  N   UNL A   1      44.356  26.247  29.090  1.00  0.00    -0.248 NA
ATOM     41  C   UNL A   1      44.878  24.057  28.477  1.00  0.00     0.031 C 
ATOM     42  C   UNL A   1      40.075  25.502  28.050  1.00  0.00     0.029 A 
ATOM     43  N   UNL A   1      41.541  27.002  28.823  1.00  0.00    -0.354 N 
ATOM     44  C   UNL A   1      45.703  26.010  29.334  1.00  0.00     0.074 A 
ATOM     45  C   UNL A   1      45.955  24.626  28.998  1.00  0.00     0.031 C 
ATOM     46  C   UNL A   1      39.399  26.635  28.295  1.00  0.00     0.029 A 
ATOM     47  C   UNL A   1      40.323  27.638  28.815  1.00  0.00     0.049 A 
ATOM     48  H   UNL A   1      42.371  27.433  29.132  1.00  0.00     0.167 HD
ATOM     49  C   UNL A   1      46.651  26.870  29.776  1.00  0.00     0.031 A 
ATOM     50  C   UNL A   1      39.985  28.888  29.182  1.00  0.00     0.031 A 
ATOM     51  C   UNL A   1      46.403  28.248  30.109  1.00  0.00     0.049 A 
ATOM     52  C   UNL A   1      41.055  29.822  29.675  1.00  0.00     0.074 A 
ATOM     53  C   UNL A   1      47.308  29.215  30.510  1.00  0.00     0.029 A 
ATOM     54  N   UNL A   1      45.155  28.853  30.087  1.00  0.00    -0.354 N 
ATOM     55  N   UNL A   1      42.340  29.606  29.820  1.00  0.00    -0.248 NA
ATOM     56  C   UNL A   1      40.627  31.180  30.039  1.00  0.00     0.031 C 
ATOM     57  C   UNL A   1      46.599  30.389  30.790  1.00  0.00     0.029 A 
ATOM     58  C   UNL A   1      45.262  30.172  30.496  1.00  0.00     0.049 A 
ATOM     59  H   UNL A   1      44.317  28.410  29.820  1.00  0.00     0.167 HD
ATOM     60  C   UNL A   1      42.879  30.806  30.265  1.00  0.00     0.074 A 
ATOM     61  C   UNL A   1      41.784  31.752  30.342  1.00  0.00     0.031 C 
ATOM     62  C   UNL A   1      44.163  31.100  30.580  1.00  0.00     0.031 A 
BRANCH  49  63
ATOM     63  C   UNL A   1      48.050  26.336  29.938  1.00  0.00    -0.014 A 
ATOM     64  C   UNL A   1      48.484  25.777  31.150  1.00  0.00     0.009 A 
ATOM     65  C   UNL A   1      48.937  26.364  28.849  1.00  0.00     0.009 A 
ATOM     66  C   UNL A   1      49.788  25.295  31.282  1.00  0.00     0.001 A 
ATOM     67  C   UNL A   1      50.230  25.851  28.974  1.00  0.00     0.001 A 
ATOM     68  C   UNL A   1      50.657  25.328  30.193  1.00  0.00     0.000 A 
ENDBRANCH  49  63
BRANCH  50  69
ATOM     69  C   UNL A   1      38.572  29.339  29.079  1.00  0.00    -0.014 A 
ATOM     70  C   UNL A   1      37.722  29.291  30.195  1.00  0.00     0.009 A 
ATOM     71  C   UNL A   1      38.062  29.811  27.859  1.00  0.00     0.009 A 
ATOM     72  C   UNL A   1      36.385  29.679  30.084  1.00  0.00     0.001 A 
ATOM     73  C   UNL A   1      36.734  30.228  27.760  1.00  0.00     0.001 A 
ATOM     74  C   UNL A   1      35.893  30.151  28.869  1.00  0.00     0.000 A 
ENDBRANCH  50  69
BRANCH  62  75
ATOM     75  C   UNL A   1      44.457  32.513  31.005  1.00  0.00    -0.014 A 
ATOM     76  C   UNL A   1      44.427  32.893  32.356  1.00  0.00     0.009 A 
ATOM     77  C   UNL A   1      44.785  33.475  30.037  1.00  0.00     0.009 A 
ATOM     78  C   UNL A   1      44.671  34.219  32.723  1.00  0.00     0.001 A 
ATOM     79  C   UNL A   1      45.062  34.791  30.410  1.00  0.00     0.001 A 
ATOM     80  C   UNL A   1      44.992  35.164  31.751  1.00  0.00     0.000 A 
ENDBRANCH  62  75
ENDBRANCH  36  37
ENDBRANCH  28  31
ENDBRANCH  26  27
ENDBRANCH  25  26
ENDBRANCH   1  25
TORSDOF 14
ENDMDL
MODEL 2
REMARK VINA RESULT:     -10.7      2.593      4.470
REMARK SMILES [NH3+][C@H]1COC[C@H]1C(=O)N[C@@H]1C=C[C@@H](C(=O)NCCCCNC(=O)c2ccc(-c3c4nc(c(-c5ccccc5)c5ccc([nH]5)c(-c5ccccc5)c5nc(c(-c6ccccc6)c6ccc3[nH]6)C=C5)C=C4)cc2)C1
REMARK SMILES IDX 18 1 17 2 16 3 14 4 15 5 13 7 10 8 11 9 72 10 12 11 9 12
REMARK SMILES IDX 7 13 8 14 6 16 2 17 3 18 4 19 5 20 1 21 19 25 20 26 21 27
REMARK SMILES IDX 22 28 23 30 24 31 25 32 71 33 26 34 70 35 27 36 28 37 29 38
REMARK SMILES IDX 64 39 30 40 69 41 63 42 65 43 31 44 68 45 62 46 61 47 32 49
REMARK SMILES IDX 54 50 39 51 53 52 40 53 43 54 52 55 66 56 41 57 42 58 51 60
REMARK SMILES IDX 67 61 44 62 33 63 34 64 38 65 35 66 37 67 36 68 55 69 56 70
REMARK SMILES IDX 60 71 57 72 59 73 58 74 45 75 46 76 50 77 47 78 49 79 48 80
REMARK H PARENT 16 6 9 15 1 22 1 23 1 24 21 29 65 48 43 59
REMARK Flexibility Score: inf
ROOT
ATOM      1  C   UNL A   1      36.648  20.479  24.989  1.00  0.00     0.023 C 
ENDROOT
BRANCH   1   2
ATOM      2  C   UNL A   1      36.885  21.798  25.720  1.00  0.00     0.116 C 
BRANCH   2   3
ATOM      3  N   UNL A   1      35.765  22.167  26.560  1.00  0.00    -0.356 N 
ATOM      4  C   UNL A   1      34.726  23.020  26.354  1.00  0.00     0.227 C 
ATOM      5  O   UNL A   1      33.861  23.064  27.236  1.00  0.00    -0.274 OA
ATOM      6  H   UNL A   1      35.753  21.722  27.437  1.00  0.00     0.163 HD
BRANCH   4   7
ATOM      7  C   UNL A   1      34.597  23.913  25.113  1.00  0.00     0.103 C 
ATOM      8  C   UNL A   1      32.573  25.055  24.283  1.00  0.00     0.106 C 
ATOM      9  C   UNL A   1      33.555  26.007  24.886  1.00  0.00    -0.006 C 
ATOM     10  C   UNL A   1      33.315  23.705  24.303  1.00  0.00     0.047 C 
ATOM     11  C   UNL A   1      34.633  25.384  25.375  1.00  0.00    -0.016 C 
BRANCH   8  12
ATOM     12  N   UNL A   1      32.267  25.483  22.940  1.00  0.00    -0.349 N 
ATOM     13  C   UNL A   1      31.479  26.485  22.475  1.00  0.00     0.232 C 
ATOM     14  O   UNL A   1      31.326  26.544  21.250  1.00  0.00    -0.274 OA
ATOM     15  H   UNL A   1      32.708  24.955  22.236  1.00  0.00     0.164 HD
BRANCH  13  16
ATOM     16  C   UNL A   1      30.796  27.516  23.361  1.00  0.00     0.164 C 
ATOM     17  C   UNL A   1      31.212  28.986  23.274  1.00  0.00     0.221 C 
ATOM     18  C   UNL A   1      29.903  29.693  23.641  1.00  0.00     0.225 C 
ATOM     19  O   UNL A   1      28.858  28.864  23.105  1.00  0.00    -0.374 OA
ATOM     20  C   UNL A   1      29.279  27.505  23.294  1.00  0.00     0.180 C 
BRANCH  17  21
ATOM     21  N   UNL A   1      31.715  29.504  22.001  1.00  0.00    -0.352 N 
ATOM     22  H   UNL A   1      32.694  29.771  22.107  1.00  0.00     0.344 HD
ATOM     23  H   UNL A   1      31.168  30.319  21.725  1.00  0.00     0.344 HD
ATOM     24  H   UNL A   1      31.636  28.781  21.285  1.00  0.00     0.344 HD
ENDBRANCH  17  21
ENDBRANCH  13  16
ENDBRANCH   8  12
ENDBRANCH   4   7
ENDBRANCH   2   3
ENDBRANCH   1   2
BRANCH   1  25
ATOM     25  C   UNL A   1      37.882  19.581  24.883  1.00  0.00     0.023 C 
BRANCH  25  26
ATOM     26  C   UNL A   1      39.068  19.998  25.746  1.00  0.00     0.116 C 
BRANCH  26  27
ATOM     27  N   UNL A   1      40.142  19.019  25.755  1.00  0.00    -0.352 N 
ATOM     28  C   UNL A   1      41.482  19.205  25.981  1.00  0.00     0.251 C 
ATOM     29  H   UNL A   1      39.868  18.090  25.573  1.00  0.00     0.163 HD
ATOM     30  O   UNL A   1      42.267  18.271  25.823  1.00  0.00    -0.269 OA
BRANCH  28  31
ATOM     31  C   UNL A   1      41.994  20.533  26.379  1.00  0.00     0.039 A 
ATOM     32  C   UNL A   1      42.322  21.450  25.376  1.00  0.00     0.014 A 
ATOM     33  C   UNL A   1      42.151  20.881  27.723  1.00  0.00     0.014 A 
ATOM     34  C   UNL A   1      42.751  22.733  25.724  1.00  0.00     0.010 A 
ATOM     35  C   UNL A   1      42.498  22.185  28.068  1.00  0.00     0.010 A 
ATOM     36  C   UNL A   1      42.809  23.122  27.073  1.00  0.00    -0.014 A 
BRANCH  36  37
ATOM     37  C   UNL A   1      43.186  24.510  27.445  1.00  0.00     0.031 A 
ATOM     38  C   UNL A   1      44.623  24.954  27.390  1.00  0.00     0.074 A 
ATOM     39  C   UNL A   1      42.235  25.365  27.869  1.00  0.00     0.049 A 
ATOM     40  N   UNL A   1      45.134  26.127  27.667  1.00  0.00    -0.248 NA
ATOM     41  C   UNL A   1      45.619  23.943  27.001  1.00  0.00     0.031 C 
ATOM     42  C   UNL A   1      40.813  25.045  28.017  1.00  0.00     0.029 A 
ATOM     43  N   UNL A   1      42.319  26.680  28.250  1.00  0.00    -0.354 N 
ATOM     44  C   UNL A   1      46.506  25.993  27.494  1.00  0.00     0.074 A 
ATOM     45  C   UNL A   1      46.754  24.611  27.147  1.00  0.00     0.031 C 
ATOM     46  C   UNL A   1      40.155  26.143  28.417  1.00  0.00     0.029 A 
ATOM     47  C   UNL A   1      41.109  27.233  28.593  1.00  0.00     0.049 A 
ATOM     48  H   UNL A   1      43.166  27.181  28.274  1.00  0.00     0.167 HD
ATOM     49  C   UNL A   1      47.471  26.937  27.594  1.00  0.00     0.031 A 
ATOM     50  C   UNL A   1      40.800  28.478  29.002  1.00  0.00     0.031 A 
ATOM     51  C   UNL A   1      47.226  28.313  27.939  1.00  0.00     0.049 A 
ATOM     52  C   UNL A   1      41.891  29.506  29.110  1.00  0.00     0.074 A 
ATOM     53  C   UNL A   1      48.130  29.359  28.009  1.00  0.00     0.029 A 
ATOM     54  N   UNL A   1      45.987  28.833  28.278  1.00  0.00    -0.354 N 
ATOM     55  N   UNL A   1      43.172  29.383  28.861  1.00  0.00    -0.248 NA
ATOM     56  C   UNL A   1      41.486  30.852  29.539  1.00  0.00     0.031 C 
ATOM     57  C   UNL A   1      47.448  30.498  28.450  1.00  0.00     0.029 A 
ATOM     58  C   UNL A   1      46.107  30.178  28.588  1.00  0.00     0.049 A 
ATOM     59  H   UNL A   1      45.145  28.322  28.298  1.00  0.00     0.167 HD
ATOM     60  C   UNL A   1      43.723  30.640  29.077  1.00  0.00     0.074 A 
ATOM     61  C   UNL A   1      42.631  31.515  29.453  1.00  0.00     0.031 C 
ATOM     62  C   UNL A   1      45.014  31.035  28.972  1.00  0.00     0.031 A 
BRANCH  49  63
ATOM     63  C   UNL A   1      48.891  26.506  27.338  1.00  0.00    -0.014 A 
ATOM     64  C   UNL A   1      49.441  26.533  26.046  1.00  0.00     0.009 A 
ATOM     65  C   UNL A   1      49.701  26.098  28.410  1.00  0.00     0.009 A 
ATOM     66  C   UNL A   1      50.758  26.121  25.827  1.00  0.00     0.001 A 
ATOM     67  C   UNL A   1      51.027  25.717  28.193  1.00  0.00     0.001 A 
ATOM     68  C   UNL A   1      51.550  25.719  26.901  1.00  0.00     0.000 A 
ENDBRANCH  49  63
BRANCH  50  69
ATOM     69  C   UNL A   1      39.391  28.828  29.321  1.00  0.00    -0.014 A 
ATOM     70  C   UNL A   1      38.551  29.383  28.342  1.00  0.00     0.009 A 
ATOM     71  C   UNL A   1      38.879  28.618  30.611  1.00  0.00     0.009 A 
ATOM     72  C   UNL A   1      37.240  29.747  28.657  1.00  0.00     0.001 A 
ATOM     73  C   UNL A   1      37.558  28.953  30.914  1.00  0.00     0.001 A 
ATOM     74  C   UNL A   1      36.744  29.527  29.940  1.00  0.00     0.000 A 
ENDBRANCH  50  69
BRANCH  62  75
ATOM     75  C   UNL A   1      45.310  32.486  29.237  1.00  0.00    -0.014 A 
ATOM     76  C   UNL A   1      45.224  33.450  28.220  1.00  0.00     0.009 A 
ATOM     77  C   UNL A   1      45.666  32.896  30.532  1.00  0.00     0.009 A 
ATOM     78  C   UNL A   1      45.537  34.786  28.484  1.00  0.00     0.001 A 
ATOM     79  C   UNL A   1      45.943  34.237  30.800  1.00  0.00     0.001 A 
ATOM     80  C   UNL A   1      45.892  35.178  29.773  1.00  0.00     0.000 A 
ENDBRANCH  62  75
ENDBRANCH  36  37
ENDBRANCH  28  31
ENDBRANCH  26  27
ENDBRANCH  25  26
ENDBRANCH   1  25
TORSDOF 14
ENDMDL
MODEL 3
REMARK VINA RESULT:     -10.7      1.945      4.380
REMARK SMILES [NH3+][C@H]1COC[C@H]1C(=O)N[C@@H]1C=C[C@@H](C(=O)NCCCCNC(=O)c2ccc(-c3c4nc(c(-c5ccccc5)c5ccc([nH]5)c(-c5ccccc5)c5nc(c(-c6ccccc6)c6ccc3[nH]6)C=C5)C=C4)cc2)C1
REMARK SMILES IDX 18 1 17 2 16 3 14 4 15 5 13 7 10 8 11 9 72 10 12 11 9 12
REMARK SMILES IDX 7 13 8 14 6 16 2 17 3 18 4 19 5 20 1 21 19 25 20 26 21 27
REMARK SMILES IDX 22 28 23 30 24 31 25 32 71 33 26 34 70 35 27 36 28 37 29 38
REMARK SMILES IDX 64 39 30 40 69 41 63 42 65 43 31 44 68 45 62 46 61 47 32 49
REMARK SMILES IDX 54 50 39 51 53 52 40 53 43 54 52 55 66 56 41 57 42 58 51 60
REMARK SMILES IDX 67 61 44 62 33 63 34 64 38 65 35 66 37 67 36 68 55 69 56 70
REMARK SMILES IDX 60 71 57 72 59 73 58 74 45 75 46 76 50 77 47 78 49 79 48 80
REMARK H PARENT 16 6 9 15 1 22 1 23 1 24 21 29 65 48 43 59
REMARK Flexibility Score: inf
ROOT
ATOM      1  C   UNL A   1      36.736  20.769  24.680  1.00  0.00     0.023 C 
ENDROOT
BRANCH   1   2
ATOM      2  C   UNL A   1      35.295  20.298  24.856  1.00  0.00     0.116 C 
BRANCH   2   3
ATOM      3  N   UNL A   1      34.754  20.663  26.149  1.00  0.00    -0.356 N 
ATOM      4  C   UNL A   1      33.945  21.688  26.531  1.00  0.00     0.227 C 
ATOM      5  O   UNL A   1      33.573  21.690  27.709  1.00  0.00    -0.274 OA
ATOM      6  H   UNL A   1      35.019  20.063  26.883  1.00  0.00     0.163 HD
BRANCH   4   7
ATOM      7  C   UNL A   1      33.501  22.812  25.587  1.00  0.00     0.103 C 
ATOM      8  C   UNL A   1      32.690  25.061  26.200  1.00  0.00     0.106 C 
ATOM      9  C   UNL A   1      34.066  25.094  25.617  1.00  0.00    -0.006 C 
ATOM     10  C   UNL A   1      32.264  23.588  26.049  1.00  0.00     0.047 C 
ATOM     11  C   UNL A   1      34.523  23.871  25.324  1.00  0.00    -0.016 C 
BRANCH   8  12
ATOM     12  N   UNL A   1      31.839  25.948  25.445  1.00  0.00    -0.349 N 
ATOM     13  C   UNL A   1      31.661  27.292  25.511  1.00  0.00     0.232 C 
ATOM     14  O   UNL A   1      30.772  27.766  24.796  1.00  0.00    -0.274 OA
ATOM     15  H   UNL A   1      31.290  25.500  24.762  1.00  0.00     0.164 HD
BRANCH  13  16
ATOM     16  C   UNL A   1      32.484  28.221  26.390  1.00  0.00     0.164 C 
ATOM     17  C   UNL A   1      33.509  29.161  25.754  1.00  0.00     0.221 C 
ATOM     18  C   UNL A   1      33.496  30.335  26.739  1.00  0.00     0.225 C 
ATOM     19  O   UNL A   1      32.142  30.423  27.210  1.00  0.00    -0.374 OA
ATOM     20  C   UNL A   1      31.669  29.075  27.346  1.00  0.00     0.180 C 
BRANCH  17  21
ATOM     21  N   UNL A   1      33.269  29.651  24.395  1.00  0.00    -0.352 N 
ATOM     22  H   UNL A   1      34.154  29.696  23.890  1.00  0.00     0.344 HD
ATOM     23  H   UNL A   1      32.854  30.582  24.438  1.00  0.00     0.344 HD
ATOM     24  H   UNL A   1      32.633  29.016  23.912  1.00  0.00     0.344 HD
ENDBRANCH  17  21
ENDBRANCH  13  16
ENDBRANCH   8  12
ENDBRANCH   4   7
ENDBRANCH   2   3
ENDBRANCH   1   2
BRANCH   1  25
ATOM     25  C   UNL A   1      37.793  19.700  24.964  1.00  0.00     0.023 C 
BRANCH  25  26
ATOM     26  C   UNL A   1      38.990  20.169  25.786  1.00  0.00     0.116 C 
BRANCH  26  27
ATOM     27  N   UNL A   1      40.099  19.229  25.768  1.00  0.00    -0.352 N 
ATOM     28  C   UNL A   1      41.421  19.443  26.064  1.00  0.00     0.251 C 
ATOM     29  H   UNL A   1      39.867  18.307  25.509  1.00  0.00     0.163 HD
ATOM     30  O   UNL A   1      42.245  18.551  25.872  1.00  0.00    -0.269 OA
BRANCH  28  31
ATOM     31  C   UNL A   1      41.866  20.756  26.578  1.00  0.00     0.039 A 
ATOM     32  C   UNL A   1      42.292  21.723  25.663  1.00  0.00     0.014 A 
ATOM     33  C   UNL A   1      41.867  21.040  27.946  1.00  0.00     0.014 A 
ATOM     34  C   UNL A   1      42.661  22.990  26.116  1.00  0.00     0.010 A 
ATOM     35  C   UNL A   1      42.155  22.329  28.389  1.00  0.00     0.010 A 
ATOM     36  C   UNL A   1      42.562  23.315  27.480  1.00  0.00    -0.014 A 
BRANCH  36  37
ATOM     37  C   UNL A   1      42.876  24.686  27.956  1.00  0.00     0.031 A 
ATOM     38  C   UNL A   1      44.301  25.110  28.189  1.00  0.00     0.074 A 
ATOM     39  C   UNL A   1      41.870  25.545  28.216  1.00  0.00     0.049 A 
ATOM     40  N   UNL A   1      44.763  26.267  28.591  1.00  0.00    -0.248 NA
ATOM     41  C   UNL A   1      45.343  24.094  27.967  1.00  0.00     0.031 C 
ATOM     42  C   UNL A   1      40.443  25.244  28.082  1.00  0.00     0.029 A 
ATOM     43  N   UNL A   1      41.895  26.848  28.644  1.00  0.00    -0.354 N 
ATOM     44  C   UNL A   1      46.141  26.116  28.678  1.00  0.00     0.074 A 
ATOM     45  C   UNL A   1      46.437  24.740  28.345  1.00  0.00     0.031 C 
ATOM     46  C   UNL A   1      39.732  26.341  28.381  1.00  0.00     0.029 A 
ATOM     47  C   UNL A   1      40.647  27.411  28.767  1.00  0.00     0.049 A 
ATOM     48  H   UNL A   1      42.727  27.335  28.843  1.00  0.00     0.167 HD
ATOM     49  C   UNL A   1      47.080  27.042  28.987  1.00  0.00     0.031 A 
ATOM     50  C   UNL A   1      40.279  28.649  29.144  1.00  0.00     0.031 A 
ATOM     51  C   UNL A   1      46.788  28.412  29.318  1.00  0.00     0.049 A 
ATOM     52  C   UNL A   1      41.339  29.657  29.487  1.00  0.00     0.074 A 
ATOM     53  C   UNL A   1      47.672  29.441  29.588  1.00  0.00     0.029 A 
ATOM     54  N   UNL A   1      45.511  28.942  29.430  1.00  0.00    -0.354 N 
ATOM     55  N   UNL A   1      42.643  29.521  29.483  1.00  0.00    -0.248 NA
ATOM     56  C   UNL A   1      40.875  30.998  29.870  1.00  0.00     0.031 C 
ATOM     57  C   UNL A   1      46.930  30.580  29.924  1.00  0.00     0.029 A 
ATOM     58  C   UNL A   1      45.584  30.277  29.796  1.00  0.00     0.049 A 
ATOM     59  H   UNL A   1      44.677  28.444  29.275  1.00  0.00     0.167 HD
ATOM     60  C   UNL A   1      43.156  30.763  29.836  1.00  0.00     0.074 A 
ATOM     61  C   UNL A   1      42.021  31.645  30.022  1.00  0.00     0.031 C 
ATOM     62  C   UNL A   1      44.448  31.141  29.990  1.00  0.00     0.031 A 
BRANCH  49  63
ATOM     63  C   UNL A   1      48.518  26.596  28.992  1.00  0.00    -0.014 A 
ATOM     64  C   UNL A   1      49.121  26.085  30.153  1.00  0.00     0.009 A 
ATOM     65  C   UNL A   1      49.272  26.657  27.809  1.00  0.00     0.009 A 
ATOM     66  C   UNL A   1      50.459  25.685  30.140  1.00  0.00     0.001 A 
ATOM     67  C   UNL A   1      50.599  26.225  27.791  1.00  0.00     0.001 A 
ATOM     68  C   UNL A   1      51.195  25.750  28.958  1.00  0.00     0.000 A 
ENDBRANCH  49  63
BRANCH  50  69
ATOM     69  C   UNL A   1      38.838  29.013  29.200  1.00  0.00    -0.014 A 
ATOM     70  C   UNL A   1      38.160  29.431  28.044  1.00  0.00     0.009 A 
ATOM     71  C   UNL A   1      38.135  28.954  30.413  1.00  0.00     0.009 A 
ATOM     72  C   UNL A   1      36.817  29.809  28.108  1.00  0.00     0.001 A 
ATOM     73  C   UNL A   1      36.784  29.302  30.468  1.00  0.00     0.001 A 
ATOM     74  C   UNL A   1      36.129  29.740  29.318  1.00  0.00     0.000 A 
ENDBRANCH  50  69
BRANCH  62  75
ATOM     75  C   UNL A   1      44.702  32.579  30.347  1.00  0.00    -0.014 A 
ATOM     76  C   UNL A   1      44.922  33.553  29.360  1.00  0.00     0.009 A 
ATOM     77  C   UNL A   1      44.708  32.968  31.696  1.00  0.00     0.009 A 
ATOM     78  C   UNL A   1      45.190  34.876  29.720  1.00  0.00     0.001 A 
ATOM     79  C   UNL A   1      44.941  34.297  32.051  1.00  0.00     0.001 A 
ATOM     80  C   UNL A   1      45.195  35.247  31.063  1.00  0.00     0.000 A 
ENDBRANCH  62  75
ENDBRANCH  36  37
ENDBRANCH  28  31
ENDBRANCH  26  27
ENDBRANCH  25  26
ENDBRANCH   1  25
TORSDOF 14
ENDMDL
