MODEL 1
REMARK VINA RESULT:     -12.3      0.000      0.000
REMARK SMILES Cc1c[nH]c(C[N@@H+](C)[C@@H](C(=O)NCCCCNC(=O)c2ccc(-c3c4nc(c(-c5ccccc5)c5ccc([nH]5)c(-c5ccccc5)c5nc(c(-c6ccccc6)c6ccc3[nH]6)C=C5)C=C4)cc2)c2ccc(NC(=O)N3CCCC3)cc2)n1
REMARK SMILES IDX 14 1 13 2 12 3 10 4 11 5 9 7 7 8 8 9 6 11 5 12 1 13 2 14
REMARK SMILES IDX 3 15 82 16 4 17 68 19 69 20 81 21 70 22 80 23 71 24 72 25
REMARK SMILES IDX 73 26 74 28 75 29 76 30 79 31 77 32 78 33 15 34 16 35 17 36
REMARK SMILES IDX 18 37 19 39 20 40 21 41 67 42 22 43 66 44 23 45 24 46 25 47
REMARK SMILES IDX 60 48 26 49 65 50 59 51 61 52 27 53 64 54 58 55 57 56 28 58
REMARK SMILES IDX 50 59 35 60 49 61 36 62 39 63 48 64 62 65 37 66 38 67 47 69
REMARK SMILES IDX 63 70 40 71 29 72 30 73 34 74 31 75 33 76 32 77 51 78 52 79
REMARK SMILES IDX 56 80 53 81 55 82 54 83 41 84 42 85 46 86 43 87 45 88 44 89
REMARK H PARENT 12 6 7 10 4 18 72 27 17 38 61 57 39 68
REMARK Flexibility Score: inf
ROOT
ATOM      1  C   UNL A   1      36.174  20.694  25.300  1.00  0.00     0.023 C 
ENDROOT
BRANCH   1   2
ATOM      2  C   UNL A   1      35.994  22.184  25.597  1.00  0.00     0.116 C 
BRANCH   2   3
ATOM      3  N   UNL A   1      35.871  22.919  24.357  1.00  0.00    -0.351 N 
ATOM      4  C   UNL A   1      34.763  23.055  23.566  1.00  0.00     0.283 C 
ATOM      5  O   UNL A   1      34.969  23.332  22.377  1.00  0.00    -0.268 OA
ATOM      6  H   UNL A   1      36.684  23.377  24.045  1.00  0.00     0.163 HD
BRANCH   4   7
ATOM      7  C   UNL A   1      33.330  22.882  24.171  1.00  0.00     0.305 C 
BRANCH   7   8
ATOM      8  N   UNL A   1      32.792  21.523  23.905  1.00  0.00    -0.317 N 
ATOM      9  C   UNL A   1      32.025  21.351  22.692  1.00  0.00     0.334 C 
ATOM     10  H   UNL A   1      33.684  21.069  23.716  1.00  0.00     0.349 HD
BRANCH   8  11
ATOM     11  C   UNL A   1      32.275  20.744  25.036  1.00  0.00     0.339 C 
BRANCH  11  12
ATOM     12  C   UNL A   1      32.693  19.308  24.993  1.00  0.00     0.161 A 
ATOM     13  C   UNL A   1      34.077  16.405  23.484  1.00  0.00     0.068 C 
ATOM     14  C   UNL A   1      33.440  17.383  24.392  1.00  0.00     0.056 A 
ATOM     15  C   UNL A   1      33.171  17.278  25.738  1.00  0.00     0.107 A 
ATOM     16  N   UNL A   1      33.071  18.622  23.930  1.00  0.00    -0.233 NA
ATOM     17  N   UNL A   1      32.731  18.518  26.115  1.00  0.00    -0.344 N 
ATOM     18  H   UNL A   1      32.486  18.793  27.028  1.00  0.00     0.167 HD
ENDBRANCH  11  12
ENDBRANCH   8  11
ENDBRANCH   7   8
BRANCH   7  19
ATOM     19  C   UNL A   1      32.361  23.980  23.701  1.00  0.00     0.019 A 
ATOM     20  C   UNL A   1      31.237  24.357  24.447  1.00  0.00     0.012 A 
ATOM     21  C   UNL A   1      32.592  24.663  22.497  1.00  0.00     0.012 A 
ATOM     22  C   UNL A   1      30.556  25.537  24.149  1.00  0.00     0.027 A 
ATOM     23  C   UNL A   1      31.924  25.856  22.212  1.00  0.00     0.027 A 
ATOM     24  C   UNL A   1      31.003  26.364  23.123  1.00  0.00     0.042 A 
BRANCH  24  25
ATOM     25  N   UNL A   1      30.600  27.701  22.977  1.00  0.00    -0.308 N 
ATOM     26  C   UNL A   1      30.783  28.780  23.788  1.00  0.00     0.321 C 
ATOM     27  H   UNL A   1      30.101  27.891  22.150  1.00  0.00     0.171 HD
ATOM     28  O   UNL A   1      29.990  29.720  23.703  1.00  0.00    -0.248 OA
ATOM     29  N   UNL A   1      31.835  28.814  24.661  1.00  0.00    -0.325 N 
ATOM     30  C   UNL A   1      33.199  28.382  24.421  1.00  0.00     0.121 C 
ATOM     31  C   UNL A   1      31.799  29.655  25.834  1.00  0.00     0.121 C 
ATOM     32  C   UNL A   1      33.747  28.186  25.823  1.00  0.00     0.023 C 
ATOM     33  C   UNL A   1      33.027  29.253  26.651  1.00  0.00     0.023 C 
ENDBRANCH  24  25
ENDBRANCH   7  19
ENDBRANCH   4   7
ENDBRANCH   2   3
ENDBRANCH   1   2
BRANCH   1  34
ATOM     34  C   UNL A   1      37.553  20.313  24.767  1.00  0.00     0.023 C 
BRANCH  34  35
ATOM     35  C   UNL A   1      38.702  20.588  25.724  1.00  0.00     0.116 C 
BRANCH  35  36
ATOM     36  N   UNL A   1      39.705  19.535  25.728  1.00  0.00    -0.352 N 
ATOM     37  C   UNL A   1      41.037  19.619  26.070  1.00  0.00     0.251 C 
ATOM     38  H   UNL A   1      39.392  18.645  25.449  1.00  0.00     0.163 HD
ATOM     39  O   UNL A   1      41.784  18.673  25.908  1.00  0.00    -0.269 OA
BRANCH  37  40
ATOM     40  C   UNL A   1      41.549  20.899  26.604  1.00  0.00     0.039 A 
ATOM     41  C   UNL A   1      42.042  21.853  25.713  1.00  0.00     0.014 A 
ATOM     42  C   UNL A   1      41.477  21.172  27.972  1.00  0.00     0.014 A 
ATOM     43  C   UNL A   1      42.399  23.115  26.189  1.00  0.00     0.010 A 
ATOM     44  C   UNL A   1      41.746  22.454  28.429  1.00  0.00     0.010 A 
ATOM     45  C   UNL A   1      42.214  23.437  27.544  1.00  0.00    -0.014 A 
BRANCH  45  46
ATOM     46  C   UNL A   1      42.516  24.791  28.064  1.00  0.00     0.031 A 
ATOM     47  C   UNL A   1      43.919  25.136  28.482  1.00  0.00     0.074 A 
ATOM     48  C   UNL A   1      41.520  25.682  28.234  1.00  0.00     0.049 A 
ATOM     49  N   UNL A   1      44.372  26.238  29.024  1.00  0.00    -0.248 NA
ATOM     50  C   UNL A   1      44.941  24.092  28.296  1.00  0.00     0.031 C 
ATOM     51  C   UNL A   1      40.110  25.451  27.914  1.00  0.00     0.029 A 
ATOM     52  N   UNL A   1      41.545  26.963  28.723  1.00  0.00    -0.354 N 
ATOM     53  C   UNL A   1      45.720  26.008  29.267  1.00  0.00     0.074 A 
ATOM     54  C   UNL A   1      45.999  24.647  28.867  1.00  0.00     0.031 C 
ATOM     55  C   UNL A   1      39.411  26.566  28.183  1.00  0.00     0.029 A 
ATOM     56  C   UNL A   1      40.314  27.574  28.729  1.00  0.00     0.049 A 
ATOM     57  H   UNL A   1      42.366  27.403  29.040  1.00  0.00     0.167 HD
ATOM     58  C   UNL A   1      46.651  26.860  29.757  1.00  0.00     0.031 A 
ATOM     59  C   UNL A   1      39.955  28.808  29.128  1.00  0.00     0.031 A 
ATOM     60  C   UNL A   1      46.378  28.220  30.133  1.00  0.00     0.049 A 
ATOM     61  C   UNL A   1      41.005  29.739  29.664  1.00  0.00     0.074 A 
ATOM     62  C   UNL A   1      47.263  29.187  30.575  1.00  0.00     0.029 A 
ATOM     63  N   UNL A   1      45.121  28.804  30.110  1.00  0.00    -0.354 N 
ATOM     64  N   UNL A   1      42.290  29.531  29.821  1.00  0.00    -0.248 NA
ATOM     65  C   UNL A   1      40.556  31.079  30.068  1.00  0.00     0.031 C 
ATOM     66  C   UNL A   1      46.532  30.345  30.864  1.00  0.00     0.029 A 
ATOM     67  C   UNL A   1      45.202  30.114  30.552  1.00  0.00     0.049 A 
ATOM     68  H   UNL A   1      44.293  28.355  29.822  1.00  0.00     0.167 HD
ATOM     69  C   UNL A   1      42.808  30.721  30.315  1.00  0.00     0.074 A 
ATOM     70  C   UNL A   1      41.700  31.650  30.419  1.00  0.00     0.031 C 
ATOM     71  C   UNL A   1      44.086  31.020  30.652  1.00  0.00     0.031 A 
BRANCH  58  72
ATOM     72  C   UNL A   1      48.049  26.331  29.917  1.00  0.00    -0.014 A 
ATOM     73  C   UNL A   1      48.959  26.342  28.848  1.00  0.00     0.009 A 
ATOM     74  C   UNL A   1      48.465  25.819  31.156  1.00  0.00     0.009 A 
ATOM     75  C   UNL A   1      50.240  25.807  29.002  1.00  0.00     0.001 A 
ATOM     76  C   UNL A   1      49.756  25.315  31.317  1.00  0.00     0.001 A 
ATOM     77  C   UNL A   1      50.638  25.297  30.236  1.00  0.00     0.000 A 
ENDBRANCH  58  72
BRANCH  59  78
ATOM     78  C   UNL A   1      38.541  29.247  29.004  1.00  0.00    -0.014 A 
ATOM     79  C   UNL A   1      38.054  29.727  27.779  1.00  0.00     0.009 A 
ATOM     80  C   UNL A   1      37.669  29.180  30.102  1.00  0.00     0.009 A 
ATOM     81  C   UNL A   1      36.729  30.152  27.661  1.00  0.00     0.001 A 
ATOM     82  C   UNL A   1      36.338  29.582  29.975  1.00  0.00     0.001 A 
ATOM     83  C   UNL A   1      35.871  30.075  28.757  1.00  0.00     0.000 A 
ENDBRANCH  59  78
BRANCH  71  84
ATOM     84  C   UNL A   1      44.360  32.415  31.136  1.00  0.00    -0.014 A 
ATOM     85  C   UNL A   1      44.319  32.734  32.502  1.00  0.00     0.009 A 
ATOM     86  C   UNL A   1      44.705  33.415  30.212  1.00  0.00     0.009 A 
ATOM     87  C   UNL A   1      44.589  34.035  32.930  1.00  0.00     0.001 A 
ATOM     88  C   UNL A   1      45.003  34.706  30.647  1.00  0.00     0.001 A 
ATOM     89  C   UNL A   1      44.936  35.017  32.004  1.00  0.00     0.000 A 
ENDBRANCH  71  84
ENDBRANCH  45  46
ENDBRANCH  37  40
ENDBRANCH  35  36
ENDBRANCH  34  35
ENDBRANCH   1  34
TORSDOF 16
ENDMDL
MODEL 2
REMARK VINA RESULT:     -12.2      2.756      8.929
REMARK SMILES Cc1c[nH]c(C[N@@H+](C)[C@@H](C(=O)NCCCCNC(=O)c2ccc(-c3c4nc(c(-c5ccccc5)c5ccc([nH]5)c(-c5ccccc5)c5nc(c(-c6ccccc6)c6ccc3[nH]6)C=C5)C=C4)cc2)c2ccc(NC(=O)N3CCCC3)cc2)n1
REMARK SMILES IDX 14 1 13 2 12 3 10 4 11 5 9 7 7 8 8 9 6 11 5 12 1 13 2 14
REMARK SMILES IDX 3 15 82 16 4 17 68 19 69 20 81 21 70 22 80 23 71 24 72 25
REMARK SMILES IDX 73 26 74 28 75 29 76 30 79 31 77 32 78 33 15 34 16 35 17 36
REMARK SMILES IDX 18 37 19 39 20 40 21 41 67 42 22 43 66 44 23 45 24 46 25 47
REMARK SMILES IDX 60 48 26 49 65 50 59 51 61 52 27 53 64 54 58 55 57 56 28 58
REMARK SMILES IDX 50 59 35 60 49 61 36 62 39 63 48 64 62 65 37 66 38 67 47 69
REMARK SMILES IDX 63 70 40 71 29 72 30 73 34 74 31 75 33 76 32 77 51 78 52 79
REMARK SMILES IDX 56 80 53 81 55 82 54 83 41 84 42 85 46 86 43 87 45 88 44 89
REMARK H PARENT 12 6 7 10 4 18 72 27 17 38 61 57 39 68
REMARK Flexibility Score: inf
ROOT
ATOM      1  C   UNL A   1      32.593  29.686  25.128  1.00  0.00     0.023 C 
ENDROOT
BRANCH   1   2
ATOM      2  C   UNL A   1      33.434  28.544  25.700  1.00  0.00     0.116 C 
BRANCH   2   3
ATOM      3  N   UNL A   1      32.598  27.669  26.491  1.00  0.00    -0.351 N 
ATOM      4  C   UNL A   1      31.565  26.880  26.063  1.00  0.00     0.283 C 
ATOM      5  O   UNL A   1      30.725  26.567  26.916  1.00  0.00    -0.268 OA
ATOM      6  H   UNL A   1      32.796  27.637  27.454  1.00  0.00     0.163 HD
BRANCH   4   7
ATOM      7  C   UNL A   1      31.495  26.403  24.573  1.00  0.00     0.305 C 
BRANCH   7   8
ATOM      8  N   UNL A   1      30.331  27.000  23.870  1.00  0.00    -0.317 N 
ATOM      9  C   UNL A   1      29.095  26.251  23.901  1.00  0.00     0.334 C 
ATOM     10  H   UNL A   1      30.181  27.777  24.512  1.00  0.00     0.349 HD
BRANCH   8  11
ATOM     11  C   UNL A   1      30.564  27.685  22.593  1.00  0.00     0.339 C 
BRANCH  11  12
ATOM     12  C   UNL A   1      29.853  28.998  22.499  1.00  0.00     0.161 A 
ATOM     13  C   UNL A   1      27.546  31.489  23.544  1.00  0.00     0.068 C 
ATOM     14  C   UNL A   1      28.561  30.686  22.831  1.00  0.00     0.056 A 
ATOM     15  C   UNL A   1      29.407  31.055  21.809  1.00  0.00     0.107 A 
ATOM     16  N   UNL A   1      28.800  29.384  23.197  1.00  0.00    -0.233 NA
ATOM     17  N   UNL A   1      30.246  29.989  21.633  1.00  0.00    -0.344 N 
ATOM     18  H   UNL A   1      30.997  29.941  20.999  1.00  0.00     0.167 HD
ENDBRANCH  11  12
ENDBRANCH   8  11
ENDBRANCH   7   8
BRANCH   7  19
ATOM     19  C   UNL A   1      31.509  24.870  24.450  1.00  0.00     0.019 A 
ATOM     20  C   UNL A   1      32.010  24.215  23.318  1.00  0.00     0.012 A 
ATOM     21  C   UNL A   1      31.030  24.068  25.498  1.00  0.00     0.012 A 
ATOM     22  C   UNL A   1      32.281  22.847  23.357  1.00  0.00     0.027 A 
ATOM     23  C   UNL A   1      31.321  22.703  25.544  1.00  0.00     0.027 A 
ATOM     24  C   UNL A   1      32.078  22.126  24.530  1.00  0.00     0.042 A 
BRANCH  24  25
ATOM     25  N   UNL A   1      32.630  20.855  24.760  1.00  0.00    -0.308 N 
ATOM     26  C   UNL A   1      33.927  20.453  24.861  1.00  0.00     0.321 C 
ATOM     27  H   UNL A   1      31.968  20.134  24.866  1.00  0.00     0.171 HD
ATOM     28  O   UNL A   1      34.197  19.275  24.618  1.00  0.00    -0.248 OA
ATOM     29  N   UNL A   1      34.895  21.339  25.242  1.00  0.00    -0.325 N 
ATOM     30  C   UNL A   1      34.813  22.351  26.278  1.00  0.00     0.121 C 
ATOM     31  C   UNL A   1      36.281  21.117  24.900  1.00  0.00     0.121 C 
ATOM     32  C   UNL A   1      35.930  23.310  25.910  1.00  0.00     0.023 C 
ATOM     33  C   UNL A   1      37.001  22.407  25.294  1.00  0.00     0.023 C 
ENDBRANCH  24  25
ENDBRANCH   7  19
ENDBRANCH   4   7
ENDBRANCH   2   3
ENDBRANCH   1   2
BRANCH   1  34
ATOM     34  C   UNL A   1      31.879  30.538  26.174  1.00  0.00     0.023 C 
BRANCH  34  35
ATOM     35  C   UNL A   1      32.802  31.281  27.126  1.00  0.00     0.116 C 
BRANCH  35  36
ATOM     36  N   UNL A   1      32.382  32.651  27.376  1.00  0.00    -0.352 N 
ATOM     37  C   UNL A   1      33.023  33.626  28.108  1.00  0.00     0.251 C 
ATOM     38  H   UNL A   1      31.527  32.917  26.968  1.00  0.00     0.163 HD
ATOM     39  O   UNL A   1      32.486  34.696  28.328  1.00  0.00    -0.269 OA
BRANCH  37  40
ATOM     40  C   UNL A   1      34.364  33.331  28.656  1.00  0.00     0.039 A 
ATOM     41  C   UNL A   1      34.462  32.689  29.890  1.00  0.00     0.014 A 
ATOM     42  C   UNL A   1      35.510  33.632  27.915  1.00  0.00     0.014 A 
ATOM     43  C   UNL A   1      35.714  32.281  30.353  1.00  0.00     0.010 A 
ATOM     44  C   UNL A   1      36.741  33.146  28.333  1.00  0.00     0.010 A 
ATOM     45  C   UNL A   1      36.856  32.471  29.558  1.00  0.00    -0.014 A 
BRANCH  45  46
ATOM     46  C   UNL A   1      38.188  31.985  29.990  1.00  0.00     0.031 A 
ATOM     47  C   UNL A   1      38.711  30.675  29.470  1.00  0.00     0.074 A 
ATOM     48  C   UNL A   1      38.891  32.680  30.906  1.00  0.00     0.049 A 
ATOM     49  N   UNL A   1      39.816  30.045  29.779  1.00  0.00    -0.248 NA
ATOM     50  C   UNL A   1      37.864  29.962  28.499  1.00  0.00     0.031 C 
ATOM     51  C   UNL A   1      38.469  33.939  31.524  1.00  0.00     0.029 A 
ATOM     52  N   UNL A   1      40.109  32.419  31.479  1.00  0.00    -0.354 N 
ATOM     53  C   UNL A   1      39.781  28.855  29.064  1.00  0.00     0.074 A 
ATOM     54  C   UNL A   1      38.524  28.824  28.350  1.00  0.00     0.031 C 
ATOM     55  C   UNL A   1      39.429  34.358  32.364  1.00  0.00     0.029 A 
ATOM     56  C   UNL A   1      40.513  33.381  32.373  1.00  0.00     0.049 A 
ATOM     57  H   UNL A   1      40.643  31.619  31.270  1.00  0.00     0.167 HD
ATOM     58  C   UNL A   1      40.722  27.884  28.986  1.00  0.00     0.031 A 
ATOM     59  C   UNL A   1      41.633  33.466  33.114  1.00  0.00     0.031 A 
ATOM     60  C   UNL A   1      41.981  27.927  29.677  1.00  0.00     0.049 A 
ATOM     61  C   UNL A   1      42.666  32.380  33.009  1.00  0.00     0.074 A 
ATOM     62  C   UNL A   1      43.031  27.029  29.613  1.00  0.00     0.029 A 
ATOM     63  N   UNL A   1      42.358  28.926  30.561  1.00  0.00    -0.354 N 
ATOM     64  N   UNL A   1      42.651  31.295  32.273  1.00  0.00    -0.248 NA
ATOM     65  C   UNL A   1      43.875  32.536  33.830  1.00  0.00     0.031 C 
ATOM     66  C   UNL A   1      44.027  27.462  30.495  1.00  0.00     0.029 A 
ATOM     67  C   UNL A   1      43.618  28.656  31.068  1.00  0.00     0.049 A 
ATOM     68  H   UNL A   1      41.812  29.711  30.795  1.00  0.00     0.167 HD
ATOM     69  C   UNL A   1      43.857  30.653  32.520  1.00  0.00     0.074 A 
ATOM     70  C   UNL A   1      44.585  31.477  33.464  1.00  0.00     0.031 C 
ATOM     71  C   UNL A   1      44.322  29.487  32.010  1.00  0.00     0.031 A 
BRANCH  58  72
ATOM     72  C   UNL A   1      40.409  26.693  28.124  1.00  0.00    -0.014 A 
ATOM     73  C   UNL A   1      40.892  26.598  26.810  1.00  0.00     0.009 A 
ATOM     74  C   UNL A   1      39.623  25.649  28.635  1.00  0.00     0.009 A 
ATOM     75  C   UNL A   1      40.556  25.504  26.008  1.00  0.00     0.001 A 
ATOM     76  C   UNL A   1      39.315  24.542  27.844  1.00  0.00     0.001 A 
ATOM     77  C   UNL A   1      39.770  24.476  26.527  1.00  0.00     0.000 A 
ENDBRANCH  58  72
BRANCH  59  78
ATOM     78  C   UNL A   1      41.852  34.640  33.998  1.00  0.00    -0.014 A 
ATOM     79  C   UNL A   1      42.466  35.798  33.496  1.00  0.00     0.009 A 
ATOM     80  C   UNL A   1      41.442  34.616  35.340  1.00  0.00     0.009 A 
ATOM     81  C   UNL A   1      42.685  36.899  34.326  1.00  0.00     0.001 A 
ATOM     82  C   UNL A   1      41.639  35.728  36.161  1.00  0.00     0.001 A 
ATOM     83  C   UNL A   1      42.267  36.866  35.656  1.00  0.00     0.000 A 
ENDBRANCH  59  78
BRANCH  71  84
ATOM     84  C   UNL A   1      45.694  29.049  32.441  1.00  0.00    -0.014 A 
ATOM     85  C   UNL A   1      45.875  28.210  33.551  1.00  0.00     0.009 A 
ATOM     86  C   UNL A   1      46.815  29.448  31.696  1.00  0.00     0.009 A 
ATOM     87  C   UNL A   1      47.157  27.805  33.926  1.00  0.00     0.001 A 
ATOM     88  C   UNL A   1      48.092  29.017  32.056  1.00  0.00     0.001 A 
ATOM     89  C   UNL A   1      48.263  28.204  33.175  1.00  0.00     0.000 A 
ENDBRANCH  71  84
ENDBRANCH  45  46
ENDBRANCH  37  40
ENDBRANCH  35  36
ENDBRANCH  34  35
ENDBRANCH   1  34
TORSDOF 16
ENDMDL
MODEL 3
REMARK VINA RESULT:     -12.2      1.621      2.197
REMARK SMILES Cc1c[nH]c(C[N@@H+](C)[C@@H](C(=O)NCCCCNC(=O)c2ccc(-c3c4nc(c(-c5ccccc5)c5ccc([nH]5)c(-c5ccccc5)c5nc(c(-c6ccccc6)c6ccc3[nH]6)C=C5)C=C4)cc2)c2ccc(NC(=O)N3CCCC3)cc2)n1
REMARK SMILES IDX 14 1 13 2 12 3 10 4 11 5 9 7 7 8 8 9 6 11 5 12 1 13 2 14
REMARK SMILES IDX 3 15 82 16 4 17 68 19 69 20 81 21 70 22 80 23 71 24 72 25
REMARK SMILES IDX 73 26 74 28 75 29 76 30 79 31 77 32 78 33 15 34 16 35 17 36
REMARK SMILES IDX 18 37 19 39 20 40 21 41 67 42 22 43 66 44 23 45 24 46 25 47
REMARK SMILES IDX 60 48 26 49 65 50 59 51 61 52 27 53 64 54 58 55 57 56 28 58
REMARK SMILES IDX 50 59 35 60 49 61 36 62 39 63 48 64 62 65 37 66 38 67 47 69
REMARK SMILES IDX 63 70 40 71 29 72 30 73 34 74 31 75 33 76 32 77 51 78 52 79
REMARK SMILES IDX 56 80 53 81 55 82 54 83 41 84 42 85 46 86 43 87 45 88 44 89
REMARK H PARENT 12 6 7 10 4 18 72 27 17 38 61 57 39 68
REMARK Flexibility Score: inf
ROOT
ATOM      1  C   UNL A   1      37.156  20.535  25.029  1.00  0.00     0.023 C 
ENDROOT
BRANCH   1   2
ATOM      2  C   UNL A   1      37.567  22.005  25.136  1.00  0.00     0.116 C 
BRANCH   2   3
ATOM      3  N   UNL A   1      37.038  22.745  24.012  1.00  0.00    -0.351 N 
ATOM      4  C   UNL A   1      35.726  22.941  23.677  1.00  0.00     0.283 C 
ATOM      5  O   UNL A   1      35.497  23.206  22.490  1.00  0.00    -0.268 OA
ATOM      6  H   UNL A   1      37.703  23.158  23.416  1.00  0.00     0.163 HD
BRANCH   4   7
ATOM      7  C   UNL A   1      34.606  22.847  24.767  1.00  0.00     0.305 C 
BRANCH   7   8
ATOM      8  N   UNL A   1      33.729  21.669  24.540  1.00  0.00    -0.317 N 
ATOM      9  C   UNL A   1      32.669  21.823  23.570  1.00  0.00     0.334 C 
ATOM     10  H   UNL A   1      34.423  21.083  24.078  1.00  0.00     0.349 HD
BRANCH   8  11
ATOM     11  C   UNL A   1      33.346  20.852  25.697  1.00  0.00     0.339 C 
BRANCH  11  12
ATOM     12  C   UNL A   1      33.285  19.391  25.383  1.00  0.00     0.161 A 
ATOM     13  C   UNL A   1      34.046  16.469  23.511  1.00  0.00     0.068 C 
ATOM     14  C   UNL A   1      33.525  17.451  24.485  1.00  0.00     0.056 A 
ATOM     15  C   UNL A   1      32.873  17.235  25.678  1.00  0.00     0.107 A 
ATOM     16  N   UNL A   1      33.707  18.797  24.281  1.00  0.00    -0.233 NA
ATOM     17  N   UNL A   1      32.760  18.470  26.255  1.00  0.00    -0.344 N 
ATOM     18  H   UNL A   1      32.371  18.664  27.139  1.00  0.00     0.167 HD
ENDBRANCH  11  12
ENDBRANCH   8  11
ENDBRANCH   7   8
BRANCH   7  19
ATOM     19  C   UNL A   1      33.793  24.148  24.883  1.00  0.00     0.019 A 
ATOM     20  C   UNL A   1      32.831  24.343  25.882  1.00  0.00     0.012 A 
ATOM     21  C   UNL A   1      34.012  25.204  23.985  1.00  0.00     0.012 A 
ATOM     22  C   UNL A   1      32.333  25.620  26.140  1.00  0.00     0.027 A 
ATOM     23  C   UNL A   1      33.529  26.486  24.258  1.00  0.00     0.027 A 
ATOM     24  C   UNL A   1      32.805  26.715  25.423  1.00  0.00     0.042 A 
BRANCH  24  25
ATOM     25  N   UNL A   1      32.620  28.045  25.834  1.00  0.00    -0.308 N 
ATOM     26  C   UNL A   1      31.936  29.070  25.252  1.00  0.00     0.321 C 
ATOM     27  H   UNL A   1      33.058  28.277  26.685  1.00  0.00     0.171 HD
ATOM     28  O   UNL A   1      32.265  30.226  25.527  1.00  0.00    -0.248 OA
ATOM     29  N   UNL A   1      30.902  28.809  24.398  1.00  0.00    -0.325 N 
ATOM     30  C   UNL A   1      29.868  27.800  24.539  1.00  0.00     0.121 C 
ATOM     31  C   UNL A   1      30.487  29.783  23.415  1.00  0.00     0.121 C 
ATOM     32  C   UNL A   1      29.344  27.647  23.124  1.00  0.00     0.023 C 
ATOM     33  C   UNL A   1      29.479  29.051  22.528  1.00  0.00     0.023 C 
ENDBRANCH  24  25
ENDBRANCH   7  19
ENDBRANCH   4   7
ENDBRANCH   2   3
ENDBRANCH   1   2
BRANCH   1  34
ATOM     34  C   UNL A   1      38.321  19.551  24.959  1.00  0.00     0.023 C 
BRANCH  34  35
ATOM     35  C   UNL A   1      39.502  19.900  25.851  1.00  0.00     0.116 C 
BRANCH  35  36
ATOM     36  N   UNL A   1      40.510  18.853  25.899  1.00  0.00    -0.352 N 
ATOM     37  C   UNL A   1      41.864  18.974  26.122  1.00  0.00     0.251 C 
ATOM     38  H   UNL A   1      40.182  17.937  25.751  1.00  0.00     0.163 HD
ATOM     39  O   UNL A   1      42.603  18.014  26.012  1.00  0.00    -0.269 OA
BRANCH  37  40
ATOM     40  C   UNL A   1      42.407  20.306  26.461  1.00  0.00     0.039 A 
ATOM     41  C   UNL A   1      42.950  21.092  25.445  1.00  0.00     0.014 A 
ATOM     42  C   UNL A   1      42.316  20.793  27.767  1.00  0.00     0.014 A 
ATOM     43  C   UNL A   1      43.339  22.403  25.726  1.00  0.00     0.010 A 
ATOM     44  C   UNL A   1      42.618  22.124  28.024  1.00  0.00     0.010 A 
ATOM     45  C   UNL A   1      43.136  22.940  27.007  1.00  0.00    -0.014 A 
BRANCH  45  46
ATOM     46  C   UNL A   1      43.473  24.350  27.316  1.00  0.00     0.031 A 
ATOM     47  C   UNL A   1      44.900  24.815  27.226  1.00  0.00     0.074 A 
ATOM     48  C   UNL A   1      42.512  25.189  27.750  1.00  0.00     0.049 A 
ATOM     49  N   UNL A   1      45.407  25.985  27.520  1.00  0.00    -0.248 NA
ATOM     50  C   UNL A   1      45.892  23.825  26.777  1.00  0.00     0.031 C 
ATOM     51  C   UNL A   1      41.100  24.844  27.929  1.00  0.00     0.029 A 
ATOM     52  N   UNL A   1      42.583  26.505  28.126  1.00  0.00    -0.354 N 
ATOM     53  C   UNL A   1      46.775  25.860  27.319  1.00  0.00     0.074 A 
ATOM     54  C   UNL A   1      47.026  24.490  26.933  1.00  0.00     0.031 C 
ATOM     55  C   UNL A   1      40.432  25.932  28.345  1.00  0.00     0.029 A 
ATOM     56  C   UNL A   1      41.372  27.037  28.500  1.00  0.00     0.049 A 
ATOM     57  H   UNL A   1      43.422  27.021  28.127  1.00  0.00     0.167 HD
ATOM     58  C   UNL A   1      47.738  26.808  27.422  1.00  0.00     0.031 A 
ATOM     59  C   UNL A   1      41.058  28.276  28.920  1.00  0.00     0.031 A 
ATOM     60  C   UNL A   1      47.485  28.176  27.784  1.00  0.00     0.049 A 
ATOM     61  C   UNL A   1      42.140  29.313  29.022  1.00  0.00     0.074 A 
ATOM     62  C   UNL A   1      48.378  29.229  27.850  1.00  0.00     0.029 A 
ATOM     63  N   UNL A   1      46.243  28.676  28.142  1.00  0.00    -0.354 N 
ATOM     64  N   UNL A   1      43.419  29.200  28.759  1.00  0.00    -0.248 NA
ATOM     65  C   UNL A   1      41.732  30.652  29.470  1.00  0.00     0.031 C 
ATOM     66  C   UNL A   1      47.683  30.361  28.293  1.00  0.00     0.029 A 
ATOM     67  C   UNL A   1      46.348  30.022  28.452  1.00  0.00     0.049 A 
ATOM     68  H   UNL A   1      45.408  28.154  28.171  1.00  0.00     0.167 HD
ATOM     69  C   UNL A   1      43.965  30.457  28.982  1.00  0.00     0.074 A 
ATOM     70  C   UNL A   1      42.874  31.321  29.389  1.00  0.00     0.031 C 
ATOM     71  C   UNL A   1      45.252  30.862  28.860  1.00  0.00     0.031 A 
BRANCH  58  72
ATOM     72  C   UNL A   1      49.152  26.382  27.144  1.00  0.00    -0.014 A 
ATOM     73  C   UNL A   1      49.673  26.392  25.840  1.00  0.00     0.009 A 
ATOM     74  C   UNL A   1      49.978  25.969  28.200  1.00  0.00     0.009 A 
ATOM     75  C   UNL A   1      50.976  25.953  25.593  1.00  0.00     0.001 A 
ATOM     76  C   UNL A   1      51.290  25.561  27.956  1.00  0.00     0.001 A 
ATOM     77  C   UNL A   1      51.783  25.540  26.652  1.00  0.00     0.000 A 
ENDBRANCH  58  72
BRANCH  59  78
ATOM     78  C   UNL A   1      39.647  28.614  29.243  1.00  0.00    -0.014 A 
ATOM     79  C   UNL A   1      39.157  28.432  30.545  1.00  0.00     0.009 A 
ATOM     80  C   UNL A   1      38.788  29.128  28.260  1.00  0.00     0.009 A 
ATOM     81  C   UNL A   1      37.829  28.736  30.851  1.00  0.00     0.001 A 
ATOM     82  C   UNL A   1      37.467  29.456  28.575  1.00  0.00     0.001 A 
ATOM     83  C   UNL A   1      36.987  29.253  29.868  1.00  0.00     0.000 A 
ENDBRANCH  59  78
BRANCH  71  84
ATOM     84  C   UNL A   1      45.546  32.308  29.141  1.00  0.00    -0.014 A 
ATOM     85  C   UNL A   1      45.931  32.737  30.420  1.00  0.00     0.009 A 
ATOM     86  C   UNL A   1      45.476  33.246  28.098  1.00  0.00     0.009 A 
ATOM     87  C   UNL A   1      46.211  34.084  30.655  1.00  0.00     0.001 A 
ATOM     88  C   UNL A   1      45.786  34.586  28.331  1.00  0.00     0.001 A 
ATOM     89  C   UNL A   1      46.144  35.005  29.611  1.00  0.00     0.000 A 
ENDBRANCH  71  84
ENDBRANCH  45  46
ENDBRANCH  37  40
ENDBRANCH  35  36
ENDBRANCH  34  35
ENDBRANCH   1  34
TORSDOF 16
ENDMDL
