MODEL 1
REMARK VINA RESULT:     -12.6      0.000      0.000
REMARK SMILES NS(=O)(=O)c1ccc(-n2nc(C(F)(F)F)cc2-c2ccc(C(=O)NCCCCNC(=O)c3ccc(-c4c5nc(c(-c6ccccc6)c6ccc([nH]6)c(-c6ccccc6)c6nc(c(-c7ccccc7)c7ccc4[nH]7)C=C6)C=C5)cc3)cc2)cc1
REMARK SMILES IDX 25 1 24 2 22 3 23 4 21 6 18 7 19 8 81 9 20 10 80 11 17 12
REMARK SMILES IDX 9 13 10 14 11 15 16 16 8 17 5 18 6 19 83 20 7 21 82 22 2 23
REMARK SMILES IDX 3 24 4 25 1 26 12 29 13 30 14 31 15 32 26 33 27 34 28 35
REMARK SMILES IDX 29 36 30 37 31 39 32 40 33 41 79 42 34 43 78 44 35 45 36 46
REMARK SMILES IDX 37 47 72 48 38 49 77 50 71 51 73 52 39 53 76 54 70 55 69 56
REMARK SMILES IDX 40 58 62 59 47 60 61 61 48 62 51 63 60 64 74 65 49 66 50 67
REMARK SMILES IDX 59 69 75 70 52 71 41 72 42 73 46 74 43 75 45 76 44 77 63 78
REMARK SMILES IDX 64 79 68 80 65 81 67 82 66 83 53 84 54 85 58 86 55 87 57 88
REMARK SMILES IDX 56 89
REMARK H PARENT 24 5 1 27 1 28 29 38 73 57 51 68
REMARK Flexibility Score: inf
ROOT
ATOM      1  C   UNL A   1      31.432  27.762  25.502  1.00  0.00     0.116 C 
ENDROOT
BRANCH   1   2
ATOM      2  N   UNL A   1      30.899  26.842  24.516  1.00  0.00    -0.352 N 
ATOM      3  C   UNL A   1      31.354  25.646  24.019  1.00  0.00     0.251 C 
ATOM      4  O   UNL A   1      30.639  25.068  23.200  1.00  0.00    -0.269 OA
ATOM      5  H   UNL A   1      30.044  27.132  24.126  1.00  0.00     0.163 HD
BRANCH   3   6
ATOM      6  C   UNL A   1      32.628  25.002  24.454  1.00  0.00     0.039 A 
ATOM      7  C   UNL A   1      35.057  23.738  25.111  1.00  0.00     0.000 A 
ATOM      8  C   UNL A   1      34.777  24.069  23.781  1.00  0.00     0.011 A 
ATOM      9  C   UNL A   1      34.133  24.051  26.105  1.00  0.00     0.011 A 
ATOM     10  C   UNL A   1      33.566  24.690  23.456  1.00  0.00     0.014 A 
ATOM     11  C   UNL A   1      32.955  24.722  25.782  1.00  0.00     0.014 A 
BRANCH   7  12
ATOM     12  C   UNL A   1      36.329  23.144  25.493  1.00  0.00     0.075 A 
ATOM     13  N   UNL A   1      36.560  21.781  25.623  1.00  0.00    -0.233 N 
ATOM     14  N   UNL A   1      37.784  21.530  26.158  1.00  0.00    -0.163 NA
ATOM     15  C   UNL A   1      38.420  22.720  26.135  1.00  0.00     0.167 A 
ATOM     16  C   UNL A   1      37.525  23.760  25.782  1.00  0.00     0.064 A 
BRANCH  13  17
ATOM     17  C   UNL A   1      35.710  20.714  25.232  1.00  0.00     0.065 A 
ATOM     18  C   UNL A   1      34.037  18.578  24.596  1.00  0.00     0.082 A 
ATOM     19  C   UNL A   1      33.477  19.799  24.969  1.00  0.00     0.024 A 
ATOM     20  C   UNL A   1      35.427  18.426  24.510  1.00  0.00     0.024 A 
ATOM     21  C   UNL A   1      34.315  20.864  25.292  1.00  0.00     0.030 A 
ATOM     22  C   UNL A   1      36.268  19.505  24.800  1.00  0.00     0.030 A 
BRANCH  18  23
ATOM     23  S   UNL A   1      33.010  17.182  24.246  1.00  0.00     0.238 S 
ATOM     24  O   UNL A   1      31.778  17.326  25.002  1.00  0.00    -0.207 OA
ATOM     25  O   UNL A   1      33.819  15.997  24.286  1.00  0.00    -0.207 OA
BRANCH  23  26
ATOM     26  N   UNL A   1      32.554  17.378  22.638  1.00  0.00    -0.225 NA
ATOM     27  H   UNL A   1      33.244  16.934  22.032  1.00  0.00     0.137 HD
ATOM     28  H   UNL A   1      32.500  18.374  22.419  1.00  0.00     0.137 HD
ENDBRANCH  23  26
ENDBRANCH  18  23
ENDBRANCH  13  17
BRANCH  15  29
ATOM     29  C   UNL A   1      39.886  22.886  26.438  1.00  0.00     0.435 C 
ATOM     30  F   UNL A   1      40.188  22.687  27.745  1.00  0.00    -0.164 F 
ATOM     31  F   UNL A   1      40.655  22.032  25.710  1.00  0.00    -0.164 F 
ATOM     32  F   UNL A   1      40.319  24.141  26.127  1.00  0.00    -0.164 F 
ENDBRANCH  15  29
ENDBRANCH   7  12
ENDBRANCH   3   6
ENDBRANCH   1   2
BRANCH   1  33
ATOM     33  C   UNL A   1      32.528  28.652  24.904  1.00  0.00     0.023 C 
BRANCH  33  34
ATOM     34  C   UNL A   1      33.829  28.709  25.717  1.00  0.00     0.023 C 
BRANCH  34  35
ATOM     35  C   UNL A   1      33.717  29.443  27.049  1.00  0.00     0.116 C 
BRANCH  35  36
ATOM     36  N   UNL A   1      34.023  30.868  26.936  1.00  0.00    -0.352 N 
ATOM     37  C   UNL A   1      34.975  31.592  27.626  1.00  0.00     0.251 C 
ATOM     38  H   UNL A   1      33.483  31.375  26.287  1.00  0.00     0.163 HD
ATOM     39  O   UNL A   1      34.878  32.807  27.749  1.00  0.00    -0.269 OA
BRANCH  37  40
ATOM     40  C   UNL A   1      36.125  30.878  28.200  1.00  0.00     0.039 A 
ATOM     41  C   UNL A   1      36.214  29.485  28.150  1.00  0.00     0.014 A 
ATOM     42  C   UNL A   1      37.144  31.639  28.768  1.00  0.00     0.014 A 
ATOM     43  C   UNL A   1      37.383  28.872  28.595  1.00  0.00     0.010 A 
ATOM     44  C   UNL A   1      38.343  31.048  29.086  1.00  0.00     0.010 A 
ATOM     45  C   UNL A   1      38.457  29.662  29.037  1.00  0.00    -0.014 A 
BRANCH  45  46
ATOM     46  C   UNL A   1      39.755  29.055  29.320  1.00  0.00     0.031 A 
ATOM     47  C   UNL A   1      40.073  28.903  30.768  1.00  0.00     0.074 A 
ATOM     48  C   UNL A   1      40.523  28.463  28.380  1.00  0.00     0.049 A 
ATOM     49  N   UNL A   1      41.005  29.500  31.432  1.00  0.00    -0.248 NA
ATOM     50  C   UNL A   1      39.180  28.079  31.599  1.00  0.00     0.031 C 
ATOM     51  C   UNL A   1      40.218  28.241  26.962  1.00  0.00     0.029 A 
ATOM     52  N   UNL A   1      41.711  27.816  28.532  1.00  0.00    -0.354 N 
ATOM     53  C   UNL A   1      40.950  28.986  32.725  1.00  0.00     0.074 A 
ATOM     54  C   UNL A   1      39.713  28.249  32.812  1.00  0.00     0.031 C 
ATOM     55  C   UNL A   1      41.060  27.311  26.458  1.00  0.00     0.029 A 
ATOM     56  C   UNL A   1      42.067  27.008  27.458  1.00  0.00     0.049 A 
ATOM     57  H   UNL A   1      42.272  27.912  29.336  1.00  0.00     0.167 HD
ATOM     58  C   UNL A   1      42.043  29.000  33.539  1.00  0.00     0.031 A 
ATOM     59  C   UNL A   1      43.101  26.134  27.404  1.00  0.00     0.031 A 
ATOM     60  C   UNL A   1      43.063  29.888  33.041  1.00  0.00     0.049 A 
ATOM     61  C   UNL A   1      44.061  26.521  28.462  1.00  0.00     0.074 A 
ATOM     62  C   UNL A   1      43.123  31.235  32.739  1.00  0.00     0.029 A 
ATOM     63  N   UNL A   1      44.135  29.313  32.400  1.00  0.00    -0.354 N 
ATOM     64  N   UNL A   1      44.756  27.620  28.426  1.00  0.00    -0.248 NA
ATOM     65  C   UNL A   1      43.924  25.908  29.772  1.00  0.00     0.031 C 
ATOM     66  C   UNL A   1      43.907  31.305  31.548  1.00  0.00     0.029 A 
ATOM     67  C   UNL A   1      44.344  30.015  31.243  1.00  0.00     0.049 A 
ATOM     68  H   UNL A   1      44.655  28.539  32.714  1.00  0.00     0.167 HD
ATOM     69  C   UNL A   1      44.748  28.079  29.734  1.00  0.00     0.074 A 
ATOM     70  C   UNL A   1      44.321  26.931  30.534  1.00  0.00     0.031 C 
ATOM     71  C   UNL A   1      44.804  29.415  30.011  1.00  0.00     0.031 A 
BRANCH  58  72
ATOM     72  C   UNL A   1      42.369  27.901  34.525  1.00  0.00    -0.014 A 
ATOM     73  C   UNL A   1      42.921  26.701  34.034  1.00  0.00     0.009 A 
ATOM     74  C   UNL A   1      41.885  27.875  35.846  1.00  0.00     0.009 A 
ATOM     75  C   UNL A   1      42.894  25.522  34.788  1.00  0.00     0.001 A 
ATOM     76  C   UNL A   1      41.896  26.709  36.617  1.00  0.00     0.001 A 
ATOM     77  C   UNL A   1      42.369  25.524  36.075  1.00  0.00     0.000 A 
ENDBRANCH  58  72
BRANCH  59  78
ATOM     78  C   UNL A   1      43.223  24.858  26.669  1.00  0.00    -0.014 A 
ATOM     79  C   UNL A   1      43.443  24.851  25.281  1.00  0.00     0.009 A 
ATOM     80  C   UNL A   1      43.410  23.651  27.367  1.00  0.00     0.009 A 
ATOM     81  C   UNL A   1      43.889  23.694  24.628  1.00  0.00     0.001 A 
ATOM     82  C   UNL A   1      43.850  22.495  26.713  1.00  0.00     0.001 A 
ATOM     83  C   UNL A   1      44.109  22.522  25.346  1.00  0.00     0.000 A 
ENDBRANCH  59  78
BRANCH  71  84
ATOM     84  C   UNL A   1      45.120  30.363  28.878  1.00  0.00    -0.014 A 
ATOM     85  C   UNL A   1      46.425  30.769  28.550  1.00  0.00     0.009 A 
ATOM     86  C   UNL A   1      44.074  30.737  28.021  1.00  0.00     0.009 A 
ATOM     87  C   UNL A   1      46.670  31.553  27.416  1.00  0.00     0.001 A 
ATOM     88  C   UNL A   1      44.321  31.499  26.877  1.00  0.00     0.001 A 
ATOM     89  C   UNL A   1      45.618  31.913  26.579  1.00  0.00     0.000 A 
ENDBRANCH  71  84
ENDBRANCH  45  46
ENDBRANCH  37  40
ENDBRANCH  35  36
ENDBRANCH  34  35
ENDBRANCH  33  34
ENDBRANCH   1  33
TORSDOF 16
ENDMDL
MODEL 2
REMARK VINA RESULT:     -12.5      3.315      8.470
REMARK SMILES NS(=O)(=O)c1ccc(-n2nc(C(F)(F)F)cc2-c2ccc(C(=O)NCCCCNC(=O)c3ccc(-c4c5nc(c(-c6ccccc6)c6ccc([nH]6)c(-c6ccccc6)c6nc(c(-c7ccccc7)c7ccc4[nH]7)C=C6)C=C5)cc3)cc2)cc1
REMARK SMILES IDX 25 1 24 2 22 3 23 4 21 6 18 7 19 8 81 9 20 10 80 11 17 12
REMARK SMILES IDX 9 13 10 14 11 15 16 16 8 17 5 18 6 19 83 20 7 21 82 22 2 23
REMARK SMILES IDX 3 24 4 25 1 26 12 29 13 30 14 31 15 32 26 33 27 34 28 35
REMARK SMILES IDX 29 36 30 37 31 39 32 40 33 41 79 42 34 43 78 44 35 45 36 46
REMARK SMILES IDX 37 47 72 48 38 49 77 50 71 51 73 52 39 53 76 54 70 55 69 56
REMARK SMILES IDX 40 58 62 59 47 60 61 61 48 62 51 63 60 64 74 65 49 66 50 67
REMARK SMILES IDX 59 69 75 70 52 71 41 72 42 73 46 74 43 75 45 76 44 77 63 78
REMARK SMILES IDX 64 79 68 80 65 81 67 82 66 83 53 84 54 85 58 86 55 87 57 88
REMARK SMILES IDX 56 89
REMARK H PARENT 24 5 1 27 1 28 29 38 73 57 51 68
REMARK Flexibility Score: inf
ROOT
ATOM      1  C   UNL A   1      34.096  21.451  25.385  1.00  0.00     0.116 C 
ENDROOT
BRANCH   1   2
ATOM      2  N   UNL A   1      33.055  21.687  24.404  1.00  0.00    -0.352 N 
ATOM      3  C   UNL A   1      32.451  22.831  23.947  1.00  0.00     0.251 C 
ATOM      4  O   UNL A   1      31.608  22.707  23.058  1.00  0.00    -0.269 OA
ATOM      5  H   UNL A   1      32.713  20.866  23.985  1.00  0.00     0.163 HD
BRANCH   3   6
ATOM      6  C   UNL A   1      32.797  24.199  24.433  1.00  0.00     0.039 A 
ATOM      7  C   UNL A   1      33.313  26.772  25.455  1.00  0.00     0.000 A 
ATOM      8  C   UNL A   1      32.473  25.898  26.152  1.00  0.00     0.011 A 
ATOM      9  C   UNL A   1      33.901  26.355  24.262  1.00  0.00     0.011 A 
ATOM     10  C   UNL A   1      32.212  24.622  25.638  1.00  0.00     0.014 A 
ATOM     11  C   UNL A   1      33.682  25.063  23.787  1.00  0.00     0.014 A 
BRANCH   7  12
ATOM     12  C   UNL A   1      33.651  28.083  25.986  1.00  0.00     0.075 A 
ATOM     13  N   UNL A   1      32.975  29.259  25.689  1.00  0.00    -0.233 N 
ATOM     14  N   UNL A   1      33.618  30.347  26.189  1.00  0.00    -0.163 NA
ATOM     15  C   UNL A   1      34.563  29.841  27.009  1.00  0.00     0.167 A 
ATOM     16  C   UNL A   1      34.652  28.435  26.864  1.00  0.00     0.064 A 
BRANCH  13  17
ATOM     17  C   UNL A   1      31.741  29.401  25.001  1.00  0.00     0.065 A 
ATOM     18  C   UNL A   1      29.391  29.726  23.539  1.00  0.00     0.082 A 
ATOM     19  C   UNL A   1      30.079  28.515  23.469  1.00  0.00     0.024 A 
ATOM     20  C   UNL A   1      29.854  30.764  24.357  1.00  0.00     0.024 A 
ATOM     21  C   UNL A   1      31.257  28.357  24.196  1.00  0.00     0.030 A 
ATOM     22  C   UNL A   1      31.017  30.593  25.115  1.00  0.00     0.030 A 
BRANCH  18  23
ATOM     23  S   UNL A   1      27.931  29.993  22.578  1.00  0.00     0.238 S 
ATOM     24  O   UNL A   1      28.299  29.946  21.174  1.00  0.00    -0.207 OA
ATOM     25  O   UNL A   1      27.193  31.077  23.159  1.00  0.00    -0.207 OA
BRANCH  23  26
ATOM     26  N   UNL A   1      26.999  28.613  22.824  1.00  0.00    -0.225 NA
ATOM     27  H   UNL A   1      26.887  28.452  23.825  1.00  0.00     0.137 HD
ATOM     28  H   UNL A   1      27.465  27.808  22.402  1.00  0.00     0.137 HD
ENDBRANCH  23  26
ENDBRANCH  18  23
ENDBRANCH  13  17
BRANCH  15  29
ATOM     29  C   UNL A   1      35.386  30.682  27.948  1.00  0.00     0.435 C 
ATOM     30  F   UNL A   1      35.042  31.994  27.931  1.00  0.00    -0.164 F 
ATOM     31  F   UNL A   1      35.285  30.254  29.236  1.00  0.00    -0.164 F 
ATOM     32  F   UNL A   1      36.711  30.625  27.636  1.00  0.00    -0.164 F 
ENDBRANCH  15  29
ENDBRANCH   7  12
ENDBRANCH   3   6
ENDBRANCH   1   2
BRANCH   1  33
ATOM     33  C   UNL A   1      35.469  21.884  24.860  1.00  0.00     0.023 C 
BRANCH  33  34
ATOM     34  C   UNL A   1      36.187  22.935  25.719  1.00  0.00     0.023 C 
BRANCH  34  35
ATOM     35  C   UNL A   1      37.686  23.053  25.462  1.00  0.00     0.116 C 
BRANCH  35  36
ATOM     36  N   UNL A   1      38.480  22.188  26.332  1.00  0.00    -0.352 N 
ATOM     37  C   UNL A   1      39.635  22.501  27.019  1.00  0.00     0.251 C 
ATOM     38  H   UNL A   1      38.149  21.268  26.442  1.00  0.00     0.163 HD
ATOM     39  O   UNL A   1      40.414  21.626  27.378  1.00  0.00    -0.269 OA
BRANCH  37  40
ATOM     40  C   UNL A   1      39.911  23.912  27.331  1.00  0.00     0.039 A 
ATOM     41  C   UNL A   1      38.970  24.911  27.071  1.00  0.00     0.014 A 
ATOM     42  C   UNL A   1      41.132  24.218  27.927  1.00  0.00     0.014 A 
ATOM     43  C   UNL A   1      39.234  26.208  27.503  1.00  0.00     0.010 A 
ATOM     44  C   UNL A   1      41.337  25.466  28.464  1.00  0.00     0.010 A 
ATOM     45  C   UNL A   1      40.408  26.475  28.225  1.00  0.00    -0.014 A 
BRANCH  45  46
ATOM     46  C   UNL A   1      40.610  27.778  28.854  1.00  0.00     0.031 A 
ATOM     47  C   UNL A   1      41.684  28.609  28.242  1.00  0.00     0.074 A 
ATOM     48  C   UNL A   1      39.764  28.306  29.764  1.00  0.00     0.049 A 
ATOM     49  N   UNL A   1      42.801  28.969  28.782  1.00  0.00    -0.248 NA
ATOM     50  C   UNL A   1      41.557  28.989  26.825  1.00  0.00     0.031 C 
ATOM     51  C   UNL A   1      38.488  27.763  30.245  1.00  0.00     0.029 A 
ATOM     52  N   UNL A   1      39.814  29.525  30.369  1.00  0.00    -0.354 N 
ATOM     53  C   UNL A   1      43.436  29.786  27.851  1.00  0.00     0.074 A 
ATOM     54  C   UNL A   1      42.711  29.626  26.615  1.00  0.00     0.031 C 
ATOM     55  C   UNL A   1      37.782  28.741  30.856  1.00  0.00     0.029 A 
ATOM     56  C   UNL A   1      38.622  29.918  30.967  1.00  0.00     0.049 A 
ATOM     57  H   UNL A   1      40.627  30.081  30.382  1.00  0.00     0.167 HD
ATOM     58  C   UNL A   1      44.354  30.718  28.237  1.00  0.00     0.031 A 
ATOM     59  C   UNL A   1      38.338  31.135  31.493  1.00  0.00     0.031 A 
ATOM     60  C   UNL A   1      44.805  30.489  29.587  1.00  0.00     0.049 A 
ATOM     61  C   UNL A   1      39.626  31.809  31.766  1.00  0.00     0.074 A 
ATOM     62  C   UNL A   1      45.413  29.441  30.249  1.00  0.00     0.029 A 
ATOM     63  N   UNL A   1      44.275  31.295  30.567  1.00  0.00    -0.354 N 
ATOM     64  N   UNL A   1      40.460  31.410  32.682  1.00  0.00    -0.248 NA
ATOM     65  C   UNL A   1      40.192  32.655  30.730  1.00  0.00     0.031 C 
ATOM     66  C   UNL A   1      44.786  29.409  31.531  1.00  0.00     0.029 A 
ATOM     67  C   UNL A   1      43.897  30.483  31.603  1.00  0.00     0.049 A 
ATOM     68  H   UNL A   1      44.184  32.274  30.532  1.00  0.00     0.167 HD
ATOM     69  C   UNL A   1      41.710  31.558  32.103  1.00  0.00     0.074 A 
ATOM     70  C   UNL A   1      41.491  32.432  30.951  1.00  0.00     0.031 C 
ATOM     71  C   UNL A   1      42.743  30.729  32.438  1.00  0.00     0.031 A 
BRANCH  58  72
ATOM     72  C   UNL A   1      44.511  32.066  27.572  1.00  0.00    -0.014 A 
ATOM     73  C   UNL A   1      43.925  33.190  28.185  1.00  0.00     0.009 A 
ATOM     74  C   UNL A   1      44.939  32.229  26.241  1.00  0.00     0.009 A 
ATOM     75  C   UNL A   1      43.688  34.371  27.473  1.00  0.00     0.001 A 
ATOM     76  C   UNL A   1      44.745  33.423  25.540  1.00  0.00     0.001 A 
ATOM     77  C   UNL A   1      44.087  34.482  26.146  1.00  0.00     0.000 A 
ENDBRANCH  58  72
BRANCH  59  78
ATOM     78  C   UNL A   1      37.049  31.854  31.569  1.00  0.00    -0.014 A 
ATOM     79  C   UNL A   1      36.256  31.780  32.726  1.00  0.00     0.009 A 
ATOM     80  C   UNL A   1      36.732  32.844  30.620  1.00  0.00     0.009 A 
ATOM     81  C   UNL A   1      35.221  32.698  32.951  1.00  0.00     0.001 A 
ATOM     82  C   UNL A   1      35.695  33.757  30.843  1.00  0.00     0.001 A 
ATOM     83  C   UNL A   1      34.953  33.696  32.018  1.00  0.00     0.000 A 
ENDBRANCH  59  78
BRANCH  71  84
ATOM     84  C   UNL A   1      42.562  29.811  33.623  1.00  0.00    -0.014 A 
ATOM     85  C   UNL A   1      41.944  28.550  33.537  1.00  0.00     0.009 A 
ATOM     86  C   UNL A   1      43.171  30.169  34.835  1.00  0.00     0.009 A 
ATOM     87  C   UNL A   1      41.910  27.691  34.642  1.00  0.00     0.001 A 
ATOM     88  C   UNL A   1      43.158  29.302  35.929  1.00  0.00     0.001 A 
ATOM     89  C   UNL A   1      42.521  28.066  35.836  1.00  0.00     0.000 A 
ENDBRANCH  71  84
ENDBRANCH  45  46
ENDBRANCH  37  40
ENDBRANCH  35  36
ENDBRANCH  34  35
ENDBRANCH  33  34
ENDBRANCH   1  33
TORSDOF 16
ENDMDL
MODEL 3
REMARK VINA RESULT:     -12.3      1.797      5.603
REMARK SMILES NS(=O)(=O)c1ccc(-n2nc(C(F)(F)F)cc2-c2ccc(C(=O)NCCCCNC(=O)c3ccc(-c4c5nc(c(-c6ccccc6)c6ccc([nH]6)c(-c6ccccc6)c6nc(c(-c7ccccc7)c7ccc4[nH]7)C=C6)C=C5)cc3)cc2)cc1
REMARK SMILES IDX 25 1 24 2 22 3 23 4 21 6 18 7 19 8 81 9 20 10 80 11 17 12
REMARK SMILES IDX 9 13 10 14 11 15 16 16 8 17 5 18 6 19 83 20 7 21 82 22 2 23
REMARK SMILES IDX 3 24 4 25 1 26 12 29 13 30 14 31 15 32 26 33 27 34 28 35
REMARK SMILES IDX 29 36 30 37 31 39 32 40 33 41 79 42 34 43 78 44 35 45 36 46
REMARK SMILES IDX 37 47 72 48 38 49 77 50 71 51 73 52 39 53 76 54 70 55 69 56
REMARK SMILES IDX 40 58 62 59 47 60 61 61 48 62 51 63 60 64 74 65 49 66 50 67
REMARK SMILES IDX 59 69 75 70 52 71 41 72 42 73 46 74 43 75 45 76 44 77 63 78
REMARK SMILES IDX 64 79 68 80 65 81 67 82 66 83 53 84 54 85 58 86 55 87 57 88
REMARK SMILES IDX 56 89
REMARK H PARENT 24 5 1 27 1 28 29 38 73 57 51 68
REMARK Flexibility Score: inf
ROOT
ATOM      1  C   UNL A   1      33.385  27.932  24.745  1.00  0.00     0.116 C 
ENDROOT
BRANCH   1   2
ATOM      2  N   UNL A   1      32.430  26.940  24.291  1.00  0.00    -0.352 N 
ATOM      3  C   UNL A   1      32.508  25.579  24.130  1.00  0.00     0.251 C 
ATOM      4  O   UNL A   1      31.490  24.997  23.756  1.00  0.00    -0.269 OA
ATOM      5  H   UNL A   1      31.554  27.316  24.049  1.00  0.00     0.163 HD
BRANCH   3   6
ATOM      6  C   UNL A   1      33.733  24.782  24.428  1.00  0.00     0.039 A 
ATOM      7  C   UNL A   1      36.038  23.333  25.152  1.00  0.00     0.000 A 
ATOM      8  C   UNL A   1      35.160  23.792  26.140  1.00  0.00     0.011 A 
ATOM      9  C   UNL A   1      35.756  23.585  23.811  1.00  0.00     0.011 A 
ATOM     10  C   UNL A   1      34.020  24.519  25.777  1.00  0.00     0.014 A 
ATOM     11  C   UNL A   1      34.588  24.259  23.455  1.00  0.00     0.014 A 
BRANCH   7  12
ATOM     12  C   UNL A   1      37.201  22.527  25.488  1.00  0.00     0.075 A 
ATOM     13  N   UNL A   1      37.212  21.141  25.560  1.00  0.00    -0.233 N 
ATOM     14  N   UNL A   1      38.386  20.675  26.063  1.00  0.00    -0.163 NA
ATOM     15  C   UNL A   1      39.204  21.748  26.076  1.00  0.00     0.167 A 
ATOM     16  C   UNL A   1      38.485  22.931  25.780  1.00  0.00     0.064 A 
BRANCH  13  17
ATOM     17  C   UNL A   1      36.197  20.241  25.141  1.00  0.00     0.065 A 
ATOM     18  C   UNL A   1      34.185  18.440  24.453  1.00  0.00     0.082 A 
ATOM     19  C   UNL A   1      33.850  19.761  24.752  1.00  0.00     0.024 A 
ATOM     20  C   UNL A   1      35.521  18.022  24.468  1.00  0.00     0.024 A 
ATOM     21  C   UNL A   1      34.857  20.658  25.101  1.00  0.00     0.030 A 
ATOM     22  C   UNL A   1      36.536  18.931  24.784  1.00  0.00     0.030 A 
BRANCH  18  23
ATOM     23  S   UNL A   1      32.930  17.254  24.074  1.00  0.00     0.238 S 
ATOM     24  O   UNL A   1      31.846  17.421  25.026  1.00  0.00    -0.207 OA
ATOM     25  O   UNL A   1      33.559  15.990  23.816  1.00  0.00    -0.207 OA
BRANCH  23  26
ATOM     26  N   UNL A   1      32.292  17.762  22.602  1.00  0.00    -0.225 NA
ATOM     27  H   UNL A   1      32.571  17.112  21.867  1.00  0.00     0.137 HD
ATOM     28  H   UNL A   1      32.644  18.695  22.382  1.00  0.00     0.137 HD
ENDBRANCH  23  26
ENDBRANCH  18  23
ENDBRANCH  13  17
BRANCH  15  29
ATOM     29  C   UNL A   1      40.681  21.664  26.359  1.00  0.00     0.435 C 
ATOM     30  F   UNL A   1      41.436  22.354  25.467  1.00  0.00    -0.164 F 
ATOM     31  F   UNL A   1      40.989  22.133  27.598  1.00  0.00    -0.164 F 
ATOM     32  F   UNL A   1      41.122  20.375  26.324  1.00  0.00    -0.164 F 
ENDBRANCH  15  29
ENDBRANCH   7  12
ENDBRANCH   3   6
ENDBRANCH   1   2
BRANCH   1  33
ATOM     33  C   UNL A   1      33.348  28.089  26.269  1.00  0.00     0.023 C 
BRANCH  33  34
ATOM     34  C   UNL A   1      34.009  29.368  26.803  1.00  0.00     0.023 C 
BRANCH  34  35
ATOM     35  C   UNL A   1      35.350  29.151  27.497  1.00  0.00     0.116 C 
BRANCH  35  36
ATOM     36  N   UNL A   1      35.426  29.809  28.800  1.00  0.00    -0.352 N 
ATOM     37  C   UNL A   1      36.382  29.647  29.781  1.00  0.00     0.251 C 
ATOM     38  H   UNL A   1      34.704  30.447  29.002  1.00  0.00     0.163 HD
ATOM     39  O   UNL A   1      36.143  29.925  30.950  1.00  0.00    -0.269 OA
BRANCH  37  40
ATOM     40  C   UNL A   1      37.711  29.147  29.396  1.00  0.00     0.039 A 
ATOM     41  C   UNL A   1      38.446  29.752  28.374  1.00  0.00     0.014 A 
ATOM     42  C   UNL A   1      38.231  28.069  30.108  1.00  0.00     0.014 A 
ATOM     43  C   UNL A   1      39.748  29.318  28.138  1.00  0.00     0.010 A 
ATOM     44  C   UNL A   1      39.554  27.728  29.964  1.00  0.00     0.010 A 
ATOM     45  C   UNL A   1      40.308  28.322  28.956  1.00  0.00    -0.014 A 
BRANCH  45  46
ATOM     46  C   UNL A   1      41.728  27.993  28.855  1.00  0.00     0.031 A 
ATOM     47  C   UNL A   1      42.032  26.779  28.048  1.00  0.00     0.074 A 
ATOM     48  C   UNL A   1      42.716  28.823  29.253  1.00  0.00     0.049 A 
ATOM     49  N   UNL A   1      42.533  25.665  28.467  1.00  0.00    -0.248 NA
ATOM     50  C   UNL A   1      41.629  26.757  26.632  1.00  0.00     0.031 C 
ATOM     51  C   UNL A   1      42.603  30.189  29.775  1.00  0.00     0.029 A 
ATOM     52  N   UNL A   1      44.063  28.653  29.154  1.00  0.00    -0.354 N 
ATOM     53  C   UNL A   1      42.694  24.864  27.339  1.00  0.00     0.074 A 
ATOM     54  C   UNL A   1      41.972  25.517  26.276  1.00  0.00     0.031 C 
ATOM     55  C   UNL A   1      43.808  30.800  29.709  1.00  0.00     0.029 A 
ATOM     56  C   UNL A   1      44.802  29.821  29.311  1.00  0.00     0.049 A 
ATOM     57  H   UNL A   1      44.480  27.777  28.986  1.00  0.00     0.167 HD
ATOM     58  C   UNL A   1      43.615  23.859  27.311  1.00  0.00     0.031 A 
ATOM     59  C   UNL A   1      46.132  29.976  29.105  1.00  0.00     0.031 A 
ATOM     60  C   UNL A   1      44.088  23.537  28.634  1.00  0.00     0.049 A 
ATOM     61  C   UNL A   1      46.747  28.632  29.158  1.00  0.00     0.074 A 
ATOM     62  C   UNL A   1      43.493  23.120  29.809  1.00  0.00     0.029 A 
ATOM     63  N   UNL A   1      45.324  24.021  28.992  1.00  0.00    -0.354 N 
ATOM     64  N   UNL A   1      46.819  27.924  30.248  1.00  0.00    -0.248 NA
ATOM     65  C   UNL A   1      46.885  27.889  27.918  1.00  0.00     0.031 C 
ATOM     66  C   UNL A   1      44.181  23.832  30.837  1.00  0.00     0.029 A 
ATOM     67  C   UNL A   1      45.201  24.573  30.238  1.00  0.00     0.049 A 
ATOM     68  H   UNL A   1      46.146  23.979  28.451  1.00  0.00     0.167 HD
ATOM     69  C   UNL A   1      46.546  26.628  29.838  1.00  0.00     0.074 A 
ATOM     70  C   UNL A   1      46.708  26.649  28.385  1.00  0.00     0.031 C 
ATOM     71  C   UNL A   1      45.935  25.739  30.677  1.00  0.00     0.031 A 
BRANCH  58  72
ATOM     72  C   UNL A   1      44.404  23.479  26.079  1.00  0.00    -0.014 A 
ATOM     73  C   UNL A   1      44.609  22.112  25.808  1.00  0.00     0.009 A 
ATOM     74  C   UNL A   1      45.198  24.387  25.355  1.00  0.00     0.009 A 
ATOM     75  C   UNL A   1      45.620  21.681  24.941  1.00  0.00     0.001 A 
ATOM     76  C   UNL A   1      46.179  23.962  24.455  1.00  0.00     0.001 A 
ATOM     77  C   UNL A   1      46.414  22.608  24.275  1.00  0.00     0.000 A 
ENDBRANCH  58  72
BRANCH  59  78
ATOM     78  C   UNL A   1      46.884  31.160  28.638  1.00  0.00    -0.014 A 
ATOM     79  C   UNL A   1      47.960  31.664  29.388  1.00  0.00     0.009 A 
ATOM     80  C   UNL A   1      46.732  31.623  27.319  1.00  0.00     0.009 A 
ATOM     81  C   UNL A   1      48.881  32.553  28.819  1.00  0.00     0.001 A 
ATOM     82  C   UNL A   1      47.650  32.515  26.753  1.00  0.00     0.001 A 
ATOM     83  C   UNL A   1      48.736  32.965  27.497  1.00  0.00     0.000 A 
ENDBRANCH  59  78
BRANCH  71  84
ATOM     84  C   UNL A   1      45.784  26.122  32.130  1.00  0.00    -0.014 A 
ATOM     85  C   UNL A   1      44.707  26.880  32.622  1.00  0.00     0.009 A 
ATOM     86  C   UNL A   1      46.682  25.569  33.054  1.00  0.00     0.009 A 
ATOM     87  C   UNL A   1      44.554  27.104  33.996  1.00  0.00     0.001 A 
ATOM     88  C   UNL A   1      46.517  25.772  34.426  1.00  0.00     0.001 A 
ATOM     89  C   UNL A   1      45.458  26.545  34.897  1.00  0.00     0.000 A 
ENDBRANCH  71  84
ENDBRANCH  45  46
ENDBRANCH  37  40
ENDBRANCH  35  36
ENDBRANCH  34  35
ENDBRANCH  33  34
ENDBRANCH   1  33
TORSDOF 16
ENDMDL
