MODEL 1
REMARK VINA RESULT:     -10.7      0.000      0.000
REMARK SMILES O=C(C[N@@H+](Cc1nnc(-c2cccs2)o1)CC(F)(F)F)NCCCCNC(=O)c1ccc(-c2c3nc(c(-c4ccccc4)c4ccc([nH]4)c(-c4ccccc4)c4nc(c(-c5ccccc5)c5ccc2[nH]5)C=C4)C=C3)cc1
REMARK SMILES IDX 22 1 21 2 1 3 2 4 3 6 4 7 5 9 6 10 7 11 15 12 8 13 9 14
REMARK SMILES IDX 10 15 11 16 14 17 12 18 13 19 16 20 17 21 18 22 19 23 20 24
REMARK SMILES IDX 23 25 24 26 25 27 26 28 27 29 28 31 29 32 30 33 76 34 31 35
REMARK SMILES IDX 75 36 32 37 33 38 34 39 69 40 35 41 74 42 68 43 70 44 36 45
REMARK SMILES IDX 73 46 67 47 66 48 37 50 59 51 44 52 58 53 45 54 48 55 57 56
REMARK SMILES IDX 71 57 46 58 47 59 56 61 72 62 49 63 38 64 39 65 43 66 40 67
REMARK SMILES IDX 42 68 41 69 60 70 61 71 65 72 62 73 64 74 63 75 50 76 51 77
REMARK SMILES IDX 55 78 52 79 54 80 53 81
REMARK H PARENT 21 5 4 8 26 30 70 49 48 60
REMARK Flexibility Score: inf
ROOT
ATOM      1  C   UNL A   1      32.335  29.914  26.911  1.00  0.00     0.116 C 
ENDROOT
BRANCH   1   2
ATOM      2  N   UNL A   1      32.057  28.495  26.795  1.00  0.00    -0.351 N 
ATOM      3  O   UNL A   1      33.666  28.111  25.209  1.00  0.00    -0.269 OA
ATOM      4  C   UNL A   1      32.764  27.691  25.928  1.00  0.00     0.275 C 
ATOM      5  H   UNL A   1      31.347  28.098  27.348  1.00  0.00     0.163 HD
BRANCH   4   6
ATOM      6  C   UNL A   1      32.354  26.216  25.929  1.00  0.00     0.364 C 
BRANCH   6   7
ATOM      7  N   UNL A   1      30.931  26.008  25.553  1.00  0.00    -0.312 N 
ATOM      8  H   UNL A   1      30.401  26.762  25.991  1.00  0.00     0.349 HD
BRANCH   7   9
ATOM      9  C   UNL A   1      30.743  26.134  24.080  1.00  0.00     0.363 C 
BRANCH   9  10
ATOM     10  C   UNL A   1      29.589  26.959  23.613  1.00  0.00     0.271 A 
ATOM     11  N   UNL A   1      28.307  26.829  23.877  1.00  0.00    -0.106 NA
ATOM     12  O   UNL A   1      29.870  28.084  22.890  1.00  0.00    -0.414 OA
ATOM     13  N   UNL A   1      27.703  27.981  23.419  1.00  0.00    -0.107 NA
ATOM     14  C   UNL A   1      28.648  28.724  22.872  1.00  0.00     0.258 A 
BRANCH  14  15
ATOM     15  C   UNL A   1      28.479  30.065  22.405  1.00  0.00     0.091 A 
ATOM     16  C   UNL A   1      28.267  30.483  21.107  1.00  0.00     0.025 A 
ATOM     17  S   UNL A   1      28.622  31.393  23.479  1.00  0.00    -0.139 S 
ATOM     18  C   UNL A   1      28.237  31.906  20.994  1.00  0.00     0.012 A 
ATOM     19  C   UNL A   1      28.447  32.523  22.207  1.00  0.00     0.065 A 
ENDBRANCH  14  15
ENDBRANCH   9  10
ENDBRANCH   7   9
BRANCH   7  20
ATOM     20  C   UNL A   1      30.330  24.764  26.123  1.00  0.00     0.380 C 
BRANCH  20  21
ATOM     21  C   UNL A   1      31.014  23.375  26.105  1.00  0.00     0.438 C 
ATOM     22  F   UNL A   1      31.803  23.192  25.031  1.00  0.00    -0.165 F 
ATOM     23  F   UNL A   1      31.776  23.217  27.213  1.00  0.00    -0.165 F 
ATOM     24  F   UNL A   1      30.092  22.387  26.123  1.00  0.00    -0.165 F 
ENDBRANCH  20  21
ENDBRANCH   7  20
ENDBRANCH   6   7
ENDBRANCH   4   6
ENDBRANCH   1   2
BRANCH   1  25
ATOM     25  C   UNL A   1      31.446  30.757  26.001  1.00  0.00     0.023 C 
BRANCH  25  26
ATOM     26  C   UNL A   1      31.284  32.214  26.437  1.00  0.00     0.023 C 
BRANCH  26  27
ATOM     27  C   UNL A   1      32.426  32.772  27.279  1.00  0.00     0.116 C 
BRANCH  27  28
ATOM     28  N   UNL A   1      32.249  34.172  27.629  1.00  0.00    -0.352 N 
ATOM     29  C   UNL A   1      32.946  34.944  28.529  1.00  0.00     0.251 C 
ATOM     30  H   UNL A   1      31.523  34.635  27.151  1.00  0.00     0.163 HD
ATOM     31  O   UNL A   1      32.566  36.077  28.794  1.00  0.00    -0.269 OA
BRANCH  29  32
ATOM     32  C   UNL A   1      34.141  34.392  29.208  1.00  0.00     0.039 A 
ATOM     33  C   UNL A   1      33.976  33.739  30.433  1.00  0.00     0.014 A 
ATOM     34  C   UNL A   1      35.414  34.510  28.645  1.00  0.00     0.014 A 
ATOM     35  C   UNL A   1      35.075  33.141  31.054  1.00  0.00     0.010 A 
ATOM     36  C   UNL A   1      36.493  33.846  29.224  1.00  0.00     0.010 A 
ATOM     37  C   UNL A   1      36.336  33.153  30.433  1.00  0.00    -0.014 A 
BRANCH  37  38
ATOM     38  C   UNL A   1      37.494  32.434  31.028  1.00  0.00     0.031 A 
ATOM     39  C   UNL A   1      38.127  32.929  32.299  1.00  0.00     0.074 A 
ATOM     40  C   UNL A   1      38.018  31.370  30.389  1.00  0.00     0.049 A 
ATOM     41  N   UNL A   1      39.176  32.469  32.933  1.00  0.00    -0.248 NA
ATOM     42  C   UNL A   1      37.516  34.110  32.930  1.00  0.00     0.031 C 
ATOM     43  C   UNL A   1      37.525  30.808  29.129  1.00  0.00     0.029 A 
ATOM     44  N   UNL A   1      39.089  30.572  30.710  1.00  0.00    -0.354 N 
ATOM     45  C   UNL A   1      39.357  33.308  34.026  1.00  0.00     0.074 A 
ATOM     46  C   UNL A   1      38.345  34.337  33.937  1.00  0.00     0.031 C 
ATOM     47  C   UNL A   1      38.273  29.742  28.801  1.00  0.00     0.029 A 
ATOM     48  C   UNL A   1      39.324  29.572  29.797  1.00  0.00     0.049 A 
ATOM     49  H   UNL A   1      39.636  30.704  31.517  1.00  0.00     0.167 HD
ATOM     50  C   UNL A   1      40.267  33.219  35.025  1.00  0.00     0.031 A 
ATOM     51  C   UNL A   1      40.285  28.629  29.759  1.00  0.00     0.031 A 
ATOM     52  C   UNL A   1      41.275  32.196  35.115  1.00  0.00     0.049 A 
ATOM     53  C   UNL A   1      41.306  28.571  30.861  1.00  0.00     0.074 A 
ATOM     54  C   UNL A   1      42.213  31.995  36.113  1.00  0.00     0.029 A 
ATOM     55  N   UNL A   1      41.480  31.204  34.169  1.00  0.00    -0.354 N 
ATOM     56  N   UNL A   1      41.421  29.333  31.922  1.00  0.00    -0.248 NA
ATOM     57  C   UNL A   1      42.322  27.513  30.767  1.00  0.00     0.031 C 
ATOM     58  C   UNL A   1      43.026  30.920  35.741  1.00  0.00     0.029 A 
ATOM     59  C   UNL A   1      42.549  30.406  34.545  1.00  0.00     0.049 A 
ATOM     60  H   UNL A   1      40.947  31.083  33.350  1.00  0.00     0.167 HD
ATOM     61  C   UNL A   1      42.501  28.829  32.635  1.00  0.00     0.074 A 
ATOM     62  C   UNL A   1      42.995  27.686  31.896  1.00  0.00     0.031 C 
ATOM     63  C   UNL A   1      43.034  29.273  33.799  1.00  0.00     0.031 A 
BRANCH  50  64
ATOM     64  C   UNL A   1      40.219  34.272  36.100  1.00  0.00    -0.014 A 
ATOM     65  C   UNL A   1      40.965  35.457  35.994  1.00  0.00     0.009 A 
ATOM     66  C   UNL A   1      39.389  34.091  37.218  1.00  0.00     0.009 A 
ATOM     67  C   UNL A   1      40.914  36.420  37.005  1.00  0.00     0.001 A 
ATOM     68  C   UNL A   1      39.314  35.071  38.210  1.00  0.00     0.001 A 
ATOM     69  C   UNL A   1      40.084  36.227  38.109  1.00  0.00     0.000 A 
ENDBRANCH  50  64
BRANCH  51  70
ATOM     70  C   UNL A   1      40.328  27.654  28.635  1.00  0.00    -0.014 A 
ATOM     71  C   UNL A   1      39.684  26.411  28.742  1.00  0.00     0.009 A 
ATOM     72  C   UNL A   1      41.023  27.957  27.453  1.00  0.00     0.009 A 
ATOM     73  C   UNL A   1      39.760  25.482  27.701  1.00  0.00     0.001 A 
ATOM     74  C   UNL A   1      41.069  27.040  26.402  1.00  0.00     0.001 A 
ATOM     75  C   UNL A   1      40.448  25.799  26.531  1.00  0.00     0.000 A 
ENDBRANCH  51  70
BRANCH  63  76
ATOM     76  C   UNL A   1      44.191  28.499  34.368  1.00  0.00    -0.014 A 
ATOM     77  C   UNL A   1      45.520  28.845  34.078  1.00  0.00     0.009 A 
ATOM     78  C   UNL A   1      43.945  27.427  35.242  1.00  0.00     0.009 A 
ATOM     79  C   UNL A   1      46.577  28.111  34.622  1.00  0.00     0.001 A 
ATOM     80  C   UNL A   1      45.002  26.716  35.810  1.00  0.00     0.001 A 
ATOM     81  C   UNL A   1      46.317  27.052  35.492  1.00  0.00     0.000 A 
ENDBRANCH  63  76
ENDBRANCH  37  38
ENDBRANCH  29  32
ENDBRANCH  27  28
ENDBRANCH  26  27
ENDBRANCH  25  26
ENDBRANCH   1  25
TORSDOF 17
ENDMDL
MODEL 2
REMARK VINA RESULT:     -10.6      4.295      6.520
REMARK SMILES O=C(C[N@@H+](Cc1nnc(-c2cccs2)o1)CC(F)(F)F)NCCCCNC(=O)c1ccc(-c2c3nc(c(-c4ccccc4)c4ccc([nH]4)c(-c4ccccc4)c4nc(c(-c5ccccc5)c5ccc2[nH]5)C=C4)C=C3)cc1
REMARK SMILES IDX 22 1 21 2 1 3 2 4 3 6 4 7 5 9 6 10 7 11 15 12 8 13 9 14
REMARK SMILES IDX 10 15 11 16 14 17 12 18 13 19 16 20 17 21 18 22 19 23 20 24
REMARK SMILES IDX 23 25 24 26 25 27 26 28 27 29 28 31 29 32 30 33 76 34 31 35
REMARK SMILES IDX 75 36 32 37 33 38 34 39 69 40 35 41 74 42 68 43 70 44 36 45
REMARK SMILES IDX 73 46 67 47 66 48 37 50 59 51 44 52 58 53 45 54 48 55 57 56
REMARK SMILES IDX 71 57 46 58 47 59 56 61 72 62 49 63 38 64 39 65 43 66 40 67
REMARK SMILES IDX 42 68 41 69 60 70 61 71 65 72 62 73 64 74 63 75 50 76 51 77
REMARK SMILES IDX 55 78 52 79 54 80 53 81
REMARK H PARENT 21 5 4 8 26 30 70 49 48 60
REMARK Flexibility Score: inf
ROOT
ATOM      1  C   UNL A   1      33.784  27.797  23.725  1.00  0.00     0.116 C 
ENDROOT
BRANCH   1   2
ATOM      2  N   UNL A   1      33.907  26.353  23.789  1.00  0.00    -0.351 N 
ATOM      3  O   UNL A   1      33.568  26.029  21.545  1.00  0.00    -0.269 OA
ATOM      4  C   UNL A   1      33.783  25.569  22.662  1.00  0.00     0.275 C 
ATOM      5  H   UNL A   1      34.083  25.924  24.656  1.00  0.00     0.163 HD
BRANCH   4   6
ATOM      6  C   UNL A   1      33.947  24.064  22.897  1.00  0.00     0.364 C 
BRANCH   6   7
ATOM      7  N   UNL A   1      33.816  23.683  24.328  1.00  0.00    -0.312 N 
ATOM      8  H   UNL A   1      33.833  24.551  24.864  1.00  0.00     0.349 HD
BRANCH   7   9
ATOM      9  C   UNL A   1      32.504  23.027  24.589  1.00  0.00     0.363 C 
BRANCH   9  10
ATOM     10  C   UNL A   1      32.287  21.681  23.979  1.00  0.00     0.271 A 
ATOM     11  N   UNL A   1      31.925  21.366  22.754  1.00  0.00    -0.106 NA
ATOM     12  O   UNL A   1      32.601  20.587  24.736  1.00  0.00    -0.414 OA
ATOM     13  N   UNL A   1      32.119  20.006  22.634  1.00  0.00    -0.107 NA
ATOM     14  C   UNL A   1      32.551  19.572  23.804  1.00  0.00     0.258 A 
BRANCH  14  15
ATOM     15  C   UNL A   1      33.014  18.246  24.074  1.00  0.00     0.091 A 
ATOM     16  C   UNL A   1      33.699  17.404  23.221  1.00  0.00     0.025 A 
ATOM     17  S   UNL A   1      32.660  17.479  25.565  1.00  0.00    -0.139 S 
ATOM     18  C   UNL A   1      33.920  16.115  23.793  1.00  0.00     0.012 A 
ATOM     19  C   UNL A   1      33.379  16.013  25.056  1.00  0.00     0.065 A 
ENDBRANCH  14  15
ENDBRANCH   9  10
ENDBRANCH   7   9
BRANCH   7  20
ATOM     20  C   UNL A   1      34.981  22.909  24.856  1.00  0.00     0.380 C 
BRANCH  20  21
ATOM     21  C   UNL A   1      36.351  23.531  25.220  1.00  0.00     0.438 C 
ATOM     22  F   UNL A   1      36.240  24.693  25.888  1.00  0.00    -0.165 F 
ATOM     23  F   UNL A   1      37.062  22.674  25.990  1.00  0.00    -0.165 F 
ATOM     24  F   UNL A   1      37.086  23.754  24.108  1.00  0.00    -0.165 F 
ENDBRANCH  20  21
ENDBRANCH   7  20
ENDBRANCH   6   7
ENDBRANCH   4   6
ENDBRANCH   1   2
BRANCH   1  25
ATOM     25  C   UNL A   1      33.175  28.385  24.994  1.00  0.00     0.023 C 
BRANCH  25  26
ATOM     26  C   UNL A   1      33.939  28.062  26.279  1.00  0.00     0.023 C 
BRANCH  26  27
ATOM     27  C   UNL A   1      33.322  28.616  27.559  1.00  0.00     0.116 C 
BRANCH  27  28
ATOM     28  N   UNL A   1      33.417  30.064  27.661  1.00  0.00    -0.352 N 
ATOM     29  C   UNL A   1      34.479  30.845  28.054  1.00  0.00     0.251 C 
ATOM     30  H   UNL A   1      32.602  30.556  27.412  1.00  0.00     0.163 HD
ATOM     31  O   UNL A   1      34.332  32.050  28.209  1.00  0.00    -0.269 OA
BRANCH  29  32
ATOM     32  C   UNL A   1      35.795  30.224  28.325  1.00  0.00     0.039 A 
ATOM     33  C   UNL A   1      36.754  30.207  27.307  1.00  0.00     0.014 A 
ATOM     34  C   UNL A   1      36.090  29.665  29.571  1.00  0.00     0.014 A 
ATOM     35  C   UNL A   1      38.029  29.699  27.563  1.00  0.00     0.010 A 
ATOM     36  C   UNL A   1      37.385  29.232  29.848  1.00  0.00     0.010 A 
ATOM     37  C   UNL A   1      38.369  29.246  28.849  1.00  0.00    -0.014 A 
BRANCH  37  38
ATOM     38  C   UNL A   1      39.751  28.797  29.167  1.00  0.00     0.031 A 
ATOM     39  C   UNL A   1      40.710  29.719  29.867  1.00  0.00     0.074 A 
ATOM     40  C   UNL A   1      40.164  27.577  28.769  1.00  0.00     0.049 A 
ATOM     41  N   UNL A   1      41.967  29.524  30.176  1.00  0.00    -0.248 NA
ATOM     42  C   UNL A   1      40.196  31.044  30.252  1.00  0.00     0.031 C 
ATOM     43  C   UNL A   1      39.348  26.597  28.048  1.00  0.00     0.029 A 
ATOM     44  N   UNL A   1      41.381  26.955  28.910  1.00  0.00    -0.354 N 
ATOM     45  C   UNL A   1      42.396  30.701  30.777  1.00  0.00     0.074 A 
ATOM     46  C   UNL A   1      41.283  31.623  30.739  1.00  0.00     0.031 C 
ATOM     47  C   UNL A   1      40.076  25.489  27.837  1.00  0.00     0.029 A 
ATOM     48  C   UNL A   1      41.422  25.695  28.362  1.00  0.00     0.049 A 
ATOM     49  H   UNL A   1      42.149  27.372  29.361  1.00  0.00     0.167 HD
ATOM     50  C   UNL A   1      43.600  30.983  31.330  1.00  0.00     0.031 A 
ATOM     51  C   UNL A   1      42.431  24.808  28.281  1.00  0.00     0.031 A 
ATOM     52  C   UNL A   1      44.710  30.067  31.369  1.00  0.00     0.049 A 
ATOM     53  C   UNL A   1      43.769  25.156  28.872  1.00  0.00     0.074 A 
ATOM     54  C   UNL A   1      45.954  30.245  31.948  1.00  0.00     0.029 A 
ATOM     55  N   UNL A   1      44.711  28.803  30.801  1.00  0.00    -0.354 N 
ATOM     56  N   UNL A   1      44.137  26.249  29.496  1.00  0.00    -0.248 NA
ATOM     57  C   UNL A   1      44.827  24.142  28.760  1.00  0.00     0.031 C 
ATOM     58  C   UNL A   1      46.729  29.113  31.677  1.00  0.00     0.029 A 
ATOM     59  C   UNL A   1      45.944  28.201  30.990  1.00  0.00     0.049 A 
ATOM     60  H   UNL A   1      43.948  28.393  30.332  1.00  0.00     0.167 HD
ATOM     61  C   UNL A   1      45.457  26.043  29.875  1.00  0.00     0.074 A 
ATOM     62  C   UNL A   1      45.819  24.714  29.428  1.00  0.00     0.031 C 
ATOM     63  C   UNL A   1      46.294  26.879  30.537  1.00  0.00     0.031 A 
BRANCH  50  64
ATOM     64  C   UNL A   1      43.782  32.351  31.932  1.00  0.00    -0.014 A 
ATOM     65  C   UNL A   1      44.264  33.426  31.167  1.00  0.00     0.009 A 
ATOM     66  C   UNL A   1      43.431  32.577  33.273  1.00  0.00     0.009 A 
ATOM     67  C   UNL A   1      44.433  34.687  31.744  1.00  0.00     0.001 A 
ATOM     68  C   UNL A   1      43.569  33.847  33.837  1.00  0.00     0.001 A 
ATOM     69  C   UNL A   1      44.080  34.897  33.076  1.00  0.00     0.000 A 
ENDBRANCH  50  64
BRANCH  51  70
ATOM     70  C   UNL A   1      42.218  23.495  27.614  1.00  0.00    -0.014 A 
ATOM     71  C   UNL A   1      41.725  22.397  28.337  1.00  0.00     0.009 A 
ATOM     72  C   UNL A   1      42.515  23.329  26.252  1.00  0.00     0.009 A 
ATOM     73  C   UNL A   1      41.564  21.156  27.718  1.00  0.00     0.001 A 
ATOM     74  C   UNL A   1      42.322  22.096  25.627  1.00  0.00     0.001 A 
ATOM     75  C   UNL A   1      41.857  21.007  26.363  1.00  0.00     0.000 A 
ENDBRANCH  51  70
BRANCH  63  76
ATOM     76  C   UNL A   1      47.673  26.368  30.852  1.00  0.00    -0.014 A 
ATOM     77  C   UNL A   1      47.964  25.749  32.078  1.00  0.00     0.009 A 
ATOM     78  C   UNL A   1      48.687  26.472  29.886  1.00  0.00     0.009 A 
ATOM     79  C   UNL A   1      49.253  25.279  32.343  1.00  0.00     0.001 A 
ATOM     80  C   UNL A   1      49.965  25.972  30.141  1.00  0.00     0.001 A 
ATOM     81  C   UNL A   1      50.250  25.385  31.373  1.00  0.00     0.000 A 
ENDBRANCH  63  76
ENDBRANCH  37  38
ENDBRANCH  29  32
ENDBRANCH  27  28
ENDBRANCH  26  27
ENDBRANCH  25  26
ENDBRANCH   1  25
TORSDOF 17
ENDMDL
MODEL 3
REMARK VINA RESULT:     -10.5      1.202      6.073
REMARK SMILES O=C(C[N@@H+](Cc1nnc(-c2cccs2)o1)CC(F)(F)F)NCCCCNC(=O)c1ccc(-c2c3nc(c(-c4ccccc4)c4ccc([nH]4)c(-c4ccccc4)c4nc(c(-c5ccccc5)c5ccc2[nH]5)C=C4)C=C3)cc1
REMARK SMILES IDX 22 1 21 2 1 3 2 4 3 6 4 7 5 9 6 10 7 11 15 12 8 13 9 14
REMARK SMILES IDX 10 15 11 16 14 17 12 18 13 19 16 20 17 21 18 22 19 23 20 24
REMARK SMILES IDX 23 25 24 26 25 27 26 28 27 29 28 31 29 32 30 33 76 34 31 35
REMARK SMILES IDX 75 36 32 37 33 38 34 39 69 40 35 41 74 42 68 43 70 44 36 45
REMARK SMILES IDX 73 46 67 47 66 48 37 50 59 51 44 52 58 53 45 54 48 55 57 56
REMARK SMILES IDX 71 57 46 58 47 59 56 61 72 62 49 63 38 64 39 65 43 66 40 67
REMARK SMILES IDX 42 68 41 69 60 70 61 71 65 72 62 73 64 74 63 75 50 76 51 77
REMARK SMILES IDX 55 78 52 79 54 80 53 81
REMARK H PARENT 21 5 4 8 26 30 70 49 48 60
REMARK Flexibility Score: inf
ROOT
ATOM      1  C   UNL A   1      32.914  30.071  26.918  1.00  0.00     0.116 C 
ENDROOT
BRANCH   1   2
ATOM      2  N   UNL A   1      32.943  28.632  26.742  1.00  0.00    -0.351 N 
ATOM      3  O   UNL A   1      34.085  28.702  24.756  1.00  0.00    -0.269 OA
ATOM      4  C   UNL A   1      33.541  28.053  25.644  1.00  0.00     0.275 C 
ATOM      5  H   UNL A   1      32.527  28.056  27.423  1.00  0.00     0.163 HD
BRANCH   4   6
ATOM      6  C   UNL A   1      33.493  26.522  25.611  1.00  0.00     0.364 C 
BRANCH   6   7
ATOM      7  N   UNL A   1      32.351  25.995  24.818  1.00  0.00    -0.312 N 
ATOM      8  H   UNL A   1      32.338  24.985  24.963  1.00  0.00     0.349 HD
BRANCH   7   9
ATOM      9  C   UNL A   1      31.056  26.532  25.321  1.00  0.00     0.363 C 
BRANCH   9  10
ATOM     10  C   UNL A   1      30.178  27.221  24.328  1.00  0.00     0.271 A 
ATOM     11  N   UNL A   1      29.077  26.797  23.748  1.00  0.00    -0.106 NA
ATOM     12  O   UNL A   1      30.467  28.523  24.029  1.00  0.00    -0.414 OA
ATOM     13  N   UNL A   1      28.524  27.896  23.125  1.00  0.00    -0.107 NA
ATOM     14  C   UNL A   1      29.342  28.912  23.333  1.00  0.00     0.258 A 
BRANCH  14  15
ATOM     15  C   UNL A   1      29.076  30.273  22.982  1.00  0.00     0.091 A 
ATOM     16  C   UNL A   1      29.066  31.371  23.819  1.00  0.00     0.025 A 
ATOM     17  S   UNL A   1      28.620  30.694  21.385  1.00  0.00    -0.139 S 
ATOM     18  C   UNL A   1      28.666  32.563  23.143  1.00  0.00     0.012 A 
ATOM     19  C   UNL A   1      28.367  32.329  21.819  1.00  0.00     0.065 A 
ENDBRANCH  14  15
ENDBRANCH   9  10
ENDBRANCH   7   9
BRANCH   7  20
ATOM     20  C   UNL A   1      32.522  26.145  23.341  1.00  0.00     0.380 C 
BRANCH  20  21
ATOM     21  C   UNL A   1      32.128  25.068  22.301  1.00  0.00     0.438 C 
ATOM     22  F   UNL A   1      31.130  24.271  22.721  1.00  0.00    -0.165 F 
ATOM     23  F   UNL A   1      31.735  25.657  21.147  1.00  0.00    -0.165 F 
ATOM     24  F   UNL A   1      33.189  24.288  21.995  1.00  0.00    -0.165 F 
ENDBRANCH  20  21
ENDBRANCH   7  20
ENDBRANCH   6   7
ENDBRANCH   4   6
ENDBRANCH   1   2
BRANCH   1  25
ATOM     25  C   UNL A   1      31.543  30.667  26.611  1.00  0.00     0.023 C 
BRANCH  25  26
ATOM     26  C   UNL A   1      31.490  32.195  26.636  1.00  0.00     0.023 C 
BRANCH  26  27
ATOM     27  C   UNL A   1      32.641  32.875  27.371  1.00  0.00     0.116 C 
BRANCH  27  28
ATOM     28  N   UNL A   1      32.369  34.264  27.700  1.00  0.00    -0.352 N 
ATOM     29  C   UNL A   1      32.986  35.082  28.618  1.00  0.00     0.251 C 
ATOM     30  H   UNL A   1      31.636  34.681  27.191  1.00  0.00     0.163 HD
ATOM     31  O   UNL A   1      32.530  36.193  28.858  1.00  0.00    -0.269 OA
BRANCH  29  32
ATOM     32  C   UNL A   1      34.184  34.607  29.347  1.00  0.00     0.039 A 
ATOM     33  C   UNL A   1      34.039  34.172  30.668  1.00  0.00     0.014 A 
ATOM     34  C   UNL A   1      35.441  34.581  28.737  1.00  0.00     0.014 A 
ATOM     35  C   UNL A   1      35.139  33.645  31.349  1.00  0.00     0.010 A 
ATOM     36  C   UNL A   1      36.516  33.983  29.389  1.00  0.00     0.010 A 
ATOM     37  C   UNL A   1      36.377  33.506  30.701  1.00  0.00    -0.014 A 
BRANCH  37  38
ATOM     38  C   UNL A   1      37.531  32.853  31.375  1.00  0.00     0.031 A 
ATOM     39  C   UNL A   1      38.186  31.645  30.765  1.00  0.00     0.074 A 
ATOM     40  C   UNL A   1      37.951  33.312  32.571  1.00  0.00     0.049 A 
ATOM     41  N   UNL A   1      39.163  30.910  31.235  1.00  0.00    -0.248 NA
ATOM     42  C   UNL A   1      37.660  31.186  29.469  1.00  0.00     0.031 C 
ATOM     43  C   UNL A   1      37.380  34.452  33.292  1.00  0.00     0.029 A 
ATOM     44  N   UNL A   1      38.956  32.868  33.396  1.00  0.00    -0.354 N 
ATOM     45  C   UNL A   1      39.359  29.900  30.301  1.00  0.00     0.074 A 
ATOM     46  C   UNL A   1      38.364  30.083  29.267  1.00  0.00     0.031 C 
ATOM     47  C   UNL A   1      38.061  34.635  34.435  1.00  0.00     0.029 A 
ATOM     48  C   UNL A   1      39.083  33.600  34.552  1.00  0.00     0.049 A 
ATOM     49  H   UNL A   1      39.530  32.099  33.180  1.00  0.00     0.167 HD
ATOM     50  C   UNL A   1      40.295  28.921  30.291  1.00  0.00     0.031 A 
ATOM     51  C   UNL A   1      39.920  33.451  35.596  1.00  0.00     0.031 A 
ATOM     52  C   UNL A   1      41.287  28.737  31.318  1.00  0.00     0.049 A 
ATOM     53  C   UNL A   1      40.929  32.336  35.578  1.00  0.00     0.074 A 
ATOM     54  C   UNL A   1      42.307  27.803  31.374  1.00  0.00     0.029 A 
ATOM     55  N   UNL A   1      41.379  29.498  32.472  1.00  0.00    -0.354 N 
ATOM     56  N   UNL A   1      41.143  31.430  34.655  1.00  0.00    -0.248 NA
ATOM     57  C   UNL A   1      41.821  32.232  36.742  1.00  0.00     0.031 C 
ATOM     58  C   UNL A   1      42.978  27.959  32.591  1.00  0.00     0.029 A 
ATOM     59  C   UNL A   1      42.421  29.036  33.261  1.00  0.00     0.049 A 
ATOM     60  H   UNL A   1      40.793  30.256  32.699  1.00  0.00     0.167 HD
ATOM     61  C   UNL A   1      42.211  30.669  35.113  1.00  0.00     0.074 A 
ATOM     62  C   UNL A   1      42.612  31.230  36.386  1.00  0.00     0.031 C 
ATOM     63  C   UNL A   1      42.808  29.601  34.528  1.00  0.00     0.031 A 
BRANCH  50  64
ATOM     64  C   UNL A   1      40.283  27.963  29.130  1.00  0.00    -0.014 A 
ATOM     65  C   UNL A   1      39.566  26.756  29.189  1.00  0.00     0.009 A 
ATOM     66  C   UNL A   1      40.967  28.287  27.948  1.00  0.00     0.009 A 
ATOM     67  C   UNL A   1      39.571  25.876  28.104  1.00  0.00     0.001 A 
ATOM     68  C   UNL A   1      40.942  27.420  26.853  1.00  0.00     0.001 A 
ATOM     69  C   UNL A   1      40.254  26.212  26.937  1.00  0.00     0.000 A 
ENDBRANCH  50  64
BRANCH  51  70
ATOM     70  C   UNL A   1      39.845  34.386  36.751  1.00  0.00    -0.014 A 
ATOM     71  C   UNL A   1      40.531  35.610  36.726  1.00  0.00     0.009 A 
ATOM     72  C   UNL A   1      39.095  34.054  37.891  1.00  0.00     0.009 A 
ATOM     73  C   UNL A   1      40.491  36.467  37.828  1.00  0.00     0.001 A 
ATOM     74  C   UNL A   1      39.029  34.927  38.978  1.00  0.00     0.001 A 
ATOM     75  C   UNL A   1      39.737  36.128  38.950  1.00  0.00     0.000 A 
ENDBRANCH  51  70
BRANCH  63  76
ATOM     76  C   UNL A   1      43.983  28.991  35.242  1.00  0.00    -0.014 A 
ATOM     77  C   UNL A   1      45.292  29.446  35.022  1.00  0.00     0.009 A 
ATOM     78  C   UNL A   1      43.768  27.971  36.183  1.00  0.00     0.009 A 
ATOM     79  C   UNL A   1      46.365  28.865  35.701  1.00  0.00     0.001 A 
ATOM     80  C   UNL A   1      44.839  27.415  36.885  1.00  0.00     0.001 A 
ATOM     81  C   UNL A   1      46.137  27.855  36.636  1.00  0.00     0.000 A 
ENDBRANCH  63  76
ENDBRANCH  37  38
ENDBRANCH  29  32
ENDBRANCH  27  28
ENDBRANCH  26  27
ENDBRANCH  25  26
ENDBRANCH   1  25
TORSDOF 17
ENDMDL
