MODEL 1
REMARK VINA RESULT:     -11.3      0.000      0.000
REMARK SMILES CC(C)COc1cccc(N2C[C@@H](C(=O)NCCCCNC(=O)c3ccc(-c4c5nc(c(-c6ccccc6)c6ccc([nH]6)c(-c6ccccc6)c6nc(c(-c7ccccc7)c7ccc4[nH]7)C=C6)C=C5)cc3)CC2=O)c1
REMARK SMILES IDX 17 1 16 2 14 3 15 4 13 6 11 7 12 8 73 9 72 10 74 11 10 12
REMARK SMILES IDX 6 13 7 14 75 15 8 16 9 17 5 18 4 19 2 20 1 21 3 22 18 23
REMARK SMILES IDX 19 24 20 25 21 26 22 27 23 29 24 30 25 31 71 32 26 33 70 34
REMARK SMILES IDX 27 35 28 36 29 37 64 38 30 39 69 40 63 41 65 42 31 43 68 44
REMARK SMILES IDX 62 45 61 46 32 48 54 49 39 50 53 51 40 52 43 53 52 54 66 55
REMARK SMILES IDX 41 56 42 57 51 59 67 60 44 61 33 62 34 63 38 64 35 65 37 66
REMARK SMILES IDX 36 67 55 68 56 69 60 70 57 71 59 72 58 73 45 74 46 75 50 76
REMARK SMILES IDX 47 77 49 78 48 79
REMARK H PARENT 16 5 21 28 65 47 43 58
REMARK Flexibility Score: inf
ROOT
ATOM      1  C   UNL A   1      35.463  21.044  25.043  1.00  0.00     0.116 C 
ENDROOT
BRANCH   1   2
ATOM      2  N   UNL A   1      35.235  21.557  26.384  1.00  0.00    -0.356 N 
ATOM      3  C   UNL A   1      34.281  22.367  26.907  1.00  0.00     0.225 C 
ATOM      4  O   UNL A   1      34.355  22.609  28.115  1.00  0.00    -0.275 OA
ATOM      5  H   UNL A   1      35.904  21.257  27.041  1.00  0.00     0.163 HD
BRANCH   3   6
ATOM      6  C   UNL A   1      33.148  22.962  26.096  1.00  0.00     0.107 C 
ATOM      7  N   UNL A   1      31.946  24.964  26.012  1.00  0.00    -0.311 N 
ATOM      8  C   UNL A   1      33.283  24.463  25.877  1.00  0.00     0.139 C 
ATOM      9  C   UNL A   1      31.055  24.026  26.541  1.00  0.00     0.227 C 
ATOM     10  C   UNL A   1      31.768  22.714  26.685  1.00  0.00     0.116 C 
ATOM     11  O   UNL A   1      29.893  24.191  26.857  1.00  0.00    -0.274 OA
BRANCH   7  12
ATOM     12  C   UNL A   1      31.630  26.333  25.947  1.00  0.00     0.047 A 
ATOM     13  C   UNL A   1      30.822  28.112  24.505  1.00  0.00     0.121 A 
ATOM     14  C   UNL A   1      31.419  29.043  25.351  1.00  0.00     0.046 A 
ATOM     15  C   UNL A   1      30.902  26.774  24.845  1.00  0.00     0.072 A 
ATOM     16  C   UNL A   1      32.059  28.622  26.530  1.00  0.00     0.006 A 
ATOM     17  C   UNL A   1      32.168  27.258  26.832  1.00  0.00     0.026 A 
BRANCH  13  18
ATOM     18  O   UNL A   1      30.314  28.549  23.314  1.00  0.00    -0.493 OA
BRANCH  18  19
ATOM     19  C   UNL A   1      29.808  29.893  23.252  1.00  0.00     0.232 C 
BRANCH  19  20
ATOM     20  C   UNL A   1      28.321  30.005  22.814  1.00  0.00     0.020 C 
ATOM     21  C   UNL A   1      27.485  28.746  23.085  1.00  0.00     0.011 C 
ATOM     22  C   UNL A   1      27.650  31.157  23.570  1.00  0.00     0.011 C 
ENDBRANCH  19  20
ENDBRANCH  18  19
ENDBRANCH  13  18
ENDBRANCH   7  12
ENDBRANCH   3   6
ENDBRANCH   1   2
BRANCH   1  23
ATOM     23  C   UNL A   1      36.912  21.238  24.590  1.00  0.00     0.023 C 
BRANCH  23  24
ATOM     24  C   UNL A   1      37.853  20.061  24.872  1.00  0.00     0.023 C 
BRANCH  24  25
ATOM     25  C   UNL A   1      38.925  20.305  25.930  1.00  0.00     0.116 C 
BRANCH  25  26
ATOM     26  N   UNL A   1      40.067  19.415  25.802  1.00  0.00    -0.352 N 
ATOM     27  C   UNL A   1      41.399  19.661  26.035  1.00  0.00     0.251 C 
ATOM     28  H   UNL A   1      39.855  18.500  25.505  1.00  0.00     0.163 HD
ATOM     29  O   UNL A   1      42.234  18.804  25.758  1.00  0.00    -0.269 OA
BRANCH  27  30
ATOM     30  C   UNL A   1      41.838  20.963  26.585  1.00  0.00     0.039 A 
ATOM     31  C   UNL A   1      42.161  21.990  25.695  1.00  0.00     0.014 A 
ATOM     32  C   UNL A   1      41.939  21.176  27.962  1.00  0.00     0.014 A 
ATOM     33  C   UNL A   1      42.520  23.248  26.184  1.00  0.00     0.010 A 
ATOM     34  C   UNL A   1      42.229  22.450  28.449  1.00  0.00     0.010 A 
ATOM     35  C   UNL A   1      42.520  23.500  27.566  1.00  0.00    -0.014 A 
BRANCH  35  36
ATOM     36  C   UNL A   1      42.809  24.858  28.095  1.00  0.00     0.031 A 
ATOM     37  C   UNL A   1      44.208  25.247  28.487  1.00  0.00     0.074 A 
ATOM     38  C   UNL A   1      41.797  25.730  28.273  1.00  0.00     0.049 A 
ATOM     39  N   UNL A   1      44.642  26.379  28.984  1.00  0.00    -0.248 NA
ATOM     40  C   UNL A   1      45.253  24.226  28.320  1.00  0.00     0.031 C 
ATOM     41  C   UNL A   1      40.387  25.465  27.978  1.00  0.00     0.029 A 
ATOM     42  N   UNL A   1      41.800  27.019  28.746  1.00  0.00    -0.354 N 
ATOM     43  C   UNL A   1      46.003  26.200  29.200  1.00  0.00     0.074 A 
ATOM     44  C   UNL A   1      46.313  24.837  28.830  1.00  0.00     0.031 C 
ATOM     45  C   UNL A   1      39.667  26.566  28.246  1.00  0.00     0.029 A 
ATOM     46  C   UNL A   1      40.555  27.601  28.765  1.00  0.00     0.049 A 
ATOM     47  H   UNL A   1      42.615  27.482  29.045  1.00  0.00     0.167 HD
ATOM     48  C   UNL A   1      46.917  27.095  29.648  1.00  0.00     0.031 A 
ATOM     49  C   UNL A   1      40.171  28.831  29.155  1.00  0.00     0.031 A 
ATOM     50  C   UNL A   1      46.612  28.453  30.012  1.00  0.00     0.049 A 
ATOM     51  C   UNL A   1      41.203  29.801  29.655  1.00  0.00     0.074 A 
ATOM     52  C   UNL A   1      47.480  29.451  30.423  1.00  0.00     0.029 A 
ATOM     53  N   UNL A   1      45.341  29.004  30.013  1.00  0.00    -0.354 N 
ATOM     54  N   UNL A   1      42.497  29.640  29.783  1.00  0.00    -0.248 NA
ATOM     55  C   UNL A   1      40.719  31.133  30.050  1.00  0.00     0.031 C 
ATOM     56  C   UNL A   1      46.727  30.591  30.721  1.00  0.00     0.029 A 
ATOM     57  C   UNL A   1      45.398  30.322  30.441  1.00  0.00     0.049 A 
ATOM     58  H   UNL A   1      44.519  28.531  29.749  1.00  0.00     0.167 HD
ATOM     59  C   UNL A   1      42.986  30.853  30.248  1.00  0.00     0.074 A 
ATOM     60  C   UNL A   1      41.851  31.748  30.358  1.00  0.00     0.031 C 
ATOM     61  C   UNL A   1      44.260  31.198  30.554  1.00  0.00     0.031 A 
BRANCH  48  62
ATOM     62  C   UNL A   1      48.339  26.623  29.776  1.00  0.00    -0.014 A 
ATOM     63  C   UNL A   1      49.264  26.809  28.735  1.00  0.00     0.009 A 
ATOM     64  C   UNL A   1      48.770  26.013  30.964  1.00  0.00     0.009 A 
ATOM     65  C   UNL A   1      50.580  26.360  28.868  1.00  0.00     0.001 A 
ATOM     66  C   UNL A   1      50.094  25.591  31.105  1.00  0.00     0.001 A 
ATOM     67  C   UNL A   1      50.995  25.756  30.053  1.00  0.00     0.000 A 
ENDBRANCH  48  62
BRANCH  49  68
ATOM     68  C   UNL A   1      38.739  29.225  29.069  1.00  0.00    -0.014 A 
ATOM     69  C   UNL A   1      37.906  29.127  30.194  1.00  0.00     0.009 A 
ATOM     70  C   UNL A   1      38.197  29.692  27.861  1.00  0.00     0.009 A 
ATOM     71  C   UNL A   1      36.553  29.460  30.103  1.00  0.00     0.001 A 
ATOM     72  C   UNL A   1      36.851  30.053  27.782  1.00  0.00     0.001 A 
ATOM     73  C   UNL A   1      36.027  29.927  28.899  1.00  0.00     0.000 A 
ENDBRANCH  49  68
BRANCH  61  74
ATOM     74  C   UNL A   1      44.497  32.611  31.010  1.00  0.00    -0.014 A 
ATOM     75  C   UNL A   1      44.760  33.640  30.093  1.00  0.00     0.009 A 
ATOM     76  C   UNL A   1      44.434  32.919  32.378  1.00  0.00     0.009 A 
ATOM     77  C   UNL A   1      44.995  34.942  30.540  1.00  0.00     0.001 A 
ATOM     78  C   UNL A   1      44.641  34.226  32.821  1.00  0.00     0.001 A 
ATOM     79  C   UNL A   1      44.932  35.233  31.903  1.00  0.00     0.000 A 
ENDBRANCH  61  74
ENDBRANCH  35  36
ENDBRANCH  27  30
ENDBRANCH  25  26
ENDBRANCH  24  25
ENDBRANCH  23  24
ENDBRANCH   1  23
TORSDOF 15
ENDMDL
MODEL 2
REMARK VINA RESULT:     -11.2      1.243      5.997
REMARK SMILES CC(C)COc1cccc(N2C[C@@H](C(=O)NCCCCNC(=O)c3ccc(-c4c5nc(c(-c6ccccc6)c6ccc([nH]6)c(-c6ccccc6)c6nc(c(-c7ccccc7)c7ccc4[nH]7)C=C6)C=C5)cc3)CC2=O)c1
REMARK SMILES IDX 17 1 16 2 14 3 15 4 13 6 11 7 12 8 73 9 72 10 74 11 10 12
REMARK SMILES IDX 6 13 7 14 75 15 8 16 9 17 5 18 4 19 2 20 1 21 3 22 18 23
REMARK SMILES IDX 19 24 20 25 21 26 22 27 23 29 24 30 25 31 71 32 26 33 70 34
REMARK SMILES IDX 27 35 28 36 29 37 64 38 30 39 69 40 63 41 65 42 31 43 68 44
REMARK SMILES IDX 62 45 61 46 32 48 54 49 39 50 53 51 40 52 43 53 52 54 66 55
REMARK SMILES IDX 41 56 42 57 51 59 67 60 44 61 33 62 34 63 38 64 35 65 37 66
REMARK SMILES IDX 36 67 55 68 56 69 60 70 57 71 59 72 58 73 45 74 46 75 50 76
REMARK SMILES IDX 47 77 49 78 48 79
REMARK H PARENT 16 5 21 28 65 47 43 58
REMARK Flexibility Score: inf
ROOT
ATOM      1  C   UNL A   1      35.486  21.058  25.091  1.00  0.00     0.116 C 
ENDROOT
BRANCH   1   2
ATOM      2  N   UNL A   1      35.275  21.674  26.391  1.00  0.00    -0.356 N 
ATOM      3  C   UNL A   1      34.287  22.463  26.884  1.00  0.00     0.225 C 
ATOM      4  O   UNL A   1      34.392  22.818  28.061  1.00  0.00    -0.275 OA
ATOM      5  H   UNL A   1      35.989  21.481  27.040  1.00  0.00     0.163 HD
BRANCH   3   6
ATOM      6  C   UNL A   1      33.083  22.903  26.077  1.00  0.00     0.107 C 
ATOM      7  N   UNL A   1      31.781  24.826  25.821  1.00  0.00    -0.311 N 
ATOM      8  C   UNL A   1      33.131  24.369  25.668  1.00  0.00     0.139 C 
ATOM      9  C   UNL A   1      30.968  23.926  26.515  1.00  0.00     0.227 C 
ATOM     10  C   UNL A   1      31.752  22.674  26.775  1.00  0.00     0.116 C 
ATOM     11  O   UNL A   1      29.818  24.080  26.879  1.00  0.00    -0.274 OA
BRANCH   7  12
ATOM     12  C   UNL A   1      31.395  26.162  25.608  1.00  0.00     0.047 A 
ATOM     13  C   UNL A   1      30.438  27.715  24.004  1.00  0.00     0.121 A 
ATOM     14  C   UNL A   1      31.025  28.767  24.703  1.00  0.00     0.046 A 
ATOM     15  C   UNL A   1      30.600  26.433  24.497  1.00  0.00     0.072 A 
ATOM     16  C   UNL A   1      31.734  28.522  25.891  1.00  0.00     0.006 A 
ATOM     17  C   UNL A   1      31.924  27.211  26.349  1.00  0.00     0.026 A 
BRANCH  13  18
ATOM     18  O   UNL A   1      29.860  27.981  22.795  1.00  0.00    -0.493 OA
BRANCH  18  19
ATOM     19  C   UNL A   1      29.647  29.357  22.440  1.00  0.00     0.232 C 
BRANCH  19  20
ATOM     20  C   UNL A   1      28.173  29.835  22.556  1.00  0.00     0.020 C 
ATOM     21  C   UNL A   1      27.208  28.780  23.113  1.00  0.00     0.011 C 
ATOM     22  C   UNL A   1      28.099  31.046  23.492  1.00  0.00     0.011 C 
ENDBRANCH  19  20
ENDBRANCH  18  19
ENDBRANCH  13  18
ENDBRANCH   7  12
ENDBRANCH   3   6
ENDBRANCH   1   2
BRANCH   1  23
ATOM     23  C   UNL A   1      36.933  21.196  24.615  1.00  0.00     0.023 C 
BRANCH  23  24
ATOM     24  C   UNL A   1      37.840  19.995  24.909  1.00  0.00     0.023 C 
BRANCH  24  25
ATOM     25  C   UNL A   1      38.946  20.233  25.934  1.00  0.00     0.116 C 
BRANCH  25  26
ATOM     26  N   UNL A   1      39.980  19.214  25.906  1.00  0.00    -0.352 N 
ATOM     27  C   UNL A   1      41.338  19.338  26.083  1.00  0.00     0.251 C 
ATOM     28  H   UNL A   1      39.662  18.297  25.734  1.00  0.00     0.163 HD
ATOM     29  O   UNL A   1      42.066  18.365  25.907  1.00  0.00    -0.269 OA
BRANCH  27  30
ATOM     30  C   UNL A   1      41.931  20.643  26.452  1.00  0.00     0.039 A 
ATOM     31  C   UNL A   1      42.256  21.542  25.432  1.00  0.00     0.014 A 
ATOM     32  C   UNL A   1      42.174  20.983  27.785  1.00  0.00     0.014 A 
ATOM     33  C   UNL A   1      42.760  22.804  25.752  1.00  0.00     0.010 A 
ATOM     34  C   UNL A   1      42.611  22.267  28.106  1.00  0.00     0.010 A 
ATOM     35  C   UNL A   1      42.907  23.192  27.093  1.00  0.00    -0.014 A 
BRANCH  35  36
ATOM     36  C   UNL A   1      43.353  24.565  27.448  1.00  0.00     0.031 A 
ATOM     37  C   UNL A   1      42.357  25.609  27.873  1.00  0.00     0.074 A 
ATOM     38  C   UNL A   1      44.657  24.888  27.337  1.00  0.00     0.049 A 
ATOM     39  N   UNL A   1      42.562  26.861  28.199  1.00  0.00    -0.248 NA
ATOM     40  C   UNL A   1      40.945  25.201  27.916  1.00  0.00     0.031 C 
ATOM     41  C   UNL A   1      45.720  23.985  26.891  1.00  0.00     0.029 A 
ATOM     42  N   UNL A   1      45.310  26.069  27.590  1.00  0.00    -0.354 N 
ATOM     43  C   UNL A   1      41.307  27.391  28.472  1.00  0.00     0.074 A 
ATOM     44  C   UNL A   1      40.343  26.342  28.223  1.00  0.00     0.031 C 
ATOM     45  C   UNL A   1      46.895  24.634  26.934  1.00  0.00     0.029 A 
ATOM     46  C   UNL A   1      46.665  26.006  27.373  1.00  0.00     0.049 A 
ATOM     47  H   UNL A   1      44.850  26.884  27.897  1.00  0.00     0.167 HD
ATOM     48  C   UNL A   1      40.986  28.633  28.909  1.00  0.00     0.031 A 
ATOM     49  C   UNL A   1      47.618  26.947  27.513  1.00  0.00     0.031 A 
ATOM     50  C   UNL A   1      41.943  29.677  29.162  1.00  0.00     0.049 A 
ATOM     51  C   UNL A   1      47.234  28.318  27.992  1.00  0.00     0.074 A 
ATOM     52  C   UNL A   1      41.719  30.949  29.660  1.00  0.00     0.029 A 
ATOM     53  N   UNL A   1      43.305  29.572  28.934  1.00  0.00    -0.354 N 
ATOM     54  N   UNL A   1      46.052  28.781  28.316  1.00  0.00    -0.248 NA
ATOM     55  C   UNL A   1      48.324  29.295  28.138  1.00  0.00     0.031 C 
ATOM     56  C   UNL A   1      42.940  31.631  29.685  1.00  0.00     0.029 A 
ATOM     57  C   UNL A   1      43.933  30.765  29.258  1.00  0.00     0.049 A 
ATOM     58  H   UNL A   1      43.761  28.769  28.592  1.00  0.00     0.167 HD
ATOM     59  C   UNL A   1      46.257  30.091  28.729  1.00  0.00     0.074 A 
ATOM     60  C   UNL A   1      47.681  30.342  28.635  1.00  0.00     0.031 C 
ATOM     61  C   UNL A   1      45.349  31.004  29.151  1.00  0.00     0.031 A 
BRANCH  48  62
ATOM     62  C   UNL A   1      39.529  28.930  29.133  1.00  0.00    -0.014 A 
ATOM     63  C   UNL A   1      38.911  28.657  30.366  1.00  0.00     0.009 A 
ATOM     64  C   UNL A   1      38.769  29.521  28.111  1.00  0.00     0.009 A 
ATOM     65  C   UNL A   1      37.556  28.933  30.556  1.00  0.00     0.001 A 
ATOM     66  C   UNL A   1      37.421  29.823  28.314  1.00  0.00     0.001 A 
ATOM     67  C   UNL A   1      36.813  29.520  29.533  1.00  0.00     0.000 A 
ENDBRANCH  48  62
BRANCH  49  68
ATOM     68  C   UNL A   1      49.037  26.619  27.215  1.00  0.00    -0.014 A 
ATOM     69  C   UNL A   1      49.879  26.125  28.223  1.00  0.00     0.009 A 
ATOM     70  C   UNL A   1      49.560  26.807  25.926  1.00  0.00     0.009 A 
ATOM     71  C   UNL A   1      51.222  25.854  27.953  1.00  0.00     0.001 A 
ATOM     72  C   UNL A   1      50.895  26.506  25.652  1.00  0.00     0.001 A 
ATOM     73  C   UNL A   1      51.728  26.040  26.668  1.00  0.00     0.000 A 
ENDBRANCH  49  68
BRANCH  61  74
ATOM     74  C   UNL A   1      45.874  32.349  29.569  1.00  0.00    -0.014 A 
ATOM     75  C   UNL A   1      46.297  32.591  30.886  1.00  0.00     0.009 A 
ATOM     76  C   UNL A   1      45.966  33.383  28.624  1.00  0.00     0.009 A 
ATOM     77  C   UNL A   1      46.763  33.854  31.256  1.00  0.00     0.001 A 
ATOM     78  C   UNL A   1      46.461  34.636  28.990  1.00  0.00     0.001 A 
ATOM     79  C   UNL A   1      46.847  34.873  30.307  1.00  0.00     0.000 A 
ENDBRANCH  61  74
ENDBRANCH  35  36
ENDBRANCH  27  30
ENDBRANCH  25  26
ENDBRANCH  24  25
ENDBRANCH  23  24
ENDBRANCH   1  23
TORSDOF 15
ENDMDL
MODEL 3
REMARK VINA RESULT:     -11.0      1.680      6.288
REMARK SMILES CC(C)COc1cccc(N2C[C@@H](C(=O)NCCCCNC(=O)c3ccc(-c4c5nc(c(-c6ccccc6)c6ccc([nH]6)c(-c6ccccc6)c6nc(c(-c7ccccc7)c7ccc4[nH]7)C=C6)C=C5)cc3)CC2=O)c1
REMARK SMILES IDX 17 1 16 2 14 3 15 4 13 6 11 7 12 8 73 9 72 10 74 11 10 12
REMARK SMILES IDX 6 13 7 14 75 15 8 16 9 17 5 18 4 19 2 20 1 21 3 22 18 23
REMARK SMILES IDX 19 24 20 25 21 26 22 27 23 29 24 30 25 31 71 32 26 33 70 34
REMARK SMILES IDX 27 35 28 36 29 37 64 38 30 39 69 40 63 41 65 42 31 43 68 44
REMARK SMILES IDX 62 45 61 46 32 48 54 49 39 50 53 51 40 52 43 53 52 54 66 55
REMARK SMILES IDX 41 56 42 57 51 59 67 60 44 61 33 62 34 63 38 64 35 65 37 66
REMARK SMILES IDX 36 67 55 68 56 69 60 70 57 71 59 72 58 73 45 74 46 75 50 76
REMARK SMILES IDX 47 77 49 78 48 79
REMARK H PARENT 16 5 21 28 65 47 43 58
REMARK Flexibility Score: inf
ROOT
ATOM      1  C   UNL A   1      36.034  21.289  25.769  1.00  0.00     0.116 C 
ENDROOT
BRANCH   1   2
ATOM      2  N   UNL A   1      34.620  21.104  25.490  1.00  0.00    -0.356 N 
ATOM      3  C   UNL A   1      33.713  21.849  24.810  1.00  0.00     0.225 C 
ATOM      4  O   UNL A   1      32.566  21.401  24.736  1.00  0.00    -0.275 OA
ATOM      5  H   UNL A   1      34.247  20.276  25.869  1.00  0.00     0.163 HD
BRANCH   3   6
ATOM      6  C   UNL A   1      34.042  23.167  24.141  1.00  0.00     0.107 C 
ATOM      7  N   UNL A   1      32.900  25.073  23.416  1.00  0.00    -0.311 N 
ATOM      8  C   UNL A   1      33.164  24.320  24.608  1.00  0.00     0.139 C 
ATOM      9  C   UNL A   1      33.271  24.404  22.247  1.00  0.00     0.227 C 
ATOM     10  C   UNL A   1      33.965  23.129  22.623  1.00  0.00     0.116 C 
ATOM     11  O   UNL A   1      33.083  24.746  21.095  1.00  0.00    -0.274 OA
BRANCH   7  12
ATOM     12  C   UNL A   1      32.058  26.200  23.391  1.00  0.00     0.047 A 
ATOM     13  C   UNL A   1      31.831  28.517  24.081  1.00  0.00     0.121 A 
ATOM     14  C   UNL A   1      30.449  28.397  23.963  1.00  0.00     0.046 A 
ATOM     15  C   UNL A   1      32.613  27.426  23.749  1.00  0.00     0.072 A 
ATOM     16  C   UNL A   1      29.879  27.202  23.492  1.00  0.00     0.006 A 
ATOM     17  C   UNL A   1      30.686  26.093  23.205  1.00  0.00     0.026 A 
BRANCH  13  18
ATOM     18  O   UNL A   1      32.338  29.651  24.652  1.00  0.00    -0.493 OA
BRANCH  18  19
ATOM     19  C   UNL A   1      31.716  30.132  25.855  1.00  0.00     0.232 C 
BRANCH  19  20
ATOM     20  C   UNL A   1      32.286  29.526  27.167  1.00  0.00     0.020 C 
ATOM     21  C   UNL A   1      31.615  28.215  27.601  1.00  0.00     0.011 C 
ATOM     22  C   UNL A   1      33.778  29.225  26.987  1.00  0.00     0.011 C 
ENDBRANCH  19  20
ENDBRANCH  18  19
ENDBRANCH  13  18
ENDBRANCH   7  12
ENDBRANCH   3   6
ENDBRANCH   1   2
BRANCH   1  23
ATOM     23  C   UNL A   1      36.916  20.828  24.607  1.00  0.00     0.023 C 
BRANCH  23  24
ATOM     24  C   UNL A   1      37.933  19.732  24.947  1.00  0.00     0.023 C 
BRANCH  24  25
ATOM     25  C   UNL A   1      39.176  20.191  25.704  1.00  0.00     0.116 C 
BRANCH  25  26
ATOM     26  N   UNL A   1      40.200  19.164  25.798  1.00  0.00    -0.352 N 
ATOM     27  C   UNL A   1      41.531  19.282  26.121  1.00  0.00     0.251 C 
ATOM     28  H   UNL A   1      39.895  18.248  25.601  1.00  0.00     0.163 HD
ATOM     29  O   UNL A   1      42.267  18.302  26.034  1.00  0.00    -0.269 OA
BRANCH  27  30
ATOM     30  C   UNL A   1      42.090  20.586  26.540  1.00  0.00     0.039 A 
ATOM     31  C   UNL A   1      42.630  21.427  25.563  1.00  0.00     0.014 A 
ATOM     32  C   UNL A   1      42.093  20.982  27.880  1.00  0.00     0.014 A 
ATOM     33  C   UNL A   1      43.109  22.690  25.919  1.00  0.00     0.010 A 
ATOM     34  C   UNL A   1      42.507  22.268  28.224  1.00  0.00     0.010 A 
ATOM     35  C   UNL A   1      43.018  23.136  27.248  1.00  0.00    -0.014 A 
BRANCH  35  36
ATOM     36  C   UNL A   1      43.438  24.511  27.622  1.00  0.00     0.031 A 
ATOM     37  C   UNL A   1      42.414  25.562  27.955  1.00  0.00     0.074 A 
ATOM     38  C   UNL A   1      44.747  24.831  27.613  1.00  0.00     0.049 A 
ATOM     39  N   UNL A   1      42.595  26.817  28.284  1.00  0.00    -0.248 NA
ATOM     40  C   UNL A   1      41.001  25.158  27.889  1.00  0.00     0.031 C 
ATOM     41  C   UNL A   1      45.840  23.921  27.264  1.00  0.00     0.029 A 
ATOM     42  N   UNL A   1      45.380  26.014  27.906  1.00  0.00    -0.354 N 
ATOM     43  C   UNL A   1      41.324  27.352  28.450  1.00  0.00     0.074 A 
ATOM     44  C   UNL A   1      40.380  26.302  28.135  1.00  0.00     0.031 C 
ATOM     45  C   UNL A   1      47.009  24.568  27.395  1.00  0.00     0.029 A 
ATOM     46  C   UNL A   1      46.748  25.946  27.800  1.00  0.00     0.049 A 
ATOM     47  H   UNL A   1      44.900  26.833  28.166  1.00  0.00     0.167 HD
ATOM     48  C   UNL A   1      40.972  28.599  28.846  1.00  0.00     0.031 A 
ATOM     49  C   UNL A   1      47.690  26.887  28.005  1.00  0.00     0.031 A 
ATOM     50  C   UNL A   1      41.908  29.644  29.165  1.00  0.00     0.049 A 
ATOM     51  C   UNL A   1      47.272  28.263  28.438  1.00  0.00     0.074 A 
ATOM     52  C   UNL A   1      41.648  30.922  29.630  1.00  0.00     0.029 A 
ATOM     53  N   UNL A   1      43.284  29.534  29.049  1.00  0.00    -0.354 N 
ATOM     54  N   UNL A   1      46.069  28.731  28.662  1.00  0.00    -0.248 NA
ATOM     55  C   UNL A   1      48.350  29.239  28.661  1.00  0.00     0.031 C 
ATOM     56  C   UNL A   1      42.865  31.602  29.746  1.00  0.00     0.029 A 
ATOM     57  C   UNL A   1      43.887  30.729  29.409  1.00  0.00     0.049 A 
ATOM     58  H   UNL A   1      43.764  28.727  28.753  1.00  0.00     0.167 HD
ATOM     59  C   UNL A   1      46.244  30.045  29.076  1.00  0.00     0.074 A 
ATOM     60  C   UNL A   1      47.672  30.292  29.094  1.00  0.00     0.031 C 
ATOM     61  C   UNL A   1      45.308  30.965  29.414  1.00  0.00     0.031 A 
BRANCH  48  62
ATOM     62  C   UNL A   1      39.502  28.901  28.950  1.00  0.00    -0.014 A 
ATOM     63  C   UNL A   1      38.784  29.407  27.853  1.00  0.00     0.009 A 
ATOM     64  C   UNL A   1      38.817  28.646  30.148  1.00  0.00     0.009 A 
ATOM     65  C   UNL A   1      37.420  29.687  27.967  1.00  0.00     0.001 A 
ATOM     66  C   UNL A   1      37.448  28.899  30.250  1.00  0.00     0.001 A 
ATOM     67  C   UNL A   1      36.753  29.429  29.163  1.00  0.00     0.000 A 
ENDBRANCH  48  62
BRANCH  49  68
ATOM     68  C   UNL A   1      49.127  26.553  27.826  1.00  0.00    -0.014 A 
ATOM     69  C   UNL A   1      49.890  26.087  28.909  1.00  0.00     0.009 A 
ATOM     70  C   UNL A   1      49.747  26.707  26.576  1.00  0.00     0.009 A 
ATOM     71  C   UNL A   1      51.249  25.810  28.750  1.00  0.00     0.001 A 
ATOM     72  C   UNL A   1      51.100  26.400  26.414  1.00  0.00     0.001 A 
ATOM     73  C   UNL A   1      51.852  25.963  27.502  1.00  0.00     0.000 A 
ENDBRANCH  49  68
BRANCH  61  74
ATOM     74  C   UNL A   1      45.801  32.313  29.859  1.00  0.00    -0.014 A 
ATOM     75  C   UNL A   1      45.932  33.378  28.956  1.00  0.00     0.009 A 
ATOM     76  C   UNL A   1      46.121  32.523  31.211  1.00  0.00     0.009 A 
ATOM     77  C   UNL A   1      46.412  34.616  29.388  1.00  0.00     0.001 A 
ATOM     78  C   UNL A   1      46.571  33.771  31.646  1.00  0.00     0.001 A 
ATOM     79  C   UNL A   1      46.727  34.811  30.733  1.00  0.00     0.000 A 
ENDBRANCH  61  74
ENDBRANCH  35  36
ENDBRANCH  27  30
ENDBRANCH  25  26
ENDBRANCH  24  25
ENDBRANCH  23  24
ENDBRANCH   1  23
TORSDOF 15
ENDMDL
