MODEL 1
REMARK VINA RESULT:     -12.6      0.000      0.000
REMARK SMILES Cc1ccc([C@@H](C)Nc2ccc(N)cc2C(=O)NCCCCNC(=O)c2ccc(-c3c4nc(c(-c5ccccc5)c5ccc([nH]5)c(-c5ccccc5)c5nc(c(-c6ccccc6)c6ccc3[nH]6)C=C5)C=C4)cc2)cc1F
REMARK SMILES IDX 20 1 19 2 18 3 16 4 17 5 15 7 9 8 10 9 11 10 14 11 12 12
REMARK SMILES IDX 8 13 6 15 7 16 5 17 1 18 2 19 3 20 75 21 4 22 74 23 76 24
REMARK SMILES IDX 13 25 21 28 22 29 23 30 24 31 25 33 26 34 27 35 73 36 28 37
REMARK SMILES IDX 72 38 29 39 30 40 31 41 66 42 32 43 71 44 65 45 67 46 33 47
REMARK SMILES IDX 70 48 64 49 63 50 34 52 56 53 41 54 55 55 42 56 45 57 54 58
REMARK SMILES IDX 68 59 43 60 44 61 53 63 69 64 46 65 35 66 36 67 40 68 37 69
REMARK SMILES IDX 39 70 38 71 57 72 58 73 62 74 59 75 61 76 60 77 47 78 48 79
REMARK SMILES IDX 52 80 49 81 51 82 50 83
REMARK H PARENT 18 6 8 14 13 26 13 27 23 32 67 51 45 62
REMARK Flexibility Score: inf
ROOT
ATOM      1  C   UNL A   1      35.497  18.933  24.750  1.00  0.00     0.023 C 
ENDROOT
BRANCH   1   2
ATOM      2  C   UNL A   1      33.947  19.644  25.082  1.00  0.00     0.116 C 
BRANCH   2   3
ATOM      3  N   UNL A   1      33.720  20.412  26.301  1.00  0.00    -0.352 N 
ATOM      4  C   UNL A   1      33.852  21.757  26.551  1.00  0.00     0.253 C 
ATOM      5  O   UNL A   1      33.435  22.216  27.613  1.00  0.00    -0.269 OA
ATOM      6  H   UNL A   1      33.422  19.879  27.072  1.00  0.00     0.163 HD
BRANCH   4   7
ATOM      7  C   UNL A   1      34.626  22.615  25.628  1.00  0.00     0.065 A 
ATOM      8  C   UNL A   1      34.260  22.914  24.312  1.00  0.00     0.048 A 
ATOM      9  C   UNL A   1      35.335  23.189  23.445  1.00  0.00     0.028 A 
ATOM     10  C   UNL A   1      36.654  23.333  23.903  1.00  0.00     0.027 A 
ATOM     11  C   UNL A   1      35.917  22.915  26.117  1.00  0.00     0.041 A 
ATOM     12  C   UNL A   1      36.934  23.315  25.262  1.00  0.00     0.032 A 
BRANCH   8  13
ATOM     13  N   UNL A   1      32.983  22.964  23.781  1.00  0.00    -0.378 N 
ATOM     14  H   UNL A   1      32.806  22.289  23.087  1.00  0.00     0.161 HD
BRANCH  13  15
ATOM     15  C   UNL A   1      31.846  23.847  24.069  1.00  0.00     0.106 C 
ATOM     16  C   UNL A   1      30.654  23.688  23.138  1.00  0.00     0.036 C 
BRANCH  15  17
ATOM     17  C   UNL A   1      32.331  25.231  24.487  1.00  0.00    -0.023 A 
ATOM     18  C   UNL A   1      33.739  29.752  26.438  1.00  0.00     0.047 C 
ATOM     19  C   UNL A   1      33.414  28.410  25.867  1.00  0.00    -0.015 A 
ATOM     20  C   UNL A   1      32.456  27.268  26.874  1.00  0.00     0.007 A 
ATOM     21  C   UNL A   1      33.794  27.984  24.153  1.00  0.00     0.126 A 
ATOM     22  C   UNL A   1      31.963  25.666  26.203  1.00  0.00     0.006 A 
ATOM     23  C   UNL A   1      33.254  26.400  23.456  1.00  0.00     0.045 A 
ATOM     24  F   UNL A   1      34.514  28.828  23.405  1.00  0.00    -0.207 F 
ENDBRANCH  15  17
ENDBRANCH  13  15
ENDBRANCH   8  13
BRANCH  12  25
ATOM     25  N   UNL A   1      38.224  23.485  25.737  1.00  0.00    -0.399 N 
ATOM     26  H   UNL A   1      38.419  24.196  26.390  1.00  0.00     0.156 HD
ATOM     27  H   UNL A   1      38.947  22.893  25.423  1.00  0.00     0.156 HD
ENDBRANCH  12  25
ENDBRANCH   4   7
ENDBRANCH   2   3
ENDBRANCH   1   2
BRANCH   1  28
ATOM     28  C   UNL A   1      37.581  19.577  24.639  1.00  0.00     0.023 C 
BRANCH  28  29
ATOM     29  C   UNL A   1      38.798  20.068  25.708  1.00  0.00     0.116 C 
BRANCH  29  30
ATOM     30  N   UNL A   1      39.923  19.141  25.894  1.00  0.00    -0.352 N 
ATOM     31  C   UNL A   1      41.270  19.382  25.983  1.00  0.00     0.251 C 
ATOM     32  H   UNL A   1      39.669  18.193  25.965  1.00  0.00     0.163 HD
ATOM     33  O   UNL A   1      42.077  18.488  25.747  1.00  0.00    -0.269 OA
BRANCH  31  34
ATOM     34  C   UNL A   1      41.743  20.708  26.412  1.00  0.00     0.039 A 
ATOM     35  C   UNL A   1      41.946  20.982  27.767  1.00  0.00     0.014 A 
ATOM     36  C   UNL A   1      41.941  21.699  25.449  1.00  0.00     0.014 A 
ATOM     37  C   UNL A   1      42.401  22.244  28.145  1.00  0.00     0.010 A 
ATOM     38  C   UNL A   1      42.507  22.905  25.811  1.00  0.00     0.010 A 
ATOM     39  C   UNL A   1      42.712  23.199  27.164  1.00  0.00    -0.014 A 
BRANCH  39  40
ATOM     40  C   UNL A   1      43.208  24.544  27.517  1.00  0.00     0.031 A 
ATOM     41  C   UNL A   1      42.223  25.606  27.920  1.00  0.00     0.074 A 
ATOM     42  C   UNL A   1      44.519  24.812  27.387  1.00  0.00     0.049 A 
ATOM     43  N   UNL A   1      42.435  26.867  28.189  1.00  0.00    -0.248 NA
ATOM     44  C   UNL A   1      40.804  25.208  27.988  1.00  0.00     0.031 C 
ATOM     45  C   UNL A   1      45.540  23.856  26.949  1.00  0.00     0.029 A 
ATOM     46  N   UNL A   1      45.219  25.966  27.609  1.00  0.00    -0.354 N 
ATOM     47  C   UNL A   1      41.180  27.410  28.435  1.00  0.00     0.074 A 
ATOM     48  C   UNL A   1      40.207  26.367  28.209  1.00  0.00     0.031 C 
ATOM     49  C   UNL A   1      46.742  24.451  26.980  1.00  0.00     0.029 A 
ATOM     50  C   UNL A   1      46.568  25.841  27.385  1.00  0.00     0.049 A 
ATOM     51  H   UNL A   1      44.797  26.806  27.902  1.00  0.00     0.167 HD
ATOM     52  C   UNL A   1      40.871  28.663  28.843  1.00  0.00     0.031 A 
ATOM     53  C   UNL A   1      47.549  26.755  27.492  1.00  0.00     0.031 A 
ATOM     54  C   UNL A   1      41.860  29.681  29.065  1.00  0.00     0.049 A 
ATOM     55  C   UNL A   1      47.179  28.144  27.932  1.00  0.00     0.074 A 
ATOM     56  C   UNL A   1      41.682  30.971  29.527  1.00  0.00     0.029 A 
ATOM     57  N   UNL A   1      43.219  29.516  28.835  1.00  0.00    -0.354 N 
ATOM     58  N   UNL A   1      45.996  28.626  28.236  1.00  0.00    -0.248 NA
ATOM     59  C   UNL A   1      48.277  29.109  28.056  1.00  0.00     0.031 C 
ATOM     60  C   UNL A   1      42.926  31.608  29.510  1.00  0.00     0.029 A 
ATOM     61  C   UNL A   1      43.889  30.691  29.116  1.00  0.00     0.049 A 
ATOM     62  H   UNL A   1      43.641  28.685  28.519  1.00  0.00     0.167 HD
ATOM     63  C   UNL A   1      46.212  29.944  28.618  1.00  0.00     0.074 A 
ATOM     64  C   UNL A   1      47.641  30.173  28.526  1.00  0.00     0.031 C 
ATOM     65  C   UNL A   1      45.314  30.882  29.011  1.00  0.00     0.031 A 
BRANCH  52  66
ATOM     66  C   UNL A   1      39.416  28.988  29.055  1.00  0.00    -0.014 A 
ATOM     67  C   UNL A   1      38.611  29.469  28.009  1.00  0.00     0.009 A 
ATOM     68  C   UNL A   1      38.837  28.798  30.319  1.00  0.00     0.009 A 
ATOM     69  C   UNL A   1      37.272  29.795  28.235  1.00  0.00     0.001 A 
ATOM     70  C   UNL A   1      37.488  29.090  30.533  1.00  0.00     0.001 A 
ATOM     71  C   UNL A   1      36.710  29.599  29.496  1.00  0.00     0.000 A 
ENDBRANCH  52  66
BRANCH  53  72
ATOM     72  C   UNL A   1      48.959  26.380  27.200  1.00  0.00    -0.014 A 
ATOM     73  C   UNL A   1      49.473  26.489  25.898  1.00  0.00     0.009 A 
ATOM     74  C   UNL A   1      49.803  25.916  28.221  1.00  0.00     0.009 A 
ATOM     75  C   UNL A   1      50.790  26.109  25.621  1.00  0.00     0.001 A 
ATOM     76  C   UNL A   1      51.128  25.571  27.949  1.00  0.00     0.001 A 
ATOM     77  C   UNL A   1      51.617  25.656  26.647  1.00  0.00     0.000 A 
ENDBRANCH  53  72
BRANCH  65  78
ATOM     78  C   UNL A   1      45.862  32.222  29.411  1.00  0.00    -0.014 A 
ATOM     79  C   UNL A   1      46.284  32.482  30.723  1.00  0.00     0.009 A 
ATOM     80  C   UNL A   1      46.000  33.225  28.438  1.00  0.00     0.009 A 
ATOM     81  C   UNL A   1      46.794  33.735  31.062  1.00  0.00     0.001 A 
ATOM     82  C   UNL A   1      46.549  34.462  28.769  1.00  0.00     0.001 A 
ATOM     83  C   UNL A   1      46.934  34.721  30.084  1.00  0.00     0.000 A 
ENDBRANCH  65  78
ENDBRANCH  39  40
ENDBRANCH  31  34
ENDBRANCH  29  30
ENDBRANCH  28  29
ENDBRANCH   1  28
TORSDOF 15
ENDMDL
MODEL 2
REMARK VINA RESULT:     -12.4      1.580      6.275
REMARK SMILES Cc1ccc([C@@H](C)Nc2ccc(N)cc2C(=O)NCCCCNC(=O)c2ccc(-c3c4nc(c(-c5ccccc5)c5ccc([nH]5)c(-c5ccccc5)c5nc(c(-c6ccccc6)c6ccc3[nH]6)C=C5)C=C4)cc2)cc1F
REMARK SMILES IDX 20 1 19 2 18 3 16 4 17 5 15 7 9 8 10 9 11 10 14 11 12 12
REMARK SMILES IDX 8 13 6 15 7 16 5 17 1 18 2 19 3 20 75 21 4 22 74 23 76 24
REMARK SMILES IDX 13 25 21 28 22 29 23 30 24 31 25 33 26 34 27 35 73 36 28 37
REMARK SMILES IDX 72 38 29 39 30 40 31 41 66 42 32 43 71 44 65 45 67 46 33 47
REMARK SMILES IDX 70 48 64 49 63 50 34 52 56 53 41 54 55 55 42 56 45 57 54 58
REMARK SMILES IDX 68 59 43 60 44 61 53 63 69 64 46 65 35 66 36 67 40 68 37 69
REMARK SMILES IDX 39 70 38 71 57 72 58 73 62 74 59 75 61 76 60 77 47 78 48 79
REMARK SMILES IDX 52 80 49 81 51 82 50 83
REMARK H PARENT 18 6 8 14 13 26 13 27 23 32 67 51 45 62
REMARK Flexibility Score: inf
ROOT
ATOM      1  C   UNL A   1      37.813  22.898  25.774  1.00  0.00     0.023 C 
ENDROOT
BRANCH   1   2
ATOM      2  C   UNL A   1      36.486  23.707  24.997  1.00  0.00     0.116 C 
BRANCH   2   3
ATOM      3  N   UNL A   1      35.288  24.071  25.744  1.00  0.00    -0.352 N 
ATOM      4  C   UNL A   1      34.120  23.379  25.959  1.00  0.00     0.253 C 
ATOM      5  O   UNL A   1      33.306  23.809  26.774  1.00  0.00    -0.269 OA
ATOM      6  H   UNL A   1      35.322  24.960  26.166  1.00  0.00     0.163 HD
BRANCH   4   7
ATOM      7  C   UNL A   1      33.773  22.220  25.109  1.00  0.00     0.065 A 
ATOM      8  C   UNL A   1      33.272  22.301  23.806  1.00  0.00     0.048 A 
ATOM      9  C   UNL A   1      32.458  21.220  23.415  1.00  0.00     0.028 A 
ATOM     10  C   UNL A   1      32.313  20.065  24.200  1.00  0.00     0.027 A 
ATOM     11  C   UNL A   1      33.760  21.003  25.826  1.00  0.00     0.041 A 
ATOM     12  C   UNL A   1      33.060  19.901  25.357  1.00  0.00     0.032 A 
BRANCH   8  13
ATOM     13  N   UNL A   1      33.480  23.310  22.882  1.00  0.00    -0.378 N 
ATOM     14  H   UNL A   1      34.330  23.240  22.390  1.00  0.00     0.161 HD
BRANCH  13  15
ATOM     15  C   UNL A   1      32.657  24.465  22.505  1.00  0.00     0.106 C 
ATOM     16  C   UNL A   1      32.883  24.985  21.094  1.00  0.00     0.036 C 
BRANCH  15  17
ATOM     17  C   UNL A   1      32.511  25.429  23.678  1.00  0.00    -0.023 A 
ATOM     18  C   UNL A   1      31.498  28.388  27.733  1.00  0.00     0.047 C 
ATOM     19  C   UNL A   1      31.857  27.485  26.598  1.00  0.00    -0.015 A 
ATOM     20  C   UNL A   1      30.630  26.292  26.040  1.00  0.00     0.007 A 
ATOM     21  C   UNL A   1      33.394  27.683  25.669  1.00  0.00     0.126 A 
ATOM     22  C   UNL A   1      30.980  25.235  24.620  1.00  0.00     0.006 A 
ATOM     23  C   UNL A   1      33.726  26.662  24.209  1.00  0.00     0.045 A 
ATOM     24  F   UNL A   1      34.312  28.563  26.088  1.00  0.00    -0.207 F 
ENDBRANCH  15  17
ENDBRANCH  13  15
ENDBRANCH   8  13
BRANCH  12  25
ATOM     25  N   UNL A   1      32.953  18.756  26.131  1.00  0.00    -0.399 N 
ATOM     26  H   UNL A   1      32.289  18.067  25.900  1.00  0.00     0.156 HD
ATOM     27  H   UNL A   1      33.542  18.632  26.910  1.00  0.00     0.156 HD
ENDBRANCH  12  25
ENDBRANCH   4   7
ENDBRANCH   2   3
ENDBRANCH   1   2
BRANCH   1  28
ATOM     28  C   UNL A   1      39.066  21.144  25.422  1.00  0.00     0.023 C 
BRANCH  28  29
ATOM     29  C   UNL A   1      39.442  19.695  26.213  1.00  0.00     0.116 C 
BRANCH  29  30
ATOM     30  N   UNL A   1      40.775  19.133  25.955  1.00  0.00    -0.352 N 
ATOM     31  C   UNL A   1      41.990  19.754  25.811  1.00  0.00     0.251 C 
ATOM     32  H   UNL A   1      40.800  18.153  25.871  1.00  0.00     0.163 HD
ATOM     33  O   UNL A   1      42.908  19.189  25.225  1.00  0.00    -0.269 OA
BRANCH  31  34
ATOM     34  C   UNL A   1      42.201  21.082  26.408  1.00  0.00     0.039 A 
ATOM     35  C   UNL A   1      42.072  21.266  27.787  1.00  0.00     0.014 A 
ATOM     36  C   UNL A   1      42.487  22.161  25.570  1.00  0.00     0.014 A 
ATOM     37  C   UNL A   1      42.286  22.533  28.326  1.00  0.00     0.010 A 
ATOM     38  C   UNL A   1      42.818  23.386  26.116  1.00  0.00     0.010 A 
ATOM     39  C   UNL A   1      42.689  23.590  27.494  1.00  0.00    -0.014 A 
BRANCH  39  40
ATOM     40  C   UNL A   1      42.937  24.945  28.024  1.00  0.00     0.031 A 
ATOM     41  C   UNL A   1      44.331  25.324  28.442  1.00  0.00     0.074 A 
ATOM     42  C   UNL A   1      41.898  25.780  28.200  1.00  0.00     0.049 A 
ATOM     43  N   UNL A   1      44.753  26.426  29.004  1.00  0.00    -0.248 NA
ATOM     44  C   UNL A   1      45.386  24.313  28.240  1.00  0.00     0.031 C 
ATOM     45  C   UNL A   1      40.502  25.475  27.873  1.00  0.00     0.029 A 
ATOM     46  N   UNL A   1      41.852  27.053  28.698  1.00  0.00    -0.354 N 
ATOM     47  C   UNL A   1      46.108  26.229  29.239  1.00  0.00     0.074 A 
ATOM     48  C   UNL A   1      46.424  24.879  28.832  1.00  0.00     0.031 C 
ATOM     49  C   UNL A   1      39.745  26.550  28.137  1.00  0.00     0.029 A 
ATOM     50  C   UNL A   1      40.591  27.596  28.700  1.00  0.00     0.049 A 
ATOM     51  H   UNL A   1      42.646  27.535  29.024  1.00  0.00     0.167 HD
ATOM     52  C   UNL A   1      47.014  27.108  29.725  1.00  0.00     0.031 A 
ATOM     53  C   UNL A   1      40.171  28.803  29.119  1.00  0.00     0.031 A 
ATOM     54  C   UNL A   1      46.674  28.447  30.118  1.00  0.00     0.049 A 
ATOM     55  C   UNL A   1      41.194  29.757  29.668  1.00  0.00     0.074 A 
ATOM     56  C   UNL A   1      47.506  29.451  30.575  1.00  0.00     0.029 A 
ATOM     57  N   UNL A   1      45.386  28.965  30.098  1.00  0.00    -0.354 N 
ATOM     58  N   UNL A   1      42.487  29.587  29.816  1.00  0.00    -0.248 NA
ATOM     59  C   UNL A   1      40.704  31.072  30.098  1.00  0.00     0.031 C 
ATOM     60  C   UNL A   1      46.711  30.553  30.900  1.00  0.00     0.029 A 
ATOM     61  C   UNL A   1      45.395  30.266  30.566  1.00  0.00     0.049 A 
ATOM     62  H   UNL A   1      44.585  28.478  29.797  1.00  0.00     0.167 HD
ATOM     63  C   UNL A   1      42.971  30.785  30.325  1.00  0.00     0.074 A 
ATOM     64  C   UNL A   1      41.833  31.676  30.439  1.00  0.00     0.031 C 
ATOM     65  C   UNL A   1      44.240  31.122  30.667  1.00  0.00     0.031 A 
BRANCH  52  66
ATOM     66  C   UNL A   1      48.437  26.637  29.864  1.00  0.00    -0.014 A 
ATOM     67  C   UNL A   1      48.883  25.983  31.025  1.00  0.00     0.009 A 
ATOM     68  C   UNL A   1      49.344  26.839  28.813  1.00  0.00     0.009 A 
ATOM     69  C   UNL A   1      50.216  25.583  31.147  1.00  0.00     0.001 A 
ATOM     70  C   UNL A   1      50.667  26.405  28.922  1.00  0.00     0.001 A 
ATOM     71  C   UNL A   1      51.106  25.789  30.093  1.00  0.00     0.000 A 
ENDBRANCH  52  66
BRANCH  53  72
ATOM     72  C   UNL A   1      38.735  29.176  29.014  1.00  0.00    -0.014 A 
ATOM     73  C   UNL A   1      37.878  29.044  30.118  1.00  0.00     0.009 A 
ATOM     74  C   UNL A   1      38.210  29.672  27.810  1.00  0.00     0.009 A 
ATOM     75  C   UNL A   1      36.523  29.369  30.009  1.00  0.00     0.001 A 
ATOM     76  C   UNL A   1      36.864  30.030  27.713  1.00  0.00     0.001 A 
ATOM     77  C   UNL A   1      36.019  29.866  28.808  1.00  0.00     0.000 A 
ENDBRANCH  53  72
BRANCH  65  78
ATOM     78  C   UNL A   1      44.463  32.526  31.154  1.00  0.00    -0.014 A 
ATOM     79  C   UNL A   1      44.412  32.846  32.519  1.00  0.00     0.009 A 
ATOM     80  C   UNL A   1      44.776  33.532  30.227  1.00  0.00     0.009 A 
ATOM     81  C   UNL A   1      44.629  34.158  32.941  1.00  0.00     0.001 A 
ATOM     82  C   UNL A   1      45.034  34.833  30.655  1.00  0.00     0.001 A 
ATOM     83  C   UNL A   1      44.948  35.148  32.010  1.00  0.00     0.000 A 
ENDBRANCH  65  78
ENDBRANCH  39  40
ENDBRANCH  31  34
ENDBRANCH  29  30
ENDBRANCH  28  29
ENDBRANCH   1  28
TORSDOF 15
ENDMDL
MODEL 3
REMARK VINA RESULT:     -12.2      4.234      9.044
REMARK SMILES Cc1ccc([C@@H](C)Nc2ccc(N)cc2C(=O)NCCCCNC(=O)c2ccc(-c3c4nc(c(-c5ccccc5)c5ccc([nH]5)c(-c5ccccc5)c5nc(c(-c6ccccc6)c6ccc3[nH]6)C=C5)C=C4)cc2)cc1F
REMARK SMILES IDX 20 1 19 2 18 3 16 4 17 5 15 7 9 8 10 9 11 10 14 11 12 12
REMARK SMILES IDX 8 13 6 15 7 16 5 17 1 18 2 19 3 20 75 21 4 22 74 23 76 24
REMARK SMILES IDX 13 25 21 28 22 29 23 30 24 31 25 33 26 34 27 35 73 36 28 37
REMARK SMILES IDX 72 38 29 39 30 40 31 41 66 42 32 43 71 44 65 45 67 46 33 47
REMARK SMILES IDX 70 48 64 49 63 50 34 52 56 53 41 54 55 55 42 56 45 57 54 58
REMARK SMILES IDX 68 59 43 60 44 61 53 63 69 64 46 65 35 66 36 67 40 68 37 69
REMARK SMILES IDX 39 70 38 71 57 72 58 73 62 74 59 75 61 76 60 77 47 78 48 79
REMARK SMILES IDX 52 80 49 81 51 82 50 83
REMARK H PARENT 18 6 8 14 13 26 13 27 23 32 67 51 45 62
REMARK Flexibility Score: inf
ROOT
ATOM      1  C   UNL A   1      34.088  29.941  27.179  1.00  0.00     0.023 C 
ENDROOT
BRANCH   1   2
ATOM      2  C   UNL A   1      33.402  28.371  26.897  1.00  0.00     0.116 C 
BRANCH   2   3
ATOM      3  N   UNL A   1      33.866  27.536  25.794  1.00  0.00    -0.352 N 
ATOM      4  C   UNL A   1      33.335  27.323  24.545  1.00  0.00     0.253 C 
ATOM      5  O   UNL A   1      33.993  26.710  23.707  1.00  0.00    -0.269 OA
ATOM      6  H   UNL A   1      34.700  27.045  25.975  1.00  0.00     0.163 HD
BRANCH   4   7
ATOM      7  C   UNL A   1      31.929  27.684  24.261  1.00  0.00     0.065 A 
ATOM      8  C   UNL A   1      30.819  26.891  24.568  1.00  0.00     0.048 A 
ATOM      9  C   UNL A   1      29.707  27.074  23.723  1.00  0.00     0.028 A 
ATOM     10  C   UNL A   1      29.650  28.099  22.765  1.00  0.00     0.027 A 
ATOM     11  C   UNL A   1      31.816  28.810  23.417  1.00  0.00     0.041 A 
ATOM     12  C   UNL A   1      30.659  29.049  22.689  1.00  0.00     0.032 A 
BRANCH   8  13
ATOM     13  N   UNL A   1      30.698  25.963  25.588  1.00  0.00    -0.378 N 
ATOM     14  H   UNL A   1      30.470  26.351  26.463  1.00  0.00     0.161 HD
BRANCH  13  15
ATOM     15  C   UNL A   1      30.851  24.503  25.594  1.00  0.00     0.106 C 
ATOM     16  C   UNL A   1      30.148  23.787  26.736  1.00  0.00     0.036 C 
BRANCH  15  17
ATOM     17  C   UNL A   1      32.263  24.108  25.175  1.00  0.00    -0.023 A 
ATOM     18  C   UNL A   1      36.781  22.711  23.209  1.00  0.00     0.047 C 
ATOM     19  C   UNL A   1      35.494  23.201  23.790  1.00  0.00    -0.015 A 
ATOM     20  C   UNL A   1      34.025  23.166  22.752  1.00  0.00     0.007 A 
ATOM     21  C   UNL A   1      35.343  23.646  25.535  1.00  0.00     0.126 A 
ATOM     22  C   UNL A   1      32.429  23.667  23.428  1.00  0.00     0.006 A 
ATOM     23  C   UNL A   1      33.732  24.096  26.233  1.00  0.00     0.045 A 
ATOM     24  F   UNL A   1      36.436  23.681  26.306  1.00  0.00    -0.207 F 
ENDBRANCH  15  17
ENDBRANCH  13  15
ENDBRANCH   8  13
BRANCH  12  25
ATOM     25  N   UNL A   1      30.608  30.086  21.771  1.00  0.00    -0.399 N 
ATOM     26  H   UNL A   1      29.791  30.235  21.242  1.00  0.00     0.156 HD
ATOM     27  H   UNL A   1      31.389  30.674  21.649  1.00  0.00     0.156 HD
ENDBRANCH  12  25
ENDBRANCH   4   7
ENDBRANCH   2   3
ENDBRANCH   1   2
BRANCH   1  28
ATOM     28  C   UNL A   1      33.429  31.882  27.933  1.00  0.00     0.023 C 
BRANCH  28  29
ATOM     29  C   UNL A   1      32.980  33.385  27.296  1.00  0.00     0.116 C 
BRANCH  29  30
ATOM     30  N   UNL A   1      32.796  34.478  28.261  1.00  0.00    -0.352 N 
ATOM     31  C   UNL A   1      33.336  34.664  29.509  1.00  0.00     0.251 C 
ATOM     32  H   UNL A   1      32.187  35.192  27.965  1.00  0.00     0.163 HD
ATOM     33  O   UNL A   1      32.788  35.408  30.316  1.00  0.00    -0.269 OA
BRANCH  31  34
ATOM     34  C   UNL A   1      34.605  34.005  29.856  1.00  0.00     0.039 A 
ATOM     35  C   UNL A   1      34.673  33.133  30.946  1.00  0.00     0.014 A 
ATOM     36  C   UNL A   1      35.747  34.301  29.109  1.00  0.00     0.014 A 
ATOM     37  C   UNL A   1      35.886  32.517  31.248  1.00  0.00     0.010 A 
ATOM     38  C   UNL A   1      36.914  33.598  29.332  1.00  0.00     0.010 A 
ATOM     39  C   UNL A   1      37.003  32.725  30.423  1.00  0.00    -0.014 A 
BRANCH  39  40
ATOM     40  C   UNL A   1      38.303  32.084  30.697  1.00  0.00     0.031 A 
ATOM     41  C   UNL A   1      39.287  32.778  31.598  1.00  0.00     0.074 A 
ATOM     42  C   UNL A   1      38.614  30.937  30.068  1.00  0.00     0.049 A 
ATOM     43  N   UNL A   1      40.509  32.433  31.905  1.00  0.00    -0.248 NA
ATOM     44  C   UNL A   1      38.854  34.053  32.202  1.00  0.00     0.031 C 
ATOM     45  C   UNL A   1      37.741  30.222  29.132  1.00  0.00     0.029 A 
ATOM     46  N   UNL A   1      39.746  30.172  30.116  1.00  0.00    -0.354 N 
ATOM     47  C   UNL A   1      40.991  33.454  32.715  1.00  0.00     0.074 A 
ATOM     48  C   UNL A   1      39.964  34.467  32.790  1.00  0.00     0.031 C 
ATOM     49  C   UNL A   1      38.353  29.097  28.732  1.00  0.00     0.029 A 
ATOM     50  C   UNL A   1      39.678  29.042  29.338  1.00  0.00     0.049 A 
ATOM     51  H   UNL A   1      40.534  30.407  30.657  1.00  0.00     0.167 HD
ATOM     52  C   UNL A   1      42.177  33.526  33.363  1.00  0.00     0.031 A 
ATOM     53  C   UNL A   1      40.592  28.076  29.137  1.00  0.00     0.031 A 
ATOM     54  C   UNL A   1      43.181  32.502  33.275  1.00  0.00     0.049 A 
ATOM     55  C   UNL A   1      41.908  28.186  29.856  1.00  0.00     0.074 A 
ATOM     56  C   UNL A   1      44.400  32.430  33.922  1.00  0.00     0.029 A 
ATOM     57  N   UNL A   1      43.074  31.367  32.483  1.00  0.00    -0.354 N 
ATOM     58  N   UNL A   1      42.325  29.119  30.679  1.00  0.00    -0.248 NA
ATOM     59  C   UNL A   1      42.874  27.105  29.628  1.00  0.00     0.031 C 
ATOM     60  C   UNL A   1      45.061  31.286  33.466  1.00  0.00     0.029 A 
ATOM     61  C   UNL A   1      44.220  30.603  32.599  1.00  0.00     0.049 A 
ATOM     62  H   UNL A   1      42.298  31.141  31.921  1.00  0.00     0.167 HD
ATOM     63  C   UNL A   1      43.589  28.722  31.094  1.00  0.00     0.074 A 
ATOM     64  C   UNL A   1      43.858  27.453  30.445  1.00  0.00     0.031 C 
ATOM     65  C   UNL A   1      44.452  29.345  31.935  1.00  0.00     0.031 A 
BRANCH  52  66
ATOM     66  C   UNL A   1      42.443  34.750  34.199  1.00  0.00    -0.014 A 
ATOM     67  C   UNL A   1      43.007  35.910  33.642  1.00  0.00     0.009 A 
ATOM     68  C   UNL A   1      42.111  34.749  35.562  1.00  0.00     0.009 A 
ATOM     69  C   UNL A   1      43.275  37.024  34.442  1.00  0.00     0.001 A 
ATOM     70  C   UNL A   1      42.346  35.876  36.352  1.00  0.00     0.001 A 
ATOM     71  C   UNL A   1      42.938  37.008  35.795  1.00  0.00     0.000 A 
ENDBRANCH  52  66
BRANCH  53  72
ATOM     72  C   UNL A   1      40.287  26.928  28.242  1.00  0.00    -0.014 A 
ATOM     73  C   UNL A   1      40.729  26.921  26.910  1.00  0.00     0.009 A 
ATOM     74  C   UNL A   1      39.555  25.828  28.714  1.00  0.00     0.009 A 
ATOM     75  C   UNL A   1      40.416  25.854  26.063  1.00  0.00     0.001 A 
ATOM     76  C   UNL A   1      39.274  24.746  27.877  1.00  0.00     0.001 A 
ATOM     77  C   UNL A   1      39.693  24.766  26.549  1.00  0.00     0.000 A 
ENDBRANCH  53  72
BRANCH  65  78
ATOM     78  C   UNL A   1      45.744  28.638  32.230  1.00  0.00    -0.014 A 
ATOM     79  C   UNL A   1      45.852  27.709  33.276  1.00  0.00     0.009 A 
ATOM     80  C   UNL A   1      46.859  28.875  31.410  1.00  0.00     0.009 A 
ATOM     81  C   UNL A   1      47.064  27.065  33.521  1.00  0.00     0.001 A 
ATOM     82  C   UNL A   1      48.057  28.197  31.630  1.00  0.00     0.001 A 
ATOM     83  C   UNL A   1      48.162  27.302  32.693  1.00  0.00     0.000 A 
ENDBRANCH  65  78
ENDBRANCH  39  40
ENDBRANCH  31  34
ENDBRANCH  29  30
ENDBRANCH  28  29
ENDBRANCH   1  28
TORSDOF 15
ENDMDL
