MODEL 1
REMARK VINA RESULT:     -12.2      0.000      0.000
REMARK SMILES Cc1ccc(NC(=O)c2ccc(SCC(=O)NCCCCNC(=O)c3ccc(-c4c5nc(c(-c6ccccc6)c6ccc([nH]6)c(-c6ccccc6)c6nc(c(-c7ccccc7)c7ccc4[nH]7)C=C6)C=C5)cc3)c([N+](=O)[O-])c2)cc1
REMARK SMILES IDX 18 1 17 2 15 3 16 4 14 6 13 7 12 8 9 9 10 10 77 11 11 12
REMARK SMILES IDX 73 13 7 14 6 15 8 17 5 18 1 19 2 20 3 21 79 22 4 23 78 24
REMARK SMILES IDX 74 25 75 26 76 27 19 28 20 29 21 30 22 31 23 32 24 34 25 35
REMARK SMILES IDX 26 36 72 37 27 38 71 39 28 40 29 41 30 42 65 43 31 44 70 45
REMARK SMILES IDX 64 46 66 47 32 48 69 49 63 50 62 51 33 53 55 54 40 55 54 56
REMARK SMILES IDX 41 57 44 58 53 59 67 60 42 61 43 62 52 64 68 65 45 66 34 67
REMARK SMILES IDX 35 68 39 69 36 70 38 71 37 72 56 73 57 74 61 75 58 76 60 77
REMARK SMILES IDX 59 78 46 79 47 80 51 81 48 82 50 83 49 84
REMARK H PARENT 17 5 6 16 22 33 66 52 44 63
REMARK Flexibility Score: inf
ROOT
ATOM      1  C   UNL A   1      32.662  29.473  25.222  1.00  0.00     0.116 C 
ENDROOT
BRANCH   1   2
ATOM      2  N   UNL A   1      32.107  29.372  23.885  1.00  0.00    -0.355 N 
ATOM      3  C   UNL A   1      31.245  28.461  23.358  1.00  0.00     0.230 C 
ATOM      4  O   UNL A   1      31.063  28.489  22.140  1.00  0.00    -0.274 OA
ATOM      5  H   UNL A   1      32.401  30.074  23.260  1.00  0.00     0.163 HD
BRANCH   3   6
ATOM      6  C   UNL A   1      30.508  27.478  24.236  1.00  0.00     0.175 C 
BRANCH   6   7
ATOM      7  S   UNL A   1      30.657  25.746  23.700  1.00  0.00    -0.109 SA
BRANCH   7   8
ATOM      8  C   UNL A   1      32.299  25.183  24.151  1.00  0.00     0.086 A 
ATOM      9  C   UNL A   1      34.686  24.113  25.295  1.00  0.00     0.047 A 
ATOM     10  C   UNL A   1      33.585  24.391  26.101  1.00  0.00     0.015 A 
ATOM     11  C   UNL A   1      34.593  24.331  23.917  1.00  0.00     0.100 A 
ATOM     12  C   UNL A   1      32.418  24.923  25.535  1.00  0.00     0.023 A 
ATOM     13  C   UNL A   1      33.413  24.862  23.356  1.00  0.00     0.283 A 
BRANCH   9  14
ATOM     14  C   UNL A   1      35.885  23.475  25.901  1.00  0.00     0.255 C 
ATOM     15  N   UNL A   1      35.853  22.155  26.293  1.00  0.00    -0.322 N 
ATOM     16  H   UNL A   1      36.486  21.914  27.008  1.00  0.00     0.170 HD
ATOM     17  O   UNL A   1      36.864  24.177  26.147  1.00  0.00    -0.269 OA
BRANCH  15  18
ATOM     18  C   UNL A   1      35.049  21.104  25.825  1.00  0.00     0.041 A 
ATOM     19  C   UNL A   1      32.771  17.692  24.512  1.00  0.00     0.044 C 
ATOM     20  C   UNL A   1      33.561  18.897  24.927  1.00  0.00    -0.051 A 
ATOM     21  C   UNL A   1      32.966  19.872  25.734  1.00  0.00     0.005 A 
ATOM     22  C   UNL A   1      34.894  19.061  24.534  1.00  0.00     0.005 A 
ATOM     23  C   UNL A   1      33.703  20.972  26.174  1.00  0.00     0.026 A 
ATOM     24  C   UNL A   1      35.628  20.170  24.964  1.00  0.00     0.026 A 
ENDBRANCH  15  18
ENDBRANCH   9  14
BRANCH  13  25
ATOM     25  N   UNL A   1      33.397  24.936  21.905  1.00  0.00     0.063 N 
ATOM     26  O   UNL A   1      33.499  26.055  21.388  1.00  0.00    -0.258 OA
ATOM     27  O   UNL A   1      33.187  23.881  21.287  1.00  0.00    -0.258 OA
ENDBRANCH  13  25
ENDBRANCH   7   8
ENDBRANCH   6   7
ENDBRANCH   3   6
ENDBRANCH   1   2
BRANCH   1  28
ATOM     28  C   UNL A   1      31.780  30.319  26.152  1.00  0.00     0.023 C 
BRANCH  28  29
ATOM     29  C   UNL A   1      32.533  31.222  27.136  1.00  0.00     0.023 C 
BRANCH  29  30
ATOM     30  C   UNL A   1      33.992  30.848  27.365  1.00  0.00     0.116 C 
BRANCH  30  31
ATOM     31  N   UNL A   1      34.720  31.753  28.245  1.00  0.00    -0.352 N 
ATOM     32  C   UNL A   1      35.889  31.522  28.958  1.00  0.00     0.251 C 
ATOM     33  H   UNL A   1      34.330  32.651  28.348  1.00  0.00     0.163 HD
ATOM     34  O   UNL A   1      36.361  32.389  29.675  1.00  0.00    -0.269 OA
BRANCH  32  35
ATOM     35  C   UNL A   1      36.632  30.259  28.726  1.00  0.00     0.039 A 
ATOM     36  C   UNL A   1      36.788  29.395  29.815  1.00  0.00     0.014 A 
ATOM     37  C   UNL A   1      37.369  30.068  27.560  1.00  0.00     0.014 A 
ATOM     38  C   UNL A   1      37.879  28.533  29.841  1.00  0.00     0.010 A 
ATOM     39  C   UNL A   1      38.506  29.285  27.623  1.00  0.00     0.010 A 
ATOM     40  C   UNL A   1      38.804  28.592  28.800  1.00  0.00    -0.014 A 
BRANCH  40  41
ATOM     41  C   UNL A   1      40.179  28.128  28.946  1.00  0.00     0.031 A 
ATOM     42  C   UNL A   1      40.589  26.797  28.467  1.00  0.00     0.074 A 
ATOM     43  C   UNL A   1      41.099  28.969  29.473  1.00  0.00     0.049 A 
ATOM     44  N   UNL A   1      41.654  26.185  28.867  1.00  0.00    -0.248 NA
ATOM     45  C   UNL A   1      39.774  25.997  27.556  1.00  0.00     0.031 C 
ATOM     46  C   UNL A   1      42.553  28.852  29.432  1.00  0.00     0.029 A 
ATOM     47  N   UNL A   1      40.863  30.009  30.372  1.00  0.00    -0.354 N 
ATOM     48  C   UNL A   1      41.835  25.107  28.039  1.00  0.00     0.074 A 
ATOM     49  C   UNL A   1      40.573  24.943  27.361  1.00  0.00     0.031 C 
ATOM     50  C   UNL A   1      43.078  29.597  30.419  1.00  0.00     0.029 A 
ATOM     51  C   UNL A   1      41.973  30.085  31.229  1.00  0.00     0.049 A 
ATOM     52  H   UNL A   1      40.065  30.584  30.400  1.00  0.00     0.167 HD
ATOM     53  C   UNL A   1      43.085  24.590  27.889  1.00  0.00     0.031 A 
ATOM     54  C   UNL A   1      41.839  29.858  32.570  1.00  0.00     0.031 A 
ATOM     55  C   UNL A   1      44.004  25.087  28.915  1.00  0.00     0.049 A 
ATOM     56  C   UNL A   1      42.627  28.666  33.072  1.00  0.00     0.074 A 
ATOM     57  C   UNL A   1      45.063  25.978  28.895  1.00  0.00     0.029 A 
ATOM     58  N   UNL A   1      43.711  24.854  30.256  1.00  0.00    -0.354 N 
ATOM     59  N   UNL A   1      43.121  27.739  32.298  1.00  0.00    -0.248 NA
ATOM     60  C   UNL A   1      42.875  28.400  34.489  1.00  0.00     0.031 C 
ATOM     61  C   UNL A   1      45.327  26.369  30.238  1.00  0.00     0.029 A 
ATOM     62  C   UNL A   1      44.464  25.677  31.070  1.00  0.00     0.049 A 
ATOM     63  H   UNL A   1      43.058  24.192  30.579  1.00  0.00     0.167 HD
ATOM     64  C   UNL A   1      43.712  26.770  33.064  1.00  0.00     0.074 A 
ATOM     65  C   UNL A   1      43.548  27.237  34.429  1.00  0.00     0.031 C 
ATOM     66  C   UNL A   1      44.272  25.655  32.514  1.00  0.00     0.031 A 
BRANCH  53  67
ATOM     67  C   UNL A   1      43.540  23.834  26.656  1.00  0.00    -0.014 A 
ATOM     68  C   UNL A   1      43.295  22.451  26.562  1.00  0.00     0.009 A 
ATOM     69  C   UNL A   1      44.326  24.380  25.623  1.00  0.00     0.009 A 
ATOM     70  C   UNL A   1      43.824  21.668  25.523  1.00  0.00     0.001 A 
ATOM     71  C   UNL A   1      44.837  23.611  24.568  1.00  0.00     0.001 A 
ATOM     72  C   UNL A   1      44.595  22.250  24.524  1.00  0.00     0.000 A 
ENDBRANCH  53  67
BRANCH  54  73
ATOM     73  C   UNL A   1      40.522  30.286  33.120  1.00  0.00    -0.014 A 
ATOM     74  C   UNL A   1      40.245  31.667  33.194  1.00  0.00     0.009 A 
ATOM     75  C   UNL A   1      39.455  29.383  33.226  1.00  0.00     0.009 A 
ATOM     76  C   UNL A   1      38.928  32.132  33.251  1.00  0.00     0.001 A 
ATOM     77  C   UNL A   1      38.138  29.855  33.297  1.00  0.00     0.001 A 
ATOM     78  C   UNL A   1      37.873  31.224  33.273  1.00  0.00     0.000 A 
ENDBRANCH  54  73
BRANCH  66  79
ATOM     79  C   UNL A   1      44.745  24.451  33.287  1.00  0.00    -0.014 A 
ATOM     80  C   UNL A   1      46.072  24.255  33.697  1.00  0.00     0.009 A 
ATOM     81  C   UNL A   1      43.790  23.522  33.753  1.00  0.00     0.009 A 
ATOM     82  C   UNL A   1      46.433  23.157  34.489  1.00  0.00     0.001 A 
ATOM     83  C   UNL A   1      44.139  22.450  34.577  1.00  0.00     0.001 A 
ATOM     84  C   UNL A   1      45.466  22.260  34.935  1.00  0.00     0.000 A 
ENDBRANCH  66  79
ENDBRANCH  40  41
ENDBRANCH  32  35
ENDBRANCH  30  31
ENDBRANCH  29  30
ENDBRANCH  28  29
ENDBRANCH   1  28
TORSDOF 16
ENDMDL
MODEL 2
REMARK VINA RESULT:     -12.1      1.840      2.518
REMARK SMILES Cc1ccc(NC(=O)c2ccc(SCC(=O)NCCCCNC(=O)c3ccc(-c4c5nc(c(-c6ccccc6)c6ccc([nH]6)c(-c6ccccc6)c6nc(c(-c7ccccc7)c7ccc4[nH]7)C=C6)C=C5)cc3)c([N+](=O)[O-])c2)cc1
REMARK SMILES IDX 18 1 17 2 15 3 16 4 14 6 13 7 12 8 9 9 10 10 77 11 11 12
REMARK SMILES IDX 73 13 7 14 6 15 8 17 5 18 1 19 2 20 3 21 79 22 4 23 78 24
REMARK SMILES IDX 74 25 75 26 76 27 19 28 20 29 21 30 22 31 23 32 24 34 25 35
REMARK SMILES IDX 26 36 72 37 27 38 71 39 28 40 29 41 30 42 65 43 31 44 70 45
REMARK SMILES IDX 64 46 66 47 32 48 69 49 63 50 62 51 33 53 55 54 40 55 54 56
REMARK SMILES IDX 41 57 44 58 53 59 67 60 42 61 43 62 52 64 68 65 45 66 34 67
REMARK SMILES IDX 35 68 39 69 36 70 38 71 37 72 56 73 57 74 61 75 58 76 60 77
REMARK SMILES IDX 59 78 46 79 47 80 51 81 48 82 50 83 49 84
REMARK H PARENT 17 5 6 16 22 33 66 52 44 63
REMARK Flexibility Score: inf
ROOT
ATOM      1  C   UNL A   1      31.628  27.907  26.220  1.00  0.00     0.116 C 
ENDROOT
BRANCH   1   2
ATOM      2  N   UNL A   1      32.762  27.085  25.843  1.00  0.00    -0.355 N 
ATOM      3  C   UNL A   1      32.952  26.298  24.749  1.00  0.00     0.230 C 
ATOM      4  O   UNL A   1      33.936  25.556  24.747  1.00  0.00    -0.274 OA
ATOM      5  H   UNL A   1      33.514  27.099  26.479  1.00  0.00     0.163 HD
BRANCH   3   6
ATOM      6  C   UNL A   1      32.017  26.360  23.565  1.00  0.00     0.175 C 
BRANCH   6   7
ATOM      7  S   UNL A   1      30.537  25.315  23.733  1.00  0.00    -0.109 SA
BRANCH   7   8
ATOM      8  C   UNL A   1      31.078  23.706  24.312  1.00  0.00     0.086 A 
ATOM      9  C   UNL A   1      32.226  21.140  24.809  1.00  0.00     0.047 A 
ATOM     10  C   UNL A   1      32.230  21.673  23.523  1.00  0.00     0.015 A 
ATOM     11  C   UNL A   1      31.686  21.892  25.855  1.00  0.00     0.100 A 
ATOM     12  C   UNL A   1      31.658  22.930  23.282  1.00  0.00     0.023 A 
ATOM     13  C   UNL A   1      31.117  23.159  25.606  1.00  0.00     0.283 A 
BRANCH   9  14
ATOM     14  C   UNL A   1      32.908  19.841  25.057  1.00  0.00     0.255 C 
ATOM     15  N   UNL A   1      34.282  19.764  25.073  1.00  0.00    -0.322 N 
ATOM     16  H   UNL A   1      34.656  18.881  24.849  1.00  0.00     0.170 HD
ATOM     17  O   UNL A   1      32.223  18.823  25.134  1.00  0.00    -0.269 OA
BRANCH  15  18
ATOM     18  C   UNL A   1      35.229  20.760  25.361  1.00  0.00     0.041 A 
ATOM     19  C   UNL A   1      38.137  23.881  25.958  1.00  0.00     0.044 C 
ATOM     20  C   UNL A   1      37.150  22.767  25.776  1.00  0.00    -0.051 A 
ATOM     21  C   UNL A   1      35.926  22.809  26.449  1.00  0.00     0.005 A 
ATOM     22  C   UNL A   1      37.424  21.687  24.929  1.00  0.00     0.005 A 
ATOM     23  C   UNL A   1      34.974  21.808  26.249  1.00  0.00     0.026 A 
ATOM     24  C   UNL A   1      36.475  20.678  24.739  1.00  0.00     0.026 A 
ENDBRANCH  15  18
ENDBRANCH   9  14
BRANCH  13  25
ATOM     25  N   UNL A   1      30.693  23.890  26.788  1.00  0.00     0.063 N 
ATOM     26  O   UNL A   1      31.537  24.594  27.358  1.00  0.00    -0.258 OA
ATOM     27  O   UNL A   1      29.541  23.685  27.198  1.00  0.00    -0.258 OA
ENDBRANCH  13  25
ENDBRANCH   7   8
ENDBRANCH   6   7
ENDBRANCH   3   6
ENDBRANCH   1   2
BRANCH   1  28
ATOM     28  C   UNL A   1      32.059  29.290  26.731  1.00  0.00     0.023 C 
BRANCH  28  29
ATOM     29  C   UNL A   1      33.404  29.333  27.465  1.00  0.00     0.023 C 
BRANCH  29  30
ATOM     30  C   UNL A   1      34.375  30.396  26.966  1.00  0.00     0.116 C 
BRANCH  30  31
ATOM     31  N   UNL A   1      34.919  31.258  28.008  1.00  0.00    -0.352 N 
ATOM     32  C   UNL A   1      36.041  31.064  28.802  1.00  0.00     0.251 C 
ATOM     33  H   UNL A   1      34.423  32.093  28.170  1.00  0.00     0.163 HD
ATOM     34  O   UNL A   1      36.350  31.881  29.652  1.00  0.00    -0.269 OA
BRANCH  32  35
ATOM     35  C   UNL A   1      36.938  29.919  28.505  1.00  0.00     0.039 A 
ATOM     36  C   UNL A   1      37.022  28.902  29.462  1.00  0.00     0.014 A 
ATOM     37  C   UNL A   1      37.856  29.985  27.460  1.00  0.00     0.014 A 
ATOM     38  C   UNL A   1      38.180  28.137  29.534  1.00  0.00     0.010 A 
ATOM     39  C   UNL A   1      39.047  29.295  27.587  1.00  0.00     0.010 A 
ATOM     40  C   UNL A   1      39.238  28.441  28.679  1.00  0.00    -0.014 A 
BRANCH  40  41
ATOM     41  C   UNL A   1      40.617  28.071  28.975  1.00  0.00     0.031 A 
ATOM     42  C   UNL A   1      41.200  26.823  28.453  1.00  0.00     0.074 A 
ATOM     43  C   UNL A   1      41.384  28.928  29.689  1.00  0.00     0.049 A 
ATOM     44  N   UNL A   1      42.252  26.260  28.946  1.00  0.00    -0.248 NA
ATOM     45  C   UNL A   1      40.584  26.050  27.378  1.00  0.00     0.031 C 
ATOM     46  C   UNL A   1      42.836  28.925  29.839  1.00  0.00     0.029 A 
ATOM     47  N   UNL A   1      40.944  29.861  30.626  1.00  0.00    -0.354 N 
ATOM     48  C   UNL A   1      42.633  25.278  28.066  1.00  0.00     0.074 A 
ATOM     49  C   UNL A   1      41.489  25.081  27.210  1.00  0.00     0.031 C 
ATOM     50  C   UNL A   1      43.161  29.614  30.945  1.00  0.00     0.029 A 
ATOM     51  C   UNL A   1      41.921  29.942  31.632  1.00  0.00     0.049 A 
ATOM     52  H   UNL A   1      40.102  30.370  30.591  1.00  0.00     0.167 HD
ATOM     53  C   UNL A   1      43.932  24.872  28.050  1.00  0.00     0.031 A 
ATOM     54  C   UNL A   1      41.633  29.586  32.919  1.00  0.00     0.031 A 
ATOM     55  C   UNL A   1      44.663  25.341  29.228  1.00  0.00     0.049 A 
ATOM     56  C   UNL A   1      42.449  28.416  33.428  1.00  0.00     0.074 A 
ATOM     57  C   UNL A   1      45.634  26.307  29.425  1.00  0.00     0.029 A 
ATOM     58  N   UNL A   1      44.218  24.966  30.493  1.00  0.00    -0.354 N 
ATOM     59  N   UNL A   1      43.119  27.602  32.658  1.00  0.00    -0.248 NA
ATOM     60  C   UNL A   1      42.533  28.042  34.840  1.00  0.00     0.031 C 
ATOM     61  C   UNL A   1      45.685  26.594  30.818  1.00  0.00     0.029 A 
ATOM     62  C   UNL A   1      44.784  25.766  31.466  1.00  0.00     0.049 A 
ATOM     63  H   UNL A   1      43.588  24.231  30.670  1.00  0.00     0.167 HD
ATOM     64  C   UNL A   1      43.687  26.615  33.419  1.00  0.00     0.074 A 
ATOM     65  C   UNL A   1      43.306  26.942  34.781  1.00  0.00     0.031 C 
ATOM     66  C   UNL A   1      44.408  25.599  32.864  1.00  0.00     0.031 A 
BRANCH  53  67
ATOM     67  C   UNL A   1      44.608  24.267  26.835  1.00  0.00    -0.014 A 
ATOM     68  C   UNL A   1      44.910  22.891  26.823  1.00  0.00     0.009 A 
ATOM     69  C   UNL A   1      45.095  25.002  25.737  1.00  0.00     0.009 A 
ATOM     70  C   UNL A   1      45.670  22.303  25.799  1.00  0.00     0.001 A 
ATOM     71  C   UNL A   1      45.831  24.418  24.697  1.00  0.00     0.001 A 
ATOM     72  C   UNL A   1      46.130  23.067  24.735  1.00  0.00     0.000 A 
ENDBRANCH  53  67
BRANCH  54  73
ATOM     73  C   UNL A   1      40.224  29.862  33.316  1.00  0.00    -0.014 A 
ATOM     74  C   UNL A   1      39.871  31.185  33.651  1.00  0.00     0.009 A 
ATOM     75  C   UNL A   1      39.200  28.949  33.027  1.00  0.00     0.009 A 
ATOM     76  C   UNL A   1      38.542  31.612  33.583  1.00  0.00     0.001 A 
ATOM     77  C   UNL A   1      37.868  29.379  32.974  1.00  0.00     0.001 A 
ATOM     78  C   UNL A   1      37.544  30.714  33.216  1.00  0.00     0.000 A 
ENDBRANCH  54  73
BRANCH  66  79
ATOM     79  C   UNL A   1      44.878  24.370  33.596  1.00  0.00    -0.014 A 
ATOM     80  C   UNL A   1      46.168  24.219  34.127  1.00  0.00     0.009 A 
ATOM     81  C   UNL A   1      43.943  23.355  33.895  1.00  0.00     0.009 A 
ATOM     82  C   UNL A   1      46.518  23.086  34.874  1.00  0.00     0.001 A 
ATOM     83  C   UNL A   1      44.278  22.245  34.674  1.00  0.00     0.001 A 
ATOM     84  C   UNL A   1      45.572  22.104  35.154  1.00  0.00     0.000 A 
ENDBRANCH  66  79
ENDBRANCH  40  41
ENDBRANCH  32  35
ENDBRANCH  30  31
ENDBRANCH  29  30
ENDBRANCH  28  29
ENDBRANCH   1  28
TORSDOF 16
ENDMDL
MODEL 3
REMARK VINA RESULT:     -12.0      1.828      3.014
REMARK SMILES Cc1ccc(NC(=O)c2ccc(SCC(=O)NCCCCNC(=O)c3ccc(-c4c5nc(c(-c6ccccc6)c6ccc([nH]6)c(-c6ccccc6)c6nc(c(-c7ccccc7)c7ccc4[nH]7)C=C6)C=C5)cc3)c([N+](=O)[O-])c2)cc1
REMARK SMILES IDX 18 1 17 2 15 3 16 4 14 6 13 7 12 8 9 9 10 10 77 11 11 12
REMARK SMILES IDX 73 13 7 14 6 15 8 17 5 18 1 19 2 20 3 21 79 22 4 23 78 24
REMARK SMILES IDX 74 25 75 26 76 27 19 28 20 29 21 30 22 31 23 32 24 34 25 35
REMARK SMILES IDX 26 36 72 37 27 38 71 39 28 40 29 41 30 42 65 43 31 44 70 45
REMARK SMILES IDX 64 46 66 47 32 48 69 49 63 50 62 51 33 53 55 54 40 55 54 56
REMARK SMILES IDX 41 57 44 58 53 59 67 60 42 61 43 62 52 64 68 65 45 66 34 67
REMARK SMILES IDX 35 68 39 69 36 70 38 71 37 72 56 73 57 74 61 75 58 76 60 77
REMARK SMILES IDX 59 78 46 79 47 80 51 81 48 82 50 83 49 84
REMARK H PARENT 17 5 6 16 22 33 66 52 44 63
REMARK Flexibility Score: inf
ROOT
ATOM      1  C   UNL A   1      32.227  29.777  25.579  1.00  0.00     0.116 C 
ENDROOT
BRANCH   1   2
ATOM      2  N   UNL A   1      33.222  29.558  24.546  1.00  0.00    -0.355 N 
ATOM      3  C   UNL A   1      33.171  28.783  23.429  1.00  0.00     0.230 C 
ATOM      4  O   UNL A   1      34.218  28.625  22.799  1.00  0.00    -0.274 OA
ATOM      5  H   UNL A   1      34.066  30.048  24.673  1.00  0.00     0.163 HD
BRANCH   3   6
ATOM      6  C   UNL A   1      31.874  28.171  22.955  1.00  0.00     0.175 C 
BRANCH   6   7
ATOM      7  S   UNL A   1      31.455  26.598  23.768  1.00  0.00    -0.109 SA
BRANCH   7   8
ATOM      8  C   UNL A   1      32.996  25.766  24.155  1.00  0.00     0.086 A 
ATOM      9  C   UNL A   1      35.279  24.454  25.256  1.00  0.00     0.047 A 
ATOM     10  C   UNL A   1      34.447  25.216  26.072  1.00  0.00     0.015 A 
ATOM     11  C   UNL A   1      34.961  24.312  23.903  1.00  0.00     0.100 A 
ATOM     12  C   UNL A   1      33.331  25.864  25.525  1.00  0.00     0.023 A 
ATOM     13  C   UNL A   1      33.833  24.964  23.361  1.00  0.00     0.283 A 
BRANCH   9  14
ATOM     14  C   UNL A   1      36.412  23.709  25.870  1.00  0.00     0.255 C 
ATOM     15  N   UNL A   1      36.245  22.413  26.303  1.00  0.00    -0.322 N 
ATOM     16  H   UNL A   1      36.857  22.127  27.019  1.00  0.00     0.170 HD
ATOM     17  O   UNL A   1      37.462  24.310  26.085  1.00  0.00    -0.269 OA
BRANCH  15  18
ATOM     18  C   UNL A   1      35.328  21.440  25.875  1.00  0.00     0.041 A 
ATOM     19  C   UNL A   1      32.354  18.669  24.452  1.00  0.00     0.044 C 
ATOM     20  C   UNL A   1      33.388  19.611  24.987  1.00  0.00    -0.051 A 
ATOM     21  C   UNL A   1      34.714  19.502  24.557  1.00  0.00     0.005 A 
ATOM     22  C   UNL A   1      33.052  20.615  25.903  1.00  0.00     0.005 A 
ATOM     23  C   UNL A   1      35.680  20.406  25.004  1.00  0.00     0.026 A 
ATOM     24  C   UNL A   1      34.022  21.512  26.360  1.00  0.00     0.026 A 
ENDBRANCH  15  18
ENDBRANCH   9  14
BRANCH  13  25
ATOM     25  N   UNL A   1      33.543  24.648  21.973  1.00  0.00     0.063 N 
ATOM     26  O   UNL A   1      33.467  25.591  21.176  1.00  0.00    -0.258 OA
ATOM     27  O   UNL A   1      33.299  23.463  21.702  1.00  0.00    -0.258 OA
ENDBRANCH  13  25
ENDBRANCH   7   8
ENDBRANCH   6   7
ENDBRANCH   3   6
ENDBRANCH   1   2
BRANCH   1  28
ATOM     28  C   UNL A   1      32.770  29.461  26.981  1.00  0.00     0.023 C 
BRANCH  28  29
ATOM     29  C   UNL A   1      34.295  29.352  27.091  1.00  0.00     0.023 C 
BRANCH  29  30
ATOM     30  C   UNL A   1      34.990  30.591  27.641  1.00  0.00     0.116 C 
BRANCH  30  31
ATOM     31  N   UNL A   1      34.130  31.760  27.778  1.00  0.00    -0.352 N 
ATOM     32  C   UNL A   1      34.291  32.868  28.599  1.00  0.00     0.251 C 
ATOM     33  H   UNL A   1      33.326  31.764  27.211  1.00  0.00     0.163 HD
ATOM     34  O   UNL A   1      33.458  33.759  28.609  1.00  0.00    -0.269 OA
BRANCH  32  35
ATOM     35  C   UNL A   1      35.558  33.021  29.355  1.00  0.00     0.039 A 
ATOM     36  C   UNL A   1      36.629  33.637  28.698  1.00  0.00     0.014 A 
ATOM     37  C   UNL A   1      35.759  32.345  30.555  1.00  0.00     0.014 A 
ATOM     38  C   UNL A   1      37.927  33.328  29.089  1.00  0.00     0.010 A 
ATOM     39  C   UNL A   1      37.044  31.959  30.885  1.00  0.00     0.010 A 
ATOM     40  C   UNL A   1      38.117  32.379  30.092  1.00  0.00    -0.014 A 
BRANCH  40  41
ATOM     41  C   UNL A   1      39.360  31.632  30.240  1.00  0.00     0.031 A 
ATOM     42  C   UNL A   1      39.546  30.325  29.584  1.00  0.00     0.074 A 
ATOM     43  C   UNL A   1      40.377  32.187  30.939  1.00  0.00     0.049 A 
ATOM     44  N   UNL A   1      40.436  29.461  29.943  1.00  0.00    -0.248 NA
ATOM     45  C   UNL A   1      38.672  29.842  28.518  1.00  0.00     0.031 C 
ATOM     46  C   UNL A   1      41.780  31.785  30.960  1.00  0.00     0.029 A 
ATOM     47  N   UNL A   1      40.271  33.116  31.973  1.00  0.00    -0.354 N 
ATOM     48  C   UNL A   1      40.476  28.496  28.969  1.00  0.00     0.074 A 
ATOM     49  C   UNL A   1      39.267  28.687  28.206  1.00  0.00     0.031 C 
ATOM     50  C   UNL A   1      42.353  32.262  32.077  1.00  0.00     0.029 A 
ATOM     51  C   UNL A   1      41.298  32.845  32.891  1.00  0.00     0.049 A 
ATOM     52  H   UNL A   1      39.598  33.831  32.046  1.00  0.00     0.167 HD
ATOM     53  C   UNL A   1      41.612  27.762  28.811  1.00  0.00     0.031 A 
ATOM     54  C   UNL A   1      41.011  32.465  34.172  1.00  0.00     0.031 A 
ATOM     55  C   UNL A   1      42.520  27.914  29.949  1.00  0.00     0.049 A 
ATOM     56  C   UNL A   1      41.510  31.080  34.527  1.00  0.00     0.074 A 
ATOM     57  C   UNL A   1      43.728  28.566  30.125  1.00  0.00     0.029 A 
ATOM     58  N   UNL A   1      42.075  27.560  31.220  1.00  0.00    -0.354 N 
ATOM     59  N   UNL A   1      41.881  30.189  33.647  1.00  0.00    -0.248 NA
ATOM     60  C   UNL A   1      41.583  30.573  35.897  1.00  0.00     0.031 C 
ATOM     61  C   UNL A   1      43.948  28.704  31.524  1.00  0.00     0.029 A 
ATOM     62  C   UNL A   1      42.901  28.091  32.191  1.00  0.00     0.049 A 
ATOM     63  H   UNL A   1      41.282  27.005  31.402  1.00  0.00     0.167 HD
ATOM     64  C   UNL A   1      42.208  29.023  34.286  1.00  0.00     0.074 A 
ATOM     65  C   UNL A   1      42.022  29.317  35.695  1.00  0.00     0.031 C 
ATOM     66  C   UNL A   1      42.588  27.906  33.602  1.00  0.00     0.031 A 
BRANCH  53  67
ATOM     67  C   UNL A   1      42.015  27.110  27.503  1.00  0.00    -0.014 A 
ATOM     68  C   UNL A   1      41.421  25.891  27.124  1.00  0.00     0.009 A 
ATOM     69  C   UNL A   1      43.057  27.560  26.669  1.00  0.00     0.009 A 
ATOM     70  C   UNL A   1      41.861  25.162  26.007  1.00  0.00     0.001 A 
ATOM     71  C   UNL A   1      43.485  26.851  25.537  1.00  0.00     0.001 A 
ATOM     72  C   UNL A   1      42.893  25.643  25.213  1.00  0.00     0.000 A 
ENDBRANCH  53  67
BRANCH  54  73
ATOM     73  C   UNL A   1      39.759  33.069  34.709  1.00  0.00    -0.014 A 
ATOM     74  C   UNL A   1      38.549  32.367  34.536  1.00  0.00     0.009 A 
ATOM     75  C   UNL A   1      39.805  34.099  35.659  1.00  0.00     0.009 A 
ATOM     76  C   UNL A   1      37.454  32.608  35.370  1.00  0.00     0.001 A 
ATOM     77  C   UNL A   1      38.700  34.347  36.483  1.00  0.00     0.001 A 
ATOM     78  C   UNL A   1      37.541  33.579  36.364  1.00  0.00     0.000 A 
ENDBRANCH  54  73
BRANCH  66  79
ATOM     79  C   UNL A   1      42.754  26.536  34.205  1.00  0.00    -0.014 A 
ATOM     80  C   UNL A   1      41.820  25.939  35.064  1.00  0.00     0.009 A 
ATOM     81  C   UNL A   1      43.838  25.734  33.786  1.00  0.00     0.009 A 
ATOM     82  C   UNL A   1      41.991  24.625  35.523  1.00  0.00     0.001 A 
ATOM     83  C   UNL A   1      43.989  24.411  34.208  1.00  0.00     0.001 A 
ATOM     84  C   UNL A   1      43.070  23.860  35.089  1.00  0.00     0.000 A 
ENDBRANCH  66  79
ENDBRANCH  40  41
ENDBRANCH  32  35
ENDBRANCH  30  31
ENDBRANCH  29  30
ENDBRANCH  28  29
ENDBRANCH   1  28
TORSDOF 16
ENDMDL
