MODEL 1
REMARK VINA RESULT:     -11.0      0.000      0.000
REMARK SMILES CC(C)C[C@H](CNC(=O)NC[C@H]1CCC(=O)N1)C(=O)NCCCCNC(=O)c1ccc(-c2c3nc(c(-c4ccccc4)c4ccc([nH]4)c(-c4ccccc4)c4nc(c(-c5ccccc5)c5ccc2[nH]5)C=C4)C=C3)cc1
REMARK SMILES IDX 21 1 20 2 18 3 19 4 5 6 4 7 2 8 1 9 3 10 6 11 7 12 8 13 9 15
REMARK SMILES IDX 10 16 11 18 12 19 13 20 17 21 14 22 15 23 16 25 22 26 23 27
REMARK SMILES IDX 24 28 25 29 26 30 27 32 28 33 29 34 75 35 30 36 74 37 31 38
REMARK SMILES IDX 32 39 33 40 68 41 34 42 73 43 67 44 69 45 35 46 72 47 66 48
REMARK SMILES IDX 65 49 36 51 58 52 43 53 57 54 44 55 47 56 56 57 70 58 45 59
REMARK SMILES IDX 46 60 55 62 71 63 48 64 37 65 38 66 42 67 39 68 41 69 40 70
REMARK SMILES IDX 59 71 60 72 64 73 61 74 63 75 62 76 49 77 50 78 54 79 51 80
REMARK SMILES IDX 53 81 52 82
REMARK H PARENT 20 5 7 14 10 17 17 24 25 31 69 50 47 61
REMARK Flexibility Score: inf
ROOT
ATOM      1  C   UNL A   1      32.155  28.308  25.929  1.00  0.00     0.116 C 
ENDROOT
BRANCH   1   2
ATOM      2  N   UNL A   1      33.018  28.618  24.818  1.00  0.00    -0.356 N 
ATOM      3  C   UNL A   1      32.687  28.958  23.542  1.00  0.00     0.224 C 
ATOM      4  O   UNL A   1      33.613  29.281  22.792  1.00  0.00    -0.275 OA
ATOM      5  H   UNL A   1      33.983  28.579  25.007  1.00  0.00     0.163 HD
BRANCH   3   6
ATOM      6  C   UNL A   1      31.247  28.884  23.004  1.00  0.00     0.098 C 
BRANCH   6   7
ATOM      7  C   UNL A   1      30.197  29.753  23.769  1.00  0.00     0.018 C 
BRANCH   7   8
ATOM      8  C   UNL A   1      28.869  30.231  23.135  1.00  0.00    -0.017 C 
ATOM      9  C   UNL A   1      28.311  31.536  23.706  1.00  0.00     0.007 C 
ATOM     10  C   UNL A   1      29.050  30.456  21.625  1.00  0.00     0.007 C 
ENDBRANCH   7   8
ENDBRANCH   6   7
BRANCH   6  11
ATOM     11  C   UNL A   1      30.931  27.496  22.408  1.00  0.00     0.131 C 
BRANCH  11  12
ATOM     12  N   UNL A   1      32.040  26.765  21.808  1.00  0.00    -0.337 N 
ATOM     13  C   UNL A   1      32.346  25.486  21.555  1.00  0.00     0.314 C 
ATOM     14  H   UNL A   1      32.754  27.372  21.510  1.00  0.00     0.165 HD
ATOM     15  O   UNL A   1      33.203  25.258  20.700  1.00  0.00    -0.249 OA
ATOM     16  N   UNL A   1      31.818  24.438  22.193  1.00  0.00    -0.336 N 
ATOM     17  H   UNL A   1      31.963  23.574  21.744  1.00  0.00     0.165 HD
BRANCH  16  18
ATOM     18  C   UNL A   1      31.076  24.353  23.422  1.00  0.00     0.142 C 
BRANCH  18  19
ATOM     19  C   UNL A   1      31.658  23.382  24.455  1.00  0.00     0.101 C 
ATOM     20  C   UNL A   1      32.611  24.096  25.408  1.00  0.00     0.036 C 
ATOM     21  N   UNL A   1      30.627  22.928  25.358  1.00  0.00    -0.352 N 
ATOM     22  C   UNL A   1      31.686  24.677  26.481  1.00  0.00     0.102 C 
ATOM     23  C   UNL A   1      30.550  23.690  26.502  1.00  0.00     0.220 C 
ATOM     24  H   UNL A   1      30.041  22.158  25.175  1.00  0.00     0.163 HD
ATOM     25  O   UNL A   1      29.670  23.606  27.345  1.00  0.00    -0.275 OA
ENDBRANCH  18  19
ENDBRANCH  16  18
ENDBRANCH  11  12
ENDBRANCH   6  11
ENDBRANCH   3   6
ENDBRANCH   1   2
BRANCH   1  26
ATOM     26  C   UNL A   1      32.300  29.255  27.114  1.00  0.00     0.023 C 
BRANCH  26  27
ATOM     27  C   UNL A   1      31.982  30.706  26.808  1.00  0.00     0.023 C 
BRANCH  27  28
ATOM     28  C   UNL A   1      33.016  31.705  27.293  1.00  0.00     0.116 C 
BRANCH  28  29
ATOM     29  N   UNL A   1      32.501  33.040  27.566  1.00  0.00    -0.352 N 
ATOM     30  C   UNL A   1      33.103  34.030  28.317  1.00  0.00     0.251 C 
ATOM     31  H   UNL A   1      31.625  33.260  27.173  1.00  0.00     0.163 HD
ATOM     32  O   UNL A   1      32.549  35.103  28.521  1.00  0.00    -0.269 OA
BRANCH  30  33
ATOM     33  C   UNL A   1      34.418  33.735  28.926  1.00  0.00     0.039 A 
ATOM     34  C   UNL A   1      34.466  32.996  30.108  1.00  0.00     0.014 A 
ATOM     35  C   UNL A   1      35.591  34.041  28.230  1.00  0.00     0.014 A 
ATOM     36  C   UNL A   1      35.689  32.477  30.540  1.00  0.00     0.010 A 
ATOM     37  C   UNL A   1      36.778  33.421  28.596  1.00  0.00     0.010 A 
ATOM     38  C   UNL A   1      36.844  32.635  29.756  1.00  0.00    -0.014 A 
BRANCH  38  39
ATOM     39  C   UNL A   1      38.131  31.993  30.131  1.00  0.00     0.031 A 
ATOM     40  C   UNL A   1      39.079  32.705  31.059  1.00  0.00     0.074 A 
ATOM     41  C   UNL A   1      38.483  30.807  29.591  1.00  0.00     0.049 A 
ATOM     42  N   UNL A   1      40.270  32.343  31.462  1.00  0.00    -0.248 NA
ATOM     43  C   UNL A   1      38.645  34.015  31.575  1.00  0.00     0.031 C 
ATOM     44  C   UNL A   1      37.686  30.035  28.637  1.00  0.00     0.029 A 
ATOM     45  N   UNL A   1      39.612  30.044  29.772  1.00  0.00    -0.354 N 
ATOM     46  C   UNL A   1      40.729  33.384  32.260  1.00  0.00     0.074 A 
ATOM     47  C   UNL A   1      39.723  34.421  32.225  1.00  0.00     0.031 C 
ATOM     48  C   UNL A   1      38.330  28.891  28.347  1.00  0.00     0.029 A 
ATOM     49  C   UNL A   1      39.605  28.870  29.056  1.00  0.00     0.049 A 
ATOM     50  H   UNL A   1      40.356  30.313  30.358  1.00  0.00     0.167 HD
ATOM     51  C   UNL A   1      41.869  33.461  32.985  1.00  0.00     0.031 A 
ATOM     52  C   UNL A   1      40.524  27.888  28.977  1.00  0.00     0.031 A 
ATOM     53  C   UNL A   1      42.865  32.427  33.031  1.00  0.00     0.049 A 
ATOM     54  C   UNL A   1      41.792  28.003  29.778  1.00  0.00     0.074 A 
ATOM     55  C   UNL A   1      44.029  32.387  33.778  1.00  0.00     0.029 A 
ATOM     56  N   UNL A   1      42.816  31.252  32.299  1.00  0.00    -0.354 N 
ATOM     57  N   UNL A   1      42.174  28.961  30.588  1.00  0.00    -0.248 NA
ATOM     58  C   UNL A   1      42.750  26.894  29.664  1.00  0.00     0.031 C 
ATOM     59  C   UNL A   1      44.715  31.212  33.450  1.00  0.00     0.029 A 
ATOM     60  C   UNL A   1      43.943  30.490  32.554  1.00  0.00     0.049 A 
ATOM     61  H   UNL A   1      42.087  30.997  31.687  1.00  0.00     0.167 HD
ATOM     62  C   UNL A   1      43.401  28.557  31.101  1.00  0.00     0.074 A 
ATOM     63  C   UNL A   1      43.688  27.258  30.526  1.00  0.00     0.031 C 
ATOM     64  C   UNL A   1      44.215  29.201  31.972  1.00  0.00     0.031 A 
BRANCH  51  65
ATOM     65  C   UNL A   1      42.092  34.716  33.786  1.00  0.00    -0.014 A 
ATOM     66  C   UNL A   1      41.663  34.815  35.120  1.00  0.00     0.009 A 
ATOM     67  C   UNL A   1      42.754  35.808  33.204  1.00  0.00     0.009 A 
ATOM     68  C   UNL A   1      41.851  35.997  35.839  1.00  0.00     0.001 A 
ATOM     69  C   UNL A   1      42.973  36.976  33.938  1.00  0.00     0.001 A 
ATOM     70  C   UNL A   1      42.511  37.074  35.250  1.00  0.00     0.000 A 
ENDBRANCH  51  65
BRANCH  52  71
ATOM     71  C   UNL A   1      40.276  26.698  28.117  1.00  0.00    -0.014 A 
ATOM     72  C   UNL A   1      40.799  26.633  26.816  1.00  0.00     0.009 A 
ATOM     73  C   UNL A   1      39.502  25.625  28.588  1.00  0.00     0.009 A 
ATOM     74  C   UNL A   1      40.530  25.534  25.997  1.00  0.00     0.001 A 
ATOM     75  C   UNL A   1      39.262  24.512  27.777  1.00  0.00     0.001 A 
ATOM     76  C   UNL A   1      39.766  24.473  26.479  1.00  0.00     0.000 A 
ENDBRANCH  52  71
BRANCH  64  77
ATOM     77  C   UNL A   1      45.478  28.498  32.387  1.00  0.00    -0.014 A 
ATOM     78  C   UNL A   1      46.687  28.695  31.702  1.00  0.00     0.009 A 
ATOM     79  C   UNL A   1      45.464  27.660  33.514  1.00  0.00     0.009 A 
ATOM     80  C   UNL A   1      47.848  28.039  32.116  1.00  0.00     0.001 A 
ATOM     81  C   UNL A   1      46.633  27.032  33.945  1.00  0.00     0.001 A 
ATOM     82  C   UNL A   1      47.821  27.214  33.240  1.00  0.00     0.000 A 
ENDBRANCH  64  77
ENDBRANCH  38  39
ENDBRANCH  30  33
ENDBRANCH  28  29
ENDBRANCH  27  28
ENDBRANCH  26  27
ENDBRANCH   1  26
TORSDOF 17
ENDMDL
MODEL 2
REMARK VINA RESULT:     -10.9      1.261      3.706
REMARK SMILES CC(C)C[C@H](CNC(=O)NC[C@H]1CCC(=O)N1)C(=O)NCCCCNC(=O)c1ccc(-c2c3nc(c(-c4ccccc4)c4ccc([nH]4)c(-c4ccccc4)c4nc(c(-c5ccccc5)c5ccc2[nH]5)C=C4)C=C3)cc1
REMARK SMILES IDX 21 1 20 2 18 3 19 4 5 6 4 7 2 8 1 9 3 10 6 11 7 12 8 13 9 15
REMARK SMILES IDX 10 16 11 18 12 19 13 20 17 21 14 22 15 23 16 25 22 26 23 27
REMARK SMILES IDX 24 28 25 29 26 30 27 32 28 33 29 34 75 35 30 36 74 37 31 38
REMARK SMILES IDX 32 39 33 40 68 41 34 42 73 43 67 44 69 45 35 46 72 47 66 48
REMARK SMILES IDX 65 49 36 51 58 52 43 53 57 54 44 55 47 56 56 57 70 58 45 59
REMARK SMILES IDX 46 60 55 62 71 63 48 64 37 65 38 66 42 67 39 68 41 69 40 70
REMARK SMILES IDX 59 71 60 72 64 73 61 74 63 75 62 76 49 77 50 78 54 79 51 80
REMARK SMILES IDX 53 81 52 82
REMARK H PARENT 20 5 7 14 10 17 17 24 25 31 69 50 47 61
REMARK Flexibility Score: inf
ROOT
ATOM      1  C   UNL A   1      32.116  28.172  26.440  1.00  0.00     0.116 C 
ENDROOT
BRANCH   1   2
ATOM      2  N   UNL A   1      31.148  27.133  26.676  1.00  0.00    -0.356 N 
ATOM      3  C   UNL A   1      30.989  25.944  26.032  1.00  0.00     0.224 C 
ATOM      4  O   UNL A   1      30.144  25.170  26.490  1.00  0.00    -0.275 OA
ATOM      5  H   UNL A   1      30.510  27.306  27.405  1.00  0.00     0.163 HD
BRANCH   3   6
ATOM      6  C   UNL A   1      31.757  25.580  24.749  1.00  0.00     0.098 C 
BRANCH   6   7
ATOM      7  C   UNL A   1      33.275  25.264  24.940  1.00  0.00     0.018 C 
BRANCH   7   8
ATOM      8  C   UNL A   1      33.885  23.860  24.712  1.00  0.00    -0.017 C 
ATOM      9  C   UNL A   1      34.754  23.726  23.460  1.00  0.00     0.007 C 
ATOM     10  C   UNL A   1      34.771  23.464  25.904  1.00  0.00     0.007 C 
ENDBRANCH   7   8
ENDBRANCH   6   7
BRANCH   6  11
ATOM     11  C   UNL A   1      31.188  26.312  23.516  1.00  0.00     0.131 C 
BRANCH  11  12
ATOM     12  N   UNL A   1      32.077  27.241  22.830  1.00  0.00    -0.337 N 
ATOM     13  C   UNL A   1      32.282  28.564  22.809  1.00  0.00     0.314 C 
ATOM     14  H   UNL A   1      32.690  26.772  22.220  1.00  0.00     0.165 HD
ATOM     15  O   UNL A   1      33.367  28.972  22.391  1.00  0.00    -0.249 OA
ATOM     16  N   UNL A   1      31.378  29.479  23.170  1.00  0.00    -0.336 N 
ATOM     17  H   UNL A   1      31.748  30.379  23.321  1.00  0.00     0.165 HD
BRANCH  16  18
ATOM     18  C   UNL A   1      29.958  29.377  23.376  1.00  0.00     0.142 C 
BRANCH  18  19
ATOM     19  C   UNL A   1      29.105  29.986  22.258  1.00  0.00     0.101 C 
ATOM     20  C   UNL A   1      27.657  30.164  22.704  1.00  0.00     0.036 C 
ATOM     21  N   UNL A   1      29.503  31.351  22.005  1.00  0.00    -0.352 N 
ATOM     22  C   UNL A   1      27.662  31.513  23.430  1.00  0.00     0.102 C 
ATOM     23  C   UNL A   1      28.756  32.262  22.717  1.00  0.00     0.220 C 
ATOM     24  H   UNL A   1      30.231  31.602  21.391  1.00  0.00     0.163 HD
ATOM     25  O   UNL A   1      28.992  33.458  22.794  1.00  0.00    -0.275 OA
ENDBRANCH  18  19
ENDBRANCH  16  18
ENDBRANCH  11  12
ENDBRANCH   6  11
ENDBRANCH   3   6
ENDBRANCH   1   2
BRANCH   1  26
ATOM     26  C   UNL A   1      31.999  29.360  27.387  1.00  0.00     0.023 C 
BRANCH  26  27
ATOM     27  C   UNL A   1      32.007  30.716  26.706  1.00  0.00     0.023 C 
BRANCH  27  28
ATOM     28  C   UNL A   1      33.019  31.704  27.258  1.00  0.00     0.116 C 
BRANCH  28  29
ATOM     29  N   UNL A   1      32.487  33.027  27.554  1.00  0.00    -0.352 N 
ATOM     30  C   UNL A   1      33.081  34.014  28.315  1.00  0.00     0.251 C 
ATOM     31  H   UNL A   1      31.607  33.241  27.169  1.00  0.00     0.163 HD
ATOM     32  O   UNL A   1      32.514  35.076  28.538  1.00  0.00    -0.269 OA
BRANCH  30  33
ATOM     33  C   UNL A   1      34.405  33.728  28.911  1.00  0.00     0.039 A 
ATOM     34  C   UNL A   1      34.467  33.027  30.116  1.00  0.00     0.014 A 
ATOM     35  C   UNL A   1      35.567  34.002  28.186  1.00  0.00     0.014 A 
ATOM     36  C   UNL A   1      35.692  32.512  30.544  1.00  0.00     0.010 A 
ATOM     37  C   UNL A   1      36.756  33.384  28.552  1.00  0.00     0.010 A 
ATOM     38  C   UNL A   1      36.836  32.635  29.736  1.00  0.00    -0.014 A 
BRANCH  38  39
ATOM     39  C   UNL A   1      38.124  31.995  30.109  1.00  0.00     0.031 A 
ATOM     40  C   UNL A   1      39.072  32.709  31.035  1.00  0.00     0.074 A 
ATOM     41  C   UNL A   1      38.476  30.809  29.571  1.00  0.00     0.049 A 
ATOM     42  N   UNL A   1      40.264  32.349  31.436  1.00  0.00    -0.248 NA
ATOM     43  C   UNL A   1      38.638  34.019  31.550  1.00  0.00     0.031 C 
ATOM     44  C   UNL A   1      37.678  30.034  28.619  1.00  0.00     0.029 A 
ATOM     45  N   UNL A   1      39.605  30.046  29.751  1.00  0.00    -0.354 N 
ATOM     46  C   UNL A   1      40.723  33.391  32.232  1.00  0.00     0.074 A 
ATOM     47  C   UNL A   1      39.717  34.428  32.197  1.00  0.00     0.031 C 
ATOM     48  C   UNL A   1      38.323  28.891  28.330  1.00  0.00     0.029 A 
ATOM     49  C   UNL A   1      39.599  28.872  29.037  1.00  0.00     0.049 A 
ATOM     50  H   UNL A   1      40.350  30.317  30.335  1.00  0.00     0.167 HD
ATOM     51  C   UNL A   1      41.865  33.471  32.955  1.00  0.00     0.031 A 
ATOM     52  C   UNL A   1      40.518  27.890  28.958  1.00  0.00     0.031 A 
ATOM     53  C   UNL A   1      42.862  32.437  33.002  1.00  0.00     0.049 A 
ATOM     54  C   UNL A   1      41.787  28.007  29.757  1.00  0.00     0.074 A 
ATOM     55  C   UNL A   1      44.027  32.399  33.746  1.00  0.00     0.029 A 
ATOM     56  N   UNL A   1      42.812  31.262  32.271  1.00  0.00    -0.354 N 
ATOM     57  N   UNL A   1      42.170  28.967  30.564  1.00  0.00    -0.248 NA
ATOM     58  C   UNL A   1      42.746  26.899  29.643  1.00  0.00     0.031 C 
ATOM     59  C   UNL A   1      44.713  31.225  33.420  1.00  0.00     0.029 A 
ATOM     60  C   UNL A   1      43.941  30.501  32.525  1.00  0.00     0.049 A 
ATOM     61  H   UNL A   1      42.083  31.005  31.661  1.00  0.00     0.167 HD
ATOM     62  C   UNL A   1      43.398  28.565  31.076  1.00  0.00     0.074 A 
ATOM     63  C   UNL A   1      43.686  27.266  30.503  1.00  0.00     0.031 C 
ATOM     64  C   UNL A   1      44.213  29.212  31.945  1.00  0.00     0.031 A 
BRANCH  51  65
ATOM     65  C   UNL A   1      42.087  34.727  33.754  1.00  0.00    -0.014 A 
ATOM     66  C   UNL A   1      42.738  35.840  33.196  1.00  0.00     0.009 A 
ATOM     67  C   UNL A   1      41.625  34.805  35.076  1.00  0.00     0.009 A 
ATOM     68  C   UNL A   1      42.963  36.987  33.960  1.00  0.00     0.001 A 
ATOM     69  C   UNL A   1      41.819  35.967  35.826  1.00  0.00     0.001 A 
ATOM     70  C   UNL A   1      42.498  37.052  35.272  1.00  0.00     0.000 A 
ENDBRANCH  51  65
BRANCH  52  71
ATOM     71  C   UNL A   1      40.270  26.699  28.100  1.00  0.00    -0.014 A 
ATOM     72  C   UNL A   1      39.530  25.609  28.585  1.00  0.00     0.009 A 
ATOM     73  C   UNL A   1      40.784  26.639  26.795  1.00  0.00     0.009 A 
ATOM     74  C   UNL A   1      39.333  24.475  27.793  1.00  0.00     0.001 A 
ATOM     75  C   UNL A   1      40.557  25.517  25.993  1.00  0.00     0.001 A 
ATOM     76  C   UNL A   1      39.844  24.432  26.496  1.00  0.00     0.000 A 
ENDBRANCH  52  71
BRANCH  64  77
ATOM     77  C   UNL A   1      45.477  28.510  32.359  1.00  0.00    -0.014 A 
ATOM     78  C   UNL A   1      45.503  27.629  33.451  1.00  0.00     0.009 A 
ATOM     79  C   UNL A   1      46.650  28.701  31.612  1.00  0.00     0.009 A 
ATOM     80  C   UNL A   1      46.688  26.981  33.807  1.00  0.00     0.001 A 
ATOM     81  C   UNL A   1      47.824  28.027  31.949  1.00  0.00     0.001 A 
ATOM     82  C   UNL A   1      47.845  27.175  33.052  1.00  0.00     0.000 A 
ENDBRANCH  64  77
ENDBRANCH  38  39
ENDBRANCH  30  33
ENDBRANCH  28  29
ENDBRANCH  27  28
ENDBRANCH  26  27
ENDBRANCH   1  26
TORSDOF 17
ENDMDL
MODEL 3
REMARK VINA RESULT:     -10.9      1.282      6.880
REMARK SMILES CC(C)C[C@H](CNC(=O)NC[C@H]1CCC(=O)N1)C(=O)NCCCCNC(=O)c1ccc(-c2c3nc(c(-c4ccccc4)c4ccc([nH]4)c(-c4ccccc4)c4nc(c(-c5ccccc5)c5ccc2[nH]5)C=C4)C=C3)cc1
REMARK SMILES IDX 21 1 20 2 18 3 19 4 5 6 4 7 2 8 1 9 3 10 6 11 7 12 8 13 9 15
REMARK SMILES IDX 10 16 11 18 12 19 13 20 17 21 14 22 15 23 16 25 22 26 23 27
REMARK SMILES IDX 24 28 25 29 26 30 27 32 28 33 29 34 75 35 30 36 74 37 31 38
REMARK SMILES IDX 32 39 33 40 68 41 34 42 73 43 67 44 69 45 35 46 72 47 66 48
REMARK SMILES IDX 65 49 36 51 58 52 43 53 57 54 44 55 47 56 56 57 70 58 45 59
REMARK SMILES IDX 46 60 55 62 71 63 48 64 37 65 38 66 42 67 39 68 41 69 40 70
REMARK SMILES IDX 59 71 60 72 64 73 61 74 63 75 62 76 49 77 50 78 54 79 51 80
REMARK SMILES IDX 53 81 52 82
REMARK H PARENT 20 5 7 14 10 17 17 24 25 31 69 50 47 61
REMARK Flexibility Score: inf
ROOT
ATOM      1  C   UNL A   1      31.747  27.595  26.607  1.00  0.00     0.116 C 
ENDROOT
BRANCH   1   2
ATOM      2  N   UNL A   1      32.818  26.873  25.970  1.00  0.00    -0.356 N 
ATOM      3  C   UNL A   1      32.764  26.004  24.924  1.00  0.00     0.224 C 
ATOM      4  O   UNL A   1      33.841  25.588  24.487  1.00  0.00    -0.275 OA
ATOM      5  H   UNL A   1      33.715  27.029  26.343  1.00  0.00     0.163 HD
BRANCH   3   6
ATOM      6  C   UNL A   1      31.440  25.485  24.336  1.00  0.00     0.098 C 
BRANCH   6   7
ATOM      7  C   UNL A   1      31.216  23.942  24.440  1.00  0.00     0.018 C 
BRANCH   7   8
ATOM      8  C   UNL A   1      31.466  23.134  25.736  1.00  0.00    -0.017 C 
ATOM      9  C   UNL A   1      30.311  23.142  26.738  1.00  0.00     0.007 C 
ATOM     10  C   UNL A   1      31.744  21.659  25.399  1.00  0.00     0.007 C 
ENDBRANCH   7   8
ENDBRANCH   6   7
BRANCH   6  11
ATOM     11  C   UNL A   1      30.979  26.332  23.131  1.00  0.00     0.131 C 
BRANCH  11  12
ATOM     12  N   UNL A   1      31.933  27.293  22.594  1.00  0.00    -0.337 N 
ATOM     13  C   UNL A   1      32.229  28.585  22.778  1.00  0.00     0.314 C 
ATOM     14  H   UNL A   1      32.514  26.883  21.913  1.00  0.00     0.165 HD
ATOM     15  O   UNL A   1      33.342  28.978  22.422  1.00  0.00    -0.249 OA
ATOM     16  N   UNL A   1      31.391  29.493  23.285  1.00  0.00    -0.336 N 
ATOM     17  H   UNL A   1      31.822  30.330  23.572  1.00  0.00     0.165 HD
BRANCH  16  18
ATOM     18  C   UNL A   1      29.966  29.459  23.482  1.00  0.00     0.142 C 
BRANCH  18  19
ATOM     19  C   UNL A   1      29.148  30.063  22.336  1.00  0.00     0.101 C 
ATOM     20  C   UNL A   1      27.679  30.209  22.724  1.00  0.00     0.036 C 
ATOM     21  N   UNL A   1      29.529  31.438  22.113  1.00  0.00    -0.352 N 
ATOM     22  C   UNL A   1      27.629  31.550  23.462  1.00  0.00     0.102 C 
ATOM     23  C   UNL A   1      28.736  32.327  22.802  1.00  0.00     0.220 C 
ATOM     24  H   UNL A   1      30.276  31.709  21.532  1.00  0.00     0.163 HD
ATOM     25  O   UNL A   1      28.946  33.527  22.900  1.00  0.00    -0.275 OA
ENDBRANCH  18  19
ENDBRANCH  16  18
ENDBRANCH  11  12
ENDBRANCH   6  11
ENDBRANCH   3   6
ENDBRANCH   1   2
BRANCH   1  26
ATOM     26  C   UNL A   1      32.207  28.790  27.433  1.00  0.00     0.023 C 
BRANCH  26  27
ATOM     27  C   UNL A   1      32.271  30.101  26.672  1.00  0.00     0.023 C 
BRANCH  27  28
ATOM     28  C   UNL A   1      33.173  31.156  27.287  1.00  0.00     0.116 C 
BRANCH  28  29
ATOM     29  N   UNL A   1      32.559  32.466  27.454  1.00  0.00    -0.352 N 
ATOM     30  C   UNL A   1      33.083  33.554  28.124  1.00  0.00     0.251 C 
ATOM     31  H   UNL A   1      31.672  32.590  27.044  1.00  0.00     0.163 HD
ATOM     32  O   UNL A   1      32.451  34.596  28.242  1.00  0.00    -0.269 OA
BRANCH  30  33
ATOM     33  C   UNL A   1      34.413  33.405  28.754  1.00  0.00     0.039 A 
ATOM     34  C   UNL A   1      34.513  32.735  29.974  1.00  0.00     0.014 A 
ATOM     35  C   UNL A   1      35.562  33.774  28.049  1.00  0.00     0.014 A 
ATOM     36  C   UNL A   1      35.771  32.346  30.438  1.00  0.00     0.010 A 
ATOM     37  C   UNL A   1      36.794  33.278  28.452  1.00  0.00     0.010 A 
ATOM     38  C   UNL A   1      36.916  32.562  29.653  1.00  0.00    -0.014 A 
BRANCH  38  39
ATOM     39  C   UNL A   1      38.250  32.053  30.067  1.00  0.00     0.031 A 
ATOM     40  C   UNL A   1      38.736  30.724  29.553  1.00  0.00     0.074 A 
ATOM     41  C   UNL A   1      38.998  32.745  30.952  1.00  0.00     0.049 A 
ATOM     42  N   UNL A   1      39.839  30.080  29.838  1.00  0.00    -0.248 NA
ATOM     43  C   UNL A   1      37.847  30.006  28.623  1.00  0.00     0.031 C 
ATOM     44  C   UNL A   1      38.625  34.018  31.571  1.00  0.00     0.029 A 
ATOM     45  N   UNL A   1      40.233  32.468  31.486  1.00  0.00    -0.354 N 
ATOM     46  C   UNL A   1      39.766  28.883  29.138  1.00  0.00     0.074 A 
ATOM     47  C   UNL A   1      38.481  28.855  28.475  1.00  0.00     0.031 C 
ATOM     48  C   UNL A   1      39.625  34.431  32.368  1.00  0.00     0.029 A 
ATOM     49  C   UNL A   1      40.688  33.432  32.354  1.00  0.00     0.049 A 
ATOM     50  H   UNL A   1      40.744  31.655  31.269  1.00  0.00     0.167 HD
ATOM     51  C   UNL A   1      40.694  27.904  29.026  1.00  0.00     0.031 A 
ATOM     52  C   UNL A   1      41.832  33.503  33.062  1.00  0.00     0.031 A 
ATOM     53  C   UNL A   1      41.977  27.934  29.673  1.00  0.00     0.049 A 
ATOM     54  C   UNL A   1      42.843  32.396  32.936  1.00  0.00     0.074 A 
ATOM     55  C   UNL A   1      43.009  27.017  29.580  1.00  0.00     0.029 A 
ATOM     56  N   UNL A   1      42.401  28.931  30.536  1.00  0.00    -0.354 N 
ATOM     57  N   UNL A   1      42.789  31.307  32.208  1.00  0.00    -0.248 NA
ATOM     58  C   UNL A   1      44.079  32.536  33.719  1.00  0.00     0.031 C 
ATOM     59  C   UNL A   1      44.036  27.431  30.435  1.00  0.00     0.029 A 
ATOM     60  C   UNL A   1      43.670  28.640  31.005  1.00  0.00     0.049 A 
ATOM     61  H   UNL A   1      41.877  29.729  30.779  1.00  0.00     0.167 HD
ATOM     62  C   UNL A   1      43.993  30.647  32.424  1.00  0.00     0.074 A 
ATOM     63  C   UNL A   1      44.765  31.468  33.334  1.00  0.00     0.031 C 
ATOM     64  C   UNL A   1      44.423  29.467  31.912  1.00  0.00     0.031 A 
BRANCH  51  65
ATOM     65  C   UNL A   1      40.345  26.718  28.167  1.00  0.00    -0.014 A 
ATOM     66  C   UNL A   1      39.551  25.670  28.660  1.00  0.00     0.009 A 
ATOM     67  C   UNL A   1      40.801  26.657  26.842  1.00  0.00     0.009 A 
ATOM     68  C   UNL A   1      39.261  24.563  27.860  1.00  0.00     0.001 A 
ATOM     69  C   UNL A   1      40.479  25.566  26.032  1.00  0.00     0.001 A 
ATOM     70  C   UNL A   1      39.720  24.515  26.545  1.00  0.00     0.000 A 
ENDBRANCH  51  65
BRANCH  52  71
ATOM     71  C   UNL A   1      42.095  34.672  33.945  1.00  0.00    -0.014 A 
ATOM     72  C   UNL A   1      41.728  34.643  35.300  1.00  0.00     0.009 A 
ATOM     73  C   UNL A   1      42.703  35.831  33.435  1.00  0.00     0.009 A 
ATOM     74  C   UNL A   1      41.938  35.757  36.117  1.00  0.00     0.001 A 
ATOM     75  C   UNL A   1      42.941  36.931  34.263  1.00  0.00     0.001 A 
ATOM     76  C   UNL A   1      42.548  36.898  35.599  1.00  0.00     0.000 A 
ENDBRANCH  52  71
BRANCH  64  77
ATOM     77  C   UNL A   1      45.804  29.011  32.294  1.00  0.00    -0.014 A 
ATOM     78  C   UNL A   1      46.030  28.241  33.445  1.00  0.00     0.009 A 
ATOM     79  C   UNL A   1      46.890  29.319  31.458  1.00  0.00     0.009 A 
ATOM     80  C   UNL A   1      47.321  27.819  33.770  1.00  0.00     0.001 A 
ATOM     81  C   UNL A   1      48.173  28.869  31.767  1.00  0.00     0.001 A 
ATOM     82  C   UNL A   1      48.390  28.128  32.928  1.00  0.00     0.000 A 
ENDBRANCH  64  77
ENDBRANCH  38  39
ENDBRANCH  30  33
ENDBRANCH  28  29
ENDBRANCH  27  28
ENDBRANCH  26  27
ENDBRANCH   1  26
TORSDOF 17
ENDMDL
