MODEL 1
REMARK VINA RESULT:     -12.7      0.000      0.000
REMARK SMILES CC1=C2C(=O)CC(C)(C)CC2=N[C@@H]1C(=O)NCCCCNC(=O)c1ccc(-c2c3nc(c(-c4ccccc4)c4ccc([nH]4)c(-c4ccccc4)c4nc(c(-c5ccccc5)c5ccc2[nH]5)C=C4)C=C3)cc1
REMARK SMILES IDX 19 1 18 2 17 3 16 4 14 5 15 6 13 8 1 9 2 10 3 11 4 12 11 13
REMARK SMILES IDX 12 14 5 15 6 16 10 17 7 18 8 19 9 20 20 21 21 22 22 23 23 25
REMARK SMILES IDX 24 26 25 27 71 28 26 29 70 30 27 31 28 32 29 33 64 34 30 35
REMARK SMILES IDX 69 36 63 37 65 38 31 39 68 40 62 41 61 42 32 44 54 45 39 46
REMARK SMILES IDX 53 47 40 48 43 49 52 50 66 51 41 52 42 53 51 55 67 56 44 57
REMARK SMILES IDX 33 58 34 59 38 60 35 61 37 62 36 63 55 64 56 65 60 66 57 67
REMARK SMILES IDX 59 68 58 69 45 70 46 71 50 72 47 73 49 74 48 75
REMARK H PARENT 16 7 21 24 65 43 43 54
REMARK Flexibility Score: inf
ROOT
ATOM      1  C   UNL A   1      37.763  19.524  24.990  1.00  0.00     0.023 C 
ENDROOT
BRANCH   1   2
ATOM      2  C   UNL A   1      36.606  20.531  24.999  1.00  0.00     0.023 C 
BRANCH   2   3
ATOM      3  C   UNL A   1      35.196  19.934  24.955  1.00  0.00     0.116 C 
BRANCH   3   4
ATOM      4  N   UNL A   1      34.268  20.666  25.809  1.00  0.00    -0.354 N 
ATOM      5  C   UNL A   1      33.452  21.722  25.460  1.00  0.00     0.249 C 
ATOM      6  O   UNL A   1      32.716  22.213  26.317  1.00  0.00    -0.272 OA
ATOM      7  H   UNL A   1      34.218  20.370  26.746  1.00  0.00     0.163 HD
BRANCH   5   8
ATOM      8  C   UNL A   1      33.467  22.171  23.973  1.00  0.00     0.221 C 
ATOM      9  C   UNL A   1      35.008  24.301  24.258  1.00  0.00     0.043 C 
ATOM     10  C   UNL A   1      33.871  23.583  23.623  1.00  0.00    -0.027 C 
ATOM     11  C   UNL A   1      32.966  24.124  22.800  1.00  0.00     0.040 C 
ATOM     12  C   UNL A   1      32.784  25.420  22.131  1.00  0.00     0.165 C 
ATOM     13  C   UNL A   1      31.820  23.340  23.224  1.00  0.00     0.048 C 
ATOM     14  N   UNL A   1      32.014  22.114  23.599  1.00  0.00    -0.271 NA
ATOM     15  O   UNL A   1      33.571  25.798  21.268  1.00  0.00    -0.294 OA
ATOM     16  C   UNL A   1      31.512  26.188  22.470  1.00  0.00     0.088 C 
ATOM     17  C   UNL A   1      30.522  24.056  23.436  1.00  0.00     0.063 C 
ATOM     18  C   UNL A   1      30.763  25.579  23.683  1.00  0.00    -0.023 C 
ATOM     19  C   UNL A   1      31.578  25.897  24.967  1.00  0.00     0.012 C 
ATOM     20  C   UNL A   1      29.385  26.234  23.865  1.00  0.00     0.012 C 
ENDBRANCH   5   8
ENDBRANCH   3   4
ENDBRANCH   2   3
ENDBRANCH   1   2
BRANCH   1  21
ATOM     21  C   UNL A   1      39.066  20.068  25.554  1.00  0.00     0.116 C 
BRANCH  21  22
ATOM     22  N   UNL A   1      40.096  19.042  25.761  1.00  0.00    -0.352 N 
ATOM     23  C   UNL A   1      41.455  19.225  26.000  1.00  0.00     0.251 C 
ATOM     24  H   UNL A   1      39.787  18.109  25.725  1.00  0.00     0.163 HD
ATOM     25  O   UNL A   1      42.262  18.336  25.809  1.00  0.00    -0.269 OA
BRANCH  23  26
ATOM     26  C   UNL A   1      41.891  20.535  26.521  1.00  0.00     0.039 A 
ATOM     27  C   UNL A   1      42.577  21.484  25.755  1.00  0.00     0.014 A 
ATOM     28  C   UNL A   1      41.536  20.811  27.832  1.00  0.00     0.014 A 
ATOM     29  C   UNL A   1      42.844  22.732  26.322  1.00  0.00     0.010 A 
ATOM     30  C   UNL A   1      41.533  22.099  28.263  1.00  0.00     0.010 A 
ATOM     31  C   UNL A   1      42.310  23.024  27.584  1.00  0.00    -0.014 A 
BRANCH  31  32
ATOM     32  C   UNL A   1      42.472  24.304  28.256  1.00  0.00     0.031 A 
ATOM     33  C   UNL A   1      41.383  25.277  27.993  1.00  0.00     0.074 A 
ATOM     34  C   UNL A   1      43.354  24.438  29.277  1.00  0.00     0.049 A 
ATOM     35  N   UNL A   1      41.473  26.430  27.420  1.00  0.00    -0.248 NA
ATOM     36  C   UNL A   1      39.999  24.861  28.283  1.00  0.00     0.031 C 
ATOM     37  C   UNL A   1      44.234  23.408  29.860  1.00  0.00     0.029 A 
ATOM     38  N   UNL A   1      43.534  25.479  30.127  1.00  0.00    -0.354 N 
ATOM     39  C   UNL A   1      40.195  26.979  27.470  1.00  0.00     0.074 A 
ATOM     40  C   UNL A   1      39.306  25.899  27.810  1.00  0.00     0.031 C 
ATOM     41  C   UNL A   1      44.633  23.792  31.093  1.00  0.00     0.029 A 
ATOM     42  C   UNL A   1      44.191  25.155  31.313  1.00  0.00     0.049 A 
ATOM     43  H   UNL A   1      43.227  26.392  29.923  1.00  0.00     0.167 HD
ATOM     44  C   UNL A   1      40.009  28.328  27.519  1.00  0.00     0.031 A 
ATOM     45  C   UNL A   1      44.324  25.940  32.412  1.00  0.00     0.031 A 
ATOM     46  C   UNL A   1      41.216  29.037  27.165  1.00  0.00     0.049 A 
ATOM     47  C   UNL A   1      44.041  27.331  31.988  1.00  0.00     0.074 A 
ATOM     48  C   UNL A   1      42.035  29.078  26.055  1.00  0.00     0.029 A 
ATOM     49  N   UNL A   1      41.964  29.541  28.204  1.00  0.00    -0.354 N 
ATOM     50  N   UNL A   1      44.795  27.992  31.158  1.00  0.00    -0.248 NA
ATOM     51  C   UNL A   1      42.671  27.803  32.102  1.00  0.00     0.031 C 
ATOM     52  C   UNL A   1      43.360  29.132  26.584  1.00  0.00     0.029 A 
ATOM     53  C   UNL A   1      43.273  29.210  27.974  1.00  0.00     0.049 A 
ATOM     54  H   UNL A   1      41.620  30.050  28.974  1.00  0.00     0.167 HD
ATOM     55  C   UNL A   1      43.904  28.650  30.322  1.00  0.00     0.074 A 
ATOM     56  C   UNL A   1      42.614  28.575  31.012  1.00  0.00     0.031 C 
ATOM     57  C   UNL A   1      44.228  28.925  29.023  1.00  0.00     0.031 A 
BRANCH  44  58
ATOM     58  C   UNL A   1      38.912  28.991  28.322  1.00  0.00    -0.014 A 
ATOM     59  C   UNL A   1      38.807  28.678  29.690  1.00  0.00     0.009 A 
ATOM     60  C   UNL A   1      37.817  29.663  27.747  1.00  0.00     0.009 A 
ATOM     61  C   UNL A   1      37.631  28.924  30.407  1.00  0.00     0.001 A 
ATOM     62  C   UNL A   1      36.656  29.949  28.471  1.00  0.00     0.001 A 
ATOM     63  C   UNL A   1      36.550  29.547  29.794  1.00  0.00     0.000 A 
ENDBRANCH  44  58
BRANCH  45  64
ATOM     64  C   UNL A   1      44.388  25.548  33.839  1.00  0.00    -0.014 A 
ATOM     65  C   UNL A   1      43.397  24.731  34.410  1.00  0.00     0.009 A 
ATOM     66  C   UNL A   1      45.572  25.745  34.574  1.00  0.00     0.009 A 
ATOM     67  C   UNL A   1      43.602  24.106  35.649  1.00  0.00     0.001 A 
ATOM     68  C   UNL A   1      45.776  25.120  35.810  1.00  0.00     0.001 A 
ATOM     69  C   UNL A   1      44.797  24.288  36.342  1.00  0.00     0.000 A 
ENDBRANCH  45  64
BRANCH  57  70
ATOM     70  C   UNL A   1      45.652  28.680  28.582  1.00  0.00    -0.014 A 
ATOM     71  C   UNL A   1      46.115  27.434  28.119  1.00  0.00     0.009 A 
ATOM     72  C   UNL A   1      46.508  29.784  28.476  1.00  0.00     0.009 A 
ATOM     73  C   UNL A   1      47.405  27.296  27.593  1.00  0.00     0.001 A 
ATOM     74  C   UNL A   1      47.788  29.652  27.933  1.00  0.00     0.001 A 
ATOM     75  C   UNL A   1      48.239  28.408  27.496  1.00  0.00     0.000 A 
ENDBRANCH  57  70
ENDBRANCH  31  32
ENDBRANCH  23  26
ENDBRANCH  21  22
ENDBRANCH   1  21
TORSDOF 11
ENDMDL
MODEL 2
REMARK VINA RESULT:     -12.6      4.357      9.179
REMARK SMILES CC1=C2C(=O)CC(C)(C)CC2=N[C@@H]1C(=O)NCCCCNC(=O)c1ccc(-c2c3nc(c(-c4ccccc4)c4ccc([nH]4)c(-c4ccccc4)c4nc(c(-c5ccccc5)c5ccc2[nH]5)C=C4)C=C3)cc1
REMARK SMILES IDX 19 1 18 2 17 3 16 4 14 5 15 6 13 8 1 9 2 10 3 11 4 12 11 13
REMARK SMILES IDX 12 14 5 15 6 16 10 17 7 18 8 19 9 20 20 21 21 22 22 23 23 25
REMARK SMILES IDX 24 26 25 27 71 28 26 29 70 30 27 31 28 32 29 33 64 34 30 35
REMARK SMILES IDX 69 36 63 37 65 38 31 39 68 40 62 41 61 42 32 44 54 45 39 46
REMARK SMILES IDX 53 47 40 48 43 49 52 50 66 51 41 52 42 53 51 55 67 56 44 57
REMARK SMILES IDX 33 58 34 59 38 60 35 61 37 62 36 63 55 64 56 65 60 66 57 67
REMARK SMILES IDX 59 68 58 69 45 70 46 71 50 72 47 73 49 74 48 75
REMARK H PARENT 16 7 21 24 65 43 43 54
REMARK Flexibility Score: inf
ROOT
ATOM      1  C   UNL A   1      31.307  32.226  26.478  1.00  0.00     0.023 C 
ENDROOT
BRANCH   1   2
ATOM      2  C   UNL A   1      31.428  30.739  26.116  1.00  0.00     0.023 C 
BRANCH   2   3
ATOM      3  C   UNL A   1      32.258  29.881  27.075  1.00  0.00     0.116 C 
BRANCH   3   4
ATOM      4  N   UNL A   1      31.620  28.599  27.349  1.00  0.00    -0.354 N 
ATOM      5  C   UNL A   1      31.837  27.394  26.715  1.00  0.00     0.249 C 
ATOM      6  O   UNL A   1      31.212  26.402  27.091  1.00  0.00    -0.272 OA
ATOM      7  H   UNL A   1      30.954  28.594  28.074  1.00  0.00     0.163 HD
BRANCH   5   8
ATOM      8  C   UNL A   1      32.925  27.360  25.607  1.00  0.00     0.221 C 
ATOM      9  C   UNL A   1      31.378  28.019  23.566  1.00  0.00     0.043 C 
ATOM     10  C   UNL A   1      32.513  27.262  24.157  1.00  0.00    -0.027 C 
ATOM     11  C   UNL A   1      33.202  26.289  23.553  1.00  0.00     0.040 C 
ATOM     12  C   UNL A   1      33.256  25.709  22.203  1.00  0.00     0.165 C 
ATOM     13  C   UNL A   1      33.450  25.466  24.724  1.00  0.00     0.048 C 
ATOM     14  N   UNL A   1      33.618  26.054  25.868  1.00  0.00    -0.271 NA
ATOM     15  O   UNL A   1      33.651  26.374  21.250  1.00  0.00    -0.294 OA
ATOM     16  C   UNL A   1      32.926  24.227  22.085  1.00  0.00     0.088 C 
ATOM     17  C   UNL A   1      33.260  23.988  24.594  1.00  0.00     0.063 C 
ATOM     18  C   UNL A   1      32.320  23.653  23.391  1.00  0.00    -0.023 C 
ATOM     19  C   UNL A   1      30.874  24.204  23.539  1.00  0.00     0.012 C 
ATOM     20  C   UNL A   1      32.200  22.123  23.319  1.00  0.00     0.012 C 
ENDBRANCH   5   8
ENDBRANCH   3   4
ENDBRANCH   2   3
ENDBRANCH   1   2
BRANCH   1  21
ATOM     21  C   UNL A   1      32.495  32.776  27.249  1.00  0.00     0.116 C 
BRANCH  21  22
ATOM     22  N   UNL A   1      32.334  34.174  27.668  1.00  0.00    -0.352 N 
ATOM     23  C   UNL A   1      32.980  34.841  28.704  1.00  0.00     0.251 C 
ATOM     24  H   UNL A   1      31.686  34.705  27.152  1.00  0.00     0.163 HD
ATOM     25  O   UNL A   1      32.532  35.864  29.184  1.00  0.00    -0.269 OA
BRANCH  23  26
ATOM     26  C   UNL A   1      34.254  34.279  29.194  1.00  0.00     0.039 A 
ATOM     27  C   UNL A   1      34.392  33.632  30.427  1.00  0.00     0.014 A 
ATOM     28  C   UNL A   1      35.331  34.383  28.329  1.00  0.00     0.014 A 
ATOM     29  C   UNL A   1      35.621  33.045  30.737  1.00  0.00     0.010 A 
ATOM     30  C   UNL A   1      36.406  33.570  28.503  1.00  0.00     0.010 A 
ATOM     31  C   UNL A   1      36.622  33.023  29.757  1.00  0.00    -0.014 A 
BRANCH  31  32
ATOM     32  C   UNL A   1      37.921  32.396  29.940  1.00  0.00     0.031 A 
ATOM     33  C   UNL A   1      37.968  30.960  29.571  1.00  0.00     0.074 A 
ATOM     34  C   UNL A   1      39.033  33.154  30.105  1.00  0.00     0.049 A 
ATOM     35  N   UNL A   1      38.226  29.954  30.337  1.00  0.00    -0.248 NA
ATOM     36  C   UNL A   1      37.545  30.582  28.210  1.00  0.00     0.031 C 
ATOM     37  C   UNL A   1      39.138  34.626  30.120  1.00  0.00     0.029 A 
ATOM     38  N   UNL A   1      40.336  32.778  30.125  1.00  0.00    -0.354 N 
ATOM     39  C   UNL A   1      38.209  28.834  29.509  1.00  0.00     0.074 A 
ATOM     40  C   UNL A   1      37.584  29.250  28.281  1.00  0.00     0.031 C 
ATOM     41  C   UNL A   1      40.415  34.996  29.881  1.00  0.00     0.029 A 
ATOM     42  C   UNL A   1      41.242  33.806  29.874  1.00  0.00     0.049 A 
ATOM     43  H   UNL A   1      40.620  31.853  30.304  1.00  0.00     0.167 HD
ATOM     44  C   UNL A   1      38.973  27.741  29.789  1.00  0.00     0.031 A 
ATOM     45  C   UNL A   1      42.573  33.681  29.637  1.00  0.00     0.031 A 
ATOM     46  C   UNL A   1      39.465  27.778  31.145  1.00  0.00     0.049 A 
ATOM     47  C   UNL A   1      42.973  32.337  30.114  1.00  0.00     0.074 A 
ATOM     48  C   UNL A   1      38.882  27.827  32.395  1.00  0.00     0.029 A 
ATOM     49  N   UNL A   1      40.766  28.190  31.321  1.00  0.00    -0.354 N 
ATOM     50  N   UNL A   1      42.943  31.985  31.367  1.00  0.00    -0.248 NA
ATOM     51  C   UNL A   1      42.935  31.244  29.155  1.00  0.00     0.031 C 
ATOM     52  C   UNL A   1      39.702  28.725  33.142  1.00  0.00     0.029 A 
ATOM     53  C   UNL A   1      40.781  29.102  32.342  1.00  0.00     0.049 A 
ATOM     54  H   UNL A   1      41.548  27.884  30.804  1.00  0.00     0.167 HD
ATOM     55  C   UNL A   1      42.429  30.696  31.358  1.00  0.00     0.074 A 
ATOM     56  C   UNL A   1      42.534  30.257  29.965  1.00  0.00     0.031 C 
ATOM     57  C   UNL A   1      41.692  30.224  32.408  1.00  0.00     0.031 A 
BRANCH  44  58
ATOM     58  C   UNL A   1      39.650  26.902  28.727  1.00  0.00    -0.014 A 
ATOM     59  C   UNL A   1      40.480  27.552  27.795  1.00  0.00     0.009 A 
ATOM     60  C   UNL A   1      39.282  25.578  28.423  1.00  0.00     0.009 A 
ATOM     61  C   UNL A   1      40.826  26.948  26.580  1.00  0.00     0.001 A 
ATOM     62  C   UNL A   1      39.662  24.955  27.231  1.00  0.00     0.001 A 
ATOM     63  C   UNL A   1      40.405  25.655  26.292  1.00  0.00     0.000 A 
ENDBRANCH  44  58
BRANCH  45  64
ATOM     64  C   UNL A   1      43.452  34.505  28.776  1.00  0.00    -0.014 A 
ATOM     65  C   UNL A   1      43.368  34.433  27.375  1.00  0.00     0.009 A 
ATOM     66  C   UNL A   1      44.183  35.574  29.329  1.00  0.00     0.009 A 
ATOM     67  C   UNL A   1      43.957  35.413  26.564  1.00  0.00     0.001 A 
ATOM     68  C   UNL A   1      44.770  36.552  28.519  1.00  0.00     0.001 A 
ATOM     69  C   UNL A   1      44.646  36.481  27.136  1.00  0.00     0.000 A 
ENDBRANCH  45  64
BRANCH  57  70
ATOM     70  C   UNL A   1      41.628  31.064  33.662  1.00  0.00    -0.014 A 
ATOM     71  C   UNL A   1      40.688  32.092  33.857  1.00  0.00     0.009 A 
ATOM     72  C   UNL A   1      42.438  30.694  34.745  1.00  0.00     0.009 A 
ATOM     73  C   UNL A   1      40.582  32.746  35.091  1.00  0.00     0.001 A 
ATOM     74  C   UNL A   1      42.321  31.333  35.981  1.00  0.00     0.001 A 
ATOM     75  C   UNL A   1      41.397  32.362  36.153  1.00  0.00     0.000 A 
ENDBRANCH  57  70
ENDBRANCH  31  32
ENDBRANCH  23  26
ENDBRANCH  21  22
ENDBRANCH   1  21
TORSDOF 11
ENDMDL
MODEL 3
REMARK VINA RESULT:     -12.4      4.322      9.223
REMARK SMILES CC1=C2C(=O)CC(C)(C)CC2=N[C@@H]1C(=O)NCCCCNC(=O)c1ccc(-c2c3nc(c(-c4ccccc4)c4ccc([nH]4)c(-c4ccccc4)c4nc(c(-c5ccccc5)c5ccc2[nH]5)C=C4)C=C3)cc1
REMARK SMILES IDX 19 1 18 2 17 3 16 4 14 5 15 6 13 8 1 9 2 10 3 11 4 12 11 13
REMARK SMILES IDX 12 14 5 15 6 16 10 17 7 18 8 19 9 20 20 21 21 22 22 23 23 25
REMARK SMILES IDX 24 26 25 27 71 28 26 29 70 30 27 31 28 32 29 33 64 34 30 35
REMARK SMILES IDX 69 36 63 37 65 38 31 39 68 40 62 41 61 42 32 44 54 45 39 46
REMARK SMILES IDX 53 47 40 48 43 49 52 50 66 51 41 52 42 53 51 55 67 56 44 57
REMARK SMILES IDX 33 58 34 59 38 60 35 61 37 62 36 63 55 64 56 65 60 66 57 67
REMARK SMILES IDX 59 68 58 69 45 70 46 71 50 72 47 73 49 74 48 75
REMARK H PARENT 16 7 21 24 65 43 43 54
REMARK Flexibility Score: inf
ROOT
ATOM      1  C   UNL A   1      31.372  31.956  26.399  1.00  0.00     0.023 C 
ENDROOT
BRANCH   1   2
ATOM      2  C   UNL A   1      31.648  30.525  25.918  1.00  0.00     0.023 C 
BRANCH   2   3
ATOM      3  C   UNL A   1      30.868  30.071  24.681  1.00  0.00     0.116 C 
BRANCH   3   4
ATOM      4  N   UNL A   1      31.697  29.290  23.771  1.00  0.00    -0.354 N 
ATOM      5  C   UNL A   1      31.679  27.925  23.571  1.00  0.00     0.249 C 
ATOM      6  O   UNL A   1      32.449  27.434  22.744  1.00  0.00    -0.272 OA
ATOM      7  H   UNL A   1      32.348  29.798  23.235  1.00  0.00     0.163 HD
BRANCH   5   8
ATOM      8  C   UNL A   1      30.622  27.105  24.359  1.00  0.00     0.221 C 
ATOM      9  C   UNL A   1      32.031  26.731  26.566  1.00  0.00     0.043 C 
ATOM     10  C   UNL A   1      31.052  26.273  25.544  1.00  0.00    -0.027 C 
ATOM     11  C   UNL A   1      30.557  25.037  25.435  1.00  0.00     0.040 C 
ATOM     12  C   UNL A   1      30.618  23.798  26.225  1.00  0.00     0.165 C 
ATOM     13  C   UNL A   1      30.458  24.990  23.988  1.00  0.00     0.048 C 
ATOM     14  N   UNL A   1      30.179  26.085  23.351  1.00  0.00    -0.271 NA
ATOM     15  O   UNL A   1      30.111  23.740  27.342  1.00  0.00    -0.294 OA
ATOM     16  C   UNL A   1      31.215  22.579  25.533  1.00  0.00     0.088 C 
ATOM     17  C   UNL A   1      30.918  23.745  23.295  1.00  0.00     0.063 C 
ATOM     18  C   UNL A   1      31.910  22.943  24.197  1.00  0.00    -0.023 C 
ATOM     19  C   UNL A   1      33.229  23.697  24.524  1.00  0.00     0.012 C 
ATOM     20  C   UNL A   1      32.310  21.678  23.421  1.00  0.00     0.012 C 
ENDBRANCH   5   8
ENDBRANCH   3   4
ENDBRANCH   2   3
ENDBRANCH   1   2
BRANCH   1  21
ATOM     21  C   UNL A   1      32.425  32.508  27.345  1.00  0.00     0.116 C 
BRANCH  21  22
ATOM     22  N   UNL A   1      32.293  33.946  27.605  1.00  0.00    -0.352 N 
ATOM     23  C   UNL A   1      32.985  34.720  28.532  1.00  0.00     0.251 C 
ATOM     24  H   UNL A   1      31.630  34.423  27.057  1.00  0.00     0.163 HD
ATOM     25  O   UNL A   1      32.565  35.797  28.907  1.00  0.00    -0.269 OA
BRANCH  23  26
ATOM     26  C   UNL A   1      34.273  34.201  29.034  1.00  0.00     0.039 A 
ATOM     27  C   UNL A   1      34.460  33.718  30.334  1.00  0.00     0.014 A 
ATOM     28  C   UNL A   1      35.310  34.170  28.115  1.00  0.00     0.014 A 
ATOM     29  C   UNL A   1      35.693  33.152  30.663  1.00  0.00     0.010 A 
ATOM     30  C   UNL A   1      36.380  33.366  28.347  1.00  0.00     0.010 A 
ATOM     31  C   UNL A   1      36.647  32.983  29.651  1.00  0.00    -0.014 A 
BRANCH  31  32
ATOM     32  C   UNL A   1      37.945  32.360  29.857  1.00  0.00     0.031 A 
ATOM     33  C   UNL A   1      38.002  30.924  29.486  1.00  0.00     0.074 A 
ATOM     34  C   UNL A   1      39.052  33.121  30.042  1.00  0.00     0.049 A 
ATOM     35  N   UNL A   1      38.249  29.917  30.256  1.00  0.00    -0.248 NA
ATOM     36  C   UNL A   1      37.605  30.546  28.118  1.00  0.00     0.031 C 
ATOM     37  C   UNL A   1      39.152  34.592  30.061  1.00  0.00     0.029 A 
ATOM     38  N   UNL A   1      40.355  32.749  30.085  1.00  0.00    -0.354 N 
ATOM     39  C   UNL A   1      38.251  28.799  29.427  1.00  0.00     0.074 A 
ATOM     40  C   UNL A   1      37.646  29.214  28.189  1.00  0.00     0.031 C 
ATOM     41  C   UNL A   1      40.431  34.967  29.845  1.00  0.00     0.029 A 
ATOM     42  C   UNL A   1      41.263  33.779  29.851  1.00  0.00     0.049 A 
ATOM     43  H   UNL A   1      40.638  31.824  30.268  1.00  0.00     0.167 HD
ATOM     44  C   UNL A   1      39.013  27.707  29.719  1.00  0.00     0.031 A 
ATOM     45  C   UNL A   1      42.598  33.658  29.638  1.00  0.00     0.031 A 
ATOM     46  C   UNL A   1      39.481  27.744  31.084  1.00  0.00     0.049 A 
ATOM     47  C   UNL A   1      42.993  32.315  30.121  1.00  0.00     0.074 A 
ATOM     48  C   UNL A   1      38.875  27.791  32.323  1.00  0.00     0.029 A 
ATOM     49  N   UNL A   1      40.777  28.160  31.283  1.00  0.00    -0.354 N 
ATOM     50  N   UNL A   1      42.941  31.961  31.373  1.00  0.00    -0.248 NA
ATOM     51  C   UNL A   1      42.975  31.223  29.160  1.00  0.00     0.031 C 
ATOM     52  C   UNL A   1      39.678  28.690  33.086  1.00  0.00     0.029 A 
ATOM     53  C   UNL A   1      40.771  29.071  32.305  1.00  0.00     0.049 A 
ATOM     54  H   UNL A   1      41.568  27.857  30.780  1.00  0.00     0.167 HD
ATOM     55  C   UNL A   1      42.431  30.671  31.353  1.00  0.00     0.074 A 
ATOM     56  C   UNL A   1      42.563  30.234  29.961  1.00  0.00     0.031 C 
ATOM     57  C   UNL A   1      41.677  30.195  32.389  1.00  0.00     0.031 A 
BRANCH  44  58
ATOM     58  C   UNL A   1      39.711  26.872  28.669  1.00  0.00    -0.014 A 
ATOM     59  C   UNL A   1      40.590  27.518  27.780  1.00  0.00     0.009 A 
ATOM     60  C   UNL A   1      39.326  25.562  28.327  1.00  0.00     0.009 A 
ATOM     61  C   UNL A   1      40.969  26.928  26.569  1.00  0.00     0.001 A 
ATOM     62  C   UNL A   1      39.737  24.951  27.139  1.00  0.00     0.001 A 
ATOM     63  C   UNL A   1      40.531  25.650  26.242  1.00  0.00     0.000 A 
ENDBRANCH  44  58
BRANCH  45  64
ATOM     64  C   UNL A   1      43.489  34.486  28.794  1.00  0.00    -0.014 A 
ATOM     65  C   UNL A   1      43.222  34.675  27.427  1.00  0.00     0.009 A 
ATOM     66  C   UNL A   1      44.451  35.324  29.390  1.00  0.00     0.009 A 
ATOM     67  C   UNL A   1      43.863  35.687  26.698  1.00  0.00     0.001 A 
ATOM     68  C   UNL A   1      45.090  36.335  28.663  1.00  0.00     0.001 A 
ATOM     69  C   UNL A   1      44.786  36.527  27.320  1.00  0.00     0.000 A 
ENDBRANCH  45  64
BRANCH  57  70
ATOM     70  C   UNL A   1      41.589  31.034  33.643  1.00  0.00    -0.014 A 
ATOM     71  C   UNL A   1      42.484  30.910  34.721  1.00  0.00     0.009 A 
ATOM     72  C   UNL A   1      40.672  32.094  33.663  1.00  0.00     0.009 A 
ATOM     73  C   UNL A   1      42.442  31.805  35.797  1.00  0.00     0.001 A 
ATOM     74  C   UNL A   1      40.642  32.998  34.726  1.00  0.00     0.001 A 
ATOM     75  C   UNL A   1      41.523  32.851  35.796  1.00  0.00     0.000 A 
ENDBRANCH  57  70
ENDBRANCH  31  32
ENDBRANCH  23  26
ENDBRANCH  21  22
ENDBRANCH   1  21
TORSDOF 11
ENDMDL
