MODEL 1
REMARK VINA RESULT:     -11.0      0.000      0.000
REMARK SMILES O=C(NCCCCNC(=O)c1cc(Br)ccc1NC(=O)c1ccc(Br)s1)c1ccc(-c2c3nc(c(-c4ccccc4)c4ccc([nH]4)c(-c4ccccc4)c4nc(c(-c5ccccc5)c5ccc2[nH]5)C=C4)C=C3)cc1
REMARK SMILES IDX 5 1 4 2 3 3 1 4 2 5 27 7 28 8 74 9 29 10 73 11 30 12 31 13
REMARK SMILES IDX 32 14 67 15 33 16 72 17 66 18 68 19 34 20 71 21 65 22 64 23
REMARK SMILES IDX 35 25 57 26 42 27 56 28 43 29 46 30 55 31 69 32 44 33 45 34
REMARK SMILES IDX 54 36 70 37 47 38 36 39 37 40 41 41 38 42 40 43 39 44 58 45
REMARK SMILES IDX 59 46 63 47 60 48 62 49 61 50 48 51 49 52 53 53 50 54 52 55
REMARK SMILES IDX 51 56 6 57 7 58 8 59 9 60 10 62 11 63 12 64 17 65 13 66
REMARK SMILES IDX 16 67 14 68 15 69 18 70 19 71 20 73 21 74 22 75 26 76 23 77
REMARK SMILES IDX 24 78 25 79
REMARK H PARENT 3 6 68 24 46 35 8 61 18 72
REMARK Flexibility Score: inf
ROOT
ATOM      1  C   UNL A   1      37.807  20.474  24.806  1.00  0.00     0.023 C 
ENDROOT
BRANCH   1   2
ATOM      2  C   UNL A   1      38.776  20.424  25.982  1.00  0.00     0.116 C 
BRANCH   2   3
ATOM      3  N   UNL A   1      39.870  19.483  25.792  1.00  0.00    -0.352 N 
ATOM      4  O   UNL A   1      42.006  18.766  25.703  1.00  0.00    -0.269 OA
ATOM      5  C   UNL A   1      41.216  19.650  26.017  1.00  0.00     0.251 C 
ATOM      6  H   UNL A   1      39.608  18.597  25.454  1.00  0.00     0.163 HD
BRANCH   5   7
ATOM      7  C   UNL A   1      41.719  20.914  26.598  1.00  0.00     0.039 A 
ATOM      8  C   UNL A   1      41.770  21.099  27.981  1.00  0.00     0.014 A 
ATOM      9  C   UNL A   1      42.127  21.937  25.737  1.00  0.00     0.014 A 
ATOM     10  C   UNL A   1      42.072  22.355  28.497  1.00  0.00     0.010 A 
ATOM     11  C   UNL A   1      42.504  23.176  26.261  1.00  0.00     0.010 A 
ATOM     12  C   UNL A   1      42.431  23.411  27.643  1.00  0.00    -0.014 A 
BRANCH  12  13
ATOM     13  C   UNL A   1      42.728  24.745  28.219  1.00  0.00     0.031 A 
ATOM     14  C   UNL A   1      44.142  25.160  28.523  1.00  0.00     0.074 A 
ATOM     15  C   UNL A   1      41.716  25.611  28.421  1.00  0.00     0.049 A 
ATOM     16  N   UNL A   1      44.584  26.313  28.960  1.00  0.00    -0.248 NA
ATOM     17  C   UNL A   1      45.194  24.153  28.316  1.00  0.00     0.031 C 
ATOM     18  C   UNL A   1      40.302  25.330  28.167  1.00  0.00     0.029 A 
ATOM     19  N   UNL A   1      41.727  26.912  28.851  1.00  0.00    -0.354 N 
ATOM     20  C   UNL A   1      45.957  26.163  29.107  1.00  0.00     0.074 A 
ATOM     21  C   UNL A   1      46.276  24.804  28.727  1.00  0.00     0.031 C 
ATOM     22  C   UNL A   1      39.588  26.444  28.389  1.00  0.00     0.029 A 
ATOM     23  C   UNL A   1      40.487  27.501  28.841  1.00  0.00     0.049 A 
ATOM     24  H   UNL A   1      42.544  27.379  29.140  1.00  0.00     0.167 HD
ATOM     25  C   UNL A   1      46.872  27.074  29.517  1.00  0.00     0.031 A 
ATOM     26  C   UNL A   1      40.112  28.754  29.154  1.00  0.00     0.031 A 
ATOM     27  C   UNL A   1      46.566  28.433  29.876  1.00  0.00     0.049 A 
ATOM     28  C   UNL A   1      41.145  29.744  29.601  1.00  0.00     0.074 A 
ATOM     29  C   UNL A   1      47.435  29.439  30.266  1.00  0.00     0.029 A 
ATOM     30  N   UNL A   1      45.293  28.978  29.888  1.00  0.00    -0.354 N 
ATOM     31  N   UNL A   1      42.441  29.591  29.707  1.00  0.00    -0.248 NA
ATOM     32  C   UNL A   1      40.659  31.081  29.970  1.00  0.00     0.031 C 
ATOM     33  C   UNL A   1      46.681  30.585  30.545  1.00  0.00     0.029 A 
ATOM     34  C   UNL A   1      45.349  30.300  30.295  1.00  0.00     0.049 A 
ATOM     35  H   UNL A   1      44.470  28.496  29.643  1.00  0.00     0.167 HD
ATOM     36  C   UNL A   1      42.930  30.814  30.144  1.00  0.00     0.074 A 
ATOM     37  C   UNL A   1      41.792  31.703  30.267  1.00  0.00     0.031 C 
ATOM     38  C   UNL A   1      44.208  31.169  30.418  1.00  0.00     0.031 A 
BRANCH  25  39
ATOM     39  C   UNL A   1      48.298  26.617  29.624  1.00  0.00    -0.014 A 
ATOM     40  C   UNL A   1      48.781  26.003  30.790  1.00  0.00     0.009 A 
ATOM     41  C   UNL A   1      49.161  26.776  28.528  1.00  0.00     0.009 A 
ATOM     42  C   UNL A   1      50.111  25.582  30.865  1.00  0.00     0.001 A 
ATOM     43  C   UNL A   1      50.485  26.336  28.601  1.00  0.00     0.001 A 
ATOM     44  C   UNL A   1      50.960  25.746  29.771  1.00  0.00     0.000 A 
ENDBRANCH  25  39
BRANCH  26  45
ATOM     45  C   UNL A   1      38.687  29.142  29.032  1.00  0.00    -0.014 A 
ATOM     46  C   UNL A   1      37.827  29.033  30.135  1.00  0.00     0.009 A 
ATOM     47  C   UNL A   1      38.186  29.648  27.822  1.00  0.00     0.009 A 
ATOM     48  C   UNL A   1      36.489  29.414  30.026  1.00  0.00     0.001 A 
ATOM     49  C   UNL A   1      36.853  30.049  27.723  1.00  0.00     0.001 A 
ATOM     50  C   UNL A   1      36.005  29.926  28.823  1.00  0.00     0.000 A 
ENDBRANCH  26  45
BRANCH  38  51
ATOM     51  C   UNL A   1      44.439  32.583  30.858  1.00  0.00    -0.014 A 
ATOM     52  C   UNL A   1      44.427  32.926  32.219  1.00  0.00     0.009 A 
ATOM     53  C   UNL A   1      44.691  33.578  29.903  1.00  0.00     0.009 A 
ATOM     54  C   UNL A   1      44.633  34.250  32.612  1.00  0.00     0.001 A 
ATOM     55  C   UNL A   1      44.916  34.898  30.301  1.00  0.00     0.001 A 
ATOM     56  C   UNL A   1      44.879  35.233  31.653  1.00  0.00     0.000 A 
ENDBRANCH  38  51
ENDBRANCH  12  13
ENDBRANCH   5   7
ENDBRANCH   2   3
ENDBRANCH   1   2
BRANCH   1  57
ATOM     57  C   UNL A   1      37.399  21.871  24.345  1.00  0.00     0.023 C 
BRANCH  57  58
ATOM     58  C   UNL A   1      35.972  22.282  24.691  1.00  0.00     0.116 C 
BRANCH  58  59
ATOM     59  N   UNL A   1      35.669  22.152  26.110  1.00  0.00    -0.352 N 
ATOM     60  C   UNL A   1      34.625  21.477  26.700  1.00  0.00     0.253 C 
ATOM     61  H   UNL A   1      36.289  22.605  26.725  1.00  0.00     0.163 HD
ATOM     62  O   UNL A   1      34.406  21.573  27.901  1.00  0.00    -0.269 OA
BRANCH  60  63
ATOM     63  C   UNL A   1      33.716  20.691  25.843  1.00  0.00     0.064 A 
ATOM     64  C   UNL A   1      34.222  19.521  25.254  1.00  0.00     0.031 A 
ATOM     65  C   UNL A   1      32.423  21.168  25.551  1.00  0.00     0.054 A 
ATOM     66  C   UNL A   1      33.489  18.891  24.259  1.00  0.00     0.018 A 
ATOM     67  C   UNL A   1      31.751  20.557  24.490  1.00  0.00     0.028 A 
ATOM     68  Br  UNL A   1      34.185  17.360  23.403  1.00  0.00    -0.051 Br
ATOM     69  C   UNL A   1      32.273  19.425  23.850  1.00  0.00     0.018 A 
BRANCH  65  70
ATOM     70  N   UNL A   1      31.898  22.246  26.303  1.00  0.00    -0.321 N 
ATOM     71  C   UNL A   1      31.998  23.619  26.198  1.00  0.00     0.265 C 
ATOM     72  H   UNL A   1      31.344  21.954  27.063  1.00  0.00     0.170 HD
ATOM     73  O   UNL A   1      31.570  24.290  27.139  1.00  0.00    -0.268 OA
BRANCH  71  74
ATOM     74  C   UNL A   1      32.533  24.225  24.998  1.00  0.00     0.093 A 
ATOM     75  C   UNL A   1      33.748  24.863  24.801  1.00  0.00     0.027 A 
ATOM     76  S   UNL A   1      31.612  24.168  23.554  1.00  0.00    -0.123 S 
ATOM     77  C   UNL A   1      33.862  25.405  23.485  1.00  0.00     0.028 A 
ATOM     78  C   UNL A   1      32.757  25.105  22.730  1.00  0.00     0.071 A 
ATOM     79  Br  UNL A   1      32.527  25.674  20.961  1.00  0.00    -0.039 Br
ENDBRANCH  71  74
ENDBRANCH  65  70
ENDBRANCH  60  63
ENDBRANCH  58  59
ENDBRANCH  57  58
ENDBRANCH   1  57
TORSDOF 13
ENDMDL
MODEL 2
REMARK VINA RESULT:     -11.0      4.634      9.544
REMARK SMILES O=C(NCCCCNC(=O)c1cc(Br)ccc1NC(=O)c1ccc(Br)s1)c1ccc(-c2c3nc(c(-c4ccccc4)c4ccc([nH]4)c(-c4ccccc4)c4nc(c(-c5ccccc5)c5ccc2[nH]5)C=C4)C=C3)cc1
REMARK SMILES IDX 5 1 4 2 3 3 1 4 2 5 27 7 28 8 74 9 29 10 73 11 30 12 31 13
REMARK SMILES IDX 32 14 67 15 33 16 72 17 66 18 68 19 34 20 71 21 65 22 64 23
REMARK SMILES IDX 35 25 57 26 42 27 56 28 43 29 46 30 55 31 69 32 44 33 45 34
REMARK SMILES IDX 54 36 70 37 47 38 36 39 37 40 41 41 38 42 40 43 39 44 58 45
REMARK SMILES IDX 59 46 63 47 60 48 62 49 61 50 48 51 49 52 53 53 50 54 52 55
REMARK SMILES IDX 51 56 6 57 7 58 8 59 9 60 10 62 11 63 12 64 17 65 13 66
REMARK SMILES IDX 16 67 14 68 15 69 18 70 19 71 20 73 21 74 22 75 26 76 23 77
REMARK SMILES IDX 24 78 25 79
REMARK H PARENT 3 6 68 24 46 35 8 61 18 72
REMARK Flexibility Score: inf
ROOT
ATOM      1  C   UNL A   1      31.458  32.001  26.923  1.00  0.00     0.023 C 
ENDROOT
BRANCH   1   2
ATOM      2  C   UNL A   1      32.679  32.852  27.253  1.00  0.00     0.116 C 
BRANCH   2   3
ATOM      3  N   UNL A   1      32.345  34.205  27.675  1.00  0.00    -0.352 N 
ATOM      4  O   UNL A   1      32.471  36.093  28.902  1.00  0.00    -0.269 OA
ATOM      5  C   UNL A   1      32.959  35.006  28.608  1.00  0.00     0.251 C 
ATOM      6  H   UNL A   1      31.567  34.605  27.225  1.00  0.00     0.163 HD
BRANCH   5   7
ATOM      7  C   UNL A   1      34.186  34.541  29.291  1.00  0.00     0.039 A 
ATOM      8  C   UNL A   1      35.442  34.705  28.705  1.00  0.00     0.014 A 
ATOM      9  C   UNL A   1      34.068  33.911  30.535  1.00  0.00     0.014 A 
ATOM     10  C   UNL A   1      36.555  34.099  29.279  1.00  0.00     0.010 A 
ATOM     11  C   UNL A   1      35.201  33.369  31.148  1.00  0.00     0.010 A 
ATOM     12  C   UNL A   1      36.445  33.415  30.501  1.00  0.00    -0.014 A 
BRANCH  12  13
ATOM     13  C   UNL A   1      37.644  32.761  31.080  1.00  0.00     0.031 A 
ATOM     14  C   UNL A   1      38.189  33.186  32.416  1.00  0.00     0.074 A 
ATOM     15  C   UNL A   1      38.215  31.737  30.417  1.00  0.00     0.049 A 
ATOM     16  N   UNL A   1      39.182  32.673  33.099  1.00  0.00    -0.248 NA
ATOM     17  C   UNL A   1      37.542  34.334  33.069  1.00  0.00     0.031 C 
ATOM     18  C   UNL A   1      37.783  31.230  29.114  1.00  0.00     0.029 A 
ATOM     19  N   UNL A   1      39.259  30.919  30.765  1.00  0.00    -0.354 N 
ATOM     20  C   UNL A   1      39.297  33.451  34.245  1.00  0.00     0.074 A 
ATOM     21  C   UNL A   1      38.283  34.479  34.160  1.00  0.00     0.031 C 
ATOM     22  C   UNL A   1      38.515  30.150  28.800  1.00  0.00     0.029 A 
ATOM     23  C   UNL A   1      39.494  29.918  29.857  1.00  0.00     0.049 A 
ATOM     24  H   UNL A   1      39.788  31.038  31.587  1.00  0.00     0.167 HD
ATOM     25  C   UNL A   1      40.165  33.320  35.277  1.00  0.00     0.031 A 
ATOM     26  C   UNL A   1      40.393  28.917  29.872  1.00  0.00     0.031 A 
ATOM     27  C   UNL A   1      41.162  32.288  35.379  1.00  0.00     0.049 A 
ATOM     28  C   UNL A   1      41.339  28.792  31.027  1.00  0.00     0.074 A 
ATOM     29  C   UNL A   1      42.060  32.053  36.408  1.00  0.00     0.029 A 
ATOM     30  N   UNL A   1      41.392  31.316  34.419  1.00  0.00    -0.354 N 
ATOM     31  N   UNL A   1      41.414  29.521  32.113  1.00  0.00    -0.248 NA
ATOM     32  C   UNL A   1      42.324  27.704  30.957  1.00  0.00     0.031 C 
ATOM     33  C   UNL A   1      42.856  30.958  36.054  1.00  0.00     0.029 A 
ATOM     34  C   UNL A   1      42.428  30.490  34.821  1.00  0.00     0.049 A 
ATOM     35  H   UNL A   1      40.892  31.226  33.576  1.00  0.00     0.167 HD
ATOM     36  C   UNL A   1      42.446  28.974  32.862  1.00  0.00     0.074 A 
ATOM     37  C   UNL A   1      42.956  27.842  32.114  1.00  0.00     0.031 C 
ATOM     38  C   UNL A   1      42.927  29.374  34.064  1.00  0.00     0.031 A 
BRANCH  25  39
ATOM     39  C   UNL A   1      40.090  34.342  36.374  1.00  0.00    -0.014 A 
ATOM     40  C   UNL A   1      40.804  35.548  36.296  1.00  0.00     0.009 A 
ATOM     41  C   UNL A   1      39.265  34.108  37.485  1.00  0.00     0.009 A 
ATOM     42  C   UNL A   1      40.716  36.487  37.326  1.00  0.00     0.001 A 
ATOM     43  C   UNL A   1      39.164  35.058  38.504  1.00  0.00     0.001 A 
ATOM     44  C   UNL A   1      39.895  36.242  38.427  1.00  0.00     0.000 A 
ENDBRANCH  25  39
BRANCH  26  45
ATOM     45  C   UNL A   1      40.419  27.942  28.756  1.00  0.00    -0.014 A 
ATOM     46  C   UNL A   1      39.725  26.727  28.862  1.00  0.00     0.009 A 
ATOM     47  C   UNL A   1      41.114  28.232  27.572  1.00  0.00     0.009 A 
ATOM     48  C   UNL A   1      39.735  25.816  27.805  1.00  0.00     0.001 A 
ATOM     49  C   UNL A   1      41.103  27.327  26.508  1.00  0.00     0.001 A 
ATOM     50  C   UNL A   1      40.419  26.118  26.628  1.00  0.00     0.000 A 
ENDBRANCH  26  45
BRANCH  38  51
ATOM     51  C   UNL A   1      44.048  28.567  34.647  1.00  0.00    -0.014 A 
ATOM     52  C   UNL A   1      43.790  27.476  35.491  1.00  0.00     0.009 A 
ATOM     53  C   UNL A   1      45.376  28.891  34.333  1.00  0.00     0.009 A 
ATOM     54  C   UNL A   1      44.846  26.742  36.035  1.00  0.00     0.001 A 
ATOM     55  C   UNL A   1      46.429  28.143  34.863  1.00  0.00     0.001 A 
ATOM     56  C   UNL A   1      46.163  27.075  35.719  1.00  0.00     0.000 A 
ENDBRANCH  38  51
ENDBRANCH  12  13
ENDBRANCH   5   7
ENDBRANCH   2   3
ENDBRANCH   1   2
BRANCH   1  57
ATOM     57  C   UNL A   1      31.752  30.639  26.299  1.00  0.00     0.023 C 
BRANCH  57  58
ATOM     58  C   UNL A   1      31.746  29.461  27.267  1.00  0.00     0.116 C 
BRANCH  58  59
ATOM     59  N   UNL A   1      32.877  28.562  27.079  1.00  0.00    -0.352 N 
ATOM     60  C   UNL A   1      32.967  27.468  26.250  1.00  0.00     0.253 C 
ATOM     61  H   UNL A   1      33.678  28.763  27.614  1.00  0.00     0.163 HD
ATOM     62  O   UNL A   1      33.930  26.712  26.300  1.00  0.00    -0.269 OA
BRANCH  60  63
ATOM     63  C   UNL A   1      31.840  27.171  25.344  1.00  0.00     0.064 A 
ATOM     64  C   UNL A   1      31.622  28.041  24.264  1.00  0.00     0.031 A 
ATOM     65  C   UNL A   1      30.958  26.110  25.630  1.00  0.00     0.054 A 
ATOM     66  C   UNL A   1      30.444  27.941  23.540  1.00  0.00     0.018 A 
ATOM     67  C   UNL A   1      29.747  26.092  24.935  1.00  0.00     0.028 A 
ATOM     68  Br  UNL A   1      30.099  29.149  22.132  1.00  0.00    -0.051 Br
ATOM     69  C   UNL A   1      29.490  26.995  23.895  1.00  0.00     0.018 A 
BRANCH  65  70
ATOM     70  N   UNL A   1      31.317  25.160  26.616  1.00  0.00    -0.321 N 
ATOM     71  C   UNL A   1      32.055  23.993  26.592  1.00  0.00     0.265 C 
ATOM     72  H   UNL A   1      30.966  25.378  27.510  1.00  0.00     0.170 HD
ATOM     73  O   UNL A   1      32.024  23.284  27.599  1.00  0.00    -0.268 OA
BRANCH  71  74
ATOM     74  C   UNL A   1      32.870  23.665  25.442  1.00  0.00     0.093 A 
ATOM     75  C   UNL A   1      32.482  23.326  24.156  1.00  0.00     0.027 A 
ATOM     76  S   UNL A   1      34.577  23.705  25.593  1.00  0.00    -0.123 S 
ATOM     77  C   UNL A   1      33.597  22.986  23.331  1.00  0.00     0.028 A 
ATOM     78  C   UNL A   1      34.778  23.139  24.010  1.00  0.00     0.071 A 
ATOM     79  Br  UNL A   1      36.455  22.756  23.269  1.00  0.00    -0.039 Br
ENDBRANCH  71  74
ENDBRANCH  65  70
ENDBRANCH  60  63
ENDBRANCH  58  59
ENDBRANCH  57  58
ENDBRANCH   1  57
TORSDOF 13
ENDMDL
MODEL 3
REMARK VINA RESULT:     -10.9      1.497      1.988
REMARK SMILES O=C(NCCCCNC(=O)c1cc(Br)ccc1NC(=O)c1ccc(Br)s1)c1ccc(-c2c3nc(c(-c4ccccc4)c4ccc([nH]4)c(-c4ccccc4)c4nc(c(-c5ccccc5)c5ccc2[nH]5)C=C4)C=C3)cc1
REMARK SMILES IDX 5 1 4 2 3 3 1 4 2 5 27 7 28 8 74 9 29 10 73 11 30 12 31 13
REMARK SMILES IDX 32 14 67 15 33 16 72 17 66 18 68 19 34 20 71 21 65 22 64 23
REMARK SMILES IDX 35 25 57 26 42 27 56 28 43 29 46 30 55 31 69 32 44 33 45 34
REMARK SMILES IDX 54 36 70 37 47 38 36 39 37 40 41 41 38 42 40 43 39 44 58 45
REMARK SMILES IDX 59 46 63 47 60 48 62 49 61 50 48 51 49 52 53 53 50 54 52 55
REMARK SMILES IDX 51 56 6 57 7 58 8 59 9 60 10 62 11 63 12 64 17 65 13 66
REMARK SMILES IDX 16 67 14 68 15 69 18 70 19 71 20 73 21 74 22 75 26 76 23 77
REMARK SMILES IDX 24 78 25 79
REMARK H PARENT 3 6 68 24 46 35 8 61 18 72
REMARK Flexibility Score: inf
ROOT
ATOM      1  C   UNL A   1      37.653  20.260  24.771  1.00  0.00     0.023 C 
ENDROOT
BRANCH   1   2
ATOM      2  C   UNL A   1      38.782  20.514  25.763  1.00  0.00     0.116 C 
BRANCH   2   3
ATOM      3  N   UNL A   1      39.842  19.519  25.703  1.00  0.00    -0.352 N 
ATOM      4  O   UNL A   1      41.942  18.705  25.825  1.00  0.00    -0.269 OA
ATOM      5  C   UNL A   1      41.171  19.635  26.037  1.00  0.00     0.251 C 
ATOM      6  H   UNL A   1      39.568  18.632  25.376  1.00  0.00     0.163 HD
BRANCH   5   7
ATOM      7  C   UNL A   1      41.682  20.897  26.614  1.00  0.00     0.039 A 
ATOM      8  C   UNL A   1      41.714  21.096  27.995  1.00  0.00     0.014 A 
ATOM      9  C   UNL A   1      42.118  21.906  25.749  1.00  0.00     0.014 A 
ATOM     10  C   UNL A   1      42.025  22.353  28.503  1.00  0.00     0.010 A 
ATOM     11  C   UNL A   1      42.504  23.145  26.267  1.00  0.00     0.010 A 
ATOM     12  C   UNL A   1      42.413  23.395  27.645  1.00  0.00    -0.014 A 
BRANCH  12  13
ATOM     13  C   UNL A   1      42.719  24.730  28.213  1.00  0.00     0.031 A 
ATOM     14  C   UNL A   1      44.137  25.140  28.507  1.00  0.00     0.074 A 
ATOM     15  C   UNL A   1      41.713  25.603  28.414  1.00  0.00     0.049 A 
ATOM     16  N   UNL A   1      44.586  26.293  28.936  1.00  0.00    -0.248 NA
ATOM     17  C   UNL A   1      45.183  24.127  28.301  1.00  0.00     0.031 C 
ATOM     18  C   UNL A   1      40.296  25.327  28.169  1.00  0.00     0.029 A 
ATOM     19  N   UNL A   1      41.733  26.906  28.838  1.00  0.00    -0.354 N 
ATOM     20  C   UNL A   1      45.960  26.137  29.077  1.00  0.00     0.074 A 
ATOM     21  C   UNL A   1      46.269  24.774  28.702  1.00  0.00     0.031 C 
ATOM     22  C   UNL A   1      39.589  26.447  28.388  1.00  0.00     0.029 A 
ATOM     23  C   UNL A   1      40.496  27.501  28.831  1.00  0.00     0.049 A 
ATOM     24  H   UNL A   1      42.553  27.370  29.121  1.00  0.00     0.167 HD
ATOM     25  C   UNL A   1      46.882  27.046  29.478  1.00  0.00     0.031 A 
ATOM     26  C   UNL A   1      40.129  28.758  29.139  1.00  0.00     0.031 A 
ATOM     27  C   UNL A   1      46.584  28.408  29.831  1.00  0.00     0.049 A 
ATOM     28  C   UNL A   1      41.168  29.745  29.576  1.00  0.00     0.074 A 
ATOM     29  C   UNL A   1      47.460  29.412  30.211  1.00  0.00     0.029 A 
ATOM     30  N   UNL A   1      45.314  28.959  29.846  1.00  0.00    -0.354 N 
ATOM     31  N   UNL A   1      42.464  29.585  29.676  1.00  0.00    -0.248 NA
ATOM     32  C   UNL A   1      40.691  31.086  29.940  1.00  0.00     0.031 C 
ATOM     33  C   UNL A   1      46.713  30.563  30.488  1.00  0.00     0.029 A 
ATOM     34  C   UNL A   1      45.378  30.283  30.246  1.00  0.00     0.049 A 
ATOM     35  H   UNL A   1      44.487  28.480  29.608  1.00  0.00     0.167 HD
ATOM     36  C   UNL A   1      42.961  30.809  30.104  1.00  0.00     0.074 A 
ATOM     37  C   UNL A   1      41.828  31.704  30.228  1.00  0.00     0.031 C 
ATOM     38  C   UNL A   1      44.243  31.158  30.370  1.00  0.00     0.031 A 
BRANCH  25  39
ATOM     39  C   UNL A   1      48.306  26.582  29.580  1.00  0.00    -0.014 A 
ATOM     40  C   UNL A   1      49.202  26.739  28.510  1.00  0.00     0.009 A 
ATOM     41  C   UNL A   1      48.765  26.009  30.776  1.00  0.00     0.009 A 
ATOM     42  C   UNL A   1      50.523  26.303  28.629  1.00  0.00     0.001 A 
ATOM     43  C   UNL A   1      50.093  25.593  30.897  1.00  0.00     0.001 A 
ATOM     44  C   UNL A   1      50.968  25.734  29.822  1.00  0.00     0.000 A 
ENDBRANCH  25  39
BRANCH  26  45
ATOM     45  C   UNL A   1      38.704  29.152  29.021  1.00  0.00    -0.014 A 
ATOM     46  C   UNL A   1      38.192  29.595  27.793  1.00  0.00     0.009 A 
ATOM     47  C   UNL A   1      37.846  29.062  30.127  1.00  0.00     0.009 A 
ATOM     48  C   UNL A   1      36.847  29.950  27.676  1.00  0.00     0.001 A 
ATOM     49  C   UNL A   1      36.496  29.397  30.002  1.00  0.00     0.001 A 
ATOM     50  C   UNL A   1      36.000  29.846  28.779  1.00  0.00     0.000 A 
ENDBRANCH  26  45
BRANCH  38  51
ATOM     51  C   UNL A   1      44.483  32.574  30.802  1.00  0.00    -0.014 A 
ATOM     52  C   UNL A   1      44.489  32.922  32.161  1.00  0.00     0.009 A 
ATOM     53  C   UNL A   1      44.725  33.564  29.839  1.00  0.00     0.009 A 
ATOM     54  C   UNL A   1      44.704  34.247  32.546  1.00  0.00     0.001 A 
ATOM     55  C   UNL A   1      44.958  34.885  30.228  1.00  0.00     0.001 A 
ATOM     56  C   UNL A   1      44.940  35.226  31.580  1.00  0.00     0.000 A 
ENDBRANCH  38  51
ENDBRANCH  12  13
ENDBRANCH   5   7
ENDBRANCH   2   3
ENDBRANCH   1   2
BRANCH   1  57
ATOM     57  C   UNL A   1      36.269  20.730  25.211  1.00  0.00     0.023 C 
BRANCH  57  58
ATOM     58  C   UNL A   1      36.208  22.147  25.772  1.00  0.00     0.116 C 
BRANCH  58  59
ATOM     59  N   UNL A   1      35.146  22.327  26.752  1.00  0.00    -0.352 N 
ATOM     60  C   UNL A   1      33.863  22.778  26.546  1.00  0.00     0.253 C 
ATOM     61  H   UNL A   1      35.376  22.097  27.682  1.00  0.00     0.163 HD
ATOM     62  O   UNL A   1      33.117  23.021  27.488  1.00  0.00    -0.269 OA
BRANCH  60  63
ATOM     63  C   UNL A   1      33.419  23.043  25.163  1.00  0.00     0.064 A 
ATOM     64  C   UNL A   1      32.880  21.972  24.434  1.00  0.00     0.031 A 
ATOM     65  C   UNL A   1      33.635  24.305  24.576  1.00  0.00     0.054 A 
ATOM     66  C   UNL A   1      32.679  22.113  23.069  1.00  0.00     0.018 A 
ATOM     67  C   UNL A   1      33.500  24.386  23.188  1.00  0.00     0.028 A 
ATOM     68  Br  UNL A   1      32.026  20.661  22.057  1.00  0.00    -0.051 Br
ATOM     69  C   UNL A   1      33.022  23.303  22.438  1.00  0.00     0.018 A 
BRANCH  65  70
ATOM     70  N   UNL A   1      34.012  25.394  25.398  1.00  0.00    -0.321 N 
ATOM     71  C   UNL A   1      33.507  26.666  25.585  1.00  0.00     0.265 C 
ATOM     72  H   UNL A   1      34.801  25.205  25.955  1.00  0.00     0.170 HD
ATOM     73  O   UNL A   1      34.188  27.452  26.246  1.00  0.00    -0.268 OA
BRANCH  71  74
ATOM     74  C   UNL A   1      32.204  27.021  25.067  1.00  0.00     0.093 A 
ATOM     75  C   UNL A   1      30.972  26.432  25.304  1.00  0.00     0.027 A 
ATOM     76  S   UNL A   1      32.064  28.372  24.021  1.00  0.00    -0.123 S 
ATOM     77  C   UNL A   1      29.933  27.030  24.528  1.00  0.00     0.028 A 
ATOM     78  C   UNL A   1      30.413  28.077  23.784  1.00  0.00     0.071 A 
ATOM     79  Br  UNL A   1      29.354  29.086  22.614  1.00  0.00    -0.039 Br
ENDBRANCH  71  74
ENDBRANCH  65  70
ENDBRANCH  60  63
ENDBRANCH  58  59
ENDBRANCH  57  58
ENDBRANCH   1  57
TORSDOF 13
ENDMDL
