MODEL 1
REMARK VINA RESULT:      -9.0      0.000      0.000
REMARK SMILES CCC[C@@H](C)[C@@](C#N)(CC)C(=O)NCCCCNC(=O)c1ccc(-c2c3nc(c(-c4ccccc4)c4ccc([nH]4)c(-c4ccccc4)c4nc(c(-c5ccccc5)c5ccc2[nH]5)C=C4)C=C3)cc1
REMARK SMILES IDX 15 1 14 2 13 3 11 4 12 5 6 7 4 8 5 9 3 10 2 11 1 12 7 13
REMARK SMILES IDX 8 14 9 15 10 16 16 17 17 18 18 19 19 20 20 22 21 23 22 24
REMARK SMILES IDX 68 25 23 26 67 27 24 28 25 29 26 30 61 31 27 32 66 33 60 34
REMARK SMILES IDX 62 35 28 36 65 37 59 38 58 39 29 41 51 42 36 43 50 44 37 45
REMARK SMILES IDX 40 46 49 47 63 48 38 49 39 50 48 52 64 53 41 54 30 55 31 56
REMARK SMILES IDX 35 57 32 58 34 59 33 60 52 61 53 62 57 63 54 64 56 65 55 66
REMARK SMILES IDX 42 67 43 68 47 69 44 70 46 71 45 72
REMARK H PARENT 13 6 18 21 62 40 40 51
REMARK Flexibility Score: inf
ROOT
ATOM      1  C   UNL A   1      36.634  20.003  24.862  1.00  0.00     0.023 C 
ENDROOT
BRANCH   1   2
ATOM      2  C   UNL A   1      36.510  21.403  25.452  1.00  0.00     0.116 C 
BRANCH   2   3
ATOM      3  N   UNL A   1      35.496  21.441  26.493  1.00  0.00    -0.355 N 
ATOM      4  C   UNL A   1      34.216  21.912  26.494  1.00  0.00     0.240 C 
ATOM      5  O   UNL A   1      33.624  21.848  27.574  1.00  0.00    -0.273 OA
ATOM      6  H   UNL A   1      35.785  21.058  27.352  1.00  0.00     0.163 HD
BRANCH   4   7
ATOM      7  C   UNL A   1      33.563  22.505  25.225  1.00  0.00     0.138 C 
BRANCH   7   8
ATOM      8  C   UNL A   1      34.407  23.694  24.577  1.00  0.00     0.016 C 
ATOM      9  C   UNL A   1      34.456  24.966  25.441  1.00  0.00     0.010 C 
BRANCH   8  10
ATOM     10  C   UNL A   1      34.012  24.031  23.110  1.00  0.00     0.005 C 
BRANCH  10  11
ATOM     11  C   UNL A   1      33.345  25.399  22.881  1.00  0.00    -0.003 C 
ATOM     12  C   UNL A   1      31.845  25.333  22.636  1.00  0.00     0.004 C 
ENDBRANCH  10  11
ENDBRANCH   8  10
ENDBRANCH   7   8
BRANCH   7  13
ATOM     13  C   UNL A   1      32.234  23.081  25.684  1.00  0.00     0.079 C 
ATOM     14  N   UNL A   1      31.131  23.559  26.065  1.00  0.00    -0.197 NA
ENDBRANCH   7  13
BRANCH   7  15
ATOM     15  C   UNL A   1      33.260  21.413  24.145  1.00  0.00     0.029 C 
ATOM     16  C   UNL A   1      32.506  20.162  24.597  1.00  0.00     0.006 C 
ENDBRANCH   7  15
ENDBRANCH   4   7
ENDBRANCH   2   3
ENDBRANCH   1   2
BRANCH   1  17
ATOM     17  C   UNL A   1      38.077  19.536  24.682  1.00  0.00     0.023 C 
BRANCH  17  18
ATOM     18  C   UNL A   1      38.995  19.851  25.857  1.00  0.00     0.116 C 
BRANCH  18  19
ATOM     19  N   UNL A   1      40.269  19.156  25.774  1.00  0.00    -0.352 N 
ATOM     20  C   UNL A   1      41.534  19.638  25.997  1.00  0.00     0.251 C 
ATOM     21  H   UNL A   1      40.217  18.205  25.524  1.00  0.00     0.163 HD
ATOM     22  O   UNL A   1      42.511  18.952  25.728  1.00  0.00    -0.269 OA
BRANCH  20  23
ATOM     23  C   UNL A   1      41.707  21.004  26.530  1.00  0.00     0.039 A 
ATOM     24  C   UNL A   1      41.638  21.193  27.911  1.00  0.00     0.014 A 
ATOM     25  C   UNL A   1      41.953  22.085  25.678  1.00  0.00     0.014 A 
ATOM     26  C   UNL A   1      41.873  22.459  28.441  1.00  0.00     0.010 A 
ATOM     27  C   UNL A   1      42.270  23.329  26.215  1.00  0.00     0.010 A 
ATOM     28  C   UNL A   1      42.228  23.530  27.601  1.00  0.00    -0.014 A 
BRANCH  28  29
ATOM     29  C   UNL A   1      42.576  24.851  28.179  1.00  0.00     0.031 A 
ATOM     30  C   UNL A   1      43.997  25.182  28.538  1.00  0.00     0.074 A 
ATOM     31  C   UNL A   1      41.595  25.747  28.402  1.00  0.00     0.049 A 
ATOM     32  N   UNL A   1      44.487  26.305  29.001  1.00  0.00    -0.248 NA
ATOM     33  C   UNL A   1      44.996  24.112  28.379  1.00  0.00     0.031 C 
ATOM     34  C   UNL A   1      40.169  25.522  28.150  1.00  0.00     0.029 A 
ATOM     35  N   UNL A   1      41.649  27.032  28.877  1.00  0.00    -0.354 N 
ATOM     36  C   UNL A   1      45.844  26.075  29.190  1.00  0.00     0.074 A 
ATOM     37  C   UNL A   1      46.090  24.691  28.851  1.00  0.00     0.031 C 
ATOM     38  C   UNL A   1      39.492  26.648  28.425  1.00  0.00     0.029 A 
ATOM     39  C   UNL A   1      40.427  27.658  28.908  1.00  0.00     0.049 A 
ATOM     40  H   UNL A   1      42.485  27.464  29.170  1.00  0.00     0.167 HD
ATOM     41  C   UNL A   1      46.803  26.943  29.588  1.00  0.00     0.031 A 
ATOM     42  C   UNL A   1      40.096  28.910  29.276  1.00  0.00     0.031 A 
ATOM     43  C   UNL A   1      46.557  28.319  29.929  1.00  0.00     0.049 A 
ATOM     44  C   UNL A   1      41.178  29.851  29.723  1.00  0.00     0.074 A 
ATOM     45  C   UNL A   1      47.470  29.295  30.290  1.00  0.00     0.029 A 
ATOM     46  N   UNL A   1      45.304  28.913  29.960  1.00  0.00    -0.354 N 
ATOM     47  N   UNL A   1      42.470  29.644  29.811  1.00  0.00    -0.248 NA
ATOM     48  C   UNL A   1      40.756  31.205  30.105  1.00  0.00     0.031 C 
ATOM     49  C   UNL A   1      46.762  30.462  30.599  1.00  0.00     0.029 A 
ATOM     50  C   UNL A   1      45.416  30.233  30.364  1.00  0.00     0.049 A 
ATOM     51  H   UNL A   1      44.460  28.462  29.728  1.00  0.00     0.167 HD
ATOM     52  C   UNL A   1      43.017  30.847  30.235  1.00  0.00     0.074 A 
ATOM     53  C   UNL A   1      41.920  31.785  30.361  1.00  0.00     0.031 C 
ATOM     54  C   UNL A   1      44.313  31.149  30.499  1.00  0.00     0.031 A 
BRANCH  41  55
ATOM     55  C   UNL A   1      48.212  26.423  29.685  1.00  0.00    -0.014 A 
ATOM     56  C   UNL A   1      49.102  26.523  28.603  1.00  0.00     0.009 A 
ATOM     57  C   UNL A   1      48.669  25.856  30.884  1.00  0.00     0.009 A 
ATOM     58  C   UNL A   1      50.406  26.034  28.708  1.00  0.00     0.001 A 
ATOM     59  C   UNL A   1      49.982  25.396  30.998  1.00  0.00     0.001 A 
ATOM     60  C   UNL A   1      50.846  25.475  29.908  1.00  0.00     0.000 A 
ENDBRANCH  41  55
BRANCH  42  61
ATOM     61  C   UNL A   1      38.678  29.353  29.215  1.00  0.00    -0.014 A 
ATOM     62  C   UNL A   1      38.172  29.976  28.064  1.00  0.00     0.009 A 
ATOM     63  C   UNL A   1      37.823  29.160  30.312  1.00  0.00     0.009 A 
ATOM     64  C   UNL A   1      36.849  30.423  28.023  1.00  0.00     0.001 A 
ATOM     65  C   UNL A   1      36.492  29.579  30.257  1.00  0.00     0.001 A 
ATOM     66  C   UNL A   1      36.009  30.220  29.117  1.00  0.00     0.000 A 
ENDBRANCH  42  61
BRANCH  54  67
ATOM     67  C   UNL A   1      44.610  32.561  30.925  1.00  0.00    -0.014 A 
ATOM     68  C   UNL A   1      44.611  32.931  32.279  1.00  0.00     0.009 A 
ATOM     69  C   UNL A   1      44.912  33.530  29.955  1.00  0.00     0.009 A 
ATOM     70  C   UNL A   1      44.862  34.255  32.649  1.00  0.00     0.001 A 
ATOM     71  C   UNL A   1      45.197  34.843  30.331  1.00  0.00     0.001 A 
ATOM     72  C   UNL A   1      45.158  35.208  31.676  1.00  0.00     0.000 A 
ENDBRANCH  54  67
ENDBRANCH  28  29
ENDBRANCH  20  23
ENDBRANCH  18  19
ENDBRANCH  17  18
ENDBRANCH   1  17
TORSDOF 16
ENDMDL
MODEL 2
REMARK VINA RESULT:      -9.0      1.260      2.185
REMARK SMILES CCC[C@@H](C)[C@@](C#N)(CC)C(=O)NCCCCNC(=O)c1ccc(-c2c3nc(c(-c4ccccc4)c4ccc([nH]4)c(-c4ccccc4)c4nc(c(-c5ccccc5)c5ccc2[nH]5)C=C4)C=C3)cc1
REMARK SMILES IDX 15 1 14 2 13 3 11 4 12 5 6 7 4 8 5 9 3 10 2 11 1 12 7 13
REMARK SMILES IDX 8 14 9 15 10 16 16 17 17 18 18 19 19 20 20 22 21 23 22 24
REMARK SMILES IDX 68 25 23 26 67 27 24 28 25 29 26 30 61 31 27 32 66 33 60 34
REMARK SMILES IDX 62 35 28 36 65 37 59 38 58 39 29 41 51 42 36 43 50 44 37 45
REMARK SMILES IDX 40 46 49 47 63 48 38 49 39 50 48 52 64 53 41 54 30 55 31 56
REMARK SMILES IDX 35 57 32 58 34 59 33 60 52 61 53 62 57 63 54 64 56 65 55 66
REMARK SMILES IDX 42 67 43 68 47 69 44 70 46 71 45 72
REMARK H PARENT 13 6 18 21 62 40 40 51
REMARK Flexibility Score: inf
ROOT
ATOM      1  C   UNL A   1      38.726  22.676  26.327  1.00  0.00     0.023 C 
ENDROOT
BRANCH   1   2
ATOM      2  C   UNL A   1      37.538  23.494  25.833  1.00  0.00     0.116 C 
BRANCH   2   3
ATOM      3  N   UNL A   1      37.324  23.292  24.410  1.00  0.00    -0.355 N 
ATOM      4  C   UNL A   1      36.189  23.300  23.654  1.00  0.00     0.240 C 
ATOM      5  O   UNL A   1      36.340  23.032  22.460  1.00  0.00    -0.273 OA
ATOM      6  H   UNL A   1      38.147  23.116  23.899  1.00  0.00     0.163 HD
BRANCH   4   7
ATOM      7  C   UNL A   1      34.804  23.608  24.266  1.00  0.00     0.138 C 
BRANCH   7   8
ATOM      8  C   UNL A   1      34.110  22.334  24.933  1.00  0.00     0.016 C 
ATOM      9  C   UNL A   1      33.891  22.467  26.449  1.00  0.00     0.010 C 
BRANCH   8  10
ATOM     10  C   UNL A   1      34.794  20.981  24.584  1.00  0.00     0.005 C 
BRANCH  10  11
ATOM     11  C   UNL A   1      33.989  19.708  24.904  1.00  0.00    -0.003 C 
ATOM     12  C   UNL A   1      32.782  19.486  24.005  1.00  0.00     0.004 C 
ENDBRANCH  10  11
ENDBRANCH   8  10
ENDBRANCH   7   8
BRANCH   7  13
ATOM     13  C   UNL A   1      33.934  24.048  23.100  1.00  0.00     0.079 C 
ATOM     14  N   UNL A   1      33.212  24.412  22.132  1.00  0.00    -0.197 NA
ENDBRANCH   7  13
BRANCH   7  15
ATOM     15  C   UNL A   1      34.854  24.788  25.292  1.00  0.00     0.029 C 
ATOM     16  C   UNL A   1      33.964  26.001  25.020  1.00  0.00     0.006 C 
ENDBRANCH   7  15
ENDBRANCH   4   7
ENDBRANCH   2   3
ENDBRANCH   1   2
BRANCH   1  17
ATOM     17  C   UNL A   1      38.927  21.363  25.573  1.00  0.00     0.023 C 
BRANCH  17  18
ATOM     18  C   UNL A   1      39.326  20.184  26.453  1.00  0.00     0.116 C 
BRANCH  18  19
ATOM     19  N   UNL A   1      40.480  19.466  25.937  1.00  0.00    -0.352 N 
ATOM     20  C   UNL A   1      41.786  19.875  25.848  1.00  0.00     0.251 C 
ATOM     21  H   UNL A   1      40.298  18.556  25.605  1.00  0.00     0.163 HD
ATOM     22  O   UNL A   1      42.604  19.199  25.239  1.00  0.00    -0.269 OA
BRANCH  20  23
ATOM     23  C   UNL A   1      42.189  21.156  26.464  1.00  0.00     0.039 A 
ATOM     24  C   UNL A   1      42.512  22.224  25.626  1.00  0.00     0.014 A 
ATOM     25  C   UNL A   1      42.230  21.308  27.853  1.00  0.00     0.014 A 
ATOM     26  C   UNL A   1      42.822  23.462  26.183  1.00  0.00     0.010 A 
ATOM     27  C   UNL A   1      42.456  22.565  28.404  1.00  0.00     0.010 A 
ATOM     28  C   UNL A   1      42.759  23.653  27.575  1.00  0.00    -0.014 A 
BRANCH  28  29
ATOM     29  C   UNL A   1      42.991  24.998  28.157  1.00  0.00     0.031 A 
ATOM     30  C   UNL A   1      44.373  25.433  28.557  1.00  0.00     0.074 A 
ATOM     31  C   UNL A   1      41.942  25.821  28.345  1.00  0.00     0.049 A 
ATOM     32  N   UNL A   1      44.766  26.590  29.029  1.00  0.00    -0.248 NA
ATOM     33  C   UNL A   1      45.451  24.439  28.434  1.00  0.00     0.031 C 
ATOM     34  C   UNL A   1      40.545  25.491  28.051  1.00  0.00     0.029 A 
ATOM     35  N   UNL A   1      41.887  27.108  28.815  1.00  0.00    -0.354 N 
ATOM     36  C   UNL A   1      46.129  26.460  29.261  1.00  0.00     0.074 A 
ATOM     37  C   UNL A   1      46.485  25.096  28.936  1.00  0.00     0.031 C 
ATOM     38  C   UNL A   1      39.779  26.566  28.300  1.00  0.00     0.029 A 
ATOM     39  C   UNL A   1      40.622  27.643  28.806  1.00  0.00     0.049 A 
ATOM     40  H   UNL A   1      42.680  27.601  29.131  1.00  0.00     0.167 HD
ATOM     41  C   UNL A   1      47.010  27.397  29.684  1.00  0.00     0.031 A 
ATOM     42  C   UNL A   1      40.190  28.868  29.157  1.00  0.00     0.031 A 
ATOM     43  C   UNL A   1      46.654  28.752  30.009  1.00  0.00     0.049 A 
ATOM     44  C   UNL A   1      41.186  29.887  29.631  1.00  0.00     0.074 A 
ATOM     45  C   UNL A   1      47.481  29.793  30.393  1.00  0.00     0.029 A 
ATOM     46  N   UNL A   1      45.360  29.253  29.999  1.00  0.00    -0.354 N 
ATOM     47  N   UNL A   1      42.486  29.775  29.760  1.00  0.00    -0.248 NA
ATOM     48  C   UNL A   1      40.656  31.208  29.993  1.00  0.00     0.031 C 
ATOM     49  C   UNL A   1      46.681  30.907  30.674  1.00  0.00     0.029 A 
ATOM     50  C   UNL A   1      45.363  30.579  30.399  1.00  0.00     0.049 A 
ATOM     51  H   UNL A   1      44.559  28.742  29.744  1.00  0.00     0.167 HD
ATOM     52  C   UNL A   1      42.932  31.016  30.194  1.00  0.00     0.074 A 
ATOM     53  C   UNL A   1      41.766  31.872  30.282  1.00  0.00     0.031 C 
ATOM     54  C   UNL A   1      44.193  31.413  30.496  1.00  0.00     0.031 A 
BRANCH  41  55
ATOM     55  C   UNL A   1      48.450  26.982  29.825  1.00  0.00    -0.014 A 
ATOM     56  C   UNL A   1      49.362  27.140  28.769  1.00  0.00     0.009 A 
ATOM     57  C   UNL A   1      48.910  26.456  31.043  1.00  0.00     0.009 A 
ATOM     58  C   UNL A   1      50.694  26.747  28.917  1.00  0.00     0.001 A 
ATOM     59  C   UNL A   1      50.249  26.094  31.198  1.00  0.00     0.001 A 
ATOM     60  C   UNL A   1      51.137  26.229  30.133  1.00  0.00     0.000 A 
ENDBRANCH  41  55
BRANCH  42  61
ATOM     61  C   UNL A   1      38.746  29.207  29.050  1.00  0.00    -0.014 A 
ATOM     62  C   UNL A   1      38.202  29.649  27.835  1.00  0.00     0.009 A 
ATOM     63  C   UNL A   1      37.903  29.095  30.168  1.00  0.00     0.009 A 
ATOM     64  C   UNL A   1      36.853  30.000  27.747  1.00  0.00     0.001 A 
ATOM     65  C   UNL A   1      36.548  29.415  30.070  1.00  0.00     0.001 A 
ATOM     66  C   UNL A   1      36.027  29.878  28.862  1.00  0.00     0.000 A 
ENDBRANCH  42  61
BRANCH  54  67
ATOM     67  C   UNL A   1      44.373  32.844  30.924  1.00  0.00    -0.014 A 
ATOM     68  C   UNL A   1      44.602  33.864  29.987  1.00  0.00     0.009 A 
ATOM     69  C   UNL A   1      44.293  33.177  32.285  1.00  0.00     0.009 A 
ATOM     70  C   UNL A   1      44.794  35.182  30.410  1.00  0.00     0.001 A 
ATOM     71  C   UNL A   1      44.451  34.499  32.701  1.00  0.00     0.001 A 
ATOM     72  C   UNL A   1      44.714  35.498  31.765  1.00  0.00     0.000 A 
ENDBRANCH  54  67
ENDBRANCH  28  29
ENDBRANCH  20  23
ENDBRANCH  18  19
ENDBRANCH  17  18
ENDBRANCH   1  17
TORSDOF 16
ENDMDL
MODEL 3
REMARK VINA RESULT:      -9.0      0.943      6.335
REMARK SMILES CCC[C@@H](C)[C@@](C#N)(CC)C(=O)NCCCCNC(=O)c1ccc(-c2c3nc(c(-c4ccccc4)c4ccc([nH]4)c(-c4ccccc4)c4nc(c(-c5ccccc5)c5ccc2[nH]5)C=C4)C=C3)cc1
REMARK SMILES IDX 15 1 14 2 13 3 11 4 12 5 6 7 4 8 5 9 3 10 2 11 1 12 7 13
REMARK SMILES IDX 8 14 9 15 10 16 16 17 17 18 18 19 19 20 20 22 21 23 22 24
REMARK SMILES IDX 68 25 23 26 67 27 24 28 25 29 26 30 61 31 27 32 66 33 60 34
REMARK SMILES IDX 62 35 28 36 65 37 59 38 58 39 29 41 51 42 36 43 50 44 37 45
REMARK SMILES IDX 40 46 49 47 63 48 38 49 39 50 48 52 64 53 41 54 30 55 31 56
REMARK SMILES IDX 35 57 32 58 34 59 33 60 52 61 53 62 57 63 54 64 56 65 55 66
REMARK SMILES IDX 42 67 43 68 47 69 44 70 46 71 45 72
REMARK H PARENT 13 6 18 21 62 40 40 51
REMARK Flexibility Score: inf
ROOT
ATOM      1  C   UNL A   1      36.838  21.057  24.668  1.00  0.00     0.023 C 
ENDROOT
BRANCH   1   2
ATOM      2  C   UNL A   1      35.397  20.671  24.987  1.00  0.00     0.116 C 
BRANCH   2   3
ATOM      3  N   UNL A   1      35.030  21.097  26.327  1.00  0.00    -0.355 N 
ATOM      4  C   UNL A   1      34.183  22.070  26.769  1.00  0.00     0.240 C 
ATOM      5  O   UNL A   1      34.134  22.221  27.992  1.00  0.00    -0.273 OA
ATOM      6  H   UNL A   1      35.474  20.591  27.046  1.00  0.00     0.163 HD
BRANCH   4   7
ATOM      7  C   UNL A   1      33.356  22.936  25.793  1.00  0.00     0.138 C 
BRANCH   7   8
ATOM      8  C   UNL A   1      34.117  24.259  25.322  1.00  0.00     0.016 C 
ATOM      9  C   UNL A   1      35.630  24.238  25.598  1.00  0.00     0.010 C 
BRANCH   8  10
ATOM     10  C   UNL A   1      33.474  25.580  25.833  1.00  0.00     0.005 C 
BRANCH  10  11
ATOM     11  C   UNL A   1      32.979  26.559  24.753  1.00  0.00    -0.003 C 
ATOM     12  C   UNL A   1      33.639  26.381  23.394  1.00  0.00     0.004 C 
ENDBRANCH  10  11
ENDBRANCH   8  10
ENDBRANCH   7   8
BRANCH   7  13
ATOM     13  C   UNL A   1      32.126  23.367  26.575  1.00  0.00     0.079 C 
ATOM     14  N   UNL A   1      31.106  23.725  27.224  1.00  0.00    -0.197 NA
ENDBRANCH   7  13
BRANCH   7  15
ATOM     15  C   UNL A   1      32.867  22.127  24.546  1.00  0.00     0.029 C 
ATOM     16  C   UNL A   1      32.341  22.921  23.350  1.00  0.00     0.006 C 
ENDBRANCH   7  15
ENDBRANCH   4   7
ENDBRANCH   2   3
ENDBRANCH   1   2
BRANCH   1  17
ATOM     17  C   UNL A   1      37.848  19.942  24.933  1.00  0.00     0.023 C 
BRANCH  17  18
ATOM     18  C   UNL A   1      39.071  20.375  25.732  1.00  0.00     0.116 C 
BRANCH  18  19
ATOM     19  N   UNL A   1      40.087  19.338  25.806  1.00  0.00    -0.352 N 
ATOM     20  C   UNL A   1      41.422  19.453  26.100  1.00  0.00     0.251 C 
ATOM     21  H   UNL A   1      39.772  18.423  25.620  1.00  0.00     0.163 HD
ATOM     22  O   UNL A   1      42.169  18.493  25.964  1.00  0.00    -0.269 OA
BRANCH  20  23
ATOM     23  C   UNL A   1      41.957  20.754  26.549  1.00  0.00     0.039 A 
ATOM     24  C   UNL A   1      42.465  21.631  25.589  1.00  0.00     0.014 A 
ATOM     25  C   UNL A   1      41.942  21.114  27.900  1.00  0.00     0.014 A 
ATOM     26  C   UNL A   1      42.906  22.893  25.980  1.00  0.00     0.010 A 
ATOM     27  C   UNL A   1      42.303  22.404  28.275  1.00  0.00     0.010 A 
ATOM     28  C   UNL A   1      42.793  23.304  27.320  1.00  0.00    -0.014 A 
BRANCH  28  29
ATOM     29  C   UNL A   1      43.170  24.684  27.713  1.00  0.00     0.031 A 
ATOM     30  C   UNL A   1      42.115  25.719  27.989  1.00  0.00     0.074 A 
ATOM     31  C   UNL A   1      44.474  25.009  27.798  1.00  0.00     0.049 A 
ATOM     32  N   UNL A   1      42.263  26.955  28.395  1.00  0.00    -0.248 NA
ATOM     33  C   UNL A   1      40.715  25.327  27.760  1.00  0.00     0.031 C 
ATOM     34  C   UNL A   1      45.592  24.109  27.498  1.00  0.00     0.029 A 
ATOM     35  N   UNL A   1      45.082  26.179  28.174  1.00  0.00    -0.354 N 
ATOM     36  C   UNL A   1      40.981  27.486  28.467  1.00  0.00     0.074 A 
ATOM     37  C   UNL A   1      40.073  26.459  28.004  1.00  0.00     0.031 C 
ATOM     38  C   UNL A   1      46.747  24.745  27.751  1.00  0.00     0.029 A 
ATOM     39  C   UNL A   1      46.454  26.104  28.192  1.00  0.00     0.049 A 
ATOM     40  H   UNL A   1      44.583  26.995  28.409  1.00  0.00     0.167 HD
ATOM     41  C   UNL A   1      40.593  28.708  28.899  1.00  0.00     0.031 A 
ATOM     42  C   UNL A   1      47.374  27.025  28.534  1.00  0.00     0.031 A 
ATOM     43  C   UNL A   1      41.498  29.729  29.355  1.00  0.00     0.049 A 
ATOM     44  C   UNL A   1      46.917  28.376  29.003  1.00  0.00     0.074 A 
ATOM     45  C   UNL A   1      41.199  30.980  29.866  1.00  0.00     0.029 A 
ATOM     46  N   UNL A   1      42.881  29.620  29.347  1.00  0.00    -0.354 N 
ATOM     47  N   UNL A   1      45.697  28.832  29.149  1.00  0.00    -0.248 NA
ATOM     48  C   UNL A   1      47.967  29.336  29.369  1.00  0.00     0.031 C 
ATOM     49  C   UNL A   1      42.403  31.651  30.109  1.00  0.00     0.029 A 
ATOM     50  C   UNL A   1      43.450  30.793  29.814  1.00  0.00     0.049 A 
ATOM     51  H   UNL A   1      43.383  28.826  29.053  1.00  0.00     0.167 HD
ATOM     52  C   UNL A   1      45.831  30.121  29.646  1.00  0.00     0.074 A 
ATOM     53  C   UNL A   1      47.251  30.364  29.800  1.00  0.00     0.031 C 
ATOM     54  C   UNL A   1      44.865  31.025  29.948  1.00  0.00     0.031 A 
BRANCH  41  55
ATOM     55  C   UNL A   1      39.119  29.010  28.891  1.00  0.00    -0.014 A 
ATOM     56  C   UNL A   1      38.319  28.771  30.021  1.00  0.00     0.009 A 
ATOM     57  C   UNL A   1      38.526  29.572  27.750  1.00  0.00     0.009 A 
ATOM     58  C   UNL A   1      36.951  29.055  29.996  1.00  0.00     0.001 A 
ATOM     59  C   UNL A   1      37.165  29.885  27.738  1.00  0.00     0.001 A 
ATOM     60  C   UNL A   1      36.377  29.617  28.856  1.00  0.00     0.000 A 
ENDBRANCH  41  55
BRANCH  42  61
ATOM     61  C   UNL A   1      48.822  26.690  28.469  1.00  0.00    -0.014 A 
ATOM     62  C   UNL A   1      49.488  26.175  29.591  1.00  0.00     0.009 A 
ATOM     63  C   UNL A   1      49.547  26.890  27.283  1.00  0.00     0.009 A 
ATOM     64  C   UNL A   1      50.856  25.896  29.537  1.00  0.00     0.001 A 
ATOM     65  C   UNL A   1      50.906  26.579  27.222  1.00  0.00     0.001 A 
ATOM     66  C   UNL A   1      51.562  26.093  28.352  1.00  0.00     0.000 A 
ENDBRANCH  42  61
BRANCH  54  67
ATOM     67  C   UNL A   1      45.320  32.349  30.498  1.00  0.00    -0.014 A 
ATOM     68  C   UNL A   1      45.508  32.544  31.875  1.00  0.00     0.009 A 
ATOM     69  C   UNL A   1      45.582  33.412  29.619  1.00  0.00     0.009 A 
ATOM     70  C   UNL A   1      45.903  33.790  32.365  1.00  0.00     0.001 A 
ATOM     71  C   UNL A   1      46.010  34.647  30.110  1.00  0.00     0.001 A 
ATOM     72  C   UNL A   1      46.158  34.839  31.482  1.00  0.00     0.000 A 
ENDBRANCH  54  67
ENDBRANCH  28  29
ENDBRANCH  20  23
ENDBRANCH  18  19
ENDBRANCH  17  18
ENDBRANCH   1  17
TORSDOF 16
ENDMDL
