MODEL 1
REMARK VINA RESULT:     -10.5      0.000      0.000
REMARK SMILES C[C@@H](SCCC(=O)NCCCCNC(=O)c1ccc(-c2c3nc(c(-c4ccccc4)c4ccc([nH]4)c(-c4ccccc4)c4nc(c(-c5ccccc5)c5ccc2[nH]5)C=C4)C=C3)cc1)C(=O)Nc1ccc(C(N)=O)cc1
REMARK SMILES IDX 6 1 7 2 8 3 5 5 4 6 3 7 2 8 1 9 64 10 65 11 66 12 67 14
REMARK SMILES IDX 68 15 75 16 69 17 74 18 70 19 71 20 72 21 73 22 9 25 10 26
REMARK SMILES IDX 11 27 12 28 13 29 14 30 15 32 16 33 17 34 63 35 18 36 62 37
REMARK SMILES IDX 19 38 20 39 21 40 56 41 22 42 61 43 55 44 57 45 23 46 60 47
REMARK SMILES IDX 54 48 53 49 24 51 46 52 31 53 45 54 32 55 35 56 44 57 58 58
REMARK SMILES IDX 33 59 34 60 43 62 59 63 36 64 25 65 26 66 30 67 27 68 29 69
REMARK SMILES IDX 28 70 47 71 48 72 52 73 49 74 51 75 50 76 37 77 38 78 42 79
REMARK SMILES IDX 39 80 41 81 40 82
REMARK H PARENT 8 4 66 13 72 23 72 24 13 31 57 50 35 61
REMARK Flexibility Score: inf
ROOT
ATOM      1  C   UNL A   1      33.080  30.734  27.186  1.00  0.00     0.220 C 
ATOM      2  O   UNL A   1      32.085  30.827  26.465  1.00  0.00    -0.275 OA
ATOM      3  N   UNL A   1      33.623  31.880  27.672  1.00  0.00    -0.356 N 
ATOM      4  H   UNL A   1      33.114  32.696  27.457  1.00  0.00     0.163 HD
ENDROOT
BRANCH   1   5
ATOM      5  C   UNL A   1      33.663  29.390  27.560  1.00  0.00     0.111 C 
BRANCH   5   6
ATOM      6  C   UNL A   1      33.457  28.334  26.473  1.00  0.00     0.080 C 
BRANCH   6   7
ATOM      7  S   UNL A   1      31.931  27.321  26.661  1.00  0.00    -0.148 SA
BRANCH   7   8
ATOM      8  C   UNL A   1      32.567  25.654  26.253  1.00  0.00     0.133 C 
ATOM      9  C   UNL A   1      33.704  25.639  25.245  1.00  0.00     0.030 C 
BRANCH   8  10
ATOM     10  C   UNL A   1      31.413  24.644  26.041  1.00  0.00     0.237 C 
ATOM     11  O   UNL A   1      30.796  24.159  26.997  1.00  0.00    -0.273 OA
ATOM     12  N   UNL A   1      30.986  24.264  24.790  1.00  0.00    -0.325 N 
ATOM     13  H   UNL A   1      30.943  23.314  24.534  1.00  0.00     0.169 HD
BRANCH  12  14
ATOM     14  C   UNL A   1      30.613  25.272  23.894  1.00  0.00     0.041 A 
ATOM     15  C   UNL A   1      29.489  26.034  24.215  1.00  0.00     0.027 A 
ATOM     16  C   UNL A   1      31.447  25.621  22.841  1.00  0.00     0.027 A 
ATOM     17  C   UNL A   1      29.296  27.259  23.585  1.00  0.00     0.016 A 
ATOM     18  C   UNL A   1      31.265  26.853  22.223  1.00  0.00     0.016 A 
ATOM     19  C   UNL A   1      30.215  27.692  22.619  1.00  0.00     0.039 A 
BRANCH  19  20
ATOM     20  C   UNL A   1      30.176  29.067  22.068  1.00  0.00     0.248 C 
ATOM     21  N   UNL A   1      31.360  29.715  21.891  1.00  0.00    -0.366 N 
ATOM     22  O   UNL A   1      29.111  29.608  21.777  1.00  0.00    -0.270 OA
ATOM     23  H   UNL A   1      32.206  29.270  22.128  1.00  0.00     0.159 HD
ATOM     24  H   UNL A   1      31.371  30.630  21.526  1.00  0.00     0.159 HD
ENDBRANCH  19  20
ENDBRANCH  12  14
ENDBRANCH   8  10
ENDBRANCH   7   8
ENDBRANCH   6   7
ENDBRANCH   5   6
ENDBRANCH   1   5
BRANCH   3  25
ATOM     25  C   UNL A   1      34.825  32.108  28.453  1.00  0.00     0.116 C 
BRANCH  25  26
ATOM     26  C   UNL A   1      34.810  33.441  29.200  1.00  0.00     0.023 C 
BRANCH  26  27
ATOM     27  C   UNL A   1      33.506  34.224  29.001  1.00  0.00     0.023 C 
BRANCH  27  28
ATOM     28  C   UNL A   1      33.510  35.609  29.607  1.00  0.00     0.116 C 
BRANCH  28  29
ATOM     29  N   UNL A   1      32.588  35.848  30.698  1.00  0.00    -0.352 N 
ATOM     30  C   UNL A   1      32.778  35.652  32.050  1.00  0.00     0.251 C 
ATOM     31  H   UNL A   1      31.706  36.200  30.439  1.00  0.00     0.163 HD
ATOM     32  O   UNL A   1      31.886  35.942  32.844  1.00  0.00    -0.269 OA
BRANCH  30  33
ATOM     33  C   UNL A   1      34.008  34.975  32.552  1.00  0.00     0.039 A 
ATOM     34  C   UNL A   1      33.906  33.645  32.975  1.00  0.00     0.014 A 
ATOM     35  C   UNL A   1      35.264  35.579  32.539  1.00  0.00     0.014 A 
ATOM     36  C   UNL A   1      35.058  32.918  33.294  1.00  0.00     0.010 A 
ATOM     37  C   UNL A   1      36.414  34.819  32.697  1.00  0.00     0.010 A 
ATOM     38  C   UNL A   1      36.326  33.486  33.106  1.00  0.00    -0.014 A 
BRANCH  38  39
ATOM     39  C   UNL A   1      37.574  32.731  33.370  1.00  0.00     0.031 A 
ATOM     40  C   UNL A   1      38.346  32.980  34.641  1.00  0.00     0.074 A 
ATOM     41  C   UNL A   1      38.042  31.872  32.443  1.00  0.00     0.049 A 
ATOM     42  N   UNL A   1      39.480  32.459  35.034  1.00  0.00    -0.248 NA
ATOM     43  C   UNL A   1      37.793  33.975  35.577  1.00  0.00     0.031 C 
ATOM     44  C   UNL A   1      37.423  31.603  31.141  1.00  0.00     0.029 A 
ATOM     45  N   UNL A   1      39.150  31.063  32.454  1.00  0.00    -0.354 N 
ATOM     46  C   UNL A   1      39.774  33.071  36.247  1.00  0.00     0.074 A 
ATOM     47  C   UNL A   1      38.753  34.064  36.483  1.00  0.00     0.031 C 
ATOM     48  C   UNL A   1      38.130  30.657  30.504  1.00  0.00     0.029 A 
ATOM     49  C   UNL A   1      39.274  30.286  31.327  1.00  0.00     0.049 A 
ATOM     50  H   UNL A   1      39.794  31.042  33.198  1.00  0.00     0.167 HD
ATOM     51  C   UNL A   1      40.780  32.804  37.113  1.00  0.00     0.031 A 
ATOM     52  C   UNL A   1      40.209  29.374  31.000  1.00  0.00     0.031 A 
ATOM     53  C   UNL A   1      41.783  31.802  36.882  1.00  0.00     0.049 A 
ATOM     54  C   UNL A   1      41.315  29.092  31.979  1.00  0.00     0.074 A 
ATOM     55  C   UNL A   1      42.823  31.416  37.706  1.00  0.00     0.029 A 
ATOM     56  N   UNL A   1      41.861  31.021  35.738  1.00  0.00    -0.354 N 
ATOM     57  N   UNL A   1      41.537  29.631  33.155  1.00  0.00    -0.248 NA
ATOM     58  C   UNL A   1      42.288  28.063  31.594  1.00  0.00     0.031 C 
ATOM     59  C   UNL A   1      43.561  30.431  37.040  1.00  0.00     0.029 A 
ATOM     60  C   UNL A   1      42.942  30.162  35.829  1.00  0.00     0.049 A 
ATOM     61  H   UNL A   1      41.240  31.070  34.976  1.00  0.00     0.167 HD
ATOM     62  C   UNL A   1      42.657  28.985  33.661  1.00  0.00     0.074 A 
ATOM     63  C   UNL A   1      43.050  27.998  32.676  1.00  0.00     0.031 C 
ATOM     64  C   UNL A   1      43.309  29.190  34.832  1.00  0.00     0.031 A 
BRANCH  51  65
ATOM     65  C   UNL A   1      40.823  33.599  38.390  1.00  0.00    -0.014 A 
ATOM     66  C   UNL A   1      41.561  34.794  38.475  1.00  0.00     0.009 A 
ATOM     67  C   UNL A   1      40.106  33.166  39.515  1.00  0.00     0.009 A 
ATOM     68  C   UNL A   1      41.613  35.511  39.672  1.00  0.00     0.001 A 
ATOM     69  C   UNL A   1      40.132  33.905  40.700  1.00  0.00     0.001 A 
ATOM     70  C   UNL A   1      40.895  35.070  40.781  1.00  0.00     0.000 A 
ENDBRANCH  51  65
BRANCH  52  71
ATOM     71  C   UNL A   1      40.131  28.647  29.703  1.00  0.00    -0.014 A 
ATOM     72  C   UNL A   1      39.497  27.398  29.618  1.00  0.00     0.009 A 
ATOM     73  C   UNL A   1      40.708  29.191  28.545  1.00  0.00     0.009 A 
ATOM     74  C   UNL A   1      39.478  26.692  28.413  1.00  0.00     0.001 A 
ATOM     75  C   UNL A   1      40.657  28.499  27.332  1.00  0.00     0.001 A 
ATOM     76  C   UNL A   1      40.054  27.243  27.271  1.00  0.00     0.000 A 
ENDBRANCH  52  71
BRANCH  64  77
ATOM     77  C   UNL A   1      44.485  28.301  35.121  1.00  0.00    -0.014 A 
ATOM     78  C   UNL A   1      44.328  27.069  35.773  1.00  0.00     0.009 A 
ATOM     79  C   UNL A   1      45.768  28.695  34.707  1.00  0.00     0.009 A 
ATOM     80  C   UNL A   1      45.439  26.271  36.049  1.00  0.00     0.001 A 
ATOM     81  C   UNL A   1      46.871  27.880  34.952  1.00  0.00     0.001 A 
ATOM     82  C   UNL A   1      46.708  26.674  35.633  1.00  0.00     0.000 A 
ENDBRANCH  64  77
ENDBRANCH  38  39
ENDBRANCH  30  33
ENDBRANCH  28  29
ENDBRANCH  27  28
ENDBRANCH  26  27
ENDBRANCH  25  26
ENDBRANCH   3  25
TORSDOF 17
ENDMDL
MODEL 2
REMARK VINA RESULT:     -10.4      0.551      5.997
REMARK SMILES C[C@@H](SCCC(=O)NCCCCNC(=O)c1ccc(-c2c3nc(c(-c4ccccc4)c4ccc([nH]4)c(-c4ccccc4)c4nc(c(-c5ccccc5)c5ccc2[nH]5)C=C4)C=C3)cc1)C(=O)Nc1ccc(C(N)=O)cc1
REMARK SMILES IDX 6 1 7 2 8 3 5 5 4 6 3 7 2 8 1 9 64 10 65 11 66 12 67 14
REMARK SMILES IDX 68 15 75 16 69 17 74 18 70 19 71 20 72 21 73 22 9 25 10 26
REMARK SMILES IDX 11 27 12 28 13 29 14 30 15 32 16 33 17 34 63 35 18 36 62 37
REMARK SMILES IDX 19 38 20 39 21 40 56 41 22 42 61 43 55 44 57 45 23 46 60 47
REMARK SMILES IDX 54 48 53 49 24 51 46 52 31 53 45 54 32 55 35 56 44 57 58 58
REMARK SMILES IDX 33 59 34 60 43 62 59 63 36 64 25 65 26 66 30 67 27 68 29 69
REMARK SMILES IDX 28 70 47 71 48 72 52 73 49 74 51 75 50 76 37 77 38 78 42 79
REMARK SMILES IDX 39 80 41 81 40 82
REMARK H PARENT 8 4 66 13 72 23 72 24 13 31 57 50 35 61
REMARK Flexibility Score: inf
ROOT
ATOM      1  C   UNL A   1      33.071  30.581  27.004  1.00  0.00     0.220 C 
ATOM      2  O   UNL A   1      32.128  30.765  26.231  1.00  0.00    -0.275 OA
ATOM      3  N   UNL A   1      33.570  31.657  27.665  1.00  0.00    -0.356 N 
ATOM      4  H   UNL A   1      33.072  32.495  27.517  1.00  0.00     0.163 HD
ENDROOT
BRANCH   1   5
ATOM      5  C   UNL A   1      33.636  29.201  27.248  1.00  0.00     0.111 C 
BRANCH   5   6
ATOM      6  C   UNL A   1      33.216  28.193  26.177  1.00  0.00     0.080 C 
BRANCH   6   7
ATOM      7  S   UNL A   1      31.600  27.367  26.486  1.00  0.00    -0.148 SA
BRANCH   7   8
ATOM      8  C   UNL A   1      32.047  25.614  26.216  1.00  0.00     0.133 C 
ATOM      9  C   UNL A   1      33.278  25.400  25.351  1.00  0.00     0.030 C 
BRANCH   8  10
ATOM     10  C   UNL A   1      30.798  24.752  25.904  1.00  0.00     0.237 C 
ATOM     11  O   UNL A   1      30.101  24.276  26.809  1.00  0.00    -0.273 OA
ATOM     12  N   UNL A   1      30.374  24.505  24.620  1.00  0.00    -0.325 N 
ATOM     13  H   UNL A   1      30.238  23.585  24.297  1.00  0.00     0.169 HD
BRANCH  12  14
ATOM     14  C   UNL A   1      30.142  25.605  23.786  1.00  0.00     0.041 A 
ATOM     15  C   UNL A   1      29.000  26.368  24.032  1.00  0.00     0.027 A 
ATOM     16  C   UNL A   1      31.115  26.026  22.890  1.00  0.00     0.027 A 
ATOM     17  C   UNL A   1      28.915  27.652  23.505  1.00  0.00     0.016 A 
ATOM     18  C   UNL A   1      31.040  27.316  22.378  1.00  0.00     0.016 A 
ATOM     19  C   UNL A   1      29.961  28.146  22.715  1.00  0.00     0.039 A 
BRANCH  19  20
ATOM     20  C   UNL A   1      30.021  29.568  22.301  1.00  0.00     0.248 C 
ATOM     21  N   UNL A   1      31.085  29.968  21.551  1.00  0.00    -0.366 N 
ATOM     22  O   UNL A   1      29.140  30.363  22.621  1.00  0.00    -0.270 OA
ATOM     23  H   UNL A   1      31.784  29.320  21.302  1.00  0.00     0.159 HD
ATOM     24  H   UNL A   1      31.157  30.906  21.259  1.00  0.00     0.159 HD
ENDBRANCH  19  20
ENDBRANCH  12  14
ENDBRANCH   8  10
ENDBRANCH   7   8
ENDBRANCH   6   7
ENDBRANCH   5   6
ENDBRANCH   1   5
BRANCH   3  25
ATOM     25  C   UNL A   1      34.713  31.784  28.551  1.00  0.00     0.116 C 
BRANCH  25  26
ATOM     26  C   UNL A   1      34.737  33.109  29.311  1.00  0.00     0.023 C 
BRANCH  26  27
ATOM     27  C   UNL A   1      33.583  34.043  28.924  1.00  0.00     0.023 C 
BRANCH  27  28
ATOM     28  C   UNL A   1      33.622  35.398  29.594  1.00  0.00     0.116 C 
BRANCH  28  29
ATOM     29  N   UNL A   1      32.635  35.646  30.624  1.00  0.00    -0.352 N 
ATOM     30  C   UNL A   1      32.759  35.511  31.991  1.00  0.00     0.251 C 
ATOM     31  H   UNL A   1      31.756  35.953  30.305  1.00  0.00     0.163 HD
ATOM     32  O   UNL A   1      31.816  35.800  32.725  1.00  0.00    -0.269 OA
BRANCH  30  33
ATOM     33  C   UNL A   1      33.983  34.902  32.586  1.00  0.00     0.039 A 
ATOM     34  C   UNL A   1      33.917  33.574  33.022  1.00  0.00     0.014 A 
ATOM     35  C   UNL A   1      35.207  35.566  32.646  1.00  0.00     0.014 A 
ATOM     36  C   UNL A   1      35.078  32.909  33.429  1.00  0.00     0.010 A 
ATOM     37  C   UNL A   1      36.378  34.866  32.893  1.00  0.00     0.010 A 
ATOM     38  C   UNL A   1      36.327  33.536  33.317  1.00  0.00    -0.014 A 
BRANCH  38  39
ATOM     39  C   UNL A   1      37.589  32.845  33.676  1.00  0.00     0.031 A 
ATOM     40  C   UNL A   1      38.192  31.844  32.725  1.00  0.00     0.074 A 
ATOM     41  C   UNL A   1      38.154  33.073  34.878  1.00  0.00     0.049 A 
ATOM     42  N   UNL A   1      39.260  31.102  32.874  1.00  0.00    -0.248 NA
ATOM     43  C   UNL A   1      37.481  31.613  31.455  1.00  0.00     0.031 C 
ATOM     44  C   UNL A   1      37.623  33.965  35.914  1.00  0.00     0.029 A 
ATOM     45  N   UNL A   1      39.305  32.574  35.432  1.00  0.00    -0.354 N 
ATOM     46  C   UNL A   1      39.335  30.318  31.729  1.00  0.00     0.074 A 
ATOM     47  C   UNL A   1      38.162  30.604  30.937  1.00  0.00     0.031 C 
ATOM     48  C   UNL A   1      38.472  33.987  36.954  1.00  0.00     0.029 A 
ATOM     49  C   UNL A   1      39.580  33.081  36.680  1.00  0.00     0.049 A 
ATOM     50  H   UNL A   1      39.879  31.914  34.980  1.00  0.00     0.167 HD
ATOM     51  C   UNL A   1      40.313  29.464  31.345  1.00  0.00     0.031 A 
ATOM     52  C   UNL A   1      40.615  32.840  37.507  1.00  0.00     0.031 A 
ATOM     53  C   UNL A   1      41.487  29.197  32.128  1.00  0.00     0.049 A 
ATOM     54  C   UNL A   1      41.691  31.891  37.057  1.00  0.00     0.074 A 
ATOM     55  C   UNL A   1      42.563  28.384  31.821  1.00  0.00     0.029 A 
ATOM     56  N   UNL A   1      41.739  29.747  33.376  1.00  0.00    -0.354 N 
ATOM     57  N   UNL A   1      41.781  31.211  35.938  1.00  0.00    -0.248 NA
ATOM     58  C   UNL A   1      42.817  31.690  37.978  1.00  0.00     0.031 C 
ATOM     59  C   UNL A   1      43.446  28.406  32.906  1.00  0.00     0.029 A 
ATOM     60  C   UNL A   1      42.948  29.282  33.860  1.00  0.00     0.049 A 
ATOM     61  H   UNL A   1      41.145  30.375  33.847  1.00  0.00     0.167 HD
ATOM     62  C   UNL A   1      42.986  30.527  36.008  1.00  0.00     0.074 A 
ATOM     63  C   UNL A   1      43.603  30.895  37.267  1.00  0.00     0.031 C 
ATOM     64  C   UNL A   1      43.536  29.666  35.117  1.00  0.00     0.031 A 
BRANCH  51  65
ATOM     65  C   UNL A   1      40.152  28.781  30.014  1.00  0.00    -0.014 A 
ATOM     66  C   UNL A   1      39.569  27.505  29.920  1.00  0.00     0.009 A 
ATOM     67  C   UNL A   1      40.569  29.422  28.837  1.00  0.00     0.009 A 
ATOM     68  C   UNL A   1      39.446  26.870  28.682  1.00  0.00     0.001 A 
ATOM     69  C   UNL A   1      40.412  28.799  27.597  1.00  0.00     0.001 A 
ATOM     70  C   UNL A   1      39.862  27.520  27.521  1.00  0.00     0.000 A 
ENDBRANCH  51  65
BRANCH  52  71
ATOM     71  C   UNL A   1      40.696  33.520  38.829  1.00  0.00    -0.014 A 
ATOM     72  C   UNL A   1      41.389  34.732  38.970  1.00  0.00     0.009 A 
ATOM     73  C   UNL A   1      40.098  32.949  39.963  1.00  0.00     0.009 A 
ATOM     74  C   UNL A   1      41.515  35.337  40.223  1.00  0.00     0.001 A 
ATOM     75  C   UNL A   1      40.195  33.574  41.209  1.00  0.00     0.001 A 
ATOM     76  C   UNL A   1      40.915  34.760  41.341  1.00  0.00     0.000 A 
ENDBRANCH  52  71
BRANCH  64  77
ATOM     77  C   UNL A   1      44.886  29.101  35.460  1.00  0.00    -0.014 A 
ATOM     78  C   UNL A   1      46.069  29.764  35.102  1.00  0.00     0.009 A 
ATOM     79  C   UNL A   1      44.969  27.896  36.177  1.00  0.00     0.009 A 
ATOM     80  C   UNL A   1      47.311  29.208  35.414  1.00  0.00     0.001 A 
ATOM     81  C   UNL A   1      46.210  27.361  36.518  1.00  0.00     0.001 A 
ATOM     82  C   UNL A   1      47.380  28.011  36.126  1.00  0.00     0.000 A 
ENDBRANCH  64  77
ENDBRANCH  38  39
ENDBRANCH  30  33
ENDBRANCH  28  29
ENDBRANCH  27  28
ENDBRANCH  26  27
ENDBRANCH  25  26
ENDBRANCH   3  25
TORSDOF 17
ENDMDL
MODEL 3
REMARK VINA RESULT:     -10.4      2.315      3.767
REMARK SMILES C[C@@H](SCCC(=O)NCCCCNC(=O)c1ccc(-c2c3nc(c(-c4ccccc4)c4ccc([nH]4)c(-c4ccccc4)c4nc(c(-c5ccccc5)c5ccc2[nH]5)C=C4)C=C3)cc1)C(=O)Nc1ccc(C(N)=O)cc1
REMARK SMILES IDX 6 1 7 2 8 3 5 5 4 6 3 7 2 8 1 9 64 10 65 11 66 12 67 14
REMARK SMILES IDX 68 15 75 16 69 17 74 18 70 19 71 20 72 21 73 22 9 25 10 26
REMARK SMILES IDX 11 27 12 28 13 29 14 30 15 32 16 33 17 34 63 35 18 36 62 37
REMARK SMILES IDX 19 38 20 39 21 40 56 41 22 42 61 43 55 44 57 45 23 46 60 47
REMARK SMILES IDX 54 48 53 49 24 51 46 52 31 53 45 54 32 55 35 56 44 57 58 58
REMARK SMILES IDX 33 59 34 60 43 62 59 63 36 64 25 65 26 66 30 67 27 68 29 69
REMARK SMILES IDX 28 70 47 71 48 72 52 73 49 74 51 75 50 76 37 77 38 78 42 79
REMARK SMILES IDX 39 80 41 81 40 82
REMARK H PARENT 8 4 66 13 72 23 72 24 13 31 57 50 35 61
REMARK Flexibility Score: inf
ROOT
ATOM      1  C   UNL A   1      32.701  27.209  26.398  1.00  0.00     0.220 C 
ATOM      2  O   UNL A   1      33.635  26.450  26.132  1.00  0.00    -0.275 OA
ATOM      3  N   UNL A   1      32.999  28.491  26.735  1.00  0.00    -0.356 N 
ATOM      4  H   UNL A   1      33.955  28.720  26.664  1.00  0.00     0.163 HD
ENDROOT
BRANCH   1   5
ATOM      5  C   UNL A   1      31.262  26.753  26.314  1.00  0.00     0.111 C 
BRANCH   5   6
ATOM      6  C   UNL A   1      30.968  25.955  25.044  1.00  0.00     0.080 C 
BRANCH   6   7
ATOM      7  S   UNL A   1      30.987  26.943  23.490  1.00  0.00    -0.148 SA
BRANCH   7   8
ATOM      8  C   UNL A   1      32.697  26.647  22.910  1.00  0.00     0.133 C 
ATOM      9  C   UNL A   1      33.545  27.901  22.773  1.00  0.00     0.030 C 
BRANCH   8  10
ATOM     10  C   UNL A   1      32.731  25.631  21.741  1.00  0.00     0.237 C 
ATOM     11  O   UNL A   1      33.274  25.904  20.664  1.00  0.00    -0.273 OA
ATOM     12  N   UNL A   1      32.199  24.368  21.847  1.00  0.00    -0.325 N 
ATOM     13  H   UNL A   1      31.530  24.041  21.203  1.00  0.00     0.169 HD
BRANCH  12  14
ATOM     14  C   UNL A   1      32.641  23.561  22.902  1.00  0.00     0.041 A 
ATOM     15  C   UNL A   1      31.682  22.808  23.581  1.00  0.00     0.027 A 
ATOM     16  C   UNL A   1      33.998  23.371  23.121  1.00  0.00     0.027 A 
ATOM     17  C   UNL A   1      32.091  21.731  24.360  1.00  0.00     0.016 A 
ATOM     18  C   UNL A   1      34.408  22.284  23.884  1.00  0.00     0.016 A 
ATOM     19  C   UNL A   1      33.457  21.438  24.473  1.00  0.00     0.039 A 
BRANCH  19  20
ATOM     20  C   UNL A   1      33.936  20.191  25.114  1.00  0.00     0.248 C 
ATOM     21  N   UNL A   1      33.150  19.624  26.071  1.00  0.00    -0.366 N 
ATOM     22  O   UNL A   1      35.008  19.681  24.795  1.00  0.00    -0.270 OA
ATOM     23  H   UNL A   1      32.293  20.044  26.317  1.00  0.00     0.159 HD
ATOM     24  H   UNL A   1      33.438  18.796  26.517  1.00  0.00     0.159 HD
ENDBRANCH  19  20
ENDBRANCH  12  14
ENDBRANCH   8  10
ENDBRANCH   7   8
ENDBRANCH   6   7
ENDBRANCH   5   6
ENDBRANCH   1   5
BRANCH   3  25
ATOM     25  C   UNL A   1      32.151  29.579  27.185  1.00  0.00     0.116 C 
BRANCH  25  26
ATOM     26  C   UNL A   1      31.861  30.604  26.090  1.00  0.00     0.023 C 
BRANCH  26  27
ATOM     27  C   UNL A   1      31.420  31.965  26.645  1.00  0.00     0.023 C 
BRANCH  27  28
ATOM     28  C   UNL A   1      32.545  32.809  27.201  1.00  0.00     0.116 C 
BRANCH  28  29
ATOM     29  N   UNL A   1      32.199  34.135  27.666  1.00  0.00    -0.352 N 
ATOM     30  C   UNL A   1      32.916  34.977  28.491  1.00  0.00     0.251 C 
ATOM     31  H   UNL A   1      31.334  34.484  27.352  1.00  0.00     0.163 HD
ATOM     32  O   UNL A   1      32.478  36.093  28.759  1.00  0.00    -0.269 OA
BRANCH  30  33
ATOM     33  C   UNL A   1      34.161  34.503  29.161  1.00  0.00     0.039 A 
ATOM     34  C   UNL A   1      34.041  33.834  30.384  1.00  0.00     0.014 A 
ATOM     35  C   UNL A   1      35.424  34.622  28.584  1.00  0.00     0.014 A 
ATOM     36  C   UNL A   1      35.158  33.225  30.966  1.00  0.00     0.010 A 
ATOM     37  C   UNL A   1      36.494  33.886  29.072  1.00  0.00     0.010 A 
ATOM     38  C   UNL A   1      36.384  33.203  30.285  1.00  0.00    -0.014 A 
BRANCH  38  39
ATOM     39  C   UNL A   1      37.576  32.514  30.835  1.00  0.00     0.031 A 
ATOM     40  C   UNL A   1      38.199  33.003  32.117  1.00  0.00     0.074 A 
ATOM     41  C   UNL A   1      38.132  31.495  30.150  1.00  0.00     0.049 A 
ATOM     42  N   UNL A   1      39.268  32.569  32.734  1.00  0.00    -0.248 NA
ATOM     43  C   UNL A   1      37.561  34.158  32.774  1.00  0.00     0.031 C 
ATOM     44  C   UNL A   1      37.663  30.981  28.859  1.00  0.00     0.029 A 
ATOM     45  N   UNL A   1      39.213  30.706  30.446  1.00  0.00    -0.354 N 
ATOM     46  C   UNL A   1      39.431  33.403  33.834  1.00  0.00     0.074 A 
ATOM     47  C   UNL A   1      38.410  34.420  33.754  1.00  0.00     0.031 C 
ATOM     48  C   UNL A   1      38.421  29.932  28.502  1.00  0.00     0.029 A 
ATOM     49  C   UNL A   1      39.453  29.727  29.510  1.00  0.00     0.049 A 
ATOM     50  H   UNL A   1      39.766  30.828  31.251  1.00  0.00     0.167 HD
ATOM     51  C   UNL A   1      40.323  33.308  34.848  1.00  0.00     0.031 A 
ATOM     52  C   UNL A   1      40.400  28.771  29.476  1.00  0.00     0.031 A 
ATOM     53  C   UNL A   1      41.325  32.283  34.933  1.00  0.00     0.049 A 
ATOM     54  C   UNL A   1      41.378  28.684  30.615  1.00  0.00     0.074 A 
ATOM     55  C   UNL A   1      42.254  32.063  35.934  1.00  0.00     0.029 A 
ATOM     56  N   UNL A   1      41.521  31.298  33.977  1.00  0.00    -0.354 N 
ATOM     57  N   UNL A   1      41.472  29.439  31.685  1.00  0.00    -0.248 NA
ATOM     58  C   UNL A   1      42.368  27.602  30.551  1.00  0.00     0.031 C 
ATOM     59  C   UNL A   1      43.044  30.971  35.560  1.00  0.00     0.029 A 
ATOM     60  C   UNL A   1      42.565  30.474  34.357  1.00  0.00     0.049 A 
ATOM     61  H   UNL A   1      40.994  31.199  33.151  1.00  0.00     0.167 HD
ATOM     62  C   UNL A   1      42.512  28.904  32.434  1.00  0.00     0.074 A 
ATOM     63  C   UNL A   1      42.997  27.747  31.708  1.00  0.00     0.031 C 
ATOM     64  C   UNL A   1      43.026  29.330  33.614  1.00  0.00     0.031 A 
BRANCH  51  65
ATOM     65  C   UNL A   1      40.233  34.333  35.947  1.00  0.00    -0.014 A 
ATOM     66  C   UNL A   1      40.952  35.540  35.873  1.00  0.00     0.009 A 
ATOM     67  C   UNL A   1      39.409  34.105  37.059  1.00  0.00     0.009 A 
ATOM     68  C   UNL A   1      40.880  36.473  36.909  1.00  0.00     0.001 A 
ATOM     69  C   UNL A   1      39.311  35.057  38.077  1.00  0.00     0.001 A 
ATOM     70  C   UNL A   1      40.055  36.234  38.007  1.00  0.00     0.000 A 
ENDBRANCH  51  65
BRANCH  52  71
ATOM     71  C   UNL A   1      40.460  27.810  28.341  1.00  0.00    -0.014 A 
ATOM     72  C   UNL A   1      39.844  26.552  28.434  1.00  0.00     0.009 A 
ATOM     73  C   UNL A   1      41.150  28.138  27.163  1.00  0.00     0.009 A 
ATOM     74  C   UNL A   1      39.952  25.630  27.390  1.00  0.00     0.001 A 
ATOM     75  C   UNL A   1      41.227  27.227  26.107  1.00  0.00     0.001 A 
ATOM     76  C   UNL A   1      40.640  25.968  26.227  1.00  0.00     0.000 A 
ENDBRANCH  52  71
BRANCH  64  77
ATOM     77  C   UNL A   1      44.142  28.515  34.204  1.00  0.00    -0.014 A 
ATOM     78  C   UNL A   1      43.884  27.418  35.040  1.00  0.00     0.009 A 
ATOM     79  C   UNL A   1      45.473  28.838  33.893  1.00  0.00     0.009 A 
ATOM     80  C   UNL A   1      44.938  26.690  35.593  1.00  0.00     0.001 A 
ATOM     81  C   UNL A   1      46.523  28.087  34.418  1.00  0.00     0.001 A 
ATOM     82  C   UNL A   1      46.256  27.022  35.277  1.00  0.00     0.000 A 
ENDBRANCH  64  77
ENDBRANCH  38  39
ENDBRANCH  30  33
ENDBRANCH  28  29
ENDBRANCH  27  28
ENDBRANCH  26  27
ENDBRANCH  25  26
ENDBRANCH   3  25
TORSDOF 17
ENDMDL
