MODEL 1
REMARK VINA RESULT:     -11.1      0.000      0.000
REMARK SMILES CCS(=O)(=O)c1ccccc1NC[C@H]1CC[C@H](C(=O)NCCCCNC(=O)c2ccc(-c3c4nc(c(-c5ccccc5)c5ccc([nH]5)c(-c5ccccc5)c5nc(c(-c6ccccc6)c6ccc3[nH]6)C=C5)C=C4)cc2)O1
REMARK SMILES IDX 21 1 20 2 18 3 19 4 17 6 14 7 15 8 76 9 16 10 13 11 12 12
REMARK SMILES IDX 11 14 6 15 7 16 8 17 10 18 9 19 3 20 4 21 5 22 2 23 1 24
REMARK SMILES IDX 22 25 23 26 24 27 25 28 26 29 27 31 28 32 29 33 75 34 30 35
REMARK SMILES IDX 74 36 31 37 32 38 33 39 68 40 34 41 73 42 67 43 69 44 35 45
REMARK SMILES IDX 72 46 66 47 65 48 36 50 58 51 43 52 57 53 44 54 47 55 56 56
REMARK SMILES IDX 70 57 45 58 46 59 55 61 71 62 48 63 37 64 38 65 42 66 39 67
REMARK SMILES IDX 41 68 40 69 59 70 60 71 64 72 61 73 63 74 62 75 49 76 50 77
REMARK SMILES IDX 54 78 51 79 53 80 52 81
REMARK H PARENT 20 5 12 13 25 30 69 49 47 60
REMARK Flexibility Score: inf
ROOT
ATOM      1  C   UNL A   1      32.338  29.972  25.407  1.00  0.00     0.116 C 
ENDROOT
BRANCH   1   2
ATOM      2  N   UNL A   1      31.323  29.767  24.398  1.00  0.00    -0.354 N 
ATOM      3  C   UNL A   1      31.077  28.674  23.622  1.00  0.00     0.249 C 
ATOM      4  O   UNL A   1      30.162  28.759  22.796  1.00  0.00    -0.272 OA
ATOM      5  H   UNL A   1      30.718  30.531  24.251  1.00  0.00     0.163 HD
BRANCH   3   6
ATOM      6  C   UNL A   1      31.948  27.395  23.702  1.00  0.00     0.207 C 
ATOM      7  C   UNL A   1      32.302  25.479  22.383  1.00  0.00     0.138 C 
ATOM      8  C   UNL A   1      31.129  25.188  23.303  1.00  0.00     0.037 C 
ATOM      9  O   UNL A   1      32.494  26.909  22.470  1.00  0.00    -0.363 OA
ATOM     10  C   UNL A   1      31.227  26.239  24.379  1.00  0.00     0.045 C 
BRANCH   7  11
ATOM     11  C   UNL A   1      33.622  24.757  22.723  1.00  0.00     0.145 C 
BRANCH  11  12
ATOM     12  N   UNL A   1      33.541  23.312  22.534  1.00  0.00    -0.381 N 
ATOM     13  H   UNL A   1      33.466  23.013  21.600  1.00  0.00     0.160 HD
BRANCH  12  14
ATOM     14  C   UNL A   1      33.554  22.308  23.476  1.00  0.00     0.053 A 
ATOM     15  C   UNL A   1      34.710  21.843  24.139  1.00  0.00     0.090 A 
ATOM     16  C   UNL A   1      34.628  20.775  25.070  1.00  0.00     0.022 A 
ATOM     17  C   UNL A   1      33.422  20.152  25.360  1.00  0.00     0.001 A 
ATOM     18  C   UNL A   1      32.346  21.660  23.819  1.00  0.00     0.027 A 
ATOM     19  C   UNL A   1      32.275  20.599  24.732  1.00  0.00     0.002 A 
BRANCH  15  20
ATOM     20  S   UNL A   1      36.396  22.434  23.983  1.00  0.00     0.180 S 
ATOM     21  O   UNL A   1      36.529  22.914  22.619  1.00  0.00    -0.224 OA
ATOM     22  O   UNL A   1      37.225  21.329  24.442  1.00  0.00    -0.224 OA
BRANCH  20  23
ATOM     23  C   UNL A   1      36.792  23.772  25.062  1.00  0.00     0.139 C 
ATOM     24  C   UNL A   1      37.846  23.456  26.108  1.00  0.00     0.021 C 
ENDBRANCH  20  23
ENDBRANCH  15  20
ENDBRANCH  12  14
ENDBRANCH  11  12
ENDBRANCH   7  11
ENDBRANCH   3   6
ENDBRANCH   1   2
BRANCH   1  25
ATOM     25  C   UNL A   1      31.738  30.522  26.702  1.00  0.00     0.023 C 
BRANCH  25  26
ATOM     26  C   UNL A   1      31.478  32.023  26.717  1.00  0.00     0.023 C 
BRANCH  26  27
ATOM     27  C   UNL A   1      32.656  32.849  27.214  1.00  0.00     0.116 C 
BRANCH  27  28
ATOM     28  N   UNL A   1      32.304  34.191  27.649  1.00  0.00    -0.352 N 
ATOM     29  C   UNL A   1      32.951  34.973  28.582  1.00  0.00     0.251 C 
ATOM     30  H   UNL A   1      31.508  34.589  27.227  1.00  0.00     0.163 HD
ATOM     31  O   UNL A   1      32.505  36.055  28.914  1.00  0.00    -0.269 OA
BRANCH  29  32
ATOM     32  C   UNL A   1      34.175  34.435  29.212  1.00  0.00     0.039 A 
ATOM     33  C   UNL A   1      34.046  33.617  30.335  1.00  0.00     0.014 A 
ATOM     34  C   UNL A   1      35.429  34.684  28.651  1.00  0.00     0.014 A 
ATOM     35  C   UNL A   1      35.180  33.003  30.864  1.00  0.00     0.010 A 
ATOM     36  C   UNL A   1      36.539  33.997  29.119  1.00  0.00     0.010 A 
ATOM     37  C   UNL A   1      36.428  33.167  30.243  1.00  0.00    -0.014 A 
BRANCH  37  38
ATOM     38  C   UNL A   1      37.643  32.517  30.787  1.00  0.00     0.031 A 
ATOM     39  C   UNL A   1      38.223  32.993  32.089  1.00  0.00     0.074 A 
ATOM     40  C   UNL A   1      38.249  31.539  30.088  1.00  0.00     0.049 A 
ATOM     41  N   UNL A   1      39.278  32.561  32.730  1.00  0.00    -0.248 NA
ATOM     42  C   UNL A   1      37.550  34.130  32.741  1.00  0.00     0.031 C 
ATOM     43  C   UNL A   1      37.823  31.038  28.779  1.00  0.00     0.029 A 
ATOM     44  N   UNL A   1      39.357  30.790  30.386  1.00  0.00    -0.354 N 
ATOM     45  C   UNL A   1      39.407  33.386  33.839  1.00  0.00     0.074 A 
ATOM     46  C   UNL A   1      38.363  34.382  33.755  1.00  0.00     0.031 C 
ATOM     47  C   UNL A   1      38.637  30.038  28.407  1.00  0.00     0.029 A 
ATOM     48  C   UNL A   1      39.651  29.843  29.436  1.00  0.00     0.049 A 
ATOM     49  H   UNL A   1      39.892  30.918  31.203  1.00  0.00     0.167 HD
ATOM     50  C   UNL A   1      40.297  33.308  34.856  1.00  0.00     0.031 A 
ATOM     51  C   UNL A   1      40.623  28.911  29.411  1.00  0.00     0.031 A 
ATOM     52  C   UNL A   1      41.315  32.298  34.956  1.00  0.00     0.049 A 
ATOM     53  C   UNL A   1      41.563  28.804  30.577  1.00  0.00     0.074 A 
ATOM     54  C   UNL A   1      42.222  32.083  35.977  1.00  0.00     0.029 A 
ATOM     55  N   UNL A   1      41.551  31.327  33.996  1.00  0.00    -0.354 N 
ATOM     56  N   UNL A   1      41.621  29.539  31.663  1.00  0.00    -0.248 NA
ATOM     57  C   UNL A   1      42.556  27.722  30.527  1.00  0.00     0.031 C 
ATOM     58  C   UNL A   1      43.031  31.000  35.619  1.00  0.00     0.029 A 
ATOM     59  C   UNL A   1      42.596  30.514  34.395  1.00  0.00     0.049 A 
ATOM     60  H   UNL A   1      41.049  31.230  33.154  1.00  0.00     0.167 HD
ATOM     61  C   UNL A   1      42.634  28.990  32.437  1.00  0.00     0.074 A 
ATOM     62  C   UNL A   1      43.153  27.853  31.704  1.00  0.00     0.031 C 
ATOM     63  C   UNL A   1      43.094  29.389  33.649  1.00  0.00     0.031 A 
BRANCH  50  64
ATOM     64  C   UNL A   1      40.195  34.347  35.937  1.00  0.00    -0.014 A 
ATOM     65  C   UNL A   1      40.938  35.539  35.872  1.00  0.00     0.009 A 
ATOM     66  C   UNL A   1      39.351  34.133  37.035  1.00  0.00     0.009 A 
ATOM     67  C   UNL A   1      40.871  36.471  36.908  1.00  0.00     0.001 A 
ATOM     68  C   UNL A   1      39.262  35.082  38.056  1.00  0.00     0.001 A 
ATOM     69  C   UNL A   1      40.031  36.243  37.998  1.00  0.00     0.000 A 
ENDBRANCH  50  64
BRANCH  51  70
ATOM     70  C   UNL A   1      40.715  27.967  28.269  1.00  0.00    -0.014 A 
ATOM     71  C   UNL A   1      40.080  26.717  28.328  1.00  0.00     0.009 A 
ATOM     72  C   UNL A   1      41.432  28.311  27.113  1.00  0.00     0.009 A 
ATOM     73  C   UNL A   1      40.182  25.819  27.264  1.00  0.00     0.001 A 
ATOM     74  C   UNL A   1      41.512  27.420  26.040  1.00  0.00     0.001 A 
ATOM     75  C   UNL A   1      40.895  26.173  26.119  1.00  0.00     0.000 A 
ENDBRANCH  51  70
BRANCH  63  76
ATOM     76  C   UNL A   1      44.187  28.566  34.267  1.00  0.00    -0.014 A 
ATOM     77  C   UNL A   1      45.540  28.878  34.060  1.00  0.00     0.009 A 
ATOM     78  C   UNL A   1      43.855  27.483  35.094  1.00  0.00     0.009 A 
ATOM     79  C   UNL A   1      46.539  28.095  34.641  1.00  0.00     0.001 A 
ATOM     80  C   UNL A   1      44.855  26.718  35.695  1.00  0.00     0.001 A 
ATOM     81  C   UNL A   1      46.196  27.018  35.459  1.00  0.00     0.000 A 
ENDBRANCH  63  76
ENDBRANCH  37  38
ENDBRANCH  29  32
ENDBRANCH  27  28
ENDBRANCH  26  27
ENDBRANCH  25  26
ENDBRANCH   1  25
TORSDOF 16
ENDMDL
MODEL 2
REMARK VINA RESULT:     -11.0      2.970      4.354
REMARK SMILES CCS(=O)(=O)c1ccccc1NC[C@H]1CC[C@H](C(=O)NCCCCNC(=O)c2ccc(-c3c4nc(c(-c5ccccc5)c5ccc([nH]5)c(-c5ccccc5)c5nc(c(-c6ccccc6)c6ccc3[nH]6)C=C5)C=C4)cc2)O1
REMARK SMILES IDX 21 1 20 2 18 3 19 4 17 6 14 7 15 8 76 9 16 10 13 11 12 12
REMARK SMILES IDX 11 14 6 15 7 16 8 17 10 18 9 19 3 20 4 21 5 22 2 23 1 24
REMARK SMILES IDX 22 25 23 26 24 27 25 28 26 29 27 31 28 32 29 33 75 34 30 35
REMARK SMILES IDX 74 36 31 37 32 38 33 39 68 40 34 41 73 42 67 43 69 44 35 45
REMARK SMILES IDX 72 46 66 47 65 48 36 50 58 51 43 52 57 53 44 54 47 55 56 56
REMARK SMILES IDX 70 57 45 58 46 59 55 61 71 62 48 63 37 64 38 65 42 66 39 67
REMARK SMILES IDX 41 68 40 69 59 70 60 71 64 72 61 73 63 74 62 75 49 76 50 77
REMARK SMILES IDX 54 78 51 79 53 80 52 81
REMARK H PARENT 20 5 12 13 25 30 69 49 47 60
REMARK Flexibility Score: inf
ROOT
ATOM      1  C   UNL A   1      31.547  28.991  24.946  1.00  0.00     0.116 C 
ENDROOT
BRANCH   1   2
ATOM      2  N   UNL A   1      30.868  29.322  23.713  1.00  0.00    -0.354 N 
ATOM      3  C   UNL A   1      30.512  28.515  22.673  1.00  0.00     0.249 C 
ATOM      4  O   UNL A   1      29.967  29.049  21.702  1.00  0.00    -0.272 OA
ATOM      5  H   UNL A   1      30.626  30.271  23.609  1.00  0.00     0.163 HD
BRANCH   3   6
ATOM      6  C   UNL A   1      30.840  27.001  22.657  1.00  0.00     0.207 C 
ATOM      7  C   UNL A   1      31.989  25.482  24.039  1.00  0.00     0.138 C 
ATOM      8  C   UNL A   1      33.006  26.093  23.090  1.00  0.00     0.037 C 
ATOM      9  O   UNL A   1      30.819  26.324  23.919  1.00  0.00    -0.363 OA
ATOM     10  C   UNL A   1      32.173  26.699  21.989  1.00  0.00     0.045 C 
BRANCH   7  11
ATOM     11  C   UNL A   1      31.603  24.015  23.762  1.00  0.00     0.145 C 
BRANCH  11  12
ATOM     12  N   UNL A   1      32.752  23.185  23.413  1.00  0.00    -0.381 N 
ATOM     13  H   UNL A   1      33.324  23.538  22.695  1.00  0.00     0.160 HD
BRANCH  12  14
ATOM     14  C   UNL A   1      33.149  21.979  23.945  1.00  0.00     0.053 A 
ATOM     15  C   UNL A   1      34.480  21.645  24.278  1.00  0.00     0.090 A 
ATOM     16  C   UNL A   1      34.795  20.359  24.788  1.00  0.00     0.022 A 
ATOM     17  C   UNL A   1      33.820  19.389  24.975  1.00  0.00     0.001 A 
ATOM     18  C   UNL A   1      32.186  20.969  24.173  1.00  0.00     0.027 A 
ATOM     19  C   UNL A   1      32.509  19.697  24.666  1.00  0.00     0.002 A 
BRANCH  15  20
ATOM     20  S   UNL A   1      35.947  22.668  24.153  1.00  0.00     0.180 S 
ATOM     21  O   UNL A   1      35.713  23.572  23.041  1.00  0.00    -0.224 OA
ATOM     22  O   UNL A   1      37.056  21.726  24.095  1.00  0.00    -0.224 OA
BRANCH  20  23
ATOM     23  C   UNL A   1      36.264  23.649  25.584  1.00  0.00     0.139 C 
ATOM     24  C   UNL A   1      37.731  23.783  25.952  1.00  0.00     0.021 C 
ENDBRANCH  20  23
ENDBRANCH  15  20
ENDBRANCH  12  14
ENDBRANCH  11  12
ENDBRANCH   7  11
ENDBRANCH   3   6
ENDBRANCH   1   2
BRANCH   1  25
ATOM     25  C   UNL A   1      33.040  29.317  24.868  1.00  0.00     0.023 C 
BRANCH  25  26
ATOM     26  C   UNL A   1      33.936  28.507  25.796  1.00  0.00     0.023 C 
BRANCH  26  27
ATOM     27  C   UNL A   1      33.614  28.681  27.273  1.00  0.00     0.116 C 
BRANCH  27  28
ATOM     28  N   UNL A   1      33.508  30.067  27.702  1.00  0.00    -0.352 N 
ATOM     29  C   UNL A   1      34.482  30.844  28.293  1.00  0.00     0.251 C 
ATOM     30  H   UNL A   1      32.637  30.501  27.554  1.00  0.00     0.163 HD
ATOM     31  O   UNL A   1      34.238  31.972  28.678  1.00  0.00    -0.269 OA
BRANCH  29  32
ATOM     32  C   UNL A   1      35.819  30.249  28.496  1.00  0.00     0.039 A 
ATOM     33  C   UNL A   1      36.757  30.345  27.468  1.00  0.00     0.014 A 
ATOM     34  C   UNL A   1      36.157  29.665  29.718  1.00  0.00     0.014 A 
ATOM     35  C   UNL A   1      38.059  29.899  27.690  1.00  0.00     0.010 A 
ATOM     36  C   UNL A   1      37.475  29.312  29.969  1.00  0.00     0.010 A 
ATOM     37  C   UNL A   1      38.433  29.405  28.950  1.00  0.00    -0.014 A 
BRANCH  37  38
ATOM     38  C   UNL A   1      39.813  28.933  29.207  1.00  0.00     0.031 A 
ATOM     39  C   UNL A   1      40.788  29.832  29.914  1.00  0.00     0.074 A 
ATOM     40  C   UNL A   1      40.200  27.723  28.762  1.00  0.00     0.049 A 
ATOM     41  N   UNL A   1      42.037  29.608  30.230  1.00  0.00    -0.248 NA
ATOM     42  C   UNL A   1      40.308  31.174  30.284  1.00  0.00     0.031 C 
ATOM     43  C   UNL A   1      39.367  26.788  28.002  1.00  0.00     0.029 A 
ATOM     44  N   UNL A   1      41.400  27.072  28.888  1.00  0.00    -0.354 N 
ATOM     45  C   UNL A   1      42.494  30.785  30.808  1.00  0.00     0.074 A 
ATOM     46  C   UNL A   1      41.412  31.740  30.745  1.00  0.00     0.031 C 
ATOM     47  C   UNL A   1      40.069  25.669  27.765  1.00  0.00     0.029 A 
ATOM     48  C   UNL A   1      41.404  25.816  28.335  1.00  0.00     0.049 A 
ATOM     49  H   UNL A   1      42.184  27.468  29.334  1.00  0.00     0.167 HD
ATOM     50  C   UNL A   1      43.699  31.043  31.370  1.00  0.00     0.031 A 
ATOM     51  C   UNL A   1      42.373  24.882  28.308  1.00  0.00     0.031 A 
ATOM     52  C   UNL A   1      44.763  30.082  31.461  1.00  0.00     0.049 A 
ATOM     53  C   UNL A   1      43.682  25.167  28.988  1.00  0.00     0.074 A 
ATOM     54  C   UNL A   1      45.997  30.214  32.072  1.00  0.00     0.029 A 
ATOM     55  N   UNL A   1      44.712  28.803  30.929  1.00  0.00    -0.354 N 
ATOM     56  N   UNL A   1      44.072  26.256  29.607  1.00  0.00    -0.248 NA
ATOM     57  C   UNL A   1      44.674  24.084  28.988  1.00  0.00     0.031 C 
ATOM     58  C   UNL A   1      46.707  29.024  31.880  1.00  0.00     0.029 A 
ATOM     59  C   UNL A   1      45.896  28.137  31.190  1.00  0.00     0.049 A 
ATOM     60  H   UNL A   1      43.946  28.425  30.439  1.00  0.00     0.167 HD
ATOM     61  C   UNL A   1      45.341  25.979  30.096  1.00  0.00     0.074 A 
ATOM     62  C   UNL A   1      45.649  24.616  29.714  1.00  0.00     0.031 C 
ATOM     63  C   UNL A   1      46.179  26.780  30.801  1.00  0.00     0.031 A 
BRANCH  50  64
ATOM     64  C   UNL A   1      43.913  32.421  31.928  1.00  0.00    -0.014 A 
ATOM     65  C   UNL A   1      43.589  32.724  33.262  1.00  0.00     0.009 A 
ATOM     66  C   UNL A   1      44.441  33.431  31.112  1.00  0.00     0.009 A 
ATOM     67  C   UNL A   1      43.745  34.022  33.751  1.00  0.00     0.001 A 
ATOM     68  C   UNL A   1      44.626  34.722  31.613  1.00  0.00     0.001 A 
ATOM     69  C   UNL A   1      44.267  35.019  32.927  1.00  0.00     0.000 A 
ENDBRANCH  50  64
BRANCH  51  70
ATOM     70  C   UNL A   1      42.119  23.568  27.665  1.00  0.00    -0.014 A 
ATOM     71  C   UNL A   1      41.495  22.535  28.383  1.00  0.00     0.009 A 
ATOM     72  C   UNL A   1      42.492  23.340  26.332  1.00  0.00     0.009 A 
ATOM     73  C   UNL A   1      41.274  21.292  27.787  1.00  0.00     0.001 A 
ATOM     74  C   UNL A   1      42.247  22.102  25.731  1.00  0.00     0.001 A 
ATOM     75  C   UNL A   1      41.647  21.078  26.461  1.00  0.00     0.000 A 
ENDBRANCH  51  70
BRANCH  63  76
ATOM     76  C   UNL A   1      47.487  26.186  31.232  1.00  0.00    -0.014 A 
ATOM     77  C   UNL A   1      47.653  25.641  32.515  1.00  0.00     0.009 A 
ATOM     78  C   UNL A   1      48.561  26.146  30.330  1.00  0.00     0.009 A 
ATOM     79  C   UNL A   1      48.881  25.099  32.897  1.00  0.00     0.001 A 
ATOM     80  C   UNL A   1      49.779  25.580  30.704  1.00  0.00     0.001 A 
ATOM     81  C   UNL A   1      49.942  25.067  31.990  1.00  0.00     0.000 A 
ENDBRANCH  63  76
ENDBRANCH  37  38
ENDBRANCH  29  32
ENDBRANCH  27  28
ENDBRANCH  26  27
ENDBRANCH  25  26
ENDBRANCH   1  25
TORSDOF 16
ENDMDL
MODEL 3
REMARK VINA RESULT:     -11.0      1.279      2.095
REMARK SMILES CCS(=O)(=O)c1ccccc1NC[C@H]1CC[C@H](C(=O)NCCCCNC(=O)c2ccc(-c3c4nc(c(-c5ccccc5)c5ccc([nH]5)c(-c5ccccc5)c5nc(c(-c6ccccc6)c6ccc3[nH]6)C=C5)C=C4)cc2)O1
REMARK SMILES IDX 21 1 20 2 18 3 19 4 17 6 14 7 15 8 76 9 16 10 13 11 12 12
REMARK SMILES IDX 11 14 6 15 7 16 8 17 10 18 9 19 3 20 4 21 5 22 2 23 1 24
REMARK SMILES IDX 22 25 23 26 24 27 25 28 26 29 27 31 28 32 29 33 75 34 30 35
REMARK SMILES IDX 74 36 31 37 32 38 33 39 68 40 34 41 73 42 67 43 69 44 35 45
REMARK SMILES IDX 72 46 66 47 65 48 36 50 58 51 43 52 57 53 44 54 47 55 56 56
REMARK SMILES IDX 70 57 45 58 46 59 55 61 71 62 48 63 37 64 38 65 42 66 39 67
REMARK SMILES IDX 41 68 40 69 59 70 60 71 64 72 61 73 63 74 62 75 49 76 50 77
REMARK SMILES IDX 54 78 51 79 53 80 52 81
REMARK H PARENT 20 5 12 13 25 30 69 49 47 60
REMARK Flexibility Score: inf
ROOT
ATOM      1  C   UNL A   1      32.319  29.807  25.316  1.00  0.00     0.116 C 
ENDROOT
BRANCH   1   2
ATOM      2  N   UNL A   1      31.288  29.568  24.331  1.00  0.00    -0.354 N 
ATOM      3  C   UNL A   1      30.768  28.389  23.885  1.00  0.00     0.249 C 
ATOM      4  O   UNL A   1      29.909  28.448  22.999  1.00  0.00    -0.272 OA
ATOM      5  H   UNL A   1      30.903  30.378  23.923  1.00  0.00     0.163 HD
BRANCH   3   6
ATOM      6  C   UNL A   1      31.276  27.019  24.399  1.00  0.00     0.207 C 
ATOM      7  C   UNL A   1      32.063  25.017  23.447  1.00  0.00     0.138 C 
ATOM      8  C   UNL A   1      30.551  24.912  23.542  1.00  0.00     0.037 C 
ATOM      9  O   UNL A   1      32.351  26.416  23.671  1.00  0.00    -0.363 OA
ATOM     10  C   UNL A   1      30.161  25.991  24.520  1.00  0.00     0.045 C 
BRANCH   7  11
ATOM     11  C   UNL A   1      32.863  24.156  24.446  1.00  0.00     0.145 C 
BRANCH  11  12
ATOM     12  N   UNL A   1      33.244  22.859  23.896  1.00  0.00    -0.381 N 
ATOM     13  H   UNL A   1      32.641  22.499  23.207  1.00  0.00     0.160 HD
BRANCH  12  14
ATOM     14  C   UNL A   1      34.328  22.067  24.203  1.00  0.00     0.053 A 
ATOM     15  C   UNL A   1      34.248  20.717  24.610  1.00  0.00     0.090 A 
ATOM     16  C   UNL A   1      35.422  19.993  24.942  1.00  0.00     0.022 A 
ATOM     17  C   UNL A   1      36.680  20.577  24.884  1.00  0.00     0.001 A 
ATOM     18  C   UNL A   1      35.630  22.613  24.136  1.00  0.00     0.027 A 
ATOM     19  C   UNL A   1      36.783  21.893  24.478  1.00  0.00     0.002 A 
BRANCH  15  20
ATOM     20  S   UNL A   1      32.786  19.692  24.782  1.00  0.00     0.180 S 
ATOM     21  O   UNL A   1      31.693  20.599  25.083  1.00  0.00    -0.224 OA
ATOM     22  O   UNL A   1      33.159  18.668  25.748  1.00  0.00    -0.224 OA
BRANCH  20  23
ATOM     23  C   UNL A   1      32.357  18.801  23.322  1.00  0.00     0.139 C 
ATOM     24  C   UNL A   1      33.067  17.468  23.159  1.00  0.00     0.021 C 
ENDBRANCH  20  23
ENDBRANCH  15  20
ENDBRANCH  12  14
ENDBRANCH  11  12
ENDBRANCH   7  11
ENDBRANCH   3   6
ENDBRANCH   1   2
BRANCH   1  25
ATOM     25  C   UNL A   1      31.726  30.299  26.638  1.00  0.00     0.023 C 
BRANCH  25  26
ATOM     26  C   UNL A   1      31.462  31.797  26.720  1.00  0.00     0.023 C 
BRANCH  26  27
ATOM     27  C   UNL A   1      32.659  32.611  27.190  1.00  0.00     0.116 C 
BRANCH  27  28
ATOM     28  N   UNL A   1      32.336  33.970  27.595  1.00  0.00    -0.352 N 
ATOM     29  C   UNL A   1      33.016  34.767  28.492  1.00  0.00     0.251 C 
ATOM     30  H   UNL A   1      31.537  34.368  27.180  1.00  0.00     0.163 HD
ATOM     31  O   UNL A   1      32.593  35.864  28.804  1.00  0.00    -0.269 OA
BRANCH  29  32
ATOM     32  C   UNL A   1      34.247  34.228  29.108  1.00  0.00     0.039 A 
ATOM     33  C   UNL A   1      34.128  33.406  30.229  1.00  0.00     0.014 A 
ATOM     34  C   UNL A   1      35.494  34.481  28.536  1.00  0.00     0.014 A 
ATOM     35  C   UNL A   1      35.268  32.791  30.746  1.00  0.00     0.010 A 
ATOM     36  C   UNL A   1      36.610  33.793  28.992  1.00  0.00     0.010 A 
ATOM     37  C   UNL A   1      36.510  32.959  30.114  1.00  0.00    -0.014 A 
BRANCH  37  38
ATOM     38  C   UNL A   1      37.731  32.309  30.644  1.00  0.00     0.031 A 
ATOM     39  C   UNL A   1      38.355  32.818  31.913  1.00  0.00     0.074 A 
ATOM     40  C   UNL A   1      38.302  31.300  29.960  1.00  0.00     0.049 A 
ATOM     41  N   UNL A   1      39.422  32.390  32.537  1.00  0.00    -0.248 NA
ATOM     42  C   UNL A   1      37.718  33.985  32.546  1.00  0.00     0.031 C 
ATOM     43  C   UNL A   1      37.832  30.762  28.681  1.00  0.00     0.029 A 
ATOM     44  N   UNL A   1      39.408  30.543  30.251  1.00  0.00    -0.354 N 
ATOM     45  C   UNL A   1      39.595  33.249  33.615  1.00  0.00     0.074 A 
ATOM     46  C   UNL A   1      38.563  34.257  33.527  1.00  0.00     0.031 C 
ATOM     47  C   UNL A   1      38.620  29.738  28.319  1.00  0.00     0.029 A 
ATOM     48  C   UNL A   1      39.661  29.562  29.325  1.00  0.00     0.049 A 
ATOM     49  H   UNL A   1      39.968  30.690  31.048  1.00  0.00     0.167 HD
ATOM     50  C   UNL A   1      40.513  33.190  34.608  1.00  0.00     0.031 A 
ATOM     51  C   UNL A   1      40.618  28.615  29.303  1.00  0.00     0.031 A 
ATOM     52  C   UNL A   1      41.518  32.169  34.712  1.00  0.00     0.049 A 
ATOM     53  C   UNL A   1      41.590  28.531  30.445  1.00  0.00     0.074 A 
ATOM     54  C   UNL A   1      42.451  31.973  35.713  1.00  0.00     0.029 A 
ATOM     55  N   UNL A   1      41.713  31.164  33.778  1.00  0.00    -0.354 N 
ATOM     56  N   UNL A   1      41.690  29.300  31.504  1.00  0.00    -0.248 NA
ATOM     57  C   UNL A   1      42.566  27.433  30.401  1.00  0.00     0.031 C 
ATOM     58  C   UNL A   1      43.235  30.867  35.368  1.00  0.00     0.029 A 
ATOM     59  C   UNL A   1      42.758  30.348  34.174  1.00  0.00     0.049 A 
ATOM     60  H   UNL A   1      41.185  31.047  32.954  1.00  0.00     0.167 HD
ATOM     61  C   UNL A   1      42.717  28.761  32.266  1.00  0.00     0.074 A 
ATOM     62  C   UNL A   1      43.198  27.593  31.556  1.00  0.00     0.031 C 
ATOM     63  C   UNL A   1      43.218  29.192  33.451  1.00  0.00     0.031 A 
BRANCH  50  64
ATOM     64  C   UNL A   1      40.457  34.265  35.656  1.00  0.00    -0.014 A 
ATOM     65  C   UNL A   1      39.699  34.099  36.829  1.00  0.00     0.009 A 
ATOM     66  C   UNL A   1      41.165  35.461  35.470  1.00  0.00     0.009 A 
ATOM     67  C   UNL A   1      39.616  35.127  37.769  1.00  0.00     0.001 A 
ATOM     68  C   UNL A   1      41.106  36.476  36.427  1.00  0.00     0.001 A 
ATOM     69  C   UNL A   1      40.322  36.313  37.569  1.00  0.00     0.000 A 
ENDBRANCH  50  64
BRANCH  51  70
ATOM     70  C   UNL A   1      40.664  27.633  28.190  1.00  0.00    -0.014 A 
ATOM     71  C   UNL A   1      41.363  27.930  27.010  1.00  0.00     0.009 A 
ATOM     72  C   UNL A   1      40.015  26.394  28.302  1.00  0.00     0.009 A 
ATOM     73  C   UNL A   1      41.390  27.018  25.953  1.00  0.00     0.001 A 
ATOM     74  C   UNL A   1      40.064  25.473  27.252  1.00  0.00     0.001 A 
ATOM     75  C   UNL A   1      40.743  25.789  26.077  1.00  0.00     0.000 A 
ENDBRANCH  51  70
BRANCH  63  76
ATOM     76  C   UNL A   1      44.316  28.373  34.065  1.00  0.00    -0.014 A 
ATOM     77  C   UNL A   1      44.039  27.185  34.758  1.00  0.00     0.009 A 
ATOM     78  C   UNL A   1      45.649  28.784  33.919  1.00  0.00     0.009 A 
ATOM     79  C   UNL A   1      45.076  26.444  35.327  1.00  0.00     0.001 A 
ATOM     80  C   UNL A   1      46.686  28.028  34.465  1.00  0.00     0.001 A 
ATOM     81  C   UNL A   1      46.398  26.864  35.177  1.00  0.00     0.000 A 
ENDBRANCH  63  76
ENDBRANCH  37  38
ENDBRANCH  29  32
ENDBRANCH  27  28
ENDBRANCH  26  27
ENDBRANCH  25  26
ENDBRANCH   1  25
TORSDOF 16
ENDMDL
