MODEL 1
REMARK VINA RESULT:      -9.1      0.000      0.000
REMARK SMILES C[C@@H](C(=O)NCCCCNC(=O)c1ccc(-c2c3nc(c(-c4ccccc4)c4ccc([nH]4)c(-c4ccccc4)c4nc(c(-c5ccccc5)c5ccc2[nH]5)C=C4)C=C3)cc1)c1ccc(Cc2ccco2)cc1F
REMARK SMILES IDX 7 1 6 2 5 3 3 4 4 5 2 7 1 8 61 9 62 10 72 11 63 12 71 13
REMARK SMILES IDX 73 14 64 15 65 16 66 17 67 18 70 19 68 20 69 21 8 22 9 23
REMARK SMILES IDX 10 24 11 25 12 27 13 28 14 29 60 30 15 31 59 32 16 33 17 34
REMARK SMILES IDX 18 35 53 36 19 37 58 38 52 39 54 40 20 41 57 42 51 43 50 44
REMARK SMILES IDX 21 46 43 47 28 48 42 49 29 50 32 51 41 52 55 53 30 54 31 55
REMARK SMILES IDX 40 57 56 58 33 59 22 60 23 61 27 62 24 63 26 64 25 65 44 66
REMARK SMILES IDX 45 67 49 68 46 69 48 70 47 71 34 72 35 73 39 74 36 75 38 76
REMARK SMILES IDX 37 77
REMARK H PARENT 5 6 10 26 54 45 32 56
REMARK Flexibility Score: inf
ROOT
ATOM      1  C   UNL A   1      34.063  35.830  33.180  1.00  0.00     0.023 C 
ENDROOT
BRANCH   1   2
ATOM      2  C   UNL A   1      34.981  34.611  33.305  1.00  0.00     0.116 C 
BRANCH   2   3
ATOM      3  N   UNL A   1      36.350  35.024  33.524  1.00  0.00    -0.356 N 
ATOM      4  C   UNL A   1      37.293  34.514  34.369  1.00  0.00     0.227 C 
ATOM      5  O   UNL A   1      38.332  35.166  34.491  1.00  0.00    -0.274 OA
ATOM      6  H   UNL A   1      36.647  35.788  32.980  1.00  0.00     0.163 HD
BRANCH   4   7
ATOM      7  C   UNL A   1      37.048  33.176  35.094  1.00  0.00     0.108 C 
ATOM      8  C   UNL A   1      37.350  33.280  36.595  1.00  0.00     0.023 C 
BRANCH   7   9
ATOM      9  C   UNL A   1      37.833  32.049  34.429  1.00  0.00    -0.000 A 
ATOM     10  C   UNL A   1      37.238  31.133  33.551  1.00  0.00     0.008 A 
ATOM     11  C   UNL A   1      39.187  31.873  34.733  1.00  0.00     0.127 A 
ATOM     12  C   UNL A   1      37.981  30.097  32.987  1.00  0.00     0.005 A 
ATOM     13  C   UNL A   1      39.927  30.814  34.205  1.00  0.00     0.043 A 
ATOM     14  F   UNL A   1      39.800  32.739  35.555  1.00  0.00    -0.207 F 
ATOM     15  C   UNL A   1      39.324  29.899  33.331  1.00  0.00    -0.038 A 
BRANCH  15  16
ATOM     16  C   UNL A   1      40.099  28.733  32.757  1.00  0.00     0.111 C 
BRANCH  16  17
ATOM     17  C   UNL A   1      41.108  28.144  33.690  1.00  0.00     0.108 A 
ATOM     18  C   UNL A   1      42.376  28.512  34.101  1.00  0.00     0.046 A 
ATOM     19  O   UNL A   1      40.730  27.007  34.348  1.00  0.00    -0.469 OA
ATOM     20  C   UNL A   1      42.798  27.542  35.038  1.00  0.00     0.042 A 
ATOM     21  C   UNL A   1      41.760  26.650  35.157  1.00  0.00     0.195 A 
ENDBRANCH  16  17
ENDBRANCH  15  16
ENDBRANCH   7   9
ENDBRANCH   4   7
ENDBRANCH   2   3
ENDBRANCH   1   2
BRANCH   1  22
ATOM     22  C   UNL A   1      33.029  35.733  32.055  1.00  0.00     0.023 C 
BRANCH  22  23
ATOM     23  C   UNL A   1      33.558  36.059  30.666  1.00  0.00     0.116 C 
BRANCH  23  24
ATOM     24  N   UNL A   1      32.785  35.432  29.605  1.00  0.00    -0.352 N 
ATOM     25  C   UNL A   1      33.136  34.392  28.782  1.00  0.00     0.251 C 
ATOM     26  H   UNL A   1      31.886  35.806  29.458  1.00  0.00     0.163 HD
ATOM     27  O   UNL A   1      32.412  34.075  27.842  1.00  0.00    -0.269 OA
BRANCH  25  28
ATOM     28  C   UNL A   1      34.408  33.678  29.012  1.00  0.00     0.039 A 
ATOM     29  C   UNL A   1      35.475  33.904  28.138  1.00  0.00     0.014 A 
ATOM     30  C   UNL A   1      34.556  32.807  30.094  1.00  0.00     0.014 A 
ATOM     31  C   UNL A   1      36.710  33.306  28.389  1.00  0.00     0.010 A 
ATOM     32  C   UNL A   1      35.807  32.274  30.386  1.00  0.00     0.010 A 
ATOM     33  C   UNL A   1      36.897  32.515  29.535  1.00  0.00    -0.014 A 
BRANCH  33  34
ATOM     34  C   UNL A   1      38.224  31.937  29.860  1.00  0.00     0.031 A 
ATOM     35  C   UNL A   1      39.208  32.716  30.688  1.00  0.00     0.074 A 
ATOM     36  C   UNL A   1      38.566  30.732  29.362  1.00  0.00     0.049 A 
ATOM     37  N   UNL A   1      40.427  32.394  31.040  1.00  0.00    -0.248 NA
ATOM     38  C   UNL A   1      38.775  34.040  31.164  1.00  0.00     0.031 C 
ATOM     39  C   UNL A   1      37.717  29.892  28.513  1.00  0.00     0.029 A 
ATOM     40  N   UNL A   1      39.722  30.004  29.498  1.00  0.00    -0.354 N 
ATOM     41  C   UNL A   1      40.908  33.477  31.765  1.00  0.00     0.074 A 
ATOM     42  C   UNL A   1      39.872  34.487  31.755  1.00  0.00     0.031 C 
ATOM     43  C   UNL A   1      38.369  28.753  28.231  1.00  0.00     0.029 A 
ATOM     44  C   UNL A   1      39.694  28.799  28.841  1.00  0.00     0.049 A 
ATOM     45  H   UNL A   1      40.497  30.318  30.017  1.00  0.00     0.167 HD
ATOM     46  C   UNL A   1      42.095  33.612  32.402  1.00  0.00     0.031 A 
ATOM     47  C   UNL A   1      40.632  27.839  28.736  1.00  0.00     0.031 A 
ATOM     48  C   UNL A   1      43.126  32.608  32.414  1.00  0.00     0.049 A 
ATOM     49  C   UNL A   1      41.954  28.025  29.429  1.00  0.00     0.074 A 
ATOM     50  C   UNL A   1      44.344  32.632  33.069  1.00  0.00     0.029 A 
ATOM     51  N   UNL A   1      43.059  31.402  31.734  1.00  0.00    -0.354 N 
ATOM     52  N   UNL A   1      42.365  29.026  30.170  1.00  0.00    -0.248 NA
ATOM     53  C   UNL A   1      42.936  26.943  29.280  1.00  0.00     0.031 C 
ATOM     54  C   UNL A   1      45.039  31.463  32.741  1.00  0.00     0.029 A 
ATOM     55  C   UNL A   1      44.227  30.684  31.933  1.00  0.00     0.049 A 
ATOM     56  H   UNL A   1      42.296  31.101  31.190  1.00  0.00     0.167 HD
ATOM     57  C   UNL A   1      43.639  28.678  30.600  1.00  0.00     0.074 A 
ATOM     58  C   UNL A   1      43.924  27.369  30.052  1.00  0.00     0.031 C 
ATOM     59  C   UNL A   1      44.496  29.382  31.381  1.00  0.00     0.031 A 
BRANCH  46  60
ATOM     60  C   UNL A   1      42.344  34.902  33.136  1.00  0.00    -0.014 A 
ATOM     61  C   UNL A   1      41.844  35.109  34.432  1.00  0.00     0.009 A 
ATOM     62  C   UNL A   1      43.114  35.910  32.539  1.00  0.00     0.009 A 
ATOM     63  C   UNL A   1      42.077  36.314  35.098  1.00  0.00     0.001 A 
ATOM     64  C   UNL A   1      43.373  37.102  33.218  1.00  0.00     0.001 A 
ATOM     65  C   UNL A   1      42.845  37.307  34.493  1.00  0.00     0.000 A 
ENDBRANCH  46  60
BRANCH  47  66
ATOM     66  C   UNL A   1      40.356  26.605  27.954  1.00  0.00    -0.014 A 
ATOM     67  C   UNL A   1      39.617  25.553  28.518  1.00  0.00     0.009 A 
ATOM     68  C   UNL A   1      40.843  26.463  26.645  1.00  0.00     0.009 A 
ATOM     69  C   UNL A   1      39.400  24.374  27.802  1.00  0.00     0.001 A 
ATOM     70  C   UNL A   1      40.598  25.296  25.919  1.00  0.00     0.001 A 
ATOM     71  C   UNL A   1      39.887  24.248  26.501  1.00  0.00     0.000 A 
ENDBRANCH  47  66
BRANCH  59  72
ATOM     72  C   UNL A   1      45.807  28.730  31.722  1.00  0.00    -0.014 A 
ATOM     73  C   UNL A   1      45.960  27.953  32.882  1.00  0.00     0.009 A 
ATOM     74  C   UNL A   1      46.898  28.868  30.848  1.00  0.00     0.009 A 
ATOM     75  C   UNL A   1      47.189  27.359  33.176  1.00  0.00     0.001 A 
ATOM     76  C   UNL A   1      48.114  28.246  31.129  1.00  0.00     0.001 A 
ATOM     77  C   UNL A   1      48.262  27.501  32.297  1.00  0.00     0.000 A 
ENDBRANCH  59  72
ENDBRANCH  33  34
ENDBRANCH  25  28
ENDBRANCH  23  24
ENDBRANCH  22  23
ENDBRANCH   1  22
TORSDOF 14
ENDMDL
MODEL 2
REMARK VINA RESULT:      -8.9      0.271      6.014
REMARK SMILES C[C@@H](C(=O)NCCCCNC(=O)c1ccc(-c2c3nc(c(-c4ccccc4)c4ccc([nH]4)c(-c4ccccc4)c4nc(c(-c5ccccc5)c5ccc2[nH]5)C=C4)C=C3)cc1)c1ccc(Cc2ccco2)cc1F
REMARK SMILES IDX 7 1 6 2 5 3 3 4 4 5 2 7 1 8 61 9 62 10 72 11 63 12 71 13
REMARK SMILES IDX 73 14 64 15 65 16 66 17 67 18 70 19 68 20 69 21 8 22 9 23
REMARK SMILES IDX 10 24 11 25 12 27 13 28 14 29 60 30 15 31 59 32 16 33 17 34
REMARK SMILES IDX 18 35 53 36 19 37 58 38 52 39 54 40 20 41 57 42 51 43 50 44
REMARK SMILES IDX 21 46 43 47 28 48 42 49 29 50 32 51 41 52 55 53 30 54 31 55
REMARK SMILES IDX 40 57 56 58 33 59 22 60 23 61 27 62 24 63 26 64 25 65 44 66
REMARK SMILES IDX 45 67 49 68 46 69 48 70 47 71 34 72 35 73 39 74 36 75 38 76
REMARK SMILES IDX 37 77
REMARK H PARENT 5 6 10 26 54 45 32 56
REMARK Flexibility Score: inf
ROOT
ATOM      1  C   UNL A   1      34.177  35.648  33.120  1.00  0.00     0.023 C 
ENDROOT
BRANCH   1   2
ATOM      2  C   UNL A   1      35.090  34.461  33.436  1.00  0.00     0.116 C 
BRANCH   2   3
ATOM      3  N   UNL A   1      36.443  34.908  33.680  1.00  0.00    -0.356 N 
ATOM      4  C   UNL A   1      37.388  34.414  34.532  1.00  0.00     0.227 C 
ATOM      5  O   UNL A   1      38.406  35.094  34.679  1.00  0.00    -0.274 OA
ATOM      6  H   UNL A   1      36.727  35.689  33.152  1.00  0.00     0.163 HD
BRANCH   4   7
ATOM      7  C   UNL A   1      37.172  33.060  35.236  1.00  0.00     0.108 C 
ATOM      8  C   UNL A   1      37.503  33.139  36.733  1.00  0.00     0.023 C 
BRANCH   7   9
ATOM      9  C   UNL A   1      37.952  31.954  34.534  1.00  0.00    -0.000 A 
ATOM     10  C   UNL A   1      37.354  31.068  33.629  1.00  0.00     0.008 A 
ATOM     11  C   UNL A   1      39.307  31.766  34.829  1.00  0.00     0.127 A 
ATOM     12  C   UNL A   1      38.094  30.049  33.030  1.00  0.00     0.005 A 
ATOM     13  C   UNL A   1      40.044  30.724  34.265  1.00  0.00     0.043 A 
ATOM     14  F   UNL A   1      39.924  32.605  35.676  1.00  0.00    -0.207 F 
ATOM     15  C   UNL A   1      39.438  29.838  33.364  1.00  0.00    -0.038 A 
BRANCH  15  16
ATOM     16  C   UNL A   1      40.209  28.690  32.751  1.00  0.00     0.111 C 
BRANCH  16  17
ATOM     17  C   UNL A   1      41.174  28.028  33.682  1.00  0.00     0.108 A 
ATOM     18  C   UNL A   1      42.488  28.264  34.040  1.00  0.00     0.046 A 
ATOM     19  O   UNL A   1      40.689  26.972  34.401  1.00  0.00    -0.469 OA
ATOM     20  C   UNL A   1      42.827  27.292  35.010  1.00  0.00     0.042 A 
ATOM     21  C   UNL A   1      41.698  26.533  35.198  1.00  0.00     0.195 A 
ENDBRANCH  16  17
ENDBRANCH  15  16
ENDBRANCH   7   9
ENDBRANCH   4   7
ENDBRANCH   2   3
ENDBRANCH   1   2
BRANCH   1  22
ATOM     22  C   UNL A   1      33.133  35.374  32.035  1.00  0.00     0.023 C 
BRANCH  22  23
ATOM     23  C   UNL A   1      33.499  35.882  30.648  1.00  0.00     0.116 C 
BRANCH  23  24
ATOM     24  N   UNL A   1      32.759  35.215  29.587  1.00  0.00    -0.352 N 
ATOM     25  C   UNL A   1      33.162  34.192  28.768  1.00  0.00     0.251 C 
ATOM     26  H   UNL A   1      31.843  35.544  29.438  1.00  0.00     0.163 HD
ATOM     27  O   UNL A   1      32.456  33.838  27.828  1.00  0.00    -0.269 OA
BRANCH  25  28
ATOM     28  C   UNL A   1      34.468  33.542  29.000  1.00  0.00     0.039 A 
ATOM     29  C   UNL A   1      35.526  33.828  28.134  1.00  0.00     0.014 A 
ATOM     30  C   UNL A   1      34.654  32.673  30.078  1.00  0.00     0.014 A 
ATOM     31  C   UNL A   1      36.789  33.292  28.388  1.00  0.00     0.010 A 
ATOM     32  C   UNL A   1      35.929  32.203  30.374  1.00  0.00     0.010 A 
ATOM     33  C   UNL A   1      37.010  32.505  29.531  1.00  0.00    -0.014 A 
BRANCH  33  34
ATOM     34  C   UNL A   1      38.363  31.993  29.860  1.00  0.00     0.031 A 
ATOM     35  C   UNL A   1      38.805  30.644  29.362  1.00  0.00     0.074 A 
ATOM     36  C   UNL A   1      39.175  32.718  30.655  1.00  0.00     0.049 A 
ATOM     37  N   UNL A   1      39.931  30.014  29.580  1.00  0.00    -0.248 NA
ATOM     38  C   UNL A   1      37.848  29.896  28.530  1.00  0.00     0.031 C 
ATOM     39  C   UNL A   1      38.849  34.023  31.235  1.00  0.00     0.029 A 
ATOM     40  N   UNL A   1      40.441  32.458  31.114  1.00  0.00    -0.354 N 
ATOM     41  C   UNL A   1      39.813  28.795  28.924  1.00  0.00     0.074 A 
ATOM     42  C   UNL A   1      38.486  28.751  28.349  1.00  0.00     0.031 C 
ATOM     43  C   UNL A   1      39.901  34.462  31.945  1.00  0.00     0.029 A 
ATOM     44  C   UNL A   1      40.956  33.454  31.907  1.00  0.00     0.049 A 
ATOM     45  H   UNL A   1      40.935  31.634  30.895  1.00  0.00     0.167 HD
ATOM     46  C   UNL A   1      40.732  27.809  28.791  1.00  0.00     0.031 A 
ATOM     47  C   UNL A   1      42.141  33.544  32.539  1.00  0.00     0.031 A 
ATOM     48  C   UNL A   1      42.053  27.852  29.362  1.00  0.00     0.049 A 
ATOM     49  C   UNL A   1      43.134  32.423  32.400  1.00  0.00     0.074 A 
ATOM     50  C   UNL A   1      43.072  26.925  29.245  1.00  0.00     0.029 A 
ATOM     51  N   UNL A   1      42.533  28.878  30.161  1.00  0.00    -0.354 N 
ATOM     52  N   UNL A   1      43.032  31.308  31.716  1.00  0.00    -0.248 NA
ATOM     53  C   UNL A   1      44.411  32.580  33.110  1.00  0.00     0.031 C 
ATOM     54  C   UNL A   1      44.152  27.363  30.019  1.00  0.00     0.029 A 
ATOM     55  C   UNL A   1      43.827  28.594  30.565  1.00  0.00     0.049 A 
ATOM     56  H   UNL A   1      42.029  29.689  30.405  1.00  0.00     0.167 HD
ATOM     57  C   UNL A   1      44.242  30.648  31.890  1.00  0.00     0.074 A 
ATOM     58  C   UNL A   1      45.066  31.495  32.726  1.00  0.00     0.031 C 
ATOM     59  C   UNL A   1      44.635  29.447  31.398  1.00  0.00     0.031 A 
BRANCH  46  60
ATOM     60  C   UNL A   1      40.333  26.593  28.001  1.00  0.00    -0.014 A 
ATOM     61  C   UNL A   1      40.745  26.425  26.668  1.00  0.00     0.009 A 
ATOM     62  C   UNL A   1      39.565  25.587  28.604  1.00  0.00     0.009 A 
ATOM     63  C   UNL A   1      40.362  25.294  25.945  1.00  0.00     0.001 A 
ATOM     64  C   UNL A   1      39.209  24.441  27.889  1.00  0.00     0.001 A 
ATOM     65  C   UNL A   1      39.599  24.301  26.557  1.00  0.00     0.000 A 
ENDBRANCH  46  60
BRANCH  47  66
ATOM     66  C   UNL A   1      42.465  34.745  33.353  1.00  0.00    -0.014 A 
ATOM     67  C   UNL A   1      42.156  34.784  34.722  1.00  0.00     0.009 A 
ATOM     68  C   UNL A   1      43.070  35.867  32.764  1.00  0.00     0.009 A 
ATOM     69  C   UNL A   1      42.415  35.931  35.475  1.00  0.00     0.001 A 
ATOM     70  C   UNL A   1      43.357  37.000  33.526  1.00  0.00     0.001 A 
ATOM     71  C   UNL A   1      43.020  37.037  34.878  1.00  0.00     0.000 A 
ENDBRANCH  47  66
BRANCH  59  72
ATOM     72  C   UNL A   1      46.033  28.997  31.719  1.00  0.00    -0.014 A 
ATOM     73  C   UNL A   1      47.086  29.169  30.807  1.00  0.00     0.009 A 
ATOM     74  C   UNL A   1      46.305  28.424  32.972  1.00  0.00     0.009 A 
ATOM     75  C   UNL A   1      48.376  28.742  31.130  1.00  0.00     0.001 A 
ATOM     76  C   UNL A   1      47.601  28.028  33.304  1.00  0.00     0.001 A 
ATOM     77  C   UNL A   1      48.633  28.177  32.379  1.00  0.00     0.000 A 
ENDBRANCH  59  72
ENDBRANCH  33  34
ENDBRANCH  25  28
ENDBRANCH  23  24
ENDBRANCH  22  23
ENDBRANCH   1  22
TORSDOF 14
ENDMDL
MODEL 3
REMARK VINA RESULT:      -8.7      4.668      7.609
REMARK SMILES C[C@@H](C(=O)NCCCCNC(=O)c1ccc(-c2c3nc(c(-c4ccccc4)c4ccc([nH]4)c(-c4ccccc4)c4nc(c(-c5ccccc5)c5ccc2[nH]5)C=C4)C=C3)cc1)c1ccc(Cc2ccco2)cc1F
REMARK SMILES IDX 7 1 6 2 5 3 3 4 4 5 2 7 1 8 61 9 62 10 72 11 63 12 71 13
REMARK SMILES IDX 73 14 64 15 65 16 66 17 67 18 70 19 68 20 69 21 8 22 9 23
REMARK SMILES IDX 10 24 11 25 12 27 13 28 14 29 60 30 15 31 59 32 16 33 17 34
REMARK SMILES IDX 18 35 53 36 19 37 58 38 52 39 54 40 20 41 57 42 51 43 50 44
REMARK SMILES IDX 21 46 43 47 28 48 42 49 29 50 32 51 41 52 55 53 30 54 31 55
REMARK SMILES IDX 40 57 56 58 33 59 22 60 23 61 27 62 24 63 26 64 25 65 44 66
REMARK SMILES IDX 45 67 49 68 46 69 48 70 47 71 34 72 35 73 39 74 36 75 38 76
REMARK SMILES IDX 37 77
REMARK H PARENT 5 6 10 26 54 45 32 56
REMARK Flexibility Score: inf
ROOT
ATOM      1  C   UNL A   1      32.993  29.086  24.738  1.00  0.00     0.023 C 
ENDROOT
BRANCH   1   2
ATOM      2  C   UNL A   1      31.884  28.451  23.894  1.00  0.00     0.116 C 
BRANCH   2   3
ATOM      3  N   UNL A   1      30.965  27.712  24.732  1.00  0.00    -0.356 N 
ATOM      4  C   UNL A   1      30.566  26.409  24.655  1.00  0.00     0.227 C 
ATOM      5  O   UNL A   1      29.632  26.076  25.388  1.00  0.00    -0.274 OA
ATOM      6  H   UNL A   1      30.567  28.227  25.470  1.00  0.00     0.163 HD
BRANCH   4   7
ATOM      7  C   UNL A   1      31.286  25.427  23.711  1.00  0.00     0.108 C 
ATOM      8  C   UNL A   1      30.365  24.281  23.272  1.00  0.00     0.023 C 
BRANCH   7   9
ATOM      9  C   UNL A   1      32.576  24.914  24.344  1.00  0.00    -0.000 A 
ATOM     10  C   UNL A   1      32.666  24.574  25.700  1.00  0.00     0.008 A 
ATOM     11  C   UNL A   1      33.739  24.822  23.572  1.00  0.00     0.127 A 
ATOM     12  C   UNL A   1      33.871  24.139  26.250  1.00  0.00     0.005 A 
ATOM     13  C   UNL A   1      34.958  24.426  24.125  1.00  0.00     0.043 A 
ATOM     14  F   UNL A   1      33.693  25.121  22.264  1.00  0.00    -0.207 F 
ATOM     15  C   UNL A   1      35.042  24.092  25.483  1.00  0.00    -0.038 A 
BRANCH  15  16
ATOM     16  C   UNL A   1      36.354  23.675  26.111  1.00  0.00     0.111 C 
BRANCH  16  17
ATOM     17  C   UNL A   1      36.876  22.359  25.631  1.00  0.00     0.108 A 
ATOM     18  C   UNL A   1      38.137  21.863  25.352  1.00  0.00     0.046 A 
ATOM     19  O   UNL A   1      35.950  21.371  25.453  1.00  0.00    -0.469 OA
ATOM     20  C   UNL A   1      37.966  20.513  24.965  1.00  0.00     0.042 A 
ATOM     21  C   UNL A   1      36.618  20.261  25.047  1.00  0.00     0.195 A 
ENDBRANCH  16  17
ENDBRANCH  15  16
ENDBRANCH   7   9
ENDBRANCH   4   7
ENDBRANCH   2   3
ENDBRANCH   1   2
BRANCH   1  22
ATOM     22  C   UNL A   1      33.891  28.081  25.465  1.00  0.00     0.023 C 
BRANCH  22  23
ATOM     23  C   UNL A   1      34.001  28.289  26.969  1.00  0.00     0.116 C 
BRANCH  23  24
ATOM     24  N   UNL A   1      33.678  29.648  27.377  1.00  0.00    -0.352 N 
ATOM     25  C   UNL A   1      34.453  30.549  28.063  1.00  0.00     0.251 C 
ATOM     26  H   UNL A   1      32.780  29.964  27.125  1.00  0.00     0.163 HD
ATOM     27  O   UNL A   1      33.972  31.611  28.448  1.00  0.00    -0.269 OA
BRANCH  25  28
ATOM     28  C   UNL A   1      35.860  30.218  28.368  1.00  0.00     0.039 A 
ATOM     29  C   UNL A   1      36.168  29.671  29.615  1.00  0.00     0.014 A 
ATOM     30  C   UNL A   1      36.865  30.426  27.420  1.00  0.00     0.014 A 
ATOM     31  C   UNL A   1      37.477  29.272  29.889  1.00  0.00     0.010 A 
ATOM     32  C   UNL A   1      38.152  29.957  27.665  1.00  0.00     0.010 A 
ATOM     33  C   UNL A   1      38.472  29.378  28.903  1.00  0.00    -0.014 A 
BRANCH  33  34
ATOM     34  C   UNL A   1      39.850  28.886  29.148  1.00  0.00     0.031 A 
ATOM     35  C   UNL A   1      40.874  29.785  29.783  1.00  0.00     0.074 A 
ATOM     36  C   UNL A   1      40.195  27.645  28.749  1.00  0.00     0.049 A 
ATOM     37  N   UNL A   1      42.136  29.546  30.038  1.00  0.00    -0.248 NA
ATOM     38  C   UNL A   1      40.431  31.137  30.158  1.00  0.00     0.031 C 
ATOM     39  C   UNL A   1      39.306  26.689  28.086  1.00  0.00     0.029 A 
ATOM     40  N   UNL A   1      41.391  26.978  28.840  1.00  0.00    -0.354 N 
ATOM     41  C   UNL A   1      42.637  30.718  30.591  1.00  0.00     0.074 A 
ATOM     42  C   UNL A   1      41.560  31.684  30.582  1.00  0.00     0.031 C 
ATOM     43  C   UNL A   1      39.978  25.549  27.860  1.00  0.00     0.029 A 
ATOM     44  C   UNL A   1      41.354  25.707  28.321  1.00  0.00     0.049 A 
ATOM     45  H   UNL A   1      42.199  27.373  29.240  1.00  0.00     0.167 HD
ATOM     46  C   UNL A   1      43.874  30.963  31.084  1.00  0.00     0.031 A 
ATOM     47  C   UNL A   1      42.319  24.775  28.221  1.00  0.00     0.031 A 
ATOM     48  C   UNL A   1      44.945  30.003  31.096  1.00  0.00     0.049 A 
ATOM     49  C   UNL A   1      43.693  25.082  28.750  1.00  0.00     0.074 A 
ATOM     50  C   UNL A   1      46.220  30.141  31.614  1.00  0.00     0.029 A 
ATOM     51  N   UNL A   1      44.867  28.728  30.557  1.00  0.00    -0.354 N 
ATOM     52  N   UNL A   1      44.130  26.172  29.335  1.00  0.00    -0.248 NA
ATOM     53  C   UNL A   1      44.704  24.024  28.616  1.00  0.00     0.031 C 
ATOM     54  C   UNL A   1      46.932  28.968  31.342  1.00  0.00     0.029 A 
ATOM     55  C   UNL A   1      46.080  28.077  30.710  1.00  0.00     0.049 A 
ATOM     56  H   UNL A   1      44.068  28.342  30.131  1.00  0.00     0.167 HD
ATOM     57  C   UNL A   1      45.455  25.918  29.665  1.00  0.00     0.074 A 
ATOM     58  C   UNL A   1      45.744  24.567  29.232  1.00  0.00     0.031 C 
ATOM     59  C   UNL A   1      46.352  26.732  30.274  1.00  0.00     0.031 A 
BRANCH  46  60
ATOM     60  C   UNL A   1      44.135  32.334  31.647  1.00  0.00    -0.014 A 
ATOM     61  C   UNL A   1      43.916  32.615  33.006  1.00  0.00     0.009 A 
ATOM     62  C   UNL A   1      44.637  33.348  30.819  1.00  0.00     0.009 A 
ATOM     63  C   UNL A   1      44.156  33.894  33.513  1.00  0.00     0.001 A 
ATOM     64  C   UNL A   1      44.907  34.617  31.334  1.00  0.00     0.001 A 
ATOM     65  C   UNL A   1      44.656  34.892  32.678  1.00  0.00     0.000 A 
ENDBRANCH  46  60
BRANCH  47  66
ATOM     66  C   UNL A   1      42.023  23.454  27.607  1.00  0.00    -0.014 A 
ATOM     67  C   UNL A   1      41.472  22.417  28.377  1.00  0.00     0.009 A 
ATOM     68  C   UNL A   1      42.306  23.214  26.253  1.00  0.00     0.009 A 
ATOM     69  C   UNL A   1      41.241  21.160  27.812  1.00  0.00     0.001 A 
ATOM     70  C   UNL A   1      42.044  21.967  25.683  1.00  0.00     0.001 A 
ATOM     71  C   UNL A   1      41.522  20.938  26.465  1.00  0.00     0.000 A 
ENDBRANCH  47  66
BRANCH  59  72
ATOM     72  C   UNL A   1      47.719  26.167  30.545  1.00  0.00    -0.014 A 
ATOM     73  C   UNL A   1      48.068  25.666  31.809  1.00  0.00     0.009 A 
ATOM     74  C   UNL A   1      48.661  26.104  29.505  1.00  0.00     0.009 A 
ATOM     75  C   UNL A   1      49.345  25.148  32.034  1.00  0.00     0.001 A 
ATOM     76  C   UNL A   1      49.924  25.556  29.725  1.00  0.00     0.001 A 
ATOM     77  C   UNL A   1      50.269  25.088  30.991  1.00  0.00     0.000 A 
ENDBRANCH  59  72
ENDBRANCH  33  34
ENDBRANCH  25  28
ENDBRANCH  23  24
ENDBRANCH  22  23
ENDBRANCH   1  22
TORSDOF 14
ENDMDL
