MODEL 1
REMARK VINA RESULT:     -12.4      0.000      0.000
REMARK SMILES NC(=O)C1CC[NH+](CC[C@H]2CN(C(=O)c3ccccc3)CC[C@H]2CC(=O)NCCCCNC(=O)c2ccc(-c3c4nc(c(-c5ccccc5)c5ccc([nH]5)c(-c5ccccc5)c5nc(c(-c6ccccc6)c6ccc3[nH]6)C=C5)C=C4)cc2)CC1
REMARK SMILES IDX 28 1 27 2 25 3 26 4 24 6 23 7 10 8 11 9 12 10 22 11 21 12
REMARK SMILES IDX 9 13 8 14 7 15 4 16 5 17 84 18 6 19 83 20 2 22 1 23 3 26
REMARK SMILES IDX 13 27 14 28 15 29 16 30 20 31 17 32 19 33 18 34 29 35 30 36
REMARK SMILES IDX 31 37 32 38 33 39 34 41 35 42 36 43 82 44 37 45 81 46 38 47
REMARK SMILES IDX 39 48 40 49 75 50 41 51 80 52 74 53 76 54 42 55 79 56 73 57
REMARK SMILES IDX 72 58 43 60 65 61 50 62 64 63 51 64 54 65 63 66 77 67 52 68
REMARK SMILES IDX 53 69 62 71 78 72 55 73 44 74 45 75 49 76 46 77 48 78 47 79
REMARK SMILES IDX 66 80 67 81 71 82 68 83 70 84 69 85 56 86 57 87 61 88 58 89
REMARK SMILES IDX 60 90 59 91
REMARK H PARENT 27 5 7 21 1 24 1 25 32 40 76 59 54 70
REMARK Flexibility Score: inf
ROOT
ATOM      1  C   UNL A   1      38.239  23.554  26.157  1.00  0.00     0.116 C 
ENDROOT
BRANCH   1   2
ATOM      2  N   UNL A   1      36.777  22.932  26.262  1.00  0.00    -0.356 N 
ATOM      3  C   UNL A   1      35.299  23.323  26.138  1.00  0.00     0.220 C 
ATOM      4  O   UNL A   1      34.778  22.177  26.255  1.00  0.00    -0.275 OA
ATOM      5  H   UNL A   1      36.844  21.974  26.481  1.00  0.00     0.163 HD
BRANCH   3   6
ATOM      6  C   UNL A   1      34.341  25.188  25.839  1.00  0.00     0.104 C 
BRANCH   6   7
ATOM      7  C   UNL A   1      32.663  25.679  25.450  1.00  0.00     0.005 C 
ATOM      8  C   UNL A   1      32.240  27.215  25.394  1.00  0.00     0.018 C 
ATOM      9  C   UNL A   1      30.750  27.367  25.170  1.00  0.00     0.124 C 
ATOM     10  N   UNL A   1      30.421  26.719  23.939  1.00  0.00    -0.338 N 
ATOM     11  C   UNL A   1      32.184  24.987  24.152  1.00  0.00     0.026 C 
ATOM     12  C   UNL A   1      30.690  25.273  23.931  1.00  0.00     0.120 C 
BRANCH   8  13
ATOM     13  C   UNL A   1      33.110  27.996  24.444  1.00  0.00     0.067 C 
BRANCH  13  14
ATOM     14  C   UNL A   1      32.864  29.460  24.687  1.00  0.00     0.262 C 
BRANCH  14  15
ATOM     15  N   UNL A   1      32.980  29.944  26.063  1.00  0.00    -0.335 N 
ATOM     16  C   UNL A   1      33.625  32.886  28.446  1.00  0.00     0.089 C 
ATOM     17  C   UNL A   1      34.793  31.398  28.458  1.00  0.00     0.075 C 
ATOM     18  C   UNL A   1      32.111  32.820  27.317  1.00  0.00     0.075 C 
ATOM     19  C   UNL A   1      34.509  29.928  27.237  1.00  0.00     0.263 C 
ATOM     20  C   UNL A   1      31.713  31.281  26.265  1.00  0.00     0.263 C 
ATOM     21  H   UNL A   1      32.911  29.065  26.574  1.00  0.00     0.348 HD
BRANCH  16  22
ATOM     22  C   UNL A   1      34.443  34.167  28.129  1.00  0.00     0.220 C 
ATOM     23  N   UNL A   1      34.720  34.978  29.190  1.00  0.00    -0.369 N 
ATOM     24  H   UNL A   1      35.235  35.806  29.055  1.00  0.00     0.159 HD
ATOM     25  H   UNL A   1      34.405  34.735  30.090  1.00  0.00     0.159 HD
ATOM     26  O   UNL A   1      34.887  34.445  27.020  1.00  0.00    -0.275 OA
ENDBRANCH  16  22
ENDBRANCH  14  15
ENDBRANCH  13  14
ENDBRANCH   8  13
BRANCH  10  27
ATOM     27  C   UNL A   1      30.281  27.552  22.836  1.00  0.00     0.253 C 
ATOM     28  O   UNL A   1      30.875  27.405  21.771  1.00  0.00    -0.269 OA
BRANCH  27  29
ATOM     29  C   UNL A   1      29.325  28.649  22.939  1.00  0.00     0.040 A 
ATOM     30  C   UNL A   1      27.969  28.349  23.067  1.00  0.00     0.014 A 
ATOM     31  C   UNL A   1      29.795  29.962  22.948  1.00  0.00     0.014 A 
ATOM     32  C   UNL A   1      27.075  29.391  23.272  1.00  0.00     0.001 A 
ATOM     33  C   UNL A   1      28.901  30.993  23.180  1.00  0.00     0.001 A 
ATOM     34  C   UNL A   1      27.544  30.706  23.347  1.00  0.00     0.000 A 
ENDBRANCH  27  29
ENDBRANCH  10  27
ENDBRANCH   6   7
ENDBRANCH   3   6
ENDBRANCH   1   2
BRANCH   1  35
ATOM     35  C   UNL A   1      39.549  22.655  26.215  1.00  0.00     0.023 C 
BRANCH  35  36
ATOM     36  C   UNL A   1      39.543  21.246  25.645  1.00  0.00     0.023 C 
BRANCH  36  37
ATOM     37  C   UNL A   1      39.802  20.139  26.626  1.00  0.00     0.116 C 
BRANCH  37  38
ATOM     38  N   UNL A   1      40.616  19.032  26.151  1.00  0.00    -0.352 N 
ATOM     39  C   UNL A   1      41.999  19.039  26.041  1.00  0.00     0.251 C 
ATOM     40  H   UNL A   1      40.147  18.208  25.885  1.00  0.00     0.163 HD
ATOM     41  O   UNL A   1      42.622  18.081  25.607  1.00  0.00    -0.269 OA
BRANCH  39  42
ATOM     42  C   UNL A   1      42.702  20.290  26.412  1.00  0.00     0.039 A 
ATOM     43  C   UNL A   1      43.175  21.134  25.407  1.00  0.00     0.014 A 
ATOM     44  C   UNL A   1      42.681  20.713  27.744  1.00  0.00     0.014 A 
ATOM     45  C   UNL A   1      43.540  22.441  25.734  1.00  0.00     0.010 A 
ATOM     46  C   UNL A   1      42.889  22.053  28.032  1.00  0.00     0.010 A 
ATOM     47  C   UNL A   1      43.347  22.930  27.037  1.00  0.00    -0.014 A 
BRANCH  47  48
ATOM     48  C   UNL A   1      43.661  24.337  27.399  1.00  0.00     0.031 A 
ATOM     49  C   UNL A   1      45.076  24.836  27.263  1.00  0.00     0.074 A 
ATOM     50  C   UNL A   1      42.702  25.154  27.881  1.00  0.00     0.049 A 
ATOM     51  N   UNL A   1      45.569  26.014  27.552  1.00  0.00    -0.248 NA
ATOM     52  C   UNL A   1      46.080  23.878  26.766  1.00  0.00     0.031 C 
ATOM     53  C   UNL A   1      41.302  24.784  28.111  1.00  0.00     0.029 A 
ATOM     54  N   UNL A   1      42.759  26.472  28.261  1.00  0.00    -0.354 N 
ATOM     55  C   UNL A   1      46.928  25.929  27.277  1.00  0.00     0.074 A 
ATOM     56  C   UNL A   1      47.201  24.566  26.890  1.00  0.00     0.031 C 
ATOM     57  C   UNL A   1      40.628  25.861  28.548  1.00  0.00     0.029 A 
ATOM     58  C   UNL A   1      41.553  26.983  28.680  1.00  0.00     0.049 A 
ATOM     59  H   UNL A   1      43.588  27.004  28.237  1.00  0.00     0.167 HD
ATOM     60  C   UNL A   1      47.864  26.904  27.300  1.00  0.00     0.031 A 
ATOM     61  C   UNL A   1      41.230  28.212  29.127  1.00  0.00     0.031 A 
ATOM     62  C   UNL A   1      47.597  28.262  27.684  1.00  0.00     0.049 A 
ATOM     63  C   UNL A   1      42.299  29.270  29.189  1.00  0.00     0.074 A 
ATOM     64  C   UNL A   1      48.469  29.335  27.715  1.00  0.00     0.029 A 
ATOM     65  N   UNL A   1      46.364  28.732  28.109  1.00  0.00    -0.354 N 
ATOM     66  N   UNL A   1      43.567  29.187  28.865  1.00  0.00    -0.248 NA
ATOM     67  C   UNL A   1      41.887  30.599  29.666  1.00  0.00     0.031 C 
ATOM     68  C   UNL A   1      47.781  30.438  28.225  1.00  0.00     0.029 A 
ATOM     69  C   UNL A   1      46.459  30.075  28.428  1.00  0.00     0.049 A 
ATOM     70  H   UNL A   1      45.544  28.191  28.174  1.00  0.00     0.167 HD
ATOM     71  C   UNL A   1      44.093  30.459  29.057  1.00  0.00     0.074 A 
ATOM     72  C   UNL A   1      43.002  31.297  29.511  1.00  0.00     0.031 C 
ATOM     73  C   UNL A   1      45.363  30.897  28.874  1.00  0.00     0.031 A 
BRANCH  60  74
ATOM     74  C   UNL A   1      49.264  26.529  26.893  1.00  0.00    -0.014 A 
ATOM     75  C   UNL A   1      49.685  26.626  25.555  1.00  0.00     0.009 A 
ATOM     76  C   UNL A   1      50.181  26.096  27.861  1.00  0.00     0.009 A 
ATOM     77  C   UNL A   1      50.981  26.257  25.191  1.00  0.00     0.001 A 
ATOM     78  C   UNL A   1      51.489  25.766  27.501  1.00  0.00     0.001 A 
ATOM     79  C   UNL A   1      51.884  25.836  26.166  1.00  0.00     0.000 A 
ENDBRANCH  60  74
BRANCH  61  80
ATOM     80  C   UNL A   1      39.836  28.516  29.559  1.00  0.00    -0.014 A 
ATOM     81  C   UNL A   1      38.906  29.078  28.670  1.00  0.00     0.009 A 
ATOM     82  C   UNL A   1      39.437  28.275  30.885  1.00  0.00     0.009 A 
ATOM     83  C   UNL A   1      37.628  29.432  29.108  1.00  0.00     0.001 A 
ATOM     84  C   UNL A   1      38.145  28.592  31.310  1.00  0.00     0.001 A 
ATOM     85  C   UNL A   1      37.247  29.185  30.426  1.00  0.00     0.000 A 
ENDBRANCH  61  80
BRANCH  73  86
ATOM     86  C   UNL A   1      45.632  32.359  29.100  1.00  0.00    -0.014 A 
ATOM     87  C   UNL A   1      45.463  33.311  28.083  1.00  0.00     0.009 A 
ATOM     88  C   UNL A   1      46.029  32.794  30.375  1.00  0.00     0.009 A 
ATOM     89  C   UNL A   1      45.733  34.659  28.326  1.00  0.00     0.001 A 
ATOM     90  C   UNL A   1      46.257  34.147  30.628  1.00  0.00     0.001 A 
ATOM     91  C   UNL A   1      46.123  35.076  29.598  1.00  0.00     0.000 A 
ENDBRANCH  73  86
ENDBRANCH  47  48
ENDBRANCH  39  42
ENDBRANCH  37  38
ENDBRANCH  36  37
ENDBRANCH  35  36
ENDBRANCH   1  35
TORSDOF 18
ENDMDL
MODEL 2
REMARK VINA RESULT:     -12.1      2.522      5.272
REMARK SMILES NC(=O)C1CC[NH+](CC[C@H]2CN(C(=O)c3ccccc3)CC[C@H]2CC(=O)NCCCCNC(=O)c2ccc(-c3c4nc(c(-c5ccccc5)c5ccc([nH]5)c(-c5ccccc5)c5nc(c(-c6ccccc6)c6ccc3[nH]6)C=C5)C=C4)cc2)CC1
REMARK SMILES IDX 28 1 27 2 25 3 26 4 24 6 23 7 10 8 11 9 12 10 22 11 21 12
REMARK SMILES IDX 9 13 8 14 7 15 4 16 5 17 84 18 6 19 83 20 2 22 1 23 3 26
REMARK SMILES IDX 13 27 14 28 15 29 16 30 20 31 17 32 19 33 18 34 29 35 30 36
REMARK SMILES IDX 31 37 32 38 33 39 34 41 35 42 36 43 82 44 37 45 81 46 38 47
REMARK SMILES IDX 39 48 40 49 75 50 41 51 80 52 74 53 76 54 42 55 79 56 73 57
REMARK SMILES IDX 72 58 43 60 65 61 50 62 64 63 51 64 54 65 63 66 77 67 52 68
REMARK SMILES IDX 53 69 62 71 78 72 55 73 44 74 45 75 49 76 46 77 48 78 47 79
REMARK SMILES IDX 66 80 67 81 71 82 68 83 70 84 69 85 56 86 57 87 61 88 58 89
REMARK SMILES IDX 60 90 59 91
REMARK H PARENT 27 5 7 21 1 24 1 25 32 40 76 59 54 70
REMARK Flexibility Score: inf
ROOT
ATOM      1  C   UNL A   1      39.281  22.717  26.470  1.00  0.00     0.116 C 
ENDROOT
BRANCH   1   2
ATOM      2  N   UNL A   1      38.277  22.432  25.266  1.00  0.00    -0.356 N 
ATOM      3  C   UNL A   1      36.912  22.865  24.719  1.00  0.00     0.220 C 
ATOM      4  O   UNL A   1      36.917  22.220  23.632  1.00  0.00    -0.275 OA
ATOM      5  H   UNL A   1      38.663  21.746  24.674  1.00  0.00     0.163 HD
BRANCH   3   6
ATOM      6  C   UNL A   1      35.421  24.163  25.481  1.00  0.00     0.104 C 
BRANCH   6   7
ATOM      7  C   UNL A   1      34.452  25.496  24.780  1.00  0.00     0.005 C 
ATOM      8  C   UNL A   1      33.562  25.277  23.476  1.00  0.00     0.018 C 
ATOM      9  C   UNL A   1      32.941  26.577  23.010  1.00  0.00     0.124 C 
ATOM     10  N   UNL A   1      32.138  27.089  24.076  1.00  0.00    -0.338 N 
ATOM     11  C   UNL A   1      33.578  26.161  25.869  1.00  0.00     0.026 C 
ATOM     12  C   UNL A   1      32.894  27.412  25.295  1.00  0.00     0.120 C 
BRANCH   8  13
ATOM     13  C   UNL A   1      32.595  24.135  23.649  1.00  0.00     0.067 C 
BRANCH  13  14
ATOM     14  C   UNL A   1      33.262  22.883  23.149  1.00  0.00     0.262 C 
BRANCH  14  15
ATOM     15  N   UNL A   1      32.565  21.615  23.370  1.00  0.00    -0.335 N 
ATOM     16  C   UNL A   1      32.758  17.922  24.408  1.00  0.00     0.089 C 
ATOM     17  C   UNL A   1      32.195  18.375  22.660  1.00  0.00     0.075 C 
ATOM     18  C   UNL A   1      33.112  19.328  25.620  1.00  0.00     0.075 C 
ATOM     19  C   UNL A   1      32.132  20.224  22.106  1.00  0.00     0.263 C 
ATOM     20  C   UNL A   1      32.850  21.154  25.142  1.00  0.00     0.263 C 
ATOM     21  H   UNL A   1      31.636  21.852  23.025  1.00  0.00     0.348 HD
BRANCH  16  22
ATOM     22  C   UNL A   1      34.005  17.002  24.314  1.00  0.00     0.220 C 
ATOM     23  N   UNL A   1      35.192  17.565  24.678  1.00  0.00    -0.369 N 
ATOM     24  H   UNL A   1      36.020  17.034  24.641  1.00  0.00     0.159 HD
ATOM     25  H   UNL A   1      35.220  18.501  24.979  1.00  0.00     0.159 HD
ATOM     26  O   UNL A   1      33.966  15.818  23.995  1.00  0.00    -0.275 OA
ENDBRANCH  16  22
ENDBRANCH  14  15
ENDBRANCH  13  14
ENDBRANCH   8  13
BRANCH  10  27
ATOM     27  C   UNL A   1      30.773  26.849  23.974  1.00  0.00     0.253 C 
ATOM     28  O   UNL A   1      30.210  25.840  24.388  1.00  0.00    -0.269 OA
BRANCH  27  29
ATOM     29  C   UNL A   1      29.950  27.893  23.374  1.00  0.00     0.040 A 
ATOM     30  C   UNL A   1      30.577  28.935  22.692  1.00  0.00     0.014 A 
ATOM     31  C   UNL A   1      28.561  27.798  23.463  1.00  0.00     0.014 A 
ATOM     32  C   UNL A   1      29.787  29.867  22.032  1.00  0.00     0.001 A 
ATOM     33  C   UNL A   1      27.781  28.716  22.779  1.00  0.00     0.001 A 
ATOM     34  C   UNL A   1      28.394  29.745  22.062  1.00  0.00     0.000 A 
ENDBRANCH  27  29
ENDBRANCH  10  27
ENDBRANCH   6   7
ENDBRANCH   3   6
ENDBRANCH   1   2
BRANCH   1  35
ATOM     35  C   UNL A   1      40.754  22.118  26.505  1.00  0.00     0.023 C 
BRANCH  35  36
ATOM     36  C   UNL A   1      41.034  20.725  25.964  1.00  0.00     0.023 C 
BRANCH  36  37
ATOM     37  C   UNL A   1      42.375  20.144  26.306  1.00  0.00     0.116 C 
BRANCH  37  38
ATOM     38  N   UNL A   1      43.044  19.400  25.251  1.00  0.00    -0.352 N 
ATOM     39  C   UNL A   1      44.121  19.855  24.504  1.00  0.00     0.251 C 
ATOM     40  H   UNL A   1      42.706  18.498  25.050  1.00  0.00     0.163 HD
ATOM     41  O   UNL A   1      44.622  19.188  23.610  1.00  0.00    -0.269 OA
BRANCH  39  42
ATOM     42  C   UNL A   1      44.612  21.226  24.787  1.00  0.00     0.039 A 
ATOM     43  C   UNL A   1      44.154  22.290  24.009  1.00  0.00     0.014 A 
ATOM     44  C   UNL A   1      45.340  21.460  25.956  1.00  0.00     0.014 A 
ATOM     45  C   UNL A   1      44.351  23.596  24.463  1.00  0.00     0.010 A 
ATOM     46  C   UNL A   1      45.388  22.744  26.477  1.00  0.00     0.010 A 
ATOM     47  C   UNL A   1      44.918  23.833  25.727  1.00  0.00    -0.014 A 
BRANCH  47  48
ATOM     48  C   UNL A   1      45.077  25.208  26.267  1.00  0.00     0.031 A 
ATOM     49  C   UNL A   1      46.433  25.864  26.230  1.00  0.00     0.074 A 
ATOM     50  C   UNL A   1      44.031  25.856  26.820  1.00  0.00     0.049 A 
ATOM     51  N   UNL A   1      46.795  27.040  26.675  1.00  0.00    -0.248 NA
ATOM     52  C   UNL A   1      47.539  25.083  25.646  1.00  0.00     0.031 C 
ATOM     53  C   UNL A   1      42.675  25.318  26.966  1.00  0.00     0.029 A 
ATOM     54  N   UNL A   1      43.944  27.116  27.360  1.00  0.00    -0.354 N 
ATOM     55  C   UNL A   1      48.160  27.130  26.428  1.00  0.00     0.074 A 
ATOM     56  C   UNL A   1      48.580  25.861  25.883  1.00  0.00     0.031 C 
ATOM     57  C   UNL A   1      41.886  26.257  27.513  1.00  0.00     0.029 A 
ATOM     58  C   UNL A   1      42.685  27.443  27.806  1.00  0.00     0.049 A 
ATOM     59  H   UNL A   1      44.713  27.728  27.423  1.00  0.00     0.167 HD
ATOM     60  C   UNL A   1      48.988  28.186  26.595  1.00  0.00     0.031 A 
ATOM     61  C   UNL A   1      42.228  28.567  28.392  1.00  0.00     0.031 A 
ATOM     62  C   UNL A   1      48.574  29.451  27.135  1.00  0.00     0.049 A 
ATOM     63  C   UNL A   1      43.179  29.714  28.612  1.00  0.00     0.074 A 
ATOM     64  C   UNL A   1      49.328  30.596  27.320  1.00  0.00     0.029 A 
ATOM     65  N   UNL A   1      47.293  29.735  27.582  1.00  0.00    -0.354 N 
ATOM     66  N   UNL A   1      44.453  29.802  28.313  1.00  0.00    -0.248 NA
ATOM     67  C   UNL A   1      42.624  30.923  29.236  1.00  0.00     0.031 C 
ATOM     68  C   UNL A   1      48.521  31.550  27.944  1.00  0.00     0.029 A 
ATOM     69  C   UNL A   1      47.241  31.031  28.065  1.00  0.00     0.049 A 
ATOM     70  H   UNL A   1      46.534  29.109  27.558  1.00  0.00     0.167 HD
ATOM     71  C   UNL A   1      44.840  31.087  28.674  1.00  0.00     0.074 A 
ATOM     72  C   UNL A   1      43.661  31.746  29.198  1.00  0.00     0.031 C 
ATOM     73  C   UNL A   1      46.059  31.673  28.579  1.00  0.00     0.031 A 
BRANCH  60  74
ATOM     74  C   UNL A   1      50.424  28.010  26.183  1.00  0.00    -0.014 A 
ATOM     75  C   UNL A   1      50.840  28.261  24.863  1.00  0.00     0.009 A 
ATOM     76  C   UNL A   1      51.380  27.611  27.128  1.00  0.00     0.009 A 
ATOM     77  C   UNL A   1      52.173  28.077  24.492  1.00  0.00     0.001 A 
ATOM     78  C   UNL A   1      52.720  27.466  26.764  1.00  0.00     0.001 A 
ATOM     79  C   UNL A   1      53.113  27.687  25.446  1.00  0.00     0.000 A 
ENDBRANCH  60  74
BRANCH  61  80
ATOM     80  C   UNL A   1      40.805  28.670  28.821  1.00  0.00    -0.014 A 
ATOM     81  C   UNL A   1      40.396  28.239  30.093  1.00  0.00     0.009 A 
ATOM     82  C   UNL A   1      39.834  29.171  27.938  1.00  0.00     0.009 A 
ATOM     83  C   UNL A   1      39.047  28.266  30.454  1.00  0.00     0.001 A 
ATOM     84  C   UNL A   1      38.491  29.236  28.316  1.00  0.00     0.001 A 
ATOM     85  C   UNL A   1      38.096  28.768  29.567  1.00  0.00     0.000 A 
ENDBRANCH  61  80
BRANCH  73  86
ATOM     86  C   UNL A   1      46.170  33.116  28.990  1.00  0.00    -0.014 A 
ATOM     87  C   UNL A   1      46.515  33.491  30.297  1.00  0.00     0.009 A 
ATOM     88  C   UNL A   1      45.960  34.120  28.030  1.00  0.00     0.009 A 
ATOM     89  C   UNL A   1      46.597  34.841  30.645  1.00  0.00     0.001 A 
ATOM     90  C   UNL A   1      46.085  35.467  28.369  1.00  0.00     0.001 A 
ATOM     91  C   UNL A   1      46.388  35.826  29.680  1.00  0.00     0.000 A 
ENDBRANCH  73  86
ENDBRANCH  47  48
ENDBRANCH  39  42
ENDBRANCH  37  38
ENDBRANCH  36  37
ENDBRANCH  35  36
ENDBRANCH   1  35
TORSDOF 18
ENDMDL
MODEL 3
REMARK VINA RESULT:     -12.1      2.566      7.593
REMARK SMILES NC(=O)C1CC[NH+](CC[C@H]2CN(C(=O)c3ccccc3)CC[C@H]2CC(=O)NCCCCNC(=O)c2ccc(-c3c4nc(c(-c5ccccc5)c5ccc([nH]5)c(-c5ccccc5)c5nc(c(-c6ccccc6)c6ccc3[nH]6)C=C5)C=C4)cc2)CC1
REMARK SMILES IDX 28 1 27 2 25 3 26 4 24 6 23 7 10 8 11 9 12 10 22 11 21 12
REMARK SMILES IDX 9 13 8 14 7 15 4 16 5 17 84 18 6 19 83 20 2 22 1 23 3 26
REMARK SMILES IDX 13 27 14 28 15 29 16 30 20 31 17 32 19 33 18 34 29 35 30 36
REMARK SMILES IDX 31 37 32 38 33 39 34 41 35 42 36 43 82 44 37 45 81 46 38 47
REMARK SMILES IDX 39 48 40 49 75 50 41 51 80 52 74 53 76 54 42 55 79 56 73 57
REMARK SMILES IDX 72 58 43 60 65 61 50 62 64 63 51 64 54 65 63 66 77 67 52 68
REMARK SMILES IDX 53 69 62 71 78 72 55 73 44 74 45 75 49 76 46 77 48 78 47 79
REMARK SMILES IDX 66 80 67 81 71 82 68 83 70 84 69 85 56 86 57 87 61 88 58 89
REMARK SMILES IDX 60 90 59 91
REMARK H PARENT 27 5 7 21 1 24 1 25 32 40 76 59 54 70
REMARK Flexibility Score: inf
ROOT
ATOM      1  C   UNL A   1      39.159  23.226  26.505  1.00  0.00     0.116 C 
ENDROOT
BRANCH   1   2
ATOM      2  N   UNL A   1      38.172  22.772  25.341  1.00  0.00    -0.356 N 
ATOM      3  C   UNL A   1      36.775  23.059  24.778  1.00  0.00     0.220 C 
ATOM      4  O   UNL A   1      36.820  22.329  23.746  1.00  0.00    -0.275 OA
ATOM      5  H   UNL A   1      38.603  22.070  24.802  1.00  0.00     0.163 HD
BRANCH   3   6
ATOM      6  C   UNL A   1      35.197  24.303  25.451  1.00  0.00     0.104 C 
BRANCH   6   7
ATOM      7  C   UNL A   1      34.197  25.573  24.681  1.00  0.00     0.005 C 
ATOM      8  C   UNL A   1      33.351  25.278  23.363  1.00  0.00     0.018 C 
ATOM      9  C   UNL A   1      32.694  26.537  22.838  1.00  0.00     0.124 C 
ATOM     10  N   UNL A   1      31.843  27.051  23.866  1.00  0.00    -0.338 N 
ATOM     11  C   UNL A   1      33.270  26.239  25.725  1.00  0.00     0.026 C 
ATOM     12  C   UNL A   1      32.553  27.442  25.093  1.00  0.00     0.120 C 
BRANCH   8  13
ATOM     13  C   UNL A   1      32.424  24.105  23.550  1.00  0.00     0.067 C 
BRANCH  13  14
ATOM     14  C   UNL A   1      33.147  22.866  23.096  1.00  0.00     0.262 C 
BRANCH  14  15
ATOM     15  N   UNL A   1      32.473  21.583  23.296  1.00  0.00    -0.335 N 
ATOM     16  C   UNL A   1      32.707  17.907  24.388  1.00  0.00     0.089 C 
ATOM     17  C   UNL A   1      32.225  18.327  22.607  1.00  0.00     0.075 C 
ATOM     18  C   UNL A   1      32.960  19.335  25.600  1.00  0.00     0.075 C 
ATOM     19  C   UNL A   1      32.143  20.167  22.028  1.00  0.00     0.263 C 
ATOM     20  C   UNL A   1      32.676  21.148  25.086  1.00  0.00     0.263 C 
ATOM     21  H   UNL A   1      31.557  21.792  22.900  1.00  0.00     0.348 HD
BRANCH  16  22
ATOM     22  C   UNL A   1      33.980  17.020  24.370  1.00  0.00     0.220 C 
ATOM     23  N   UNL A   1      35.162  17.664  24.592  1.00  0.00    -0.369 N 
ATOM     24  H   UNL A   1      36.005  17.158  24.594  1.00  0.00     0.159 HD
ATOM     25  H   UNL A   1      35.169  18.635  24.751  1.00  0.00     0.159 HD
ATOM     26  O   UNL A   1      33.970  15.802  24.230  1.00  0.00    -0.275 OA
ENDBRANCH  16  22
ENDBRANCH  14  15
ENDBRANCH  13  14
ENDBRANCH   8  13
BRANCH  10  27
ATOM     27  C   UNL A   1      30.492  26.755  23.737  1.00  0.00     0.253 C 
ATOM     28  O   UNL A   1      29.976  25.693  24.075  1.00  0.00    -0.269 OA
BRANCH  27  29
ATOM     29  C   UNL A   1      29.623  27.799  23.206  1.00  0.00     0.040 A 
ATOM     30  C   UNL A   1      28.253  27.724  23.456  1.00  0.00     0.014 A 
ATOM     31  C   UNL A   1      30.188  28.862  22.501  1.00  0.00     0.014 A 
ATOM     32  C   UNL A   1      27.444  28.774  23.041  1.00  0.00     0.001 A 
ATOM     33  C   UNL A   1      29.379  29.917  22.116  1.00  0.00     0.001 A 
ATOM     34  C   UNL A   1      28.011  29.874  22.390  1.00  0.00     0.000 A 
ENDBRANCH  27  29
ENDBRANCH  10  27
ENDBRANCH   6   7
ENDBRANCH   3   6
ENDBRANCH   1   2
BRANCH   1  35
ATOM     35  C   UNL A   1      40.572  22.534  26.736  1.00  0.00     0.023 C 
BRANCH  35  36
ATOM     36  C   UNL A   1      40.887  21.191  26.098  1.00  0.00     0.023 C 
BRANCH  36  37
ATOM     37  C   UNL A   1      42.181  20.553  26.513  1.00  0.00     0.116 C 
BRANCH  37  38
ATOM     38  N   UNL A   1      42.825  19.698  25.529  1.00  0.00    -0.352 N 
ATOM     39  C   UNL A   1      43.953  20.027  24.792  1.00  0.00     0.251 C 
ATOM     40  H   UNL A   1      42.427  18.811  25.371  1.00  0.00     0.163 HD
ATOM     41  O   UNL A   1      44.430  19.271  23.957  1.00  0.00    -0.269 OA
BRANCH  39  42
ATOM     42  C   UNL A   1      44.535  21.374  25.007  1.00  0.00     0.039 A 
ATOM     43  C   UNL A   1      44.118  22.435  24.203  1.00  0.00     0.014 A 
ATOM     44  C   UNL A   1      45.312  21.606  26.145  1.00  0.00     0.014 A 
ATOM     45  C   UNL A   1      44.408  23.742  24.600  1.00  0.00     0.010 A 
ATOM     46  C   UNL A   1      45.454  22.903  26.615  1.00  0.00     0.010 A 
ATOM     47  C   UNL A   1      45.027  23.990  25.837  1.00  0.00    -0.014 A 
BRANCH  47  48
ATOM     48  C   UNL A   1      45.287  25.372  26.319  1.00  0.00     0.031 A 
ATOM     49  C   UNL A   1      44.145  26.191  26.863  1.00  0.00     0.074 A 
ATOM     50  C   UNL A   1      46.522  25.908  26.238  1.00  0.00     0.049 A 
ATOM     51  N   UNL A   1      44.147  27.423  27.305  1.00  0.00    -0.248 NA
ATOM     52  C   UNL A   1      42.815  25.554  26.886  1.00  0.00     0.031 C 
ATOM     53  C   UNL A   1      47.706  25.244  25.686  1.00  0.00     0.029 A 
ATOM     54  N   UNL A   1      46.988  27.140  26.628  1.00  0.00    -0.354 N 
ATOM     55  C   UNL A   1      42.830  27.700  27.648  1.00  0.00     0.074 A 
ATOM     56  C   UNL A   1      42.040  26.550  27.279  1.00  0.00     0.031 C 
ATOM     57  C   UNL A   1      48.767  26.058  25.814  1.00  0.00     0.029 A 
ATOM     58  C   UNL A   1      48.333  27.319  26.408  1.00  0.00     0.049 A 
ATOM     59  H   UNL A   1      46.412  27.832  27.027  1.00  0.00     0.167 HD
ATOM     60  C   UNL A   1      42.321  28.796  28.256  1.00  0.00     0.031 A 
ATOM     61  C   UNL A   1      49.127  28.381  26.650  1.00  0.00     0.031 A 
ATOM     62  C   UNL A   1      43.102  29.942  28.626  1.00  0.00     0.049 A 
ATOM     63  C   UNL A   1      48.529  29.608  27.285  1.00  0.00     0.074 A 
ATOM     64  C   UNL A   1      42.689  31.093  29.273  1.00  0.00     0.029 A 
ATOM     65  N   UNL A   1      44.459  30.084  28.377  1.00  0.00    -0.354 N 
ATOM     66  N   UNL A   1      47.292  29.828  27.661  1.00  0.00    -0.248 NA
ATOM     67  C   UNL A   1      49.443  30.730  27.545  1.00  0.00     0.031 C 
ATOM     68  C   UNL A   1      43.781  31.961  29.352  1.00  0.00     0.029 A 
ATOM     69  C   UNL A   1      44.893  31.315  28.836  1.00  0.00     0.049 A 
ATOM     70  H   UNL A   1      45.027  29.410  27.939  1.00  0.00     0.167 HD
ATOM     71  C   UNL A   1      47.288  31.093  28.237  1.00  0.00     0.074 A 
ATOM     72  C   UNL A   1      48.650  31.583  28.176  1.00  0.00     0.031 C 
ATOM     73  C   UNL A   1      46.253  31.787  28.772  1.00  0.00     0.031 A 
BRANCH  60  74
ATOM     74  C   UNL A   1      40.847  28.796  28.560  1.00  0.00    -0.014 A 
ATOM     75  C   UNL A   1      39.909  29.253  27.618  1.00  0.00     0.009 A 
ATOM     76  C   UNL A   1      40.387  28.310  29.792  1.00  0.00     0.009 A 
ATOM     77  C   UNL A   1      38.546  29.263  27.921  1.00  0.00     0.001 A 
ATOM     78  C   UNL A   1      39.020  28.283  30.077  1.00  0.00     0.001 A 
ATOM     79  C   UNL A   1      38.103  28.770  29.147  1.00  0.00     0.000 A 
ENDBRANCH  60  74
BRANCH  61  80
ATOM     80  C   UNL A   1      50.572  28.342  26.288  1.00  0.00    -0.014 A 
ATOM     81  C   UNL A   1      51.019  28.794  25.036  1.00  0.00     0.009 A 
ATOM     82  C   UNL A   1      51.513  27.814  27.187  1.00  0.00     0.009 A 
ATOM     83  C   UNL A   1      52.364  28.679  24.678  1.00  0.00     0.001 A 
ATOM     84  C   UNL A   1      52.864  27.738  26.843  1.00  0.00     0.001 A 
ATOM     85  C   UNL A   1      53.286  28.154  25.583  1.00  0.00     0.000 A 
ENDBRANCH  61  80
BRANCH  73  86
ATOM     86  C   UNL A   1      46.560  33.122  29.392  1.00  0.00    -0.014 A 
ATOM     87  C   UNL A   1      46.517  34.313  28.650  1.00  0.00     0.009 A 
ATOM     88  C   UNL A   1      46.862  33.189  30.762  1.00  0.00     0.009 A 
ATOM     89  C   UNL A   1      46.819  35.534  29.257  1.00  0.00     0.001 A 
ATOM     90  C   UNL A   1      47.121  34.414  31.376  1.00  0.00     0.001 A 
ATOM     91  C   UNL A   1      47.115  35.584  30.619  1.00  0.00     0.000 A 
ENDBRANCH  73  86
ENDBRANCH  47  48
ENDBRANCH  39  42
ENDBRANCH  37  38
ENDBRANCH  36  37
ENDBRANCH  35  36
ENDBRANCH   1  35
TORSDOF 18
ENDMDL
