MODEL 1
REMARK VINA RESULT:     -11.1      0.000      0.000
REMARK SMILES C/C=C(\C)[C@@H]1C=C[C@@H]2C[C@H](C)C[C@H](C)[C@@H]2[C@@H]1C(=O)C1=C(NCCCCNC(=O)c2ccc(-c3c4nc(c(-c5ccccc5)c5ccc([nH]5)c(-c5ccccc5)c5nc(c(-c6ccccc6)c6ccc3[nH]6)C=C5)C=C4)cc2)[C@H](C[C@](C)(O)C(=O)[O-])NC1=O
REMARK SMILES IDX 23 1 22 2 21 3 20 5 19 6 86 7 77 8 85 9 87 10 17 12 18 13
REMARK SMILES IDX 16 14 5 15 6 16 7 17 15 18 8 19 13 20 9 21 12 22 14 23 10 24
REMARK SMILES IDX 11 25 3 26 1 27 2 28 4 29 78 30 79 31 80 32 81 33 82 35
REMARK SMILES IDX 83 36 84 37 24 38 25 39 26 40 27 41 28 43 29 44 30 45 76 46
REMARK SMILES IDX 31 47 75 48 32 49 33 50 34 51 69 52 35 53 74 54 68 55 70 56
REMARK SMILES IDX 36 57 73 58 67 59 66 60 37 62 59 63 44 64 58 65 45 66 48 67
REMARK SMILES IDX 57 68 71 69 46 70 47 71 56 73 72 74 49 75 38 76 39 77 43 78
REMARK SMILES IDX 40 79 42 80 41 81 60 82 61 83 65 84 62 85 64 86 63 87 50 88
REMARK SMILES IDX 51 89 55 90 52 91 54 92 53 93
REMARK H PARENT 21 4 85 11 81 34 26 42 70 61 48 72
REMARK Flexibility Score: inf
ROOT
ATOM      1  C   UNL A   1      36.301  23.719  24.358  1.00  0.00     0.023 C 
ENDROOT
BRANCH   1   2
ATOM      2  C   UNL A   1      35.825  24.259  25.699  1.00  0.00     0.113 C 
BRANCH   2   3
ATOM      3  N   UNL A   1      34.514  24.840  25.546  1.00  0.00    -0.386 N 
ATOM      4  H   UNL A   1      34.472  25.670  25.019  1.00  0.00     0.160 HD
BRANCH   3   5
ATOM      5  C   UNL A   1      33.307  24.378  26.046  1.00  0.00     0.050 C 
ATOM      6  C   UNL A   1      32.141  25.001  26.385  1.00  0.00     0.104 C 
ATOM      7  C   UNL A   1      31.289  23.872  26.885  1.00  0.00     0.257 C 
ATOM      8  C   UNL A   1      33.212  22.855  26.157  1.00  0.00     0.133 C 
ATOM      9  N   UNL A   1      31.993  22.710  26.829  1.00  0.00    -0.343 N 
ATOM     10  O   UNL A   1      30.128  23.823  27.244  1.00  0.00    -0.269 OA
ATOM     11  H   UNL A   1      31.679  21.861  27.218  1.00  0.00     0.164 HD
BRANCH   6  12
ATOM     12  C   UNL A   1      31.756  26.373  25.850  1.00  0.00     0.174 C 
ATOM     13  O   UNL A   1      30.698  26.842  26.310  1.00  0.00    -0.294 OA
BRANCH  12  14
ATOM     14  C   UNL A   1      32.495  27.287  24.784  1.00  0.00     0.076 C 
ATOM     15  C   UNL A   1      32.449  28.805  25.057  1.00  0.00     0.048 C 
ATOM     16  C   UNL A   1      31.047  29.269  24.709  1.00  0.00    -0.022 C 
ATOM     17  C   UNL A   1      30.266  28.593  23.822  1.00  0.00    -0.027 C 
ATOM     18  C   UNL A   1      32.151  27.158  23.252  1.00  0.00     0.010 C 
ATOM     19  C   UNL A   1      30.653  27.303  23.070  1.00  0.00     0.016 C 
ATOM     20  C   UNL A   1      32.693  26.011  22.394  1.00  0.00    -0.010 C 
ATOM     21  C   UNL A   1      29.951  25.943  23.390  1.00  0.00     0.011 C 
ATOM     22  C   UNL A   1      32.181  24.672  22.864  1.00  0.00     0.007 C 
ATOM     23  C   UNL A   1      34.211  26.056  22.247  1.00  0.00     0.008 C 
ATOM     24  C   UNL A   1      30.645  24.643  22.885  1.00  0.00    -0.013 C 
ATOM     25  C   UNL A   1      30.217  23.423  23.718  1.00  0.00     0.007 C 
BRANCH  15  26
ATOM     26  C   UNL A   1      33.179  29.260  26.329  1.00  0.00    -0.070 C 
ATOM     27  C   UNL A   1      35.184  29.316  27.915  1.00  0.00     0.035 C 
ATOM     28  C   UNL A   1      34.457  28.960  26.647  1.00  0.00    -0.031 C 
ATOM     29  C   UNL A   1      32.253  29.943  27.329  1.00  0.00     0.040 C 
ENDBRANCH  15  26
ENDBRANCH  12  14
ENDBRANCH   6  12
BRANCH   8  30
ATOM     30  C   UNL A   1      33.259  22.189  24.763  1.00  0.00     0.072 C 
BRANCH  30  31
ATOM     31  C   UNL A   1      32.914  20.689  24.643  1.00  0.00     0.103 C 
ATOM     32  C   UNL A   1      32.262  20.328  23.303  1.00  0.00     0.049 C 
BRANCH  31  33
ATOM     33  O   UNL A   1      32.020  20.308  25.702  1.00  0.00    -0.384 OA
ATOM     34  H   UNL A   1      31.668  21.104  26.130  1.00  0.00     0.211 HD
ENDBRANCH  31  33
BRANCH  31  35
ATOM     35  C   UNL A   1      34.233  19.911  24.809  1.00  0.00     0.073 C 
ATOM     36  O   UNL A   1      35.323  20.332  25.154  1.00  0.00    -0.547 OA
ATOM     37  O   UNL A   1      34.056  18.585  24.583  1.00  0.00    -0.547 OA
ENDBRANCH  31  35
ENDBRANCH  30  31
ENDBRANCH   8  30
ENDBRANCH   3   5
ENDBRANCH   2   3
ENDBRANCH   1   2
BRANCH   1  38
ATOM     38  C   UNL A   1      37.455  22.729  24.412  1.00  0.00     0.023 C 
BRANCH  38  39
ATOM     39  C   UNL A   1      38.058  22.575  25.793  1.00  0.00     0.116 C 
BRANCH  39  40
ATOM     40  N   UNL A   1      39.339  21.875  25.802  1.00  0.00    -0.352 N 
ATOM     41  C   UNL A   1      40.563  22.365  26.189  1.00  0.00     0.251 C 
ATOM     42  H   UNL A   1      39.324  20.940  25.494  1.00  0.00     0.163 HD
ATOM     43  O   UNL A   1      41.587  21.707  26.055  1.00  0.00    -0.269 OA
BRANCH  41  44
ATOM     44  C   UNL A   1      40.612  23.736  26.729  1.00  0.00     0.039 A 
ATOM     45  C   UNL A   1      40.769  23.921  28.101  1.00  0.00     0.014 A 
ATOM     46  C   UNL A   1      40.635  24.819  25.848  1.00  0.00     0.014 A 
ATOM     47  C   UNL A   1      41.022  25.204  28.585  1.00  0.00     0.010 A 
ATOM     48  C   UNL A   1      41.014  26.064  26.317  1.00  0.00     0.010 A 
ATOM     49  C   UNL A   1      41.188  26.276  27.693  1.00  0.00    -0.014 A 
BRANCH  49  50
ATOM     50  C   UNL A   1      41.503  27.641  28.172  1.00  0.00     0.031 A 
ATOM     51  C   UNL A   1      42.939  28.083  28.256  1.00  0.00     0.074 A 
ATOM     52  C   UNL A   1      40.515  28.453  28.593  1.00  0.00     0.049 A 
ATOM     53  N   UNL A   1      43.433  29.209  28.702  1.00  0.00    -0.248 NA
ATOM     54  C   UNL A   1      43.958  27.112  27.822  1.00  0.00     0.031 C 
ATOM     55  C   UNL A   1      39.090  28.117  28.621  1.00  0.00     0.029 A 
ATOM     56  N   UNL A   1      40.565  29.732  29.086  1.00  0.00    -0.354 N 
ATOM     57  C   UNL A   1      44.811  29.069  28.619  1.00  0.00     0.074 A 
ATOM     58  C   UNL A   1      45.077  27.723  28.168  1.00  0.00     0.031 C 
ATOM     59  C   UNL A   1      38.398  29.178  29.066  1.00  0.00     0.029 A 
ATOM     60  C   UNL A   1      39.331  30.249  29.397  1.00  0.00     0.049 A 
ATOM     61  H   UNL A   1      41.405  30.232  29.205  1.00  0.00     0.167 HD
ATOM     62  C   UNL A   1      45.775  29.988  28.862  1.00  0.00     0.031 A 
ATOM     63  C   UNL A   1      38.992  31.454  29.893  1.00  0.00     0.031 A 
ATOM     64  C   UNL A   1      45.505  31.328  29.303  1.00  0.00     0.049 A 
ATOM     65  C   UNL A   1      40.074  32.463  30.159  1.00  0.00     0.074 A 
ATOM     66  C   UNL A   1      46.399  32.360  29.530  1.00  0.00     0.029 A 
ATOM     67  N   UNL A   1      44.240  31.822  29.587  1.00  0.00    -0.354 N 
ATOM     68  N   UNL A   1      41.370  32.344  30.006  1.00  0.00    -0.248 NA
ATOM     69  C   UNL A   1      39.642  33.780  30.648  1.00  0.00     0.031 C 
ATOM     70  C   UNL A   1      45.678  33.459  30.009  1.00  0.00     0.029 A 
ATOM     71  C   UNL A   1      44.330  33.136  30.012  1.00  0.00     0.049 A 
ATOM     72  H   UNL A   1      43.401  31.312  29.500  1.00  0.00     0.167 HD
ATOM     73  C   UNL A   1      41.910  33.577  30.352  1.00  0.00     0.074 A 
ATOM     74  C   UNL A   1      40.795  34.433  30.706  1.00  0.00     0.031 C 
ATOM     75  C   UNL A   1      43.208  33.968  30.369  1.00  0.00     0.031 A 
BRANCH  62  76
ATOM     76  C   UNL A   1      47.202  29.552  28.659  1.00  0.00    -0.014 A 
ATOM     77  C   UNL A   1      47.838  29.687  27.413  1.00  0.00     0.009 A 
ATOM     78  C   UNL A   1      47.915  28.978  29.721  1.00  0.00     0.009 A 
ATOM     79  C   UNL A   1      49.132  29.202  27.219  1.00  0.00     0.001 A 
ATOM     80  C   UNL A   1      49.224  28.530  29.536  1.00  0.00     0.001 A 
ATOM     81  C   UNL A   1      49.825  28.626  28.282  1.00  0.00     0.000 A 
ENDBRANCH  62  76
BRANCH  63  82
ATOM     82  C   UNL A   1      37.561  31.773  30.142  1.00  0.00    -0.014 A 
ATOM     83  C   UNL A   1      36.959  31.450  31.368  1.00  0.00     0.009 A 
ATOM     84  C   UNL A   1      36.796  32.427  29.164  1.00  0.00     0.009 A 
ATOM     85  C   UNL A   1      35.616  31.757  31.600  1.00  0.00     0.001 A 
ATOM     86  C   UNL A   1      35.463  32.760  29.410  1.00  0.00     0.001 A 
ATOM     87  C   UNL A   1      34.871  32.417  30.624  1.00  0.00     0.000 A 
ENDBRANCH  63  82
BRANCH  75  88
ATOM     88  C   UNL A   1      43.491  35.394  30.750  1.00  0.00    -0.014 A 
ATOM     89  C   UNL A   1      43.744  35.763  32.080  1.00  0.00     0.009 A 
ATOM     90  C   UNL A   1      43.551  36.378  29.749  1.00  0.00     0.009 A 
ATOM     91  C   UNL A   1      44.013  37.095  32.404  1.00  0.00     0.001 A 
ATOM     92  C   UNL A   1      43.853  37.701  30.070  1.00  0.00     0.001 A 
ATOM     93  C   UNL A   1      44.073  38.060  31.398  1.00  0.00     0.000 A 
ENDBRANCH  75  88
ENDBRANCH  49  50
ENDBRANCH  41  44
ENDBRANCH  39  40
ENDBRANCH  38  39
ENDBRANCH   1  38
TORSDOF 18
ENDMDL
MODEL 2
REMARK VINA RESULT:     -11.1      1.974      3.661
REMARK SMILES C/C=C(\C)[C@@H]1C=C[C@@H]2C[C@H](C)C[C@H](C)[C@@H]2[C@@H]1C(=O)C1=C(NCCCCNC(=O)c2ccc(-c3c4nc(c(-c5ccccc5)c5ccc([nH]5)c(-c5ccccc5)c5nc(c(-c6ccccc6)c6ccc3[nH]6)C=C5)C=C4)cc2)[C@H](C[C@](C)(O)C(=O)[O-])NC1=O
REMARK SMILES IDX 23 1 22 2 21 3 20 5 19 6 86 7 77 8 85 9 87 10 17 12 18 13
REMARK SMILES IDX 16 14 5 15 6 16 7 17 15 18 8 19 13 20 9 21 12 22 14 23 10 24
REMARK SMILES IDX 11 25 3 26 1 27 2 28 4 29 78 30 79 31 80 32 81 33 82 35
REMARK SMILES IDX 83 36 84 37 24 38 25 39 26 40 27 41 28 43 29 44 30 45 76 46
REMARK SMILES IDX 31 47 75 48 32 49 33 50 34 51 69 52 35 53 74 54 68 55 70 56
REMARK SMILES IDX 36 57 73 58 67 59 66 60 37 62 59 63 44 64 58 65 45 66 48 67
REMARK SMILES IDX 57 68 71 69 46 70 47 71 56 73 72 74 49 75 38 76 39 77 43 78
REMARK SMILES IDX 40 79 42 80 41 81 60 82 61 83 65 84 62 85 64 86 63 87 50 88
REMARK SMILES IDX 51 89 55 90 52 91 54 92 53 93
REMARK H PARENT 21 4 85 11 81 34 26 42 70 61 48 72
REMARK Flexibility Score: inf
ROOT
ATOM      1  C   UNL A   1      37.545  21.741  24.605  1.00  0.00     0.023 C 
ENDROOT
BRANCH   1   2
ATOM      2  C   UNL A   1      37.152  22.621  25.784  1.00  0.00     0.113 C 
BRANCH   2   3
ATOM      3  N   UNL A   1      35.952  23.352  25.459  1.00  0.00    -0.386 N 
ATOM      4  H   UNL A   1      36.033  24.008  24.729  1.00  0.00     0.160 HD
BRANCH   3   5
ATOM      5  C   UNL A   1      34.699  23.247  26.042  1.00  0.00     0.050 C 
ATOM      6  C   UNL A   1      33.618  24.079  26.080  1.00  0.00     0.104 C 
ATOM      7  C   UNL A   1      32.638  23.318  26.923  1.00  0.00     0.257 C 
ATOM      8  C   UNL A   1      34.421  21.894  26.700  1.00  0.00     0.133 C 
ATOM      9  N   UNL A   1      33.196  22.146  27.327  1.00  0.00    -0.343 N 
ATOM     10  O   UNL A   1      31.480  23.537  27.226  1.00  0.00    -0.269 OA
ATOM     11  H   UNL A   1      32.782  21.543  27.987  1.00  0.00     0.164 HD
BRANCH   6  12
ATOM     12  C   UNL A   1      33.400  25.191  25.063  1.00  0.00     0.174 C 
ATOM     13  O   UNL A   1      34.249  26.102  25.087  1.00  0.00    -0.294 OA
BRANCH  12  14
ATOM     14  C   UNL A   1      32.245  25.368  23.990  1.00  0.00     0.076 C 
ATOM     15  C   UNL A   1      32.601  24.947  22.548  1.00  0.00     0.048 C 
ATOM     16  C   UNL A   1      33.500  26.033  21.986  1.00  0.00    -0.022 C 
ATOM     17  C   UNL A   1      33.469  27.308  22.461  1.00  0.00    -0.027 C 
ATOM     18  C   UNL A   1      31.523  26.758  23.820  1.00  0.00     0.010 C 
ATOM     19  C   UNL A   1      32.569  27.832  23.600  1.00  0.00     0.016 C 
ATOM     20  C   UNL A   1      30.451  27.238  24.803  1.00  0.00    -0.010 C 
ATOM     21  C   UNL A   1      33.177  28.263  24.973  1.00  0.00     0.011 C 
ATOM     22  C   UNL A   1      31.012  27.431  26.191  1.00  0.00     0.007 C 
ATOM     23  C   UNL A   1      29.200  26.366  24.777  1.00  0.00     0.008 C 
ATOM     24  C   UNL A   1      32.199  28.406  26.177  1.00  0.00    -0.013 C 
ATOM     25  C   UNL A   1      32.937  28.254  27.517  1.00  0.00     0.007 C 
BRANCH  15  26
ATOM     26  C   UNL A   1      32.894  23.451  22.360  1.00  0.00    -0.070 C 
ATOM     27  C   UNL A   1      32.207  20.996  22.167  1.00  0.00     0.035 C 
ATOM     28  C   UNL A   1      31.964  22.477  22.270  1.00  0.00    -0.031 C 
ATOM     29  C   UNL A   1      34.378  23.121  22.478  1.00  0.00     0.040 C 
ENDBRANCH  15  26
ENDBRANCH  12  14
ENDBRANCH   6  12
BRANCH   8  30
ATOM     30  C   UNL A   1      34.383  20.760  25.651  1.00  0.00     0.072 C 
BRANCH  30  31
ATOM     31  C   UNL A   1      33.193  19.777  25.660  1.00  0.00     0.103 C 
ATOM     32  C   UNL A   1      31.871  20.429  25.240  1.00  0.00     0.049 C 
BRANCH  31  33
ATOM     33  O   UNL A   1      33.030  19.222  26.976  1.00  0.00    -0.384 OA
ATOM     34  H   UNL A   1      32.098  19.278  27.237  1.00  0.00     0.211 HD
ENDBRANCH  31  33
BRANCH  31  35
ATOM     35  C   UNL A   1      33.546  18.636  24.686  1.00  0.00     0.073 C 
ATOM     36  O   UNL A   1      34.647  18.212  24.383  1.00  0.00    -0.547 OA
ATOM     37  O   UNL A   1      32.429  18.043  24.195  1.00  0.00    -0.547 OA
ENDBRANCH  31  35
ENDBRANCH  30  31
ENDBRANCH   8  30
ENDBRANCH   3   5
ENDBRANCH   2   3
ENDBRANCH   1   2
BRANCH   1  38
ATOM     38  C   UNL A   1      38.147  20.389  24.959  1.00  0.00     0.023 C 
BRANCH  38  39
ATOM     39  C   UNL A   1      39.256  20.468  25.987  1.00  0.00     0.116 C 
BRANCH  39  40
ATOM     40  N   UNL A   1      40.282  19.441  25.829  1.00  0.00    -0.352 N 
ATOM     41  C   UNL A   1      41.635  19.564  26.035  1.00  0.00     0.251 C 
ATOM     42  H   UNL A   1      39.965  18.554  25.541  1.00  0.00     0.163 HD
ATOM     43  O   UNL A   1      42.407  18.652  25.771  1.00  0.00    -0.269 OA
BRANCH  41  44
ATOM     44  C   UNL A   1      42.135  20.854  26.543  1.00  0.00     0.039 A 
ATOM     45  C   UNL A   1      42.455  21.864  25.638  1.00  0.00     0.014 A 
ATOM     46  C   UNL A   1      42.151  21.089  27.919  1.00  0.00     0.014 A 
ATOM     47  C   UNL A   1      42.727  23.144  26.120  1.00  0.00     0.010 A 
ATOM     48  C   UNL A   1      42.294  22.385  28.383  1.00  0.00     0.010 A 
ATOM     49  C   UNL A   1      42.606  23.422  27.491  1.00  0.00    -0.014 A 
BRANCH  49  50
ATOM     50  C   UNL A   1      42.844  24.781  28.031  1.00  0.00     0.031 A 
ATOM     51  C   UNL A   1      44.229  25.173  28.463  1.00  0.00     0.074 A 
ATOM     52  C   UNL A   1      41.812  25.630  28.196  1.00  0.00     0.049 A 
ATOM     53  N   UNL A   1      44.640  26.287  29.014  1.00  0.00    -0.248 NA
ATOM     54  C   UNL A   1      45.289  24.164  28.293  1.00  0.00     0.031 C 
ATOM     55  C   UNL A   1      40.412  25.344  27.875  1.00  0.00     0.029 A 
ATOM     56  N   UNL A   1      41.786  26.912  28.683  1.00  0.00    -0.354 N 
ATOM     57  C   UNL A   1      45.991  26.098  29.272  1.00  0.00     0.074 A 
ATOM     58  C   UNL A   1      46.311  24.740  28.901  1.00  0.00     0.031 C 
ATOM     59  C   UNL A   1      39.671  26.432  28.135  1.00  0.00     0.029 A 
ATOM     60  C   UNL A   1      40.533  27.475  28.682  1.00  0.00     0.049 A 
ATOM     61  H   UNL A   1      42.588  27.384  29.004  1.00  0.00     0.167 HD
ATOM     62  C   UNL A   1      46.898  26.986  29.742  1.00  0.00     0.031 A 
ATOM     63  C   UNL A   1      40.126  28.695  29.078  1.00  0.00     0.031 A 
ATOM     64  C   UNL A   1      46.577  28.339  30.101  1.00  0.00     0.049 A 
ATOM     65  C   UNL A   1      41.146  29.670  29.599  1.00  0.00     0.074 A 
ATOM     66  C   UNL A   1      47.424  29.342  30.538  1.00  0.00     0.029 A 
ATOM     67  N   UNL A   1      45.299  28.879  30.066  1.00  0.00    -0.354 N 
ATOM     68  N   UNL A   1      42.435  29.504  29.768  1.00  0.00    -0.248 NA
ATOM     69  C   UNL A   1      40.655  31.005  29.965  1.00  0.00     0.031 C 
ATOM     70  C   UNL A   1      46.648  30.470  30.824  1.00  0.00     0.029 A 
ATOM     71  C   UNL A   1      45.330  30.194  30.497  1.00  0.00     0.049 A 
ATOM     72  H   UNL A   1      44.490  28.397  29.776  1.00  0.00     0.167 HD
ATOM     73  C   UNL A   1      42.917  30.721  30.233  1.00  0.00     0.074 A 
ATOM     74  C   UNL A   1      41.781  31.618  30.303  1.00  0.00     0.031 C 
ATOM     75  C   UNL A   1      44.185  31.068  30.567  1.00  0.00     0.031 A 
BRANCH  62  76
ATOM     76  C   UNL A   1      48.314  26.499  29.895  1.00  0.00    -0.014 A 
ATOM     77  C   UNL A   1      49.242  26.605  28.844  1.00  0.00     0.009 A 
ATOM     78  C   UNL A   1      48.723  25.907  31.098  1.00  0.00     0.009 A 
ATOM     79  C   UNL A   1      50.526  26.073  28.973  1.00  0.00     0.001 A 
ATOM     80  C   UNL A   1      50.022  25.412  31.240  1.00  0.00     0.001 A 
ATOM     81  C   UNL A   1      50.916  25.479  30.173  1.00  0.00     0.000 A 
ENDBRANCH  62  76
BRANCH  63  82
ATOM     82  C   UNL A   1      38.690  29.066  28.969  1.00  0.00    -0.014 A 
ATOM     83  C   UNL A   1      37.841  28.975  30.082  1.00  0.00     0.009 A 
ATOM     84  C   UNL A   1      38.167  29.538  27.755  1.00  0.00     0.009 A 
ATOM     85  C   UNL A   1      36.494  29.330  29.977  1.00  0.00     0.001 A 
ATOM     86  C   UNL A   1      36.827  29.921  27.661  1.00  0.00     0.001 A 
ATOM     87  C   UNL A   1      35.989  29.809  28.769  1.00  0.00     0.000 A 
ENDBRANCH  63  82
BRANCH  75  88
ATOM     88  C   UNL A   1      44.418  32.487  31.003  1.00  0.00    -0.014 A 
ATOM     89  C   UNL A   1      44.344  32.863  32.354  1.00  0.00     0.009 A 
ATOM     90  C   UNL A   1      44.763  33.456  30.047  1.00  0.00     0.009 A 
ATOM     91  C   UNL A   1      44.572  34.188  32.731  1.00  0.00     0.001 A 
ATOM     92  C   UNL A   1      45.025  34.771  30.430  1.00  0.00     0.001 A 
ATOM     93  C   UNL A   1      44.918  35.138  31.770  1.00  0.00     0.000 A 
ENDBRANCH  75  88
ENDBRANCH  49  50
ENDBRANCH  41  44
ENDBRANCH  39  40
ENDBRANCH  38  39
ENDBRANCH   1  38
TORSDOF 18
ENDMDL
MODEL 3
REMARK VINA RESULT:     -10.8      3.238      6.169
REMARK SMILES C/C=C(\C)[C@@H]1C=C[C@@H]2C[C@H](C)C[C@H](C)[C@@H]2[C@@H]1C(=O)C1=C(NCCCCNC(=O)c2ccc(-c3c4nc(c(-c5ccccc5)c5ccc([nH]5)c(-c5ccccc5)c5nc(c(-c6ccccc6)c6ccc3[nH]6)C=C5)C=C4)cc2)[C@H](C[C@](C)(O)C(=O)[O-])NC1=O
REMARK SMILES IDX 23 1 22 2 21 3 20 5 19 6 86 7 77 8 85 9 87 10 17 12 18 13
REMARK SMILES IDX 16 14 5 15 6 16 7 17 15 18 8 19 13 20 9 21 12 22 14 23 10 24
REMARK SMILES IDX 11 25 3 26 1 27 2 28 4 29 78 30 79 31 80 32 81 33 82 35
REMARK SMILES IDX 83 36 84 37 24 38 25 39 26 40 27 41 28 43 29 44 30 45 76 46
REMARK SMILES IDX 31 47 75 48 32 49 33 50 34 51 69 52 35 53 74 54 68 55 70 56
REMARK SMILES IDX 36 57 73 58 67 59 66 60 37 62 59 63 44 64 58 65 45 66 48 67
REMARK SMILES IDX 57 68 71 69 46 70 47 71 56 73 72 74 49 75 38 76 39 77 43 78
REMARK SMILES IDX 40 79 42 80 41 81 60 82 61 83 65 84 62 85 64 86 63 87 50 88
REMARK SMILES IDX 51 89 55 90 52 91 54 92 53 93
REMARK H PARENT 21 4 85 11 81 34 26 42 70 61 48 72
REMARK Flexibility Score: inf
ROOT
ATOM      1  C   UNL A   1      36.527  23.692  24.929  1.00  0.00     0.023 C 
ENDROOT
BRANCH   1   2
ATOM      2  C   UNL A   1      35.857  24.678  25.876  1.00  0.00     0.113 C 
BRANCH   2   3
ATOM      3  N   UNL A   1      34.521  24.960  25.411  1.00  0.00    -0.386 N 
ATOM      4  H   UNL A   1      34.456  25.549  24.625  1.00  0.00     0.160 HD
BRANCH   3   5
ATOM      5  C   UNL A   1      33.319  24.507  25.930  1.00  0.00     0.050 C 
ATOM      6  C   UNL A   1      32.166  25.139  26.296  1.00  0.00     0.104 C 
ATOM      7  C   UNL A   1      31.312  24.015  26.802  1.00  0.00     0.257 C 
ATOM      8  C   UNL A   1      33.209  22.984  26.029  1.00  0.00     0.133 C 
ATOM      9  N   UNL A   1      32.001  22.846  26.723  1.00  0.00    -0.343 N 
ATOM     10  O   UNL A   1      30.157  23.975  27.182  1.00  0.00    -0.269 OA
ATOM     11  H   UNL A   1      31.685  21.997  27.111  1.00  0.00     0.164 HD
BRANCH   6  12
ATOM     12  C   UNL A   1      31.786  26.520  25.780  1.00  0.00     0.174 C 
ATOM     13  O   UNL A   1      30.736  26.991  26.256  1.00  0.00    -0.294 OA
BRANCH  12  14
ATOM     14  C   UNL A   1      32.522  27.440  24.717  1.00  0.00     0.076 C 
ATOM     15  C   UNL A   1      32.490  28.955  25.007  1.00  0.00     0.048 C 
ATOM     16  C   UNL A   1      31.088  29.434  24.679  1.00  0.00    -0.022 C 
ATOM     17  C   UNL A   1      30.293  28.774  23.793  1.00  0.00    -0.027 C 
ATOM     18  C   UNL A   1      32.161  27.331  23.187  1.00  0.00     0.010 C 
ATOM     19  C   UNL A   1      30.663  27.489  23.022  1.00  0.00     0.016 C 
ATOM     20  C   UNL A   1      32.686  26.190  22.311  1.00  0.00    -0.010 C 
ATOM     21  C   UNL A   1      29.954  26.132  23.334  1.00  0.00     0.011 C 
ATOM     22  C   UNL A   1      32.168  24.849  22.771  1.00  0.00     0.007 C 
ATOM     23  C   UNL A   1      34.202  26.225  22.149  1.00  0.00     0.008 C 
ATOM     24  C   UNL A   1      30.632  24.832  22.807  1.00  0.00    -0.013 C 
ATOM     25  C   UNL A   1      30.203  23.606  23.631  1.00  0.00     0.007 C 
BRANCH  15  26
ATOM     26  C   UNL A   1      33.237  29.390  26.277  1.00  0.00    -0.070 C 
ATOM     27  C   UNL A   1      35.210  29.325  27.901  1.00  0.00     0.035 C 
ATOM     28  C   UNL A   1      34.476  28.988  26.633  1.00  0.00    -0.031 C 
ATOM     29  C   UNL A   1      32.360  30.192  27.232  1.00  0.00     0.040 C 
ENDBRANCH  15  26
ENDBRANCH  12  14
ENDBRANCH   6  12
BRANCH   8  30
ATOM     30  C   UNL A   1      33.223  22.330  24.629  1.00  0.00     0.072 C 
BRANCH  30  31
ATOM     31  C   UNL A   1      32.820  20.845  24.497  1.00  0.00     0.103 C 
ATOM     32  C   UNL A   1      32.288  20.488  23.105  1.00  0.00     0.049 C 
BRANCH  31  33
ATOM     33  O   UNL A   1      31.809  20.526  25.468  1.00  0.00    -0.384 OA
ATOM     34  H   UNL A   1      31.006  20.229  25.012  1.00  0.00     0.211 HD
ENDBRANCH  31  33
BRANCH  31  35
ATOM     35  C   UNL A   1      34.078  20.010  24.806  1.00  0.00     0.073 C 
ATOM     36  O   UNL A   1      35.220  20.397  24.981  1.00  0.00    -0.547 OA
ATOM     37  O   UNL A   1      33.776  18.695  24.943  1.00  0.00    -0.547 OA
ENDBRANCH  31  35
ENDBRANCH  30  31
ENDBRANCH   8  30
ENDBRANCH   3   5
ENDBRANCH   2   3
ENDBRANCH   1   2
BRANCH   1  38
ATOM     38  C   UNL A   1      37.738  22.957  25.483  1.00  0.00     0.023 C 
BRANCH  38  39
ATOM     39  C   UNL A   1      38.656  23.834  26.309  1.00  0.00     0.116 C 
BRANCH  39  40
ATOM     40  N   UNL A   1      40.075  23.583  26.079  1.00  0.00    -0.352 N 
ATOM     41  C   UNL A   1      41.144  24.316  26.535  1.00  0.00     0.251 C 
ATOM     42  H   UNL A   1      40.292  22.793  25.533  1.00  0.00     0.163 HD
ATOM     43  O   UNL A   1      42.290  24.059  26.189  1.00  0.00    -0.269 OA
BRANCH  41  44
ATOM     44  C   UNL A   1      40.861  25.461  27.421  1.00  0.00     0.039 A 
ATOM     45  C   UNL A   1      39.869  25.340  28.391  1.00  0.00     0.014 A 
ATOM     46  C   UNL A   1      41.678  26.590  27.362  1.00  0.00     0.014 A 
ATOM     47  C   UNL A   1      39.743  26.338  29.357  1.00  0.00     0.010 A 
ATOM     48  C   UNL A   1      41.636  27.510  28.395  1.00  0.00     0.010 A 
ATOM     49  C   UNL A   1      40.653  27.407  29.390  1.00  0.00    -0.014 A 
BRANCH  49  50
ATOM     50  C   UNL A   1      40.576  28.458  30.431  1.00  0.00     0.031 A 
ATOM     51  C   UNL A   1      39.525  29.529  30.323  1.00  0.00     0.074 A 
ATOM     52  C   UNL A   1      41.484  28.493  31.424  1.00  0.00     0.049 A 
ATOM     53  N   UNL A   1      39.324  30.570  31.090  1.00  0.00    -0.248 NA
ATOM     54  C   UNL A   1      38.605  29.443  29.177  1.00  0.00     0.031 C 
ATOM     55  C   UNL A   1      42.590  27.548  31.600  1.00  0.00     0.029 A 
ATOM     56  N   UNL A   1      41.621  29.365  32.473  1.00  0.00    -0.354 N 
ATOM     57  C   UNL A   1      38.273  31.264  30.505  1.00  0.00     0.074 A 
ATOM     58  C   UNL A   1      37.940  30.581  29.278  1.00  0.00     0.031 C 
ATOM     59  C   UNL A   1      43.267  27.869  32.715  1.00  0.00     0.029 A 
ATOM     60  C   UNL A   1      42.672  29.063  33.305  1.00  0.00     0.049 A 
ATOM     61  H   UNL A   1      41.024  30.134  32.617  1.00  0.00     0.167 HD
ATOM     62  C   UNL A   1      37.617  32.356  30.964  1.00  0.00     0.031 A 
ATOM     63  C   UNL A   1      43.107  29.682  34.419  1.00  0.00     0.031 A 
ATOM     64  C   UNL A   1      37.947  33.028  32.190  1.00  0.00     0.049 A 
ATOM     65  C   UNL A   1      42.367  30.893  34.915  1.00  0.00     0.074 A 
ATOM     66  C   UNL A   1      37.317  34.110  32.779  1.00  0.00     0.029 A 
ATOM     67  N   UNL A   1      39.006  32.679  33.016  1.00  0.00    -0.354 N 
ATOM     68  N   UNL A   1      41.328  31.498  34.392  1.00  0.00    -0.248 NA
ATOM     69  C   UNL A   1      42.851  31.495  36.164  1.00  0.00     0.031 C 
ATOM     70  C   UNL A   1      38.033  34.452  33.931  1.00  0.00     0.029 A 
ATOM     71  C   UNL A   1      39.063  33.540  34.098  1.00  0.00     0.049 A 
ATOM     72  H   UNL A   1      39.624  31.929  32.856  1.00  0.00     0.167 HD
ATOM     73  C   UNL A   1      41.013  32.535  35.261  1.00  0.00     0.074 A 
ATOM     74  C   UNL A   1      41.964  32.464  36.353  1.00  0.00     0.031 C 
ATOM     75  C   UNL A   1      40.025  33.458  35.170  1.00  0.00     0.031 A 
BRANCH  62  76
ATOM     76  C   UNL A   1      36.487  32.879  30.117  1.00  0.00    -0.014 A 
ATOM     77  C   UNL A   1      35.174  32.404  30.276  1.00  0.00     0.009 A 
ATOM     78  C   UNL A   1      36.741  33.845  29.134  1.00  0.00     0.009 A 
ATOM     79  C   UNL A   1      34.153  32.837  29.428  1.00  0.00     0.001 A 
ATOM     80  C   UNL A   1      35.710  34.308  28.312  1.00  0.00     0.001 A 
ATOM     81  C   UNL A   1      34.423  33.792  28.447  1.00  0.00     0.000 A 
ENDBRANCH  62  76
BRANCH  63  82
ATOM     82  C   UNL A   1      44.284  29.144  35.150  1.00  0.00    -0.014 A 
ATOM     83  C   UNL A   1      45.574  29.629  34.884  1.00  0.00     0.009 A 
ATOM     84  C   UNL A   1      44.122  28.160  36.138  1.00  0.00     0.009 A 
ATOM     85  C   UNL A   1      46.678  29.126  35.578  1.00  0.00     0.001 A 
ATOM     86  C   UNL A   1      45.222  27.681  36.850  1.00  0.00     0.001 A 
ATOM     87  C   UNL A   1      46.500  28.157  36.564  1.00  0.00     0.000 A 
ENDBRANCH  63  82
BRANCH  75  88
ATOM     88  C   UNL A   1      39.898  34.444  36.297  1.00  0.00    -0.014 A 
ATOM     89  C   UNL A   1      39.120  34.167  37.432  1.00  0.00     0.009 A 
ATOM     90  C   UNL A   1      40.607  35.655  36.239  1.00  0.00     0.009 A 
ATOM     91  C   UNL A   1      39.026  35.099  38.467  1.00  0.00     0.001 A 
ATOM     92  C   UNL A   1      40.540  36.569  37.290  1.00  0.00     0.001 A 
ATOM     93  C   UNL A   1      39.740  36.295  38.398  1.00  0.00     0.000 A 
ENDBRANCH  75  88
ENDBRANCH  49  50
ENDBRANCH  41  44
ENDBRANCH  39  40
ENDBRANCH  38  39
ENDBRANCH   1  38
TORSDOF 18
ENDMDL
