MODEL 1
REMARK VINA RESULT:     -11.0      0.000      0.000
REMARK SMILES Cc1noc(C)c1CNc1cnc(C(=O)NCCCCNC(=O)c2ccc(-c3c4nc(c(-c5ccccc5)c5ccc([nH]5)c(-c5ccccc5)c5nc(c(-c6ccccc6)c6ccc3[nH]6)C=C5)C=C4)cc2)cn1
REMARK SMILES IDX 18 1 17 2 16 3 14 4 15 5 13 7 10 8 11 9 73 10 12 11 72 12
REMARK SMILES IDX 9 13 8 15 7 16 1 17 2 18 3 19 4 20 5 21 6 22 19 23 20 24
REMARK SMILES IDX 21 25 22 26 23 28 24 29 25 30 71 31 26 32 70 33 27 34 28 35
REMARK SMILES IDX 29 36 64 37 30 38 69 39 63 40 65 41 31 42 68 43 62 44 61 45
REMARK SMILES IDX 32 47 54 48 39 49 53 50 40 51 43 52 52 53 66 54 41 55 42 56
REMARK SMILES IDX 51 58 67 59 44 60 33 61 34 62 38 63 35 64 37 65 36 66 55 67
REMARK SMILES IDX 56 68 60 69 57 70 59 71 58 72 45 73 46 74 50 75 47 76 49 77
REMARK SMILES IDX 48 78
REMARK H PARENT 16 6 9 14 21 27 65 46 43 57
REMARK Flexibility Score: inf
ROOT
ATOM      1  C   UNL A   1      36.479  21.239  24.697  1.00  0.00     0.023 C 
ENDROOT
BRANCH   1   2
ATOM      2  C   UNL A   1      35.396  21.357  25.767  1.00  0.00     0.116 C 
BRANCH   2   3
ATOM      3  N   UNL A   1      34.409  20.300  25.638  1.00  0.00    -0.351 N 
ATOM      4  C   UNL A   1      33.085  20.345  25.259  1.00  0.00     0.271 C 
ATOM      5  O   UNL A   1      32.456  19.285  25.254  1.00  0.00    -0.267 OA
ATOM      6  H   UNL A   1      34.743  19.399  25.857  1.00  0.00     0.163 HD
BRANCH   4   7
ATOM      7  C   UNL A   1      32.402  21.601  24.831  1.00  0.00     0.146 A 
ATOM      8  C   UNL A   1      30.921  23.767  24.124  1.00  0.00     0.144 A 
ATOM      9  C   UNL A   1      31.781  23.123  23.236  1.00  0.00     0.158 A 
ATOM     10  N   UNL A   1      30.849  23.359  25.406  1.00  0.00    -0.235 NA
ATOM     11  N   UNL A   1      32.533  22.044  23.560  1.00  0.00    -0.246 NA
ATOM     12  C   UNL A   1      31.591  22.267  25.739  1.00  0.00     0.147 A 
BRANCH   8  13
ATOM     13  N   UNL A   1      30.083  24.798  23.776  1.00  0.00    -0.365 N 
ATOM     14  H   UNL A   1      29.624  24.777  22.906  1.00  0.00     0.162 HD
BRANCH  13  15
ATOM     15  C   UNL A   1      29.862  25.917  24.672  1.00  0.00     0.156 C 
BRANCH  15  16
ATOM     16  C   UNL A   1      30.657  27.135  24.364  1.00  0.00     0.037 A 
ATOM     17  C   UNL A   1      32.900  26.627  25.616  1.00  0.00     0.071 C 
ATOM     18  C   UNL A   1      31.983  27.443  24.783  1.00  0.00     0.086 A 
ATOM     19  N   UNL A   1      32.373  28.639  24.326  1.00  0.00    -0.085 NA
ATOM     20  O   UNL A   1      31.307  29.133  23.603  1.00  0.00    -0.361 OA
ATOM     21  C   UNL A   1      30.285  28.239  23.628  1.00  0.00     0.138 A 
ATOM     22  C   UNL A   1      29.056  28.627  22.911  1.00  0.00     0.091 C 
ENDBRANCH  15  16
ENDBRANCH  13  15
ENDBRANCH   8  13
ENDBRANCH   4   7
ENDBRANCH   2   3
ENDBRANCH   1   2
BRANCH   1  23
ATOM     23  C   UNL A   1      37.477  20.104  24.948  1.00  0.00     0.023 C 
BRANCH  23  24
ATOM     24  C   UNL A   1      38.747  20.506  25.693  1.00  0.00     0.116 C 
BRANCH  24  25
ATOM     25  N   UNL A   1      39.775  19.476  25.684  1.00  0.00    -0.352 N 
ATOM     26  C   UNL A   1      41.099  19.582  26.030  1.00  0.00     0.251 C 
ATOM     27  H   UNL A   1      39.482  18.583  25.391  1.00  0.00     0.163 HD
ATOM     28  O   UNL A   1      41.866  18.638  25.867  1.00  0.00    -0.269 OA
BRANCH  26  29
ATOM     29  C   UNL A   1      41.604  20.862  26.568  1.00  0.00     0.039 A 
ATOM     30  C   UNL A   1      42.121  21.808  25.680  1.00  0.00     0.014 A 
ATOM     31  C   UNL A   1      41.527  21.140  27.935  1.00  0.00     0.014 A 
ATOM     32  C   UNL A   1      42.495  23.065  26.156  1.00  0.00     0.010 A 
ATOM     33  C   UNL A   1      41.831  22.416  28.395  1.00  0.00     0.010 A 
ATOM     34  C   UNL A   1      42.316  23.393  27.510  1.00  0.00    -0.014 A 
BRANCH  34  35
ATOM     35  C   UNL A   1      42.613  24.754  28.017  1.00  0.00     0.031 A 
ATOM     36  C   UNL A   1      44.004  25.114  28.453  1.00  0.00     0.074 A 
ATOM     37  C   UNL A   1      41.610  25.641  28.164  1.00  0.00     0.049 A 
ATOM     38  N   UNL A   1      44.442  26.232  28.974  1.00  0.00    -0.248 NA
ATOM     39  C   UNL A   1      45.032  24.071  28.313  1.00  0.00     0.031 C 
ATOM     40  C   UNL A   1      40.205  25.396  27.831  1.00  0.00     0.029 A 
ATOM     41  N   UNL A   1      41.620  26.927  28.642  1.00  0.00    -0.354 N 
ATOM     42  C   UNL A   1      45.788  26.019  29.243  1.00  0.00     0.074 A 
ATOM     43  C   UNL A   1      46.079  24.650  28.876  1.00  0.00     0.031 C 
ATOM     44  C   UNL A   1      39.493  26.503  28.096  1.00  0.00     0.029 A 
ATOM     45  C   UNL A   1      40.382  27.521  28.648  1.00  0.00     0.049 A 
ATOM     46  H   UNL A   1      42.437  27.382  28.951  1.00  0.00     0.167 HD
ATOM     47  C   UNL A   1      46.703  26.888  29.734  1.00  0.00     0.031 A 
ATOM     48  C   UNL A   1      39.999  28.744  29.058  1.00  0.00     0.031 A 
ATOM     49  C   UNL A   1      46.413  28.250  30.094  1.00  0.00     0.049 A 
ATOM     50  C   UNL A   1      41.030  29.695  29.595  1.00  0.00     0.074 A 
ATOM     51  C   UNL A   1      47.285  29.232  30.533  1.00  0.00     0.029 A 
ATOM     52  N   UNL A   1      45.149  28.821  30.067  1.00  0.00    -0.354 N 
ATOM     53  N   UNL A   1      42.317  29.508  29.763  1.00  0.00    -0.248 NA
ATOM     54  C   UNL A   1      40.558  31.031  29.984  1.00  0.00     0.031 C 
ATOM     55  C   UNL A   1      46.538  30.380  30.821  1.00  0.00     0.029 A 
ATOM     56  C   UNL A   1      45.212  30.132  30.508  1.00  0.00     0.049 A 
ATOM     57  H   UNL A   1      44.328  28.362  29.776  1.00  0.00     0.167 HD
ATOM     58  C   UNL A   1      42.812  30.708  30.259  1.00  0.00     0.074 A 
ATOM     59  C   UNL A   1      41.689  31.619  30.348  1.00  0.00     0.031 C 
ATOM     60  C   UNL A   1      44.084  31.024  30.606  1.00  0.00     0.031 A 
BRANCH  47  61
ATOM     61  C   UNL A   1      48.103  26.372  29.924  1.00  0.00    -0.014 A 
ATOM     62  C   UNL A   1      49.048  26.425  28.886  1.00  0.00     0.009 A 
ATOM     63  C   UNL A   1      48.483  25.824  31.159  1.00  0.00     0.009 A 
ATOM     64  C   UNL A   1      50.326  25.890  29.065  1.00  0.00     0.001 A 
ATOM     65  C   UNL A   1      49.771  25.321  31.344  1.00  0.00     0.001 A 
ATOM     66  C   UNL A   1      50.688  25.341  30.294  1.00  0.00     0.000 A 
ENDBRANCH  47  61
BRANCH  48  67
ATOM     67  C   UNL A   1      38.572  29.140  28.951  1.00  0.00    -0.014 A 
ATOM     68  C   UNL A   1      37.723  29.047  30.064  1.00  0.00     0.009 A 
ATOM     69  C   UNL A   1      38.060  29.645  27.746  1.00  0.00     0.009 A 
ATOM     70  C   UNL A   1      36.387  29.442  29.969  1.00  0.00     0.001 A 
ATOM     71  C   UNL A   1      36.731  30.062  27.661  1.00  0.00     0.001 A 
ATOM     72  C   UNL A   1      35.894  29.955  28.769  1.00  0.00     0.000 A 
ENDBRANCH  48  67
BRANCH  60  73
ATOM     73  C   UNL A   1      44.334  32.422  31.096  1.00  0.00    -0.014 A 
ATOM     74  C   UNL A   1      44.632  33.465  30.204  1.00  0.00     0.009 A 
ATOM     75  C   UNL A   1      44.228  32.708  32.466  1.00  0.00     0.009 A 
ATOM     76  C   UNL A   1      44.848  34.760  30.680  1.00  0.00     0.001 A 
ATOM     77  C   UNL A   1      44.418  34.009  32.935  1.00  0.00     0.001 A 
ATOM     78  C   UNL A   1      44.736  35.032  32.044  1.00  0.00     0.000 A 
ENDBRANCH  60  73
ENDBRANCH  34  35
ENDBRANCH  26  29
ENDBRANCH  24  25
ENDBRANCH  23  24
ENDBRANCH   1  23
TORSDOF 14
ENDMDL
MODEL 2
REMARK VINA RESULT:     -11.0      2.177      7.439
REMARK SMILES Cc1noc(C)c1CNc1cnc(C(=O)NCCCCNC(=O)c2ccc(-c3c4nc(c(-c5ccccc5)c5ccc([nH]5)c(-c5ccccc5)c5nc(c(-c6ccccc6)c6ccc3[nH]6)C=C5)C=C4)cc2)cn1
REMARK SMILES IDX 18 1 17 2 16 3 14 4 15 5 13 7 10 8 11 9 73 10 12 11 72 12
REMARK SMILES IDX 9 13 8 15 7 16 1 17 2 18 3 19 4 20 5 21 6 22 19 23 20 24
REMARK SMILES IDX 21 25 22 26 23 28 24 29 25 30 71 31 26 32 70 33 27 34 28 35
REMARK SMILES IDX 29 36 64 37 30 38 69 39 63 40 65 41 31 42 68 43 62 44 61 45
REMARK SMILES IDX 32 47 54 48 39 49 53 50 40 51 43 52 52 53 66 54 41 55 42 56
REMARK SMILES IDX 51 58 67 59 44 60 33 61 34 62 38 63 35 64 37 65 36 66 55 67
REMARK SMILES IDX 56 68 60 69 57 70 59 71 58 72 45 73 46 74 50 75 47 76 49 77
REMARK SMILES IDX 48 78
REMARK H PARENT 16 6 9 14 21 27 65 46 43 57
REMARK Flexibility Score: inf
ROOT
ATOM      1  C   UNL A   1      37.032  22.540  23.985  1.00  0.00     0.023 C 
ENDROOT
BRANCH   1   2
ATOM      2  C   UNL A   1      36.972  23.644  25.038  1.00  0.00     0.116 C 
BRANCH   2   3
ATOM      3  N   UNL A   1      35.719  24.374  24.964  1.00  0.00    -0.351 N 
ATOM      4  C   UNL A   1      34.417  23.945  25.104  1.00  0.00     0.271 C 
ATOM      5  O   UNL A   1      33.522  24.782  24.971  1.00  0.00    -0.267 OA
ATOM      6  H   UNL A   1      35.816  25.337  24.785  1.00  0.00     0.163 HD
BRANCH   4   7
ATOM      7  C   UNL A   1      34.054  22.536  25.436  1.00  0.00     0.146 A 
ATOM      8  C   UNL A   1      33.141  20.027  25.947  1.00  0.00     0.144 A 
ATOM      9  C   UNL A   1      33.709  20.835  26.931  1.00  0.00     0.158 A 
ATOM     10  N   UNL A   1      33.087  20.458  24.672  1.00  0.00    -0.235 NA
ATOM     11  N   UNL A   1      34.175  22.087  26.707  1.00  0.00    -0.246 NA
ATOM     12  C   UNL A   1      33.541  21.721  24.437  1.00  0.00     0.147 A 
BRANCH   8  13
ATOM     13  N   UNL A   1      32.578  18.798  26.187  1.00  0.00    -0.365 N 
ATOM     14  H   UNL A   1      32.275  18.572  27.096  1.00  0.00     0.162 HD
BRANCH  13  15
ATOM     15  C   UNL A   1      32.419  17.826  25.121  1.00  0.00     0.156 C 
BRANCH  15  16
ATOM     16  C   UNL A   1      33.350  16.669  25.185  1.00  0.00     0.037 A 
ATOM     17  C   UNL A   1      35.632  17.796  24.569  1.00  0.00     0.071 C 
ATOM     18  C   UNL A   1      34.753  16.660  24.937  1.00  0.00     0.086 A 
ATOM     19  N   UNL A   1      35.263  15.430  25.073  1.00  0.00    -0.085 NA
ATOM     20  O   UNL A   1      34.201  14.615  25.408  1.00  0.00    -0.361 OA
ATOM     21  C   UNL A   1      33.063  15.352  25.471  1.00  0.00     0.138 A 
ATOM     22  C   UNL A   1      31.826  14.621  25.804  1.00  0.00     0.091 C 
ENDBRANCH  15  16
ENDBRANCH  13  15
ENDBRANCH   8  13
ENDBRANCH   4   7
ENDBRANCH   2   3
ENDBRANCH   1   2
BRANCH   1  23
ATOM     23  C   UNL A   1      37.330  21.151  24.561  1.00  0.00     0.023 C 
BRANCH  23  24
ATOM     24  C   UNL A   1      38.326  21.125  25.716  1.00  0.00     0.116 C 
BRANCH  24  25
ATOM     25  N   UNL A   1      39.254  20.004  25.657  1.00  0.00    -0.352 N 
ATOM     26  C   UNL A   1      40.582  19.970  26.003  1.00  0.00     0.251 C 
ATOM     27  H   UNL A   1      38.879  19.157  25.323  1.00  0.00     0.163 HD
ATOM     28  O   UNL A   1      41.257  18.967  25.793  1.00  0.00    -0.269 OA
BRANCH  26  29
ATOM     29  C   UNL A   1      41.204  21.171  26.598  1.00  0.00     0.039 A 
ATOM     30  C   UNL A   1      41.745  22.139  25.750  1.00  0.00     0.014 A 
ATOM     31  C   UNL A   1      41.212  21.357  27.983  1.00  0.00     0.014 A 
ATOM     32  C   UNL A   1      42.232  23.330  26.288  1.00  0.00     0.010 A 
ATOM     33  C   UNL A   1      41.629  22.573  28.511  1.00  0.00     0.010 A 
ATOM     34  C   UNL A   1      42.142  23.573  27.669  1.00  0.00    -0.014 A 
BRANCH  34  35
ATOM     35  C   UNL A   1      42.560  24.871  28.250  1.00  0.00     0.031 A 
ATOM     36  C   UNL A   1      41.549  25.956  28.489  1.00  0.00     0.074 A 
ATOM     37  C   UNL A   1      43.865  25.104  28.486  1.00  0.00     0.049 A 
ATOM     38  N   UNL A   1      41.734  27.172  28.936  1.00  0.00    -0.248 NA
ATOM     39  C   UNL A   1      40.152  25.642  28.154  1.00  0.00     0.031 C 
ATOM     40  C   UNL A   1      44.954  24.154  28.243  1.00  0.00     0.029 A 
ATOM     41  N   UNL A   1      44.499  26.219  28.973  1.00  0.00    -0.354 N 
ATOM     42  C   UNL A   1      40.483  27.774  28.914  1.00  0.00     0.074 A 
ATOM     43  C   UNL A   1      39.559  26.807  28.362  1.00  0.00     0.031 C 
ATOM     44  C   UNL A   1      46.117  24.720  28.602  1.00  0.00     0.029 A 
ATOM     45  C   UNL A   1      45.862  26.080  29.066  1.00  0.00     0.049 A 
ATOM     46  H   UNL A   1      44.022  27.041  29.232  1.00  0.00     0.167 HD
ATOM     47  C   UNL A   1      40.129  29.013  29.331  1.00  0.00     0.031 A 
ATOM     48  C   UNL A   1      46.805  26.950  29.472  1.00  0.00     0.031 A 
ATOM     49  C   UNL A   1      41.048  29.972  29.885  1.00  0.00     0.049 A 
ATOM     50  C   UNL A   1      46.393  28.318  29.937  1.00  0.00     0.074 A 
ATOM     51  C   UNL A   1      40.777  31.227  30.403  1.00  0.00     0.029 A 
ATOM     52  N   UNL A   1      42.419  29.786  29.981  1.00  0.00    -0.354 N 
ATOM     53  N   UNL A   1      45.193  28.844  29.991  1.00  0.00    -0.248 NA
ATOM     54  C   UNL A   1      47.464  29.206  30.409  1.00  0.00     0.031 C 
ATOM     55  C   UNL A   1      41.992  31.820  30.764  1.00  0.00     0.029 A 
ATOM     56  C   UNL A   1      43.012  30.913  30.524  1.00  0.00     0.049 A 
ATOM     57  H   UNL A   1      42.899  28.972  29.705  1.00  0.00     0.167 HD
ATOM     58  C   UNL A   1      45.361  30.116  30.522  1.00  0.00     0.074 A 
ATOM     59  C   UNL A   1      46.777  30.275  30.787  1.00  0.00     0.031 C 
ATOM     60  C   UNL A   1      44.424  31.065  30.769  1.00  0.00     0.031 A 
BRANCH  47  61
ATOM     61  C   UNL A   1      38.683  29.398  29.183  1.00  0.00    -0.014 A 
ATOM     62  C   UNL A   1      37.792  29.324  30.268  1.00  0.00     0.009 A 
ATOM     63  C   UNL A   1      38.202  29.843  27.942  1.00  0.00     0.009 A 
ATOM     64  C   UNL A   1      36.441  29.632  30.097  1.00  0.00     0.001 A 
ATOM     65  C   UNL A   1      36.858  30.182  27.783  1.00  0.00     0.001 A 
ATOM     66  C   UNL A   1      35.975  30.063  28.855  1.00  0.00     0.000 A 
ENDBRANCH  47  61
BRANCH  48  67
ATOM     67  C   UNL A   1      48.231  26.536  29.476  1.00  0.00    -0.014 A 
ATOM     68  C   UNL A   1      48.773  25.863  30.580  1.00  0.00     0.009 A 
ATOM     69  C   UNL A   1      49.047  26.780  28.360  1.00  0.00     0.009 A 
ATOM     70  C   UNL A   1      50.109  25.453  30.573  1.00  0.00     0.001 A 
ATOM     71  C   UNL A   1      50.374  26.348  28.346  1.00  0.00     0.001 A 
ATOM     72  C   UNL A   1      50.906  25.689  29.453  1.00  0.00     0.000 A 
ENDBRANCH  48  67
BRANCH  60  73
ATOM     73  C   UNL A   1      44.898  32.355  31.376  1.00  0.00    -0.014 A 
ATOM     74  C   UNL A   1      45.010  32.508  32.768  1.00  0.00     0.009 A 
ATOM     75  C   UNL A   1      45.278  33.418  30.542  1.00  0.00     0.009 A 
ATOM     76  C   UNL A   1      45.465  33.712  33.310  1.00  0.00     0.001 A 
ATOM     77  C   UNL A   1      45.758  34.610  31.087  1.00  0.00     0.001 A 
ATOM     78  C   UNL A   1      45.844  34.759  32.470  1.00  0.00     0.000 A 
ENDBRANCH  60  73
ENDBRANCH  34  35
ENDBRANCH  26  29
ENDBRANCH  24  25
ENDBRANCH  23  24
ENDBRANCH   1  23
TORSDOF 14
ENDMDL
MODEL 3
REMARK VINA RESULT:     -10.8      1.590      6.113
REMARK SMILES Cc1noc(C)c1CNc1cnc(C(=O)NCCCCNC(=O)c2ccc(-c3c4nc(c(-c5ccccc5)c5ccc([nH]5)c(-c5ccccc5)c5nc(c(-c6ccccc6)c6ccc3[nH]6)C=C5)C=C4)cc2)cn1
REMARK SMILES IDX 18 1 17 2 16 3 14 4 15 5 13 7 10 8 11 9 73 10 12 11 72 12
REMARK SMILES IDX 9 13 8 15 7 16 1 17 2 18 3 19 4 20 5 21 6 22 19 23 20 24
REMARK SMILES IDX 21 25 22 26 23 28 24 29 25 30 71 31 26 32 70 33 27 34 28 35
REMARK SMILES IDX 29 36 64 37 30 38 69 39 63 40 65 41 31 42 68 43 62 44 61 45
REMARK SMILES IDX 32 47 54 48 39 49 53 50 40 51 43 52 52 53 66 54 41 55 42 56
REMARK SMILES IDX 51 58 67 59 44 60 33 61 34 62 38 63 35 64 37 65 36 66 55 67
REMARK SMILES IDX 56 68 60 69 57 70 59 71 58 72 45 73 46 74 50 75 47 76 49 77
REMARK SMILES IDX 48 78
REMARK H PARENT 16 6 9 14 21 27 65 46 43 57
REMARK Flexibility Score: inf
ROOT
ATOM      1  C   UNL A   1      36.896  21.316  24.720  1.00  0.00     0.023 C 
ENDROOT
BRANCH   1   2
ATOM      2  C   UNL A   1      35.671  21.407  25.627  1.00  0.00     0.116 C 
BRANCH   2   3
ATOM      3  N   UNL A   1      34.750  20.311  25.381  1.00  0.00    -0.351 N 
ATOM      4  C   UNL A   1      33.426  20.315  24.999  1.00  0.00     0.271 C 
ATOM      5  O   UNL A   1      32.863  19.226  24.878  1.00  0.00    -0.267 OA
ATOM      6  H   UNL A   1      35.139  19.414  25.506  1.00  0.00     0.163 HD
BRANCH   4   7
ATOM      7  C   UNL A   1      32.669  21.565  24.700  1.00  0.00     0.146 A 
ATOM      8  C   UNL A   1      31.060  23.704  24.225  1.00  0.00     0.144 A 
ATOM      9  C   UNL A   1      31.913  23.177  23.258  1.00  0.00     0.158 A 
ATOM     10  N   UNL A   1      31.057  23.192  25.471  1.00  0.00    -0.235 NA
ATOM     11  N   UNL A   1      32.728  22.114  23.465  1.00  0.00    -0.246 NA
ATOM     12  C   UNL A   1      31.863  22.115  25.688  1.00  0.00     0.147 A 
BRANCH   8  13
ATOM     13  N   UNL A   1      30.161  24.716  23.994  1.00  0.00    -0.365 N 
ATOM     14  H   UNL A   1      29.592  24.685  23.190  1.00  0.00     0.162 HD
BRANCH  13  15
ATOM     15  C   UNL A   1      30.034  25.830  24.914  1.00  0.00     0.156 C 
BRANCH  15  16
ATOM     16  C   UNL A   1      30.913  26.991  24.619  1.00  0.00     0.037 A 
ATOM     17  C   UNL A   1      33.089  26.348  25.925  1.00  0.00     0.071 C 
ATOM     18  C   UNL A   1      32.246  27.216  25.068  1.00  0.00     0.086 A 
ATOM     19  N   UNL A   1      32.723  28.381  24.614  1.00  0.00    -0.085 NA
ATOM     20  O   UNL A   1      31.707  28.939  23.864  1.00  0.00    -0.361 OA
ATOM     21  C   UNL A   1      30.630  28.113  23.870  1.00  0.00     0.138 A 
ATOM     22  C   UNL A   1      29.445  28.575  23.123  1.00  0.00     0.091 C 
ENDBRANCH  15  16
ENDBRANCH  13  15
ENDBRANCH   8  13
ENDBRANCH   4   7
ENDBRANCH   2   3
ENDBRANCH   1   2
BRANCH   1  23
ATOM     23  C   UNL A   1      37.785  20.099  24.998  1.00  0.00     0.023 C 
BRANCH  23  24
ATOM     24  C   UNL A   1      39.074  20.396  25.759  1.00  0.00     0.116 C 
BRANCH  24  25
ATOM     25  N   UNL A   1      39.988  19.264  25.812  1.00  0.00    -0.352 N 
ATOM     26  C   UNL A   1      41.339  19.263  26.061  1.00  0.00     0.251 C 
ATOM     27  H   UNL A   1      39.584  18.381  25.649  1.00  0.00     0.163 HD
ATOM     28  O   UNL A   1      41.991  18.228  25.966  1.00  0.00    -0.269 OA
BRANCH  26  29
ATOM     29  C   UNL A   1      42.010  20.532  26.407  1.00  0.00     0.039 A 
ATOM     30  C   UNL A   1      42.507  21.333  25.376  1.00  0.00     0.014 A 
ATOM     31  C   UNL A   1      42.108  20.947  27.737  1.00  0.00     0.014 A 
ATOM     32  C   UNL A   1      43.040  22.587  25.676  1.00  0.00     0.010 A 
ATOM     33  C   UNL A   1      42.572  22.225  28.027  1.00  0.00     0.010 A 
ATOM     34  C   UNL A   1      43.041  23.059  26.999  1.00  0.00    -0.014 A 
BRANCH  34  35
ATOM     35  C   UNL A   1      43.509  24.427  27.328  1.00  0.00     0.031 A 
ATOM     36  C   UNL A   1      42.531  25.478  27.769  1.00  0.00     0.074 A 
ATOM     37  C   UNL A   1      44.805  24.746  27.149  1.00  0.00     0.049 A 
ATOM     38  N   UNL A   1      42.744  26.740  28.044  1.00  0.00    -0.248 NA
ATOM     39  C   UNL A   1      41.125  25.064  27.886  1.00  0.00     0.031 C 
ATOM     40  C   UNL A   1      45.846  23.832  26.671  1.00  0.00     0.029 A 
ATOM     41  N   UNL A   1      45.466  25.934  27.338  1.00  0.00    -0.354 N 
ATOM     42  C   UNL A   1      41.498  27.274  28.346  1.00  0.00     0.074 A 
ATOM     43  C   UNL A   1      40.531  26.213  28.169  1.00  0.00     0.031 C 
ATOM     44  C   UNL A   1      47.017  24.488  26.625  1.00  0.00     0.029 A 
ATOM     45  C   UNL A   1      46.804  25.872  27.035  1.00  0.00     0.049 A 
ATOM     46  H   UNL A   1      45.023  26.752  27.661  1.00  0.00     0.167 HD
ATOM     47  C   UNL A   1      41.188  28.528  28.751  1.00  0.00     0.031 A 
ATOM     48  C   UNL A   1      47.755  26.823  27.075  1.00  0.00     0.031 A 
ATOM     49  C   UNL A   1      42.151  29.581  28.931  1.00  0.00     0.049 A 
ATOM     50  C   UNL A   1      47.392  28.207  27.532  1.00  0.00     0.074 A 
ATOM     51  C   UNL A   1      41.948  30.865  29.407  1.00  0.00     0.029 A 
ATOM     52  N   UNL A   1      43.502  29.473  28.633  1.00  0.00    -0.354 N 
ATOM     53  N   UNL A   1      46.223  28.676  27.897  1.00  0.00    -0.248 NA
ATOM     54  C   UNL A   1      48.483  29.190  27.596  1.00  0.00     0.031 C 
ATOM     55  C   UNL A   1      43.167  31.550  29.345  1.00  0.00     0.029 A 
ATOM     56  C   UNL A   1      44.139  30.676  28.887  1.00  0.00     0.049 A 
ATOM     57  H   UNL A   1      43.942  28.662  28.292  1.00  0.00     0.167 HD
ATOM     58  C   UNL A   1      46.440  30.000  28.253  1.00  0.00     0.074 A 
ATOM     59  C   UNL A   1      47.856  30.255  28.075  1.00  0.00     0.031 C 
ATOM     60  C   UNL A   1      45.546  30.921  28.691  1.00  0.00     0.031 A 
BRANCH  47  61
ATOM     61  C   UNL A   1      39.736  28.824  29.007  1.00  0.00    -0.014 A 
ATOM     62  C   UNL A   1      39.157  28.608  30.269  1.00  0.00     0.009 A 
ATOM     63  C   UNL A   1      38.933  29.328  27.971  1.00  0.00     0.009 A 
ATOM     64  C   UNL A   1      37.794  28.836  30.472  1.00  0.00     0.001 A 
ATOM     65  C   UNL A   1      37.579  29.587  28.187  1.00  0.00     0.001 A 
ATOM     66  C   UNL A   1      37.007  29.328  29.432  1.00  0.00     0.000 A 
ENDBRANCH  47  61
BRANCH  48  67
ATOM     67  C   UNL A   1      49.148  26.483  26.690  1.00  0.00    -0.014 A 
ATOM     68  C   UNL A   1      50.027  25.918  27.626  1.00  0.00     0.009 A 
ATOM     69  C   UNL A   1      49.594  26.688  25.375  1.00  0.00     0.009 A 
ATOM     70  C   UNL A   1      51.330  25.577  27.256  1.00  0.00     0.001 A 
ATOM     71  C   UNL A   1      50.889  26.323  25.002  1.00  0.00     0.001 A 
ATOM     72  C   UNL A   1      51.758  25.773  25.943  1.00  0.00     0.000 A 
ENDBRANCH  48  67
BRANCH  60  73
ATOM     73  C   UNL A   1      46.076  32.286  29.028  1.00  0.00    -0.014 A 
ATOM     74  C   UNL A   1      46.094  33.317  28.076  1.00  0.00     0.009 A 
ATOM     75  C   UNL A   1      46.525  32.555  30.331  1.00  0.00     0.009 A 
ATOM     76  C   UNL A   1      46.578  34.582  28.414  1.00  0.00     0.001 A 
ATOM     77  C   UNL A   1      46.984  33.828  30.673  1.00  0.00     0.001 A 
ATOM     78  C   UNL A   1      47.018  34.838  29.714  1.00  0.00     0.000 A 
ENDBRANCH  60  73
ENDBRANCH  34  35
ENDBRANCH  26  29
ENDBRANCH  24  25
ENDBRANCH  23  24
ENDBRANCH   1  23
TORSDOF 14
ENDMDL
