MODEL 1
REMARK VINA RESULT:     -12.1      0.000      0.000
REMARK SMILES CCc1ccc2[nH]c(C(=O)c3cc(C)ccn3)c(CC(=O)NCCCCNC(=O)c3ccc(-c4c5nc(c(-c6ccccc6)c6ccc([nH]6)c(-c6ccccc6)c6nc(c(-c7ccccc7)c7ccc4[nH]7)C=C6)C=C5)cc3)c2c1
REMARK SMILES IDX 24 1 23 2 22 3 20 4 21 5 19 7 18 8 3 9 4 10 79 11 5 12 78 13
REMARK SMILES IDX 6 14 7 15 8 16 2 18 1 19 9 20 10 21 11 22 12 23 17 24 13 25
REMARK SMILES IDX 16 26 14 27 15 28 25 29 26 30 27 31 28 32 29 34 30 35 31 36
REMARK SMILES IDX 77 37 32 38 76 39 33 40 34 41 35 42 70 43 36 44 75 45 69 46
REMARK SMILES IDX 71 47 37 48 74 49 68 50 67 51 38 53 60 54 45 55 59 56 46 57
REMARK SMILES IDX 49 58 58 59 72 60 47 61 48 62 57 64 73 65 50 66 39 67 40 68
REMARK SMILES IDX 44 69 41 70 43 71 42 72 61 73 62 74 66 75 63 76 65 77 64 78
REMARK SMILES IDX 51 79 52 80 56 81 53 82 55 83 54 84
REMARK H PARENT 22 6 7 17 27 33 71 52 49 63
REMARK Flexibility Score: inf
ROOT
ATOM      1  C   UNL A   1      37.192  21.039  24.828  1.00  0.00     0.023 C 
ENDROOT
BRANCH   1   2
ATOM      2  C   UNL A   1      37.487  22.264  25.691  1.00  0.00     0.116 C 
BRANCH   2   3
ATOM      3  N   UNL A   1      36.320  22.743  26.398  1.00  0.00    -0.356 N 
ATOM      4  C   UNL A   1      35.258  23.469  25.939  1.00  0.00     0.224 C 
ATOM      5  O   UNL A   1      34.290  23.570  26.699  1.00  0.00    -0.275 OA
ATOM      6  H   UNL A   1      36.286  22.511  27.355  1.00  0.00     0.163 HD
BRANCH   4   7
ATOM      7  C   UNL A   1      35.208  24.004  24.510  1.00  0.00     0.138 C 
BRANCH   7   8
ATOM      8  C   UNL A   1      34.036  23.535  23.684  1.00  0.00    -0.002 A 
ATOM      9  C   UNL A   1      33.266  19.776  23.969  1.00  0.00    -0.048 A 
ATOM     10  C   UNL A   1      32.253  19.787  23.002  1.00  0.00     0.006 A 
ATOM     11  C   UNL A   1      33.879  20.991  24.317  1.00  0.00     0.014 A 
ATOM     12  C   UNL A   1      31.862  20.963  22.351  1.00  0.00     0.027 A 
ATOM     13  C   UNL A   1      33.532  22.189  23.650  1.00  0.00     0.004 A 
ATOM     14  C   UNL A   1      32.528  22.144  22.692  1.00  0.00     0.046 A 
ATOM     15  N   UNL A   1      32.381  23.418  22.204  1.00  0.00    -0.352 N 
ATOM     16  C   UNL A   1      33.236  24.300  22.834  1.00  0.00     0.093 A 
ATOM     17  H   UNL A   1      31.746  23.671  21.495  1.00  0.00     0.167 HD
BRANCH   9  18
ATOM     18  C   UNL A   1      33.635  18.467  24.632  1.00  0.00     0.032 C 
ATOM     19  C   UNL A   1      34.028  17.334  23.689  1.00  0.00     0.009 C 
ENDBRANCH   9  18
BRANCH  16  20
ATOM     20  C   UNL A   1      33.285  25.739  22.595  1.00  0.00     0.227 C 
ATOM     21  O   UNL A   1      33.805  26.239  21.599  1.00  0.00    -0.285 OA
BRANCH  20  22
ATOM     22  C   UNL A   1      32.735  26.665  23.620  1.00  0.00     0.113 A 
ATOM     23  C   UNL A   1      33.560  27.147  24.632  1.00  0.00     0.036 A 
ATOM     24  N   UNL A   1      31.426  27.001  23.486  1.00  0.00    -0.253 NA
ATOM     25  C   UNL A   1      33.014  28.027  25.569  1.00  0.00    -0.047 A 
ATOM     26  C   UNL A   1      30.935  27.879  24.381  1.00  0.00     0.112 A 
ATOM     27  C   UNL A   1      33.841  28.582  26.689  1.00  0.00     0.044 C 
ATOM     28  C   UNL A   1      31.676  28.406  25.428  1.00  0.00     0.023 A 
ENDBRANCH  20  22
ENDBRANCH  16  20
ENDBRANCH   7   8
ENDBRANCH   4   7
ENDBRANCH   2   3
ENDBRANCH   1   2
BRANCH   1  29
ATOM     29  C   UNL A   1      38.195  19.892  24.965  1.00  0.00     0.023 C 
BRANCH  29  30
ATOM     30  C   UNL A   1      39.280  20.089  26.018  1.00  0.00     0.116 C 
BRANCH  30  31
ATOM     31  N   UNL A   1      40.430  19.220  25.833  1.00  0.00    -0.352 N 
ATOM     32  C   UNL A   1      41.764  19.504  26.000  1.00  0.00     0.251 C 
ATOM     33  H   UNL A   1      40.226  18.301  25.549  1.00  0.00     0.163 HD
ATOM     34  O   UNL A   1      42.613  18.667  25.704  1.00  0.00    -0.269 OA
BRANCH  32  35
ATOM     35  C   UNL A   1      42.185  20.833  26.497  1.00  0.00     0.039 A 
ATOM     36  C   UNL A   1      42.522  21.818  25.564  1.00  0.00     0.014 A 
ATOM     37  C   UNL A   1      42.249  21.111  27.865  1.00  0.00     0.014 A 
ATOM     38  C   UNL A   1      42.862  23.100  26.002  1.00  0.00     0.010 A 
ATOM     39  C   UNL A   1      42.527  22.406  28.297  1.00  0.00     0.010 A 
ATOM     40  C   UNL A   1      42.835  23.413  27.370  1.00  0.00    -0.014 A 
BRANCH  40  41
ATOM     41  C   UNL A   1      43.123  24.789  27.846  1.00  0.00     0.031 A 
ATOM     42  C   UNL A   1      44.537  25.217  28.121  1.00  0.00     0.074 A 
ATOM     43  C   UNL A   1      42.105  25.635  28.089  1.00  0.00     0.049 A 
ATOM     44  N   UNL A   1      44.978  26.363  28.577  1.00  0.00    -0.248 NA
ATOM     45  C   UNL A   1      45.592  24.222  27.875  1.00  0.00     0.031 C 
ATOM     46  C   UNL A   1      40.684  25.328  27.911  1.00  0.00     0.029 A 
ATOM     47  N   UNL A   1      42.110  26.928  28.547  1.00  0.00    -0.354 N 
ATOM     48  C   UNL A   1      46.354  26.219  28.690  1.00  0.00     0.074 A 
ATOM     49  C   UNL A   1      46.673  24.865  28.294  1.00  0.00     0.031 C 
ATOM     50  C   UNL A   1      39.957  26.409  28.235  1.00  0.00     0.029 A 
ATOM     51  C   UNL A   1      40.856  27.473  28.672  1.00  0.00     0.049 A 
ATOM     52  H   UNL A   1      42.935  27.419  28.768  1.00  0.00     0.167 HD
ATOM     53  C   UNL A   1      47.275  27.137  29.072  1.00  0.00     0.031 A 
ATOM     54  C   UNL A   1      40.471  28.693  29.090  1.00  0.00     0.031 A 
ATOM     55  C   UNL A   1      46.967  28.489  29.453  1.00  0.00     0.049 A 
ATOM     56  C   UNL A   1      41.511  29.698  29.495  1.00  0.00     0.074 A 
ATOM     57  C   UNL A   1      47.837  29.508  29.797  1.00  0.00     0.029 A 
ATOM     58  N   UNL A   1      45.685  29.008  29.541  1.00  0.00    -0.354 N 
ATOM     59  N   UNL A   1      42.815  29.569  29.527  1.00  0.00    -0.248 NA
ATOM     60  C   UNL A   1      41.025  31.022  29.909  1.00  0.00     0.031 C 
ATOM     61  C   UNL A   1      47.078  30.636  30.130  1.00  0.00     0.029 A 
ATOM     62  C   UNL A   1      45.740  30.330  29.951  1.00  0.00     0.049 A 
ATOM     63  H   UNL A   1      44.858  28.512  29.343  1.00  0.00     0.167 HD
ATOM     64  C   UNL A   1      43.307  30.799  29.940  1.00  0.00     0.074 A 
ATOM     65  C   UNL A   1      42.162  31.666  30.132  1.00  0.00     0.031 C 
ATOM     66  C   UNL A   1      44.592  31.178  30.140  1.00  0.00     0.031 A 
BRANCH  53  67
ATOM     67  C   UNL A   1      48.712  26.697  29.096  1.00  0.00    -0.014 A 
ATOM     68  C   UNL A   1      49.536  26.848  27.970  1.00  0.00     0.009 A 
ATOM     69  C   UNL A   1      49.255  26.145  30.267  1.00  0.00     0.009 A 
ATOM     70  C   UNL A   1      50.864  26.420  28.003  1.00  0.00     0.001 A 
ATOM     71  C   UNL A   1      50.591  25.742  30.305  1.00  0.00     0.001 A 
ATOM     72  C   UNL A   1      51.391  25.870  29.172  1.00  0.00     0.000 A 
ENDBRANCH  53  67
BRANCH  54  73
ATOM     73  C   UNL A   1      39.028  29.042  29.125  1.00  0.00    -0.014 A 
ATOM     74  C   UNL A   1      38.277  28.840  30.293  1.00  0.00     0.009 A 
ATOM     75  C   UNL A   1      38.396  29.579  27.993  1.00  0.00     0.009 A 
ATOM     76  C   UNL A   1      36.915  29.147  30.319  1.00  0.00     0.001 A 
ATOM     77  C   UNL A   1      37.040  29.907  28.030  1.00  0.00     0.001 A 
ATOM     78  C   UNL A   1      36.298  29.684  29.190  1.00  0.00     0.000 A 
ENDBRANCH  54  73
BRANCH  66  79
ATOM     79  C   UNL A   1      44.828  32.599  30.563  1.00  0.00    -0.014 A 
ATOM     80  C   UNL A   1      44.922  33.633  29.619  1.00  0.00     0.009 A 
ATOM     81  C   UNL A   1      44.928  32.910  31.928  1.00  0.00     0.009 A 
ATOM     82  C   UNL A   1      45.142  34.948  30.034  1.00  0.00     0.001 A 
ATOM     83  C   UNL A   1      45.123  34.229  32.341  1.00  0.00     0.001 A 
ATOM     84  C   UNL A   1      45.239  35.246  31.392  1.00  0.00     0.000 A 
ENDBRANCH  66  79
ENDBRANCH  40  41
ENDBRANCH  32  35
ENDBRANCH  30  31
ENDBRANCH  29  30
ENDBRANCH   1  29
TORSDOF 15
ENDMDL
MODEL 2
REMARK VINA RESULT:     -12.1      0.673      5.748
REMARK SMILES CCc1ccc2[nH]c(C(=O)c3cc(C)ccn3)c(CC(=O)NCCCCNC(=O)c3ccc(-c4c5nc(c(-c6ccccc6)c6ccc([nH]6)c(-c6ccccc6)c6nc(c(-c7ccccc7)c7ccc4[nH]7)C=C6)C=C5)cc3)c2c1
REMARK SMILES IDX 24 1 23 2 22 3 20 4 21 5 19 7 18 8 3 9 4 10 79 11 5 12 78 13
REMARK SMILES IDX 6 14 7 15 8 16 2 18 1 19 9 20 10 21 11 22 12 23 17 24 13 25
REMARK SMILES IDX 16 26 14 27 15 28 25 29 26 30 27 31 28 32 29 34 30 35 31 36
REMARK SMILES IDX 77 37 32 38 76 39 33 40 34 41 35 42 70 43 36 44 75 45 69 46
REMARK SMILES IDX 71 47 37 48 74 49 68 50 67 51 38 53 60 54 45 55 59 56 46 57
REMARK SMILES IDX 49 58 58 59 72 60 47 61 48 62 57 64 73 65 50 66 39 67 40 68
REMARK SMILES IDX 44 69 41 70 43 71 42 72 61 73 62 74 66 75 63 76 65 77 64 78
REMARK SMILES IDX 51 79 52 80 56 81 53 82 55 83 54 84
REMARK H PARENT 22 6 7 17 27 33 71 52 49 63
REMARK Flexibility Score: inf
ROOT
ATOM      1  C   UNL A   1      37.208  21.143  24.718  1.00  0.00     0.023 C 
ENDROOT
BRANCH   1   2
ATOM      2  C   UNL A   1      37.455  22.341  25.634  1.00  0.00     0.116 C 
BRANCH   2   3
ATOM      3  N   UNL A   1      36.286  22.709  26.400  1.00  0.00    -0.356 N 
ATOM      4  C   UNL A   1      35.192  23.438  26.028  1.00  0.00     0.224 C 
ATOM      5  O   UNL A   1      34.235  23.431  26.808  1.00  0.00    -0.275 OA
ATOM      6  H   UNL A   1      36.276  22.384  27.330  1.00  0.00     0.163 HD
BRANCH   4   7
ATOM      7  C   UNL A   1      35.099  24.105  24.659  1.00  0.00     0.138 C 
BRANCH   7   8
ATOM      8  C   UNL A   1      33.981  23.614  23.774  1.00  0.00    -0.002 A 
ATOM      9  C   UNL A   1      33.202  19.860  24.096  1.00  0.00    -0.048 A 
ATOM     10  C   UNL A   1      32.249  19.846  23.069  1.00  0.00     0.006 A 
ATOM     11  C   UNL A   1      33.789  21.085  24.453  1.00  0.00     0.014 A 
ATOM     12  C   UNL A   1      31.897  21.006  22.369  1.00  0.00     0.027 A 
ATOM     13  C   UNL A   1      33.482  22.267  23.739  1.00  0.00     0.004 A 
ATOM     14  C   UNL A   1      32.538  22.196  22.724  1.00  0.00     0.046 A 
ATOM     15  N   UNL A   1      32.418  23.459  22.199  1.00  0.00    -0.352 N 
ATOM     16  C   UNL A   1      33.232  24.358  22.859  1.00  0.00     0.093 A 
ATOM     17  H   UNL A   1      31.828  23.694  21.447  1.00  0.00     0.167 HD
BRANCH   9  18
ATOM     18  C   UNL A   1      33.531  18.567  24.810  1.00  0.00     0.032 C 
ATOM     19  C   UNL A   1      34.707  17.778  24.242  1.00  0.00     0.009 C 
ENDBRANCH   9  18
BRANCH  16  20
ATOM     20  C   UNL A   1      33.293  25.791  22.591  1.00  0.00     0.227 C 
ATOM     21  O   UNL A   1      33.777  26.265  21.565  1.00  0.00    -0.285 OA
BRANCH  20  22
ATOM     22  C   UNL A   1      32.803  26.745  23.622  1.00  0.00     0.113 A 
ATOM     23  C   UNL A   1      33.702  27.325  24.512  1.00  0.00     0.036 A 
ATOM     24  N   UNL A   1      31.471  27.004  23.615  1.00  0.00    -0.253 NA
ATOM     25  C   UNL A   1      33.210  28.227  25.457  1.00  0.00    -0.047 A 
ATOM     26  C   UNL A   1      31.028  27.905  24.513  1.00  0.00     0.112 A 
ATOM     27  C   UNL A   1      34.118  28.887  26.450  1.00  0.00     0.044 C 
ATOM     28  C   UNL A   1      31.845  28.529  25.445  1.00  0.00     0.023 A 
ENDBRANCH  20  22
ENDBRANCH  16  20
ENDBRANCH   7   8
ENDBRANCH   4   7
ENDBRANCH   2   3
ENDBRANCH   1   2
BRANCH   1  29
ATOM     29  C   UNL A   1      38.114  19.936  24.971  1.00  0.00     0.023 C 
BRANCH  29  30
ATOM     30  C   UNL A   1      39.233  20.154  25.983  1.00  0.00     0.116 C 
BRANCH  30  31
ATOM     31  N   UNL A   1      40.295  19.165  25.892  1.00  0.00    -0.352 N 
ATOM     32  C   UNL A   1      41.645  19.326  26.092  1.00  0.00     0.251 C 
ATOM     33  H   UNL A   1      40.008  18.255  25.655  1.00  0.00     0.163 HD
ATOM     34  O   UNL A   1      42.414  18.392  25.877  1.00  0.00    -0.269 OA
BRANCH  32  35
ATOM     35  C   UNL A   1      42.182  20.634  26.525  1.00  0.00     0.039 A 
ATOM     36  C   UNL A   1      42.662  21.515  25.551  1.00  0.00     0.014 A 
ATOM     37  C   UNL A   1      42.217  20.996  27.875  1.00  0.00     0.014 A 
ATOM     38  C   UNL A   1      43.116  22.781  25.924  1.00  0.00     0.010 A 
ATOM     39  C   UNL A   1      42.611  22.281  28.238  1.00  0.00     0.010 A 
ATOM     40  C   UNL A   1      43.064  23.187  27.267  1.00  0.00    -0.014 A 
BRANCH  40  41
ATOM     41  C   UNL A   1      43.476  24.555  27.670  1.00  0.00     0.031 A 
ATOM     42  C   UNL A   1      42.441  25.596  27.991  1.00  0.00     0.074 A 
ATOM     43  C   UNL A   1      44.782  24.877  27.687  1.00  0.00     0.049 A 
ATOM     44  N   UNL A   1      42.609  26.851  28.323  1.00  0.00    -0.248 NA
ATOM     45  C   UNL A   1      41.032  25.180  27.906  1.00  0.00     0.031 C 
ATOM     46  C   UNL A   1      45.885  23.975  27.349  1.00  0.00     0.029 A 
ATOM     47  N   UNL A   1      45.404  26.061  27.997  1.00  0.00    -0.354 N 
ATOM     48  C   UNL A   1      41.333  27.378  28.466  1.00  0.00     0.074 A 
ATOM     49  C   UNL A   1      40.399  26.319  28.147  1.00  0.00     0.031 C 
ATOM     50  C   UNL A   1      47.048  24.631  27.490  1.00  0.00     0.029 A 
ATOM     51  C   UNL A   1      46.773  26.005  27.899  1.00  0.00     0.049 A 
ATOM     52  H   UNL A   1      44.916  26.874  28.262  1.00  0.00     0.167 HD
ATOM     53  C   UNL A   1      40.967  28.625  28.847  1.00  0.00     0.031 A 
ATOM     54  C   UNL A   1      47.704  26.953  28.113  1.00  0.00     0.031 A 
ATOM     55  C   UNL A   1      41.889  29.678  29.180  1.00  0.00     0.049 A 
ATOM     56  C   UNL A   1      47.274  28.325  28.549  1.00  0.00     0.074 A 
ATOM     57  C   UNL A   1      41.613  30.955  29.634  1.00  0.00     0.029 A 
ATOM     58  N   UNL A   1      43.268  29.572  29.091  1.00  0.00    -0.354 N 
ATOM     59  N   UNL A   1      46.064  28.786  28.750  1.00  0.00    -0.248 NA
ATOM     60  C   UNL A   1      48.342  29.304  28.799  1.00  0.00     0.031 C 
ATOM     61  C   UNL A   1      42.826  31.637  29.785  1.00  0.00     0.029 A 
ATOM     62  C   UNL A   1      43.857  30.768  29.467  1.00  0.00     0.049 A 
ATOM     63  H   UNL A   1      43.756  28.767  28.805  1.00  0.00     0.167 HD
ATOM     64  C   UNL A   1      46.224  30.098  29.173  1.00  0.00     0.074 A 
ATOM     65  C   UNL A   1      47.650  30.355  29.215  1.00  0.00     0.031 C 
ATOM     66  C   UNL A   1      45.276  31.009  29.500  1.00  0.00     0.031 A 
BRANCH  53  67
ATOM     67  C   UNL A   1      39.494  28.916  28.920  1.00  0.00    -0.014 A 
ATOM     68  C   UNL A   1      38.798  29.414  27.807  1.00  0.00     0.009 A 
ATOM     69  C   UNL A   1      38.789  28.667  30.108  1.00  0.00     0.009 A 
ATOM     70  C   UNL A   1      37.433  29.694  27.895  1.00  0.00     0.001 A 
ATOM     71  C   UNL A   1      37.419  28.924  30.184  1.00  0.00     0.001 A 
ATOM     72  C   UNL A   1      36.744  29.446  29.082  1.00  0.00     0.000 A 
ENDBRANCH  53  67
BRANCH  54  73
ATOM     73  C   UNL A   1      49.143  26.630  27.943  1.00  0.00    -0.014 A 
ATOM     74  C   UNL A   1      49.900  26.170  29.030  1.00  0.00     0.009 A 
ATOM     75  C   UNL A   1      49.765  26.780  26.694  1.00  0.00     0.009 A 
ATOM     76  C   UNL A   1      51.259  25.888  28.876  1.00  0.00     0.001 A 
ATOM     77  C   UNL A   1      51.118  26.474  26.537  1.00  0.00     0.001 A 
ATOM     78  C   UNL A   1      51.866  26.035  27.629  1.00  0.00     0.000 A 
ENDBRANCH  54  73
BRANCH  66  79
ATOM     79  C   UNL A   1      45.751  32.357  29.959  1.00  0.00    -0.014 A 
ATOM     80  C   UNL A   1      45.918  33.416  29.052  1.00  0.00     0.009 A 
ATOM     81  C   UNL A   1      46.007  32.577  31.321  1.00  0.00     0.009 A 
ATOM     82  C   UNL A   1      46.361  34.662  29.500  1.00  0.00     0.001 A 
ATOM     83  C   UNL A   1      46.426  33.831  31.768  1.00  0.00     0.001 A 
ATOM     84  C   UNL A   1      46.611  34.870  30.856  1.00  0.00     0.000 A 
ENDBRANCH  66  79
ENDBRANCH  40  41
ENDBRANCH  32  35
ENDBRANCH  30  31
ENDBRANCH  29  30
ENDBRANCH   1  29
TORSDOF 15
ENDMDL
MODEL 3
REMARK VINA RESULT:     -12.1      4.125      9.012
REMARK SMILES CCc1ccc2[nH]c(C(=O)c3cc(C)ccn3)c(CC(=O)NCCCCNC(=O)c3ccc(-c4c5nc(c(-c6ccccc6)c6ccc([nH]6)c(-c6ccccc6)c6nc(c(-c7ccccc7)c7ccc4[nH]7)C=C6)C=C5)cc3)c2c1
REMARK SMILES IDX 24 1 23 2 22 3 20 4 21 5 19 7 18 8 3 9 4 10 79 11 5 12 78 13
REMARK SMILES IDX 6 14 7 15 8 16 2 18 1 19 9 20 10 21 11 22 12 23 17 24 13 25
REMARK SMILES IDX 16 26 14 27 15 28 25 29 26 30 27 31 28 32 29 34 30 35 31 36
REMARK SMILES IDX 77 37 32 38 76 39 33 40 34 41 35 42 70 43 36 44 75 45 69 46
REMARK SMILES IDX 71 47 37 48 74 49 68 50 67 51 38 53 60 54 45 55 59 56 46 57
REMARK SMILES IDX 49 58 58 59 72 60 47 61 48 62 57 64 73 65 50 66 39 67 40 68
REMARK SMILES IDX 44 69 41 70 43 71 42 72 61 73 62 74 66 75 63 76 65 77 64 78
REMARK SMILES IDX 51 79 52 80 56 81 53 82 55 83 54 84
REMARK H PARENT 22 6 7 17 27 33 71 52 49 63
REMARK Flexibility Score: inf
ROOT
ATOM      1  C   UNL A   1      31.500  30.783  26.006  1.00  0.00     0.023 C 
ENDROOT
BRANCH   1   2
ATOM      2  C   UNL A   1      32.289  29.866  26.939  1.00  0.00     0.116 C 
BRANCH   2   3
ATOM      3  N   UNL A   1      31.709  28.546  27.046  1.00  0.00    -0.356 N 
ATOM      4  C   UNL A   1      32.248  27.328  26.740  1.00  0.00     0.224 C 
ATOM      5  O   UNL A   1      31.619  26.336  27.121  1.00  0.00    -0.275 OA
ATOM      6  H   UNL A   1      30.787  28.520  27.391  1.00  0.00     0.163 HD
BRANCH   4   7
ATOM      7  C   UNL A   1      33.625  27.198  26.093  1.00  0.00     0.138 C 
BRANCH   7   8
ATOM      8  C   UNL A   1      33.655  26.457  24.780  1.00  0.00    -0.002 A 
ATOM      9  C   UNL A   1      34.930  22.834  25.002  1.00  0.00    -0.048 A 
ATOM     10  C   UNL A   1      34.898  22.610  23.620  1.00  0.00     0.006 A 
ATOM     11  C   UNL A   1      34.471  24.066  25.496  1.00  0.00     0.014 A 
ATOM     12  C   UNL A   1      34.458  23.588  22.720  1.00  0.00     0.027 A 
ATOM     13  C   UNL A   1      34.056  25.088  24.609  1.00  0.00     0.004 A 
ATOM     14  C   UNL A   1      34.052  24.817  23.248  1.00  0.00     0.046 A 
ATOM     15  N   UNL A   1      33.610  25.952  22.614  1.00  0.00    -0.352 N 
ATOM     16  C   UNL A   1      33.296  26.944  23.521  1.00  0.00     0.093 A 
ATOM     17  H   UNL A   1      33.527  26.046  21.638  1.00  0.00     0.167 HD
BRANCH   9  18
ATOM     18  C   UNL A   1      35.418  21.730  25.914  1.00  0.00     0.032 C 
ATOM     19  C   UNL A   1      36.323  20.686  25.266  1.00  0.00     0.009 C 
ENDBRANCH   9  18
BRANCH  16  20
ATOM     20  C   UNL A   1      32.738  28.250  23.181  1.00  0.00     0.227 C 
ATOM     21  O   UNL A   1      33.422  29.265  23.064  1.00  0.00    -0.285 OA
BRANCH  20  22
ATOM     22  C   UNL A   1      31.266  28.390  23.016  1.00  0.00     0.113 A 
ATOM     23  C   UNL A   1      30.415  27.435  23.564  1.00  0.00     0.036 A 
ATOM     24  N   UNL A   1      30.840  29.482  22.334  1.00  0.00    -0.253 NA
ATOM     25  C   UNL A   1      29.038  27.605  23.404  1.00  0.00    -0.047 A 
ATOM     26  C   UNL A   1      29.506  29.642  22.226  1.00  0.00     0.112 A 
ATOM     27  C   UNL A   1      28.061  26.616  23.963  1.00  0.00     0.044 C 
ATOM     28  C   UNL A   1      28.580  28.741  22.730  1.00  0.00     0.023 A 
ENDBRANCH  20  22
ENDBRANCH  16  20
ENDBRANCH   7   8
ENDBRANCH   4   7
ENDBRANCH   2   3
ENDBRANCH   1   2
BRANCH   1  29
ATOM     29  C   UNL A   1      31.316  32.217  26.509  1.00  0.00     0.023 C 
BRANCH  29  30
ATOM     30  C   UNL A   1      32.536  32.843  27.174  1.00  0.00     0.116 C 
BRANCH  30  31
ATOM     31  N   UNL A   1      32.299  34.190  27.666  1.00  0.00    -0.352 N 
ATOM     32  C   UNL A   1      33.006  34.905  28.602  1.00  0.00     0.251 C 
ATOM     33  H   UNL A   1      31.526  34.654  27.274  1.00  0.00     0.163 HD
ATOM     34  O   UNL A   1      32.602  36.005  28.969  1.00  0.00    -0.269 OA
BRANCH  32  35
ATOM     35  C   UNL A   1      34.231  34.334  29.204  1.00  0.00     0.039 A 
ATOM     36  C   UNL A   1      34.112  33.587  30.380  1.00  0.00     0.014 A 
ATOM     37  C   UNL A   1      35.487  34.531  28.623  1.00  0.00     0.014 A 
ATOM     38  C   UNL A   1      35.243  32.984  30.936  1.00  0.00     0.010 A 
ATOM     39  C   UNL A   1      36.602  33.878  29.143  1.00  0.00     0.010 A 
ATOM     40  C   UNL A   1      36.491  33.097  30.304  1.00  0.00    -0.014 A 
BRANCH  40  41
ATOM     41  C   UNL A   1      37.687  32.404  30.842  1.00  0.00     0.031 A 
ATOM     42  C   UNL A   1      38.380  32.924  32.070  1.00  0.00     0.074 A 
ATOM     43  C   UNL A   1      38.188  31.338  30.189  1.00  0.00     0.049 A 
ATOM     44  N   UNL A   1      39.457  32.474  32.662  1.00  0.00    -0.248 NA
ATOM     45  C   UNL A   1      37.799  34.119  32.702  1.00  0.00     0.031 C 
ATOM     46  C   UNL A   1      37.641  30.763  28.958  1.00  0.00     0.029 A 
ATOM     47  N   UNL A   1      39.278  30.553  30.467  1.00  0.00    -0.354 N 
ATOM     48  C   UNL A   1      39.694  33.340  33.721  1.00  0.00     0.074 A 
ATOM     49  C   UNL A   1      38.673  34.364  33.668  1.00  0.00     0.031 C 
ATOM     50  C   UNL A   1      38.385  29.705  28.600  1.00  0.00     0.029 A 
ATOM     51  C   UNL A   1      39.476  29.544  29.556  1.00  0.00     0.049 A 
ATOM     52  H   UNL A   1      39.864  30.699  31.245  1.00  0.00     0.167 HD
ATOM     53  C   UNL A   1      40.663  33.280  34.667  1.00  0.00     0.031 A 
ATOM     54  C   UNL A   1      40.430  28.597  29.496  1.00  0.00     0.031 A 
ATOM     55  C   UNL A   1      41.671  32.257  34.734  1.00  0.00     0.049 A 
ATOM     56  C   UNL A   1      41.486  28.542  30.563  1.00  0.00     0.074 A 
ATOM     57  C   UNL A   1      42.658  32.079  35.688  1.00  0.00     0.029 A 
ATOM     58  N   UNL A   1      41.822  31.239  33.805  1.00  0.00    -0.354 N 
ATOM     59  N   UNL A   1      41.653  29.326  31.600  1.00  0.00    -0.248 NA
ATOM     60  C   UNL A   1      42.477  27.462  30.458  1.00  0.00     0.031 C 
ATOM     61  C   UNL A   1      43.430  30.972  35.316  1.00  0.00     0.029 A 
ATOM     62  C   UNL A   1      42.896  30.438  34.155  1.00  0.00     0.049 A 
ATOM     63  H   UNL A   1      41.251  31.105  33.015  1.00  0.00     0.167 HD
ATOM     64  C   UNL A   1      42.750  28.822  32.283  1.00  0.00     0.074 A 
ATOM     65  C   UNL A   1      43.200  27.655  31.552  1.00  0.00     0.031 C 
ATOM     66  C   UNL A   1      43.333  29.283  33.416  1.00  0.00     0.031 A 
BRANCH  53  67
ATOM     67  C   UNL A   1      40.674  34.365  35.707  1.00  0.00    -0.014 A 
ATOM     68  C   UNL A   1      41.414  35.542  35.518  1.00  0.00     0.009 A 
ATOM     69  C   UNL A   1      39.918  34.217  36.880  1.00  0.00     0.009 A 
ATOM     70  C   UNL A   1      41.428  36.534  36.501  1.00  0.00     0.001 A 
ATOM     71  C   UNL A   1      39.913  35.222  37.849  1.00  0.00     0.001 A 
ATOM     72  C   UNL A   1      40.675  36.374  37.664  1.00  0.00     0.000 A 
ENDBRANCH  53  67
BRANCH  54  73
ATOM     73  C   UNL A   1      40.417  27.602  28.394  1.00  0.00    -0.014 A 
ATOM     74  C   UNL A   1      39.738  26.383  28.547  1.00  0.00     0.009 A 
ATOM     75  C   UNL A   1      41.081  27.865  27.187  1.00  0.00     0.009 A 
ATOM     76  C   UNL A   1      39.744  25.438  27.519  1.00  0.00     0.001 A 
ATOM     77  C   UNL A   1      41.065  26.928  26.152  1.00  0.00     0.001 A 
ATOM     78  C   UNL A   1      40.403  25.712  26.322  1.00  0.00     0.000 A 
ENDBRANCH  54  73
BRANCH  66  79
ATOM     79  C   UNL A   1      44.503  28.506  33.948  1.00  0.00    -0.014 A 
ATOM     80  C   UNL A   1      44.321  27.438  34.840  1.00  0.00     0.009 A 
ATOM     81  C   UNL A   1      45.802  28.831  33.527  1.00  0.00     0.009 A 
ATOM     82  C   UNL A   1      45.423  26.729  35.323  1.00  0.00     0.001 A 
ATOM     83  C   UNL A   1      46.899  28.104  33.993  1.00  0.00     0.001 A 
ATOM     84  C   UNL A   1      46.709  27.059  34.897  1.00  0.00     0.000 A 
ENDBRANCH  66  79
ENDBRANCH  40  41
ENDBRANCH  32  35
ENDBRANCH  30  31
ENDBRANCH  29  30
ENDBRANCH   1  29
TORSDOF 15
ENDMDL
