MODEL 1
REMARK VINA RESULT:     -11.6      0.000      0.000
REMARK SMILES Cc1nn(Cc2ccc(C(=O)NCCCCNC(=O)c3ccc(-c4c5nc(c(-c6ccccc6)c6ccc([nH]6)c(-c6ccccc6)c6nc(c(-c7ccccc7)c7ccc4[nH]7)C=C6)C=C5)cc3)o2)c(C)c1C
REMARK SMILES IDX 14 1 13 2 12 3 10 4 11 5 9 7 6 8 7 9 68 10 8 11 5 12 4 13
REMARK SMILES IDX 1 14 2 15 3 16 71 17 69 18 72 19 70 20 15 21 16 22 17 23
REMARK SMILES IDX 18 24 19 26 20 27 21 28 67 29 22 30 66 31 23 32 24 33 25 34
REMARK SMILES IDX 60 35 26 36 65 37 59 38 61 39 27 40 64 41 58 42 57 43 28 45
REMARK SMILES IDX 50 46 35 47 49 48 36 49 39 50 48 51 62 52 37 53 38 54 47 56
REMARK SMILES IDX 63 57 40 58 29 59 30 60 34 61 31 62 33 63 32 64 51 65 52 66
REMARK SMILES IDX 56 67 53 68 55 69 54 70 41 71 42 72 46 73 43 74 45 75 44 76
REMARK H PARENT 12 6 17 25 61 44 39 55
REMARK Flexibility Score: inf
ROOT
ATOM      1  C   UNL A   1      36.556  20.832  24.771  1.00  0.00     0.023 C 
ENDROOT
BRANCH   1   2
ATOM      2  C   UNL A   1      36.635  21.995  25.765  1.00  0.00     0.116 C 
BRANCH   2   3
ATOM      3  N   UNL A   1      35.628  21.905  26.806  1.00  0.00    -0.349 N 
ATOM      4  C   UNL A   1      34.266  22.104  26.797  1.00  0.00     0.286 C 
ATOM      5  O   UNL A   1      33.701  21.931  27.881  1.00  0.00    -0.266 OA
ATOM      6  H   UNL A   1      35.988  21.654  27.687  1.00  0.00     0.163 HD
BRANCH   4   7
ATOM      7  C   UNL A   1      33.529  22.471  25.602  1.00  0.00     0.191 A 
ATOM      8  C   UNL A   1      32.489  23.770  24.145  1.00  0.00     0.126 A 
ATOM      9  C   UNL A   1      32.478  22.501  23.607  1.00  0.00     0.048 A 
ATOM     10  O   UNL A   1      33.118  23.752  25.357  1.00  0.00    -0.454 OA
ATOM     11  C   UNL A   1      33.142  21.671  24.538  1.00  0.00     0.056 A 
BRANCH   8  12
ATOM     12  C   UNL A   1      32.030  25.092  23.645  1.00  0.00     0.219 C 
BRANCH  12  13
ATOM     13  N   UNL A   1      32.166  26.143  24.649  1.00  0.00    -0.262 N 
ATOM     14  C   UNL A   1      34.249  28.592  26.139  1.00  0.00     0.069 C 
ATOM     15  C   UNL A   1      33.166  27.647  25.770  1.00  0.00     0.063 A 
ATOM     16  N   UNL A   1      33.327  26.829  24.726  1.00  0.00    -0.177 NA
ATOM     17  C   UNL A   1      31.916  27.443  26.413  1.00  0.00    -0.007 A 
ATOM     18  C   UNL A   1      31.293  26.456  25.666  1.00  0.00     0.039 A 
ATOM     19  C   UNL A   1      31.395  28.118  27.627  1.00  0.00     0.048 C 
ATOM     20  C   UNL A   1      29.975  25.797  25.850  1.00  0.00     0.066 C 
ENDBRANCH  12  13
ENDBRANCH   8  12
ENDBRANCH   4   7
ENDBRANCH   2   3
ENDBRANCH   1   2
BRANCH   1  21
ATOM     21  C   UNL A   1      37.772  19.891  24.730  1.00  0.00     0.023 C 
BRANCH  21  22
ATOM     22  C   UNL A   1      38.915  20.277  25.659  1.00  0.00     0.116 C 
BRANCH  22  23
ATOM     23  N   UNL A   1      39.951  19.249  25.775  1.00  0.00    -0.352 N 
ATOM     24  C   UNL A   1      41.315  19.431  25.961  1.00  0.00     0.251 C 
ATOM     25  H   UNL A   1      39.643  18.316  25.712  1.00  0.00     0.163 HD
ATOM     26  O   UNL A   1      42.118  18.560  25.676  1.00  0.00    -0.269 OA
BRANCH  24  27
ATOM     27  C   UNL A   1      41.773  20.708  26.538  1.00  0.00     0.039 A 
ATOM     28  C   UNL A   1      42.266  21.753  25.750  1.00  0.00     0.014 A 
ATOM     29  C   UNL A   1      41.660  20.849  27.917  1.00  0.00     0.014 A 
ATOM     30  C   UNL A   1      42.566  22.970  26.362  1.00  0.00     0.010 A 
ATOM     31  C   UNL A   1      41.765  22.089  28.479  1.00  0.00     0.010 A 
ATOM     32  C   UNL A   1      42.295  23.131  27.729  1.00  0.00    -0.014 A 
BRANCH  32  33
ATOM     33  C   UNL A   1      42.453  24.414  28.401  1.00  0.00     0.031 A 
ATOM     34  C   UNL A   1      41.367  25.394  28.130  1.00  0.00     0.074 A 
ATOM     35  C   UNL A   1      43.350  24.583  29.400  1.00  0.00     0.049 A 
ATOM     36  N   UNL A   1      41.475  26.554  27.574  1.00  0.00    -0.248 NA
ATOM     37  C   UNL A   1      39.973  24.994  28.398  1.00  0.00     0.031 C 
ATOM     38  C   UNL A   1      44.247  23.580  29.992  1.00  0.00     0.029 A 
ATOM     39  N   UNL A   1      43.535  25.651  30.218  1.00  0.00    -0.354 N 
ATOM     40  C   UNL A   1      40.203  27.117  27.600  1.00  0.00     0.074 A 
ATOM     41  C   UNL A   1      39.297  26.051  27.945  1.00  0.00     0.031 C 
ATOM     42  C   UNL A   1      44.641  23.993  31.216  1.00  0.00     0.029 A 
ATOM     43  C   UNL A   1      44.167  25.349  31.421  1.00  0.00     0.049 A 
ATOM     44  H   UNL A   1      43.246  26.562  29.980  1.00  0.00     0.167 HD
ATOM     45  C   UNL A   1      40.027  28.469  27.592  1.00  0.00     0.031 A 
ATOM     46  C   UNL A   1      44.239  26.135  32.526  1.00  0.00     0.031 A 
ATOM     47  C   UNL A   1      41.237  29.156  27.219  1.00  0.00     0.049 A 
ATOM     48  C   UNL A   1      43.930  27.521  32.098  1.00  0.00     0.074 A 
ATOM     49  C   UNL A   1      42.075  29.116  26.120  1.00  0.00     0.029 A 
ATOM     50  N   UNL A   1      41.975  29.725  28.233  1.00  0.00    -0.354 N 
ATOM     51  N   UNL A   1      44.703  28.212  31.308  1.00  0.00    -0.248 NA
ATOM     52  C   UNL A   1      42.537  27.943  32.134  1.00  0.00     0.031 C 
ATOM     53  C   UNL A   1      43.390  29.167  26.668  1.00  0.00     0.029 A 
ATOM     54  C   UNL A   1      43.277  29.338  28.050  1.00  0.00     0.049 A 
ATOM     55  H   UNL A   1      41.631  30.302  28.952  1.00  0.00     0.167 HD
ATOM     56  C   UNL A   1      43.832  28.827  30.418  1.00  0.00     0.074 A 
ATOM     57  C   UNL A   1      42.508  28.696  31.031  1.00  0.00     0.031 C 
ATOM     58  C   UNL A   1      44.207  29.110  29.134  1.00  0.00     0.031 A 
BRANCH  45  59
ATOM     59  C   UNL A   1      38.917  29.174  28.331  1.00  0.00    -0.014 A 
ATOM     60  C   UNL A   1      38.859  29.051  29.731  1.00  0.00     0.009 A 
ATOM     61  C   UNL A   1      37.773  29.693  27.694  1.00  0.00     0.009 A 
ATOM     62  C   UNL A   1      37.689  29.346  30.441  1.00  0.00     0.001 A 
ATOM     63  C   UNL A   1      36.619  30.029  28.405  1.00  0.00     0.001 A 
ATOM     64  C   UNL A   1      36.566  29.825  29.775  1.00  0.00     0.000 A 
ENDBRANCH  45  59
BRANCH  46  65
ATOM     65  C   UNL A   1      44.257  25.719  33.949  1.00  0.00    -0.014 A 
ATOM     66  C   UNL A   1      44.728  26.581  34.953  1.00  0.00     0.009 A 
ATOM     67  C   UNL A   1      43.570  24.562  34.362  1.00  0.00     0.009 A 
ATOM     68  C   UNL A   1      44.494  26.309  36.311  1.00  0.00     0.001 A 
ATOM     69  C   UNL A   1      43.338  24.287  35.715  1.00  0.00     0.001 A 
ATOM     70  C   UNL A   1      43.788  25.168  36.689  1.00  0.00     0.000 A 
ENDBRANCH  46  65
BRANCH  58  71
ATOM     71  C   UNL A   1      45.655  28.934  28.745  1.00  0.00    -0.014 A 
ATOM     72  C   UNL A   1      46.628  29.940  28.887  1.00  0.00     0.009 A 
ATOM     73  C   UNL A   1      46.086  27.648  28.386  1.00  0.00     0.009 A 
ATOM     74  C   UNL A   1      47.981  29.672  28.646  1.00  0.00     0.001 A 
ATOM     75  C   UNL A   1      47.438  27.374  28.168  1.00  0.00     0.001 A 
ATOM     76  C   UNL A   1      48.385  28.387  28.291  1.00  0.00     0.000 A 
ENDBRANCH  58  71
ENDBRANCH  32  33
ENDBRANCH  24  27
ENDBRANCH  22  23
ENDBRANCH  21  22
ENDBRANCH   1  21
TORSDOF 13
ENDMDL
MODEL 2
REMARK VINA RESULT:     -11.4      4.359      8.961
REMARK SMILES Cc1nn(Cc2ccc(C(=O)NCCCCNC(=O)c3ccc(-c4c5nc(c(-c6ccccc6)c6ccc([nH]6)c(-c6ccccc6)c6nc(c(-c7ccccc7)c7ccc4[nH]7)C=C6)C=C5)cc3)o2)c(C)c1C
REMARK SMILES IDX 14 1 13 2 12 3 10 4 11 5 9 7 6 8 7 9 68 10 8 11 5 12 4 13
REMARK SMILES IDX 1 14 2 15 3 16 71 17 69 18 72 19 70 20 15 21 16 22 17 23
REMARK SMILES IDX 18 24 19 26 20 27 21 28 67 29 22 30 66 31 23 32 24 33 25 34
REMARK SMILES IDX 60 35 26 36 65 37 59 38 61 39 27 40 64 41 58 42 57 43 28 45
REMARK SMILES IDX 50 46 35 47 49 48 36 49 39 50 48 51 62 52 37 53 38 54 47 56
REMARK SMILES IDX 63 57 40 58 29 59 30 60 34 61 31 62 33 63 32 64 51 65 52 66
REMARK SMILES IDX 56 67 53 68 55 69 54 70 41 71 42 72 46 73 43 74 45 75 44 76
REMARK H PARENT 12 6 17 25 61 44 39 55
REMARK Flexibility Score: inf
ROOT
ATOM      1  C   UNL A   1      31.604  30.697  26.024  1.00  0.00     0.023 C 
ENDROOT
BRANCH   1   2
ATOM      2  C   UNL A   1      31.631  29.561  27.053  1.00  0.00     0.116 C 
BRANCH   2   3
ATOM      3  N   UNL A   1      32.965  29.023  27.249  1.00  0.00    -0.349 N 
ATOM      4  C   UNL A   1      33.867  28.445  26.386  1.00  0.00     0.286 C 
ATOM      5  O   UNL A   1      34.937  28.098  26.896  1.00  0.00    -0.266 OA
ATOM      6  H   UNL A   1      33.285  29.083  28.178  1.00  0.00     0.163 HD
BRANCH   4   7
ATOM      7  C   UNL A   1      33.602  28.266  24.970  1.00  0.00     0.191 A 
ATOM      8  C   UNL A   1      32.536  27.622  23.142  1.00  0.00     0.126 A 
ATOM      9  C   UNL A   1      33.642  28.325  22.716  1.00  0.00     0.048 A 
ATOM     10  O   UNL A   1      32.515  27.577  24.507  1.00  0.00    -0.454 OA
ATOM     11  C   UNL A   1      34.324  28.737  23.883  1.00  0.00     0.056 A 
BRANCH   8  12
ATOM     12  C   UNL A   1      31.391  26.998  22.431  1.00  0.00     0.219 C 
BRANCH  12  13
ATOM     13  N   UNL A   1      30.200  27.843  22.446  1.00  0.00    -0.262 N 
ATOM     14  C   UNL A   1      28.717  30.921  21.507  1.00  0.00     0.069 C 
ATOM     15  C   UNL A   1      29.049  29.591  22.076  1.00  0.00     0.063 A 
ATOM     16  N   UNL A   1      30.239  29.039  21.819  1.00  0.00    -0.177 NA
ATOM     17  C   UNL A   1      28.261  28.775  22.929  1.00  0.00    -0.007 A 
ATOM     18  C   UNL A   1      29.038  27.650  23.157  1.00  0.00     0.039 A 
ATOM     19  C   UNL A   1      26.911  29.063  23.475  1.00  0.00     0.048 C 
ATOM     20  C   UNL A   1      28.772  26.448  23.988  1.00  0.00     0.066 C 
ENDBRANCH  12  13
ENDBRANCH   8  12
ENDBRANCH   4   7
ENDBRANCH   2   3
ENDBRANCH   1   2
BRANCH   1  21
ATOM     21  C   UNL A   1      31.407  32.115  26.585  1.00  0.00     0.023 C 
BRANCH  21  22
ATOM     22  C   UNL A   1      32.617  32.695  27.306  1.00  0.00     0.116 C 
BRANCH  22  23
ATOM     23  N   UNL A   1      32.428  34.076  27.754  1.00  0.00    -0.352 N 
ATOM     24  C   UNL A   1      33.071  34.729  28.796  1.00  0.00     0.251 C 
ATOM     25  H   UNL A   1      31.763  34.605  27.256  1.00  0.00     0.163 HD
ATOM     26  O   UNL A   1      32.594  35.722  29.317  1.00  0.00    -0.269 OA
BRANCH  24  27
ATOM     27  C   UNL A   1      34.371  34.201  29.250  1.00  0.00     0.039 A 
ATOM     28  C   UNL A   1      34.502  33.424  30.405  1.00  0.00     0.014 A 
ATOM     29  C   UNL A   1      35.474  34.481  28.451  1.00  0.00     0.014 A 
ATOM     30  C   UNL A   1      35.746  32.865  30.698  1.00  0.00     0.010 A 
ATOM     31  C   UNL A   1      36.632  33.779  28.630  1.00  0.00     0.010 A 
ATOM     32  C   UNL A   1      36.802  33.036  29.792  1.00  0.00    -0.014 A 
BRANCH  32  33
ATOM     33  C   UNL A   1      38.085  32.367  29.965  1.00  0.00     0.031 A 
ATOM     34  C   UNL A   1      38.104  30.942  29.536  1.00  0.00     0.074 A 
ATOM     35  C   UNL A   1      39.216  33.063  30.219  1.00  0.00     0.049 A 
ATOM     36  N   UNL A   1      38.346  29.905  30.265  1.00  0.00    -0.248 NA
ATOM     37  C   UNL A   1      37.687  30.614  28.160  1.00  0.00     0.031 C 
ATOM     38  C   UNL A   1      39.381  34.520  30.323  1.00  0.00     0.029 A 
ATOM     39  N   UNL A   1      40.502  32.626  30.272  1.00  0.00    -0.354 N 
ATOM     40  C   UNL A   1      38.311  28.810  29.406  1.00  0.00     0.074 A 
ATOM     41  C   UNL A   1      37.725  29.281  28.177  1.00  0.00     0.031 C 
ATOM     42  C   UNL A   1      40.679  34.844  30.133  1.00  0.00     0.029 A 
ATOM     43  C   UNL A   1      41.454  33.619  30.065  1.00  0.00     0.049 A 
ATOM     44  H   UNL A   1      40.739  31.685  30.443  1.00  0.00     0.167 HD
ATOM     45  C   UNL A   1      39.005  27.671  29.684  1.00  0.00     0.031 A 
ATOM     46  C   UNL A   1      42.773  33.443  29.793  1.00  0.00     0.031 A 
ATOM     47  C   UNL A   1      39.447  27.643  31.056  1.00  0.00     0.049 A 
ATOM     48  C   UNL A   1      43.120  32.057  30.191  1.00  0.00     0.074 A 
ATOM     49  C   UNL A   1      38.811  27.723  32.280  1.00  0.00     0.029 A 
ATOM     50  N   UNL A   1      40.766  27.951  31.297  1.00  0.00    -0.354 N 
ATOM     51  N   UNL A   1      43.112  31.648  31.429  1.00  0.00    -0.248 NA
ATOM     52  C   UNL A   1      42.980  31.012  29.188  1.00  0.00     0.031 C 
ATOM     53  C   UNL A   1      39.647  28.570  33.065  1.00  0.00     0.029 A 
ATOM     54  C   UNL A   1      40.786  28.869  32.314  1.00  0.00     0.049 A 
ATOM     55  H   UNL A   1      41.548  27.581  30.828  1.00  0.00     0.167 HD
ATOM     56  C   UNL A   1      42.509  30.398  31.380  1.00  0.00     0.074 A 
ATOM     57  C   UNL A   1      42.530  30.022  29.964  1.00  0.00     0.031 C 
ATOM     58  C   UNL A   1      41.774  29.920  32.429  1.00  0.00     0.031 A 
BRANCH  45  59
ATOM     59  C   UNL A   1      39.650  26.805  28.631  1.00  0.00    -0.014 A 
ATOM     60  C   UNL A   1      40.499  27.415  27.689  1.00  0.00     0.009 A 
ATOM     61  C   UNL A   1      39.230  25.492  28.346  1.00  0.00     0.009 A 
ATOM     62  C   UNL A   1      40.831  26.778  26.488  1.00  0.00     0.001 A 
ATOM     63  C   UNL A   1      39.595  24.837  27.167  1.00  0.00     0.001 A 
ATOM     64  C   UNL A   1      40.370  25.493  26.223  1.00  0.00     0.000 A 
ENDBRANCH  45  59
BRANCH  46  65
ATOM     65  C   UNL A   1      43.656  34.280  28.946  1.00  0.00    -0.014 A 
ATOM     66  C   UNL A   1      44.666  35.076  29.511  1.00  0.00     0.009 A 
ATOM     67  C   UNL A   1      43.679  34.104  27.549  1.00  0.00     0.009 A 
ATOM     68  C   UNL A   1      45.672  35.645  28.714  1.00  0.00     0.001 A 
ATOM     69  C   UNL A   1      44.679  34.675  26.751  1.00  0.00     0.001 A 
ATOM     70  C   UNL A   1      45.684  35.434  27.336  1.00  0.00     0.000 A 
ENDBRANCH  46  65
BRANCH  58  71
ATOM     71  C   UNL A   1      41.792  30.679  33.734  1.00  0.00    -0.014 A 
ATOM     72  C   UNL A   1      40.982  31.800  33.994  1.00  0.00     0.009 A 
ATOM     73  C   UNL A   1      42.526  30.135  34.799  1.00  0.00     0.009 A 
ATOM     74  C   UNL A   1      40.936  32.373  35.271  1.00  0.00     0.001 A 
ATOM     75  C   UNL A   1      42.463  30.693  36.078  1.00  0.00     0.001 A 
ATOM     76  C   UNL A   1      41.673  31.815  36.313  1.00  0.00     0.000 A 
ENDBRANCH  58  71
ENDBRANCH  32  33
ENDBRANCH  24  27
ENDBRANCH  22  23
ENDBRANCH  21  22
ENDBRANCH   1  21
TORSDOF 13
ENDMDL
MODEL 3
REMARK VINA RESULT:     -11.2      3.837      8.862
REMARK SMILES Cc1nn(Cc2ccc(C(=O)NCCCCNC(=O)c3ccc(-c4c5nc(c(-c6ccccc6)c6ccc([nH]6)c(-c6ccccc6)c6nc(c(-c7ccccc7)c7ccc4[nH]7)C=C6)C=C5)cc3)o2)c(C)c1C
REMARK SMILES IDX 14 1 13 2 12 3 10 4 11 5 9 7 6 8 7 9 68 10 8 11 5 12 4 13
REMARK SMILES IDX 1 14 2 15 3 16 71 17 69 18 72 19 70 20 15 21 16 22 17 23
REMARK SMILES IDX 18 24 19 26 20 27 21 28 67 29 22 30 66 31 23 32 24 33 25 34
REMARK SMILES IDX 60 35 26 36 65 37 59 38 61 39 27 40 64 41 58 42 57 43 28 45
REMARK SMILES IDX 50 46 35 47 49 48 36 49 39 50 48 51 62 52 37 53 38 54 47 56
REMARK SMILES IDX 63 57 40 58 29 59 30 60 34 61 31 62 33 63 32 64 51 65 52 66
REMARK SMILES IDX 56 67 53 68 55 69 54 70 41 71 42 72 46 73 43 74 45 75 44 76
REMARK H PARENT 12 6 17 25 61 44 39 55
REMARK Flexibility Score: inf
ROOT
ATOM      1  C   UNL A   1      34.381  30.490  27.429  1.00  0.00     0.023 C 
ENDROOT
BRANCH   1   2
ATOM      2  C   UNL A   1      34.276  28.985  27.162  1.00  0.00     0.116 C 
BRANCH   2   3
ATOM      3  N   UNL A   1      32.989  28.440  27.552  1.00  0.00    -0.349 N 
ATOM      4  C   UNL A   1      32.009  27.779  26.846  1.00  0.00     0.286 C 
ATOM      5  O   UNL A   1      31.022  27.440  27.505  1.00  0.00    -0.266 OA
ATOM      6  H   UNL A   1      32.775  28.568  28.504  1.00  0.00     0.163 HD
BRANCH   4   7
ATOM      7  C   UNL A   1      32.123  27.478  25.430  1.00  0.00     0.191 A 
ATOM      8  C   UNL A   1      32.236  26.256  23.591  1.00  0.00     0.126 A 
ATOM      9  C   UNL A   1      32.255  27.573  23.181  1.00  0.00     0.048 A 
ATOM     10  O   UNL A   1      32.166  26.197  24.953  1.00  0.00    -0.454 OA
ATOM     11  C   UNL A   1      32.183  28.354  24.356  1.00  0.00     0.056 A 
BRANCH   8  12
ATOM     12  C   UNL A   1      32.212  24.963  22.859  1.00  0.00     0.219 C 
BRANCH  12  13
ATOM     13  N   UNL A   1      33.225  24.031  23.345  1.00  0.00    -0.262 N 
ATOM     14  C   UNL A   1      36.595  22.945  23.196  1.00  0.00     0.069 C 
ATOM     15  C   UNL A   1      35.143  23.121  23.450  1.00  0.00     0.063 A 
ATOM     16  N   UNL A   1      34.492  24.144  22.889  1.00  0.00    -0.177 NA
ATOM     17  C   UNL A   1      34.277  22.302  24.222  1.00  0.00    -0.007 A 
ATOM     18  C   UNL A   1      33.038  22.915  24.129  1.00  0.00     0.039 A 
ATOM     19  C   UNL A   1      34.613  21.055  24.953  1.00  0.00     0.048 C 
ATOM     20  C   UNL A   1      31.724  22.523  24.700  1.00  0.00     0.066 C 
ENDBRANCH  12  13
ENDBRANCH   8  12
ENDBRANCH   4   7
ENDBRANCH   2   3
ENDBRANCH   1   2
BRANCH   1  21
ATOM     21  C   UNL A   1      33.359  31.379  26.702  1.00  0.00     0.023 C 
BRANCH  21  22
ATOM     22  C   UNL A   1      32.270  31.967  27.590  1.00  0.00     0.116 C 
BRANCH  22  23
ATOM     23  N   UNL A   1      32.199  33.429  27.545  1.00  0.00    -0.352 N 
ATOM     24  C   UNL A   1      32.964  34.341  28.259  1.00  0.00     0.251 C 
ATOM     25  H   UNL A   1      31.527  33.811  26.935  1.00  0.00     0.163 HD
ATOM     26  O   UNL A   1      32.590  35.488  28.434  1.00  0.00    -0.269 OA
BRANCH  24  27
ATOM     27  C   UNL A   1      34.264  33.892  28.790  1.00  0.00     0.039 A 
ATOM     28  C   UNL A   1      34.389  33.260  30.031  1.00  0.00     0.014 A 
ATOM     29  C   UNL A   1      35.374  34.093  27.978  1.00  0.00     0.014 A 
ATOM     30  C   UNL A   1      35.637  32.761  30.406  1.00  0.00     0.010 A 
ATOM     31  C   UNL A   1      36.540  33.436  28.255  1.00  0.00     0.010 A 
ATOM     32  C   UNL A   1      36.703  32.841  29.499  1.00  0.00    -0.014 A 
BRANCH  32  33
ATOM     33  C   UNL A   1      37.994  32.218  29.768  1.00  0.00     0.031 A 
ATOM     34  C   UNL A   1      38.088  30.788  29.365  1.00  0.00     0.074 A 
ATOM     35  C   UNL A   1      39.082  32.956  30.085  1.00  0.00     0.049 A 
ATOM     36  N   UNL A   1      38.315  29.771  30.126  1.00  0.00    -0.248 NA
ATOM     37  C   UNL A   1      37.774  30.427  27.970  1.00  0.00     0.031 C 
ATOM     38  C   UNL A   1      39.191  34.419  30.176  1.00  0.00     0.029 A 
ATOM     39  N   UNL A   1      40.375  32.563  30.230  1.00  0.00    -0.354 N 
ATOM     40  C   UNL A   1      38.374  28.663  29.286  1.00  0.00     0.074 A 
ATOM     41  C   UNL A   1      37.856  29.095  28.012  1.00  0.00     0.031 C 
ATOM     42  C   UNL A   1      40.487  34.784  30.067  1.00  0.00     0.029 A 
ATOM     43  C   UNL A   1      41.305  33.585  30.070  1.00  0.00     0.049 A 
ATOM     44  H   UNL A   1      40.630  31.634  30.432  1.00  0.00     0.167 HD
ATOM     45  C   UNL A   1      39.084  27.552  29.628  1.00  0.00     0.031 A 
ATOM     46  C   UNL A   1      42.644  33.450  29.889  1.00  0.00     0.031 A 
ATOM     47  C   UNL A   1      39.435  27.559  31.026  1.00  0.00     0.049 A 
ATOM     48  C   UNL A   1      43.010  32.082  30.333  1.00  0.00     0.074 A 
ATOM     49  C   UNL A   1      38.716  27.635  32.204  1.00  0.00     0.029 A 
ATOM     50  N   UNL A   1      40.724  27.916  31.349  1.00  0.00    -0.354 N 
ATOM     51  N   UNL A   1      42.933  31.692  31.574  1.00  0.00    -0.248 NA
ATOM     52  C   UNL A   1      42.971  31.019  29.340  1.00  0.00     0.031 C 
ATOM     53  C   UNL A   1      39.470  28.522  33.028  1.00  0.00     0.029 A 
ATOM     54  C   UNL A   1      40.646  28.849  32.350  1.00  0.00     0.049 A 
ATOM     55  H   UNL A   1      41.547  27.565  30.939  1.00  0.00     0.167 HD
ATOM     56  C   UNL A   1      42.375  30.422  31.506  1.00  0.00     0.074 A 
ATOM     57  C   UNL A   1      42.504  30.026  30.102  1.00  0.00     0.031 C 
ATOM     58  C   UNL A   1      41.588  29.934  32.512  1.00  0.00     0.031 A 
BRANCH  45  59
ATOM     59  C   UNL A   1      39.827  26.694  28.634  1.00  0.00    -0.014 A 
ATOM     60  C   UNL A   1      40.826  27.293  27.845  1.00  0.00     0.009 A 
ATOM     61  C   UNL A   1      39.388  25.417  28.236  1.00  0.00     0.009 A 
ATOM     62  C   UNL A   1      41.290  26.685  26.673  1.00  0.00     0.001 A 
ATOM     63  C   UNL A   1      39.881  24.788  27.090  1.00  0.00     0.001 A 
ATOM     64  C   UNL A   1      40.809  25.438  26.290  1.00  0.00     0.000 A 
ENDBRANCH  45  59
BRANCH  46  65
ATOM     65  C   UNL A   1      43.554  34.304  29.089  1.00  0.00    -0.014 A 
ATOM     66  C   UNL A   1      43.510  34.299  27.685  1.00  0.00     0.009 A 
ATOM     67  C   UNL A   1      44.300  35.326  29.707  1.00  0.00     0.009 A 
ATOM     68  C   UNL A   1      44.161  35.293  26.935  1.00  0.00     0.001 A 
ATOM     69  C   UNL A   1      44.953  36.315  28.962  1.00  0.00     0.001 A 
ATOM     70  C   UNL A   1      44.872  36.306  27.575  1.00  0.00     0.000 A 
ENDBRANCH  46  65
BRANCH  58  71
ATOM     71  C   UNL A   1      41.494  30.712  33.802  1.00  0.00    -0.014 A 
ATOM     72  C   UNL A   1      40.614  31.792  33.998  1.00  0.00     0.009 A 
ATOM     73  C   UNL A   1      42.195  30.224  34.915  1.00  0.00     0.009 A 
ATOM     74  C   UNL A   1      40.466  32.380  35.261  1.00  0.00     0.001 A 
ATOM     75  C   UNL A   1      42.032  30.796  36.179  1.00  0.00     0.001 A 
ATOM     76  C   UNL A   1      41.173  31.878  36.351  1.00  0.00     0.000 A 
ENDBRANCH  58  71
ENDBRANCH  32  33
ENDBRANCH  24  27
ENDBRANCH  22  23
ENDBRANCH  21  22
ENDBRANCH   1  21
TORSDOF 13
ENDMDL
