MODEL 1
REMARK VINA RESULT:     -13.1      0.000      0.000
REMARK SMILES Cc1c(C(=O)NCCCCNC(=O)c2ccc(-c3c4nc(c(-c5ccccc5)c5ccc([nH]5)c(-c5ccccc5)c5nc(c(-c6ccccc6)c6ccc3[nH]6)C=C5)C=C4)cc2)sc2nc3n(c(=O)c12)CC/C3=C\c1ccc(OC(F)F)cc1
REMARK SMILES IDX 8 1 7 2 6 3 4 4 5 5 3 7 1 8 2 9 69 10 62 11 63 12 67 13
REMARK SMILES IDX 64 14 66 15 68 16 65 17 70 18 72 19 71 20 73 21 74 22 75 23
REMARK SMILES IDX 83 24 76 25 82 26 77 27 78 28 79 29 80 30 81 31 9 32 10 33
REMARK SMILES IDX 11 34 12 35 13 37 14 38 15 39 61 40 16 41 60 42 17 43 18 44
REMARK SMILES IDX 19 45 54 46 20 47 59 48 53 49 55 50 21 51 58 52 52 53 51 54
REMARK SMILES IDX 22 56 44 57 29 58 43 59 30 60 33 61 42 62 56 63 31 64 32 65
REMARK SMILES IDX 41 67 57 68 34 69 23 70 24 71 28 72 25 73 27 74 26 75 45 76
REMARK SMILES IDX 46 77 50 78 47 79 49 80 48 81 35 82 36 83 40 84 37 85 39 86
REMARK SMILES IDX 38 87
REMARK H PARENT 6 6 11 36 55 55 33 66
REMARK Flexibility Score: inf
ROOT
ATOM      1  C   UNL A   1      34.914  32.066  28.151  1.00  0.00     0.023 C 
ENDROOT
BRANCH   1   2
ATOM      2  C   UNL A   1      34.411  30.787  27.462  1.00  0.00     0.116 C 
BRANCH   2   3
ATOM      3  N   UNL A   1      33.099  30.957  26.861  1.00  0.00    -0.351 N 
ATOM      4  C   UNL A   1      32.276  30.219  26.036  1.00  0.00     0.261 C 
ATOM      5  O   UNL A   1      31.162  30.749  25.913  1.00  0.00    -0.268 OA
ATOM      6  H   UNL A   1      32.693  31.820  27.107  1.00  0.00     0.163 HD
BRANCH   4   7
ATOM      7  C   UNL A   1      32.617  28.950  25.365  1.00  0.00     0.098 A 
ATOM      8  C   UNL A   1      32.438  29.225  22.786  1.00  0.00     0.047 C 
ATOM      9  C   UNL A   1      32.743  28.507  24.048  1.00  0.00    -0.012 A 
ATOM     10  C   UNL A   1      33.136  27.124  23.983  1.00  0.00     0.081 A 
ATOM     11  S   UNL A   1      32.818  27.573  26.446  1.00  0.00    -0.110 S 
ATOM     12  C   UNL A   1      33.076  26.461  25.187  1.00  0.00     0.132 A 
ATOM     13  C   UNL A   1      33.432  26.348  22.798  1.00  0.00     0.262 A 
ATOM     14  N   UNL A   1      33.183  25.106  25.381  1.00  0.00    -0.219 NA
ATOM     15  N   UNL A   1      33.351  25.001  23.015  1.00  0.00    -0.292 N 
ATOM     16  O   UNL A   1      33.733  26.840  21.711  1.00  0.00    -0.269 OA
ATOM     17  C   UNL A   1      33.279  24.431  24.281  1.00  0.00     0.140 A 
ATOM     18  C   UNL A   1      33.423  24.070  21.933  1.00  0.00     0.132 C 
ATOM     19  C   UNL A   1      33.368  22.960  24.051  1.00  0.00    -0.002 C 
ATOM     20  C   UNL A   1      33.430  22.704  22.564  1.00  0.00     0.061 C 
ATOM     21  C   UNL A   1      33.419  22.020  25.008  1.00  0.00     0.015 C 
BRANCH  21  22
ATOM     22  C   UNL A   1      33.588  20.611  24.618  1.00  0.00    -0.025 A 
ATOM     23  C   UNL A   1      34.806  19.956  24.802  1.00  0.00     0.012 A 
ATOM     24  C   UNL A   1      32.474  19.868  24.205  1.00  0.00     0.012 A 
ATOM     25  C   UNL A   1      34.885  18.568  24.628  1.00  0.00     0.047 A 
ATOM     26  C   UNL A   1      32.548  18.479  24.064  1.00  0.00     0.047 A 
ATOM     27  C   UNL A   1      33.753  17.817  24.285  1.00  0.00     0.126 A 
BRANCH  27  28
ATOM     28  O   UNL A   1      33.957  16.469  24.208  1.00  0.00    -0.435 OA
BRANCH  28  29
ATOM     29  C   UNL A   1      34.319  15.774  25.395  1.00  0.00     0.542 C 
ATOM     30  F   UNL A   1      33.515  14.697  25.569  1.00  0.00    -0.167 F 
ATOM     31  F   UNL A   1      35.599  15.340  25.311  1.00  0.00    -0.167 F 
ENDBRANCH  28  29
ENDBRANCH  27  28
ENDBRANCH  21  22
ENDBRANCH   4   7
ENDBRANCH   2   3
ENDBRANCH   1   2
BRANCH   1  32
ATOM     32  C   UNL A   1      33.990  33.286  28.159  1.00  0.00     0.023 C 
BRANCH  32  33
ATOM     33  C   UNL A   1      34.648  34.585  28.607  1.00  0.00     0.116 C 
BRANCH  33  34
ATOM     34  N   UNL A   1      34.006  35.198  29.772  1.00  0.00    -0.352 N 
ATOM     35  C   UNL A   1      34.041  34.760  31.083  1.00  0.00     0.251 C 
ATOM     36  H   UNL A   1      33.488  36.019  29.601  1.00  0.00     0.163 HD
ATOM     37  O   UNL A   1      33.183  35.087  31.892  1.00  0.00    -0.269 OA
BRANCH  35  38
ATOM     38  C   UNL A   1      35.149  33.880  31.486  1.00  0.00     0.039 A 
ATOM     39  C   UNL A   1      34.959  32.509  31.658  1.00  0.00     0.014 A 
ATOM     40  C   UNL A   1      36.417  34.449  31.583  1.00  0.00     0.014 A 
ATOM     41  C   UNL A   1      36.078  31.697  31.817  1.00  0.00     0.010 A 
ATOM     42  C   UNL A   1      37.524  33.632  31.595  1.00  0.00     0.010 A 
ATOM     43  C   UNL A   1      37.367  32.258  31.742  1.00  0.00    -0.014 A 
BRANCH  43  44
ATOM     44  C   UNL A   1      38.542  31.388  31.691  1.00  0.00     0.031 A 
ATOM     45  C   UNL A   1      39.179  31.122  33.009  1.00  0.00     0.074 A 
ATOM     46  C   UNL A   1      38.960  30.722  30.592  1.00  0.00     0.049 A 
ATOM     47  N   UNL A   1      40.297  31.605  33.437  1.00  0.00    -0.248 NA
ATOM     48  C   UNL A   1      38.447  30.333  34.012  1.00  0.00     0.031 C 
ATOM     49  C   UNL A   1      38.287  30.610  29.292  1.00  0.00     0.029 A 
ATOM     50  N   UNL A   1      40.046  29.911  30.437  1.00  0.00    -0.354 N 
ATOM     51  C   UNL A   1      40.522  31.011  34.673  1.00  0.00     0.074 A 
ATOM     52  C   UNL A   1      39.283  30.383  35.053  1.00  0.00     0.031 C 
ATOM     53  C   UNL A   1      38.834  29.600  28.582  1.00  0.00     0.029 A 
ATOM     54  C   UNL A   1      40.020  29.144  29.281  1.00  0.00     0.049 A 
ATOM     55  H   UNL A   1      40.784  29.874  31.088  1.00  0.00     0.167 HD
ATOM     56  C   UNL A   1      41.791  30.836  35.139  1.00  0.00     0.031 A 
ATOM     57  C   UNL A   1      40.922  28.211  28.902  1.00  0.00     0.031 A 
ATOM     58  C   UNL A   1      42.747  31.553  34.334  1.00  0.00     0.049 A 
ATOM     59  C   UNL A   1      42.201  28.538  29.560  1.00  0.00     0.074 A 
ATOM     60  C   UNL A   1      43.166  32.853  34.171  1.00  0.00     0.029 A 
ATOM     61  N   UNL A   1      43.162  30.847  33.236  1.00  0.00    -0.354 N 
ATOM     62  N   UNL A   1      42.883  29.615  29.294  1.00  0.00    -0.248 NA
ATOM     63  C   UNL A   1      42.608  27.814  30.756  1.00  0.00     0.031 C 
ATOM     64  C   UNL A   1      43.686  32.938  32.842  1.00  0.00     0.029 A 
ATOM     65  C   UNL A   1      43.604  31.681  32.246  1.00  0.00     0.049 A 
ATOM     66  H   UNL A   1      43.145  29.865  33.169  1.00  0.00     0.167 HD
ATOM     67  C   UNL A   1      43.480  29.937  30.495  1.00  0.00     0.074 A 
ATOM     68  C   UNL A   1      43.444  28.713  31.284  1.00  0.00     0.031 C 
ATOM     69  C   UNL A   1      43.643  31.238  30.869  1.00  0.00     0.031 A 
BRANCH  56  70
ATOM     70  C   UNL A   1      42.239  29.644  35.954  1.00  0.00    -0.014 A 
ATOM     71  C   UNL A   1      43.562  29.619  36.437  1.00  0.00     0.009 A 
ATOM     72  C   UNL A   1      41.529  28.430  35.998  1.00  0.00     0.009 A 
ATOM     73  C   UNL A   1      44.153  28.433  36.892  1.00  0.00     0.001 A 
ATOM     74  C   UNL A   1      42.105  27.251  36.485  1.00  0.00     0.001 A 
ATOM     75  C   UNL A   1      43.425  27.248  36.912  1.00  0.00     0.000 A 
ENDBRANCH  56  70
BRANCH  57  76
ATOM     76  C   UNL A   1      40.720  26.937  28.185  1.00  0.00    -0.014 A 
ATOM     77  C   UNL A   1      39.756  26.022  28.641  1.00  0.00     0.009 A 
ATOM     78  C   UNL A   1      41.225  26.768  26.884  1.00  0.00     0.009 A 
ATOM     79  C   UNL A   1      39.246  25.033  27.794  1.00  0.00     0.001 A 
ATOM     80  C   UNL A   1      40.720  25.773  26.040  1.00  0.00     0.001 A 
ATOM     81  C   UNL A   1      39.710  24.925  26.486  1.00  0.00     0.000 A 
ENDBRANCH  57  76
BRANCH  69  82
ATOM     82  C   UNL A   1      43.667  32.279  29.789  1.00  0.00    -0.014 A 
ATOM     83  C   UNL A   1      42.725  33.315  29.680  1.00  0.00     0.009 A 
ATOM     84  C   UNL A   1      44.737  32.248  28.883  1.00  0.00     0.009 A 
ATOM     85  C   UNL A   1      42.846  34.282  28.676  1.00  0.00     0.001 A 
ATOM     86  C   UNL A   1      44.869  33.224  27.895  1.00  0.00     0.001 A 
ATOM     87  C   UNL A   1      43.921  34.238  27.789  1.00  0.00     0.000 A 
ENDBRANCH  69  82
ENDBRANCH  43  44
ENDBRANCH  35  38
ENDBRANCH  33  34
ENDBRANCH  32  33
ENDBRANCH   1  32
TORSDOF 14
ENDMDL
MODEL 2
REMARK VINA RESULT:     -12.9      4.022      9.042
REMARK SMILES Cc1c(C(=O)NCCCCNC(=O)c2ccc(-c3c4nc(c(-c5ccccc5)c5ccc([nH]5)c(-c5ccccc5)c5nc(c(-c6ccccc6)c6ccc3[nH]6)C=C5)C=C4)cc2)sc2nc3n(c(=O)c12)CC/C3=C\c1ccc(OC(F)F)cc1
REMARK SMILES IDX 8 1 7 2 6 3 4 4 5 5 3 7 1 8 2 9 69 10 62 11 63 12 67 13
REMARK SMILES IDX 64 14 66 15 68 16 65 17 70 18 72 19 71 20 73 21 74 22 75 23
REMARK SMILES IDX 83 24 76 25 82 26 77 27 78 28 79 29 80 30 81 31 9 32 10 33
REMARK SMILES IDX 11 34 12 35 13 37 14 38 15 39 61 40 16 41 60 42 17 43 18 44
REMARK SMILES IDX 19 45 54 46 20 47 59 48 53 49 55 50 21 51 58 52 52 53 51 54
REMARK SMILES IDX 22 56 44 57 29 58 43 59 30 60 33 61 42 62 56 63 31 64 32 65
REMARK SMILES IDX 41 67 57 68 34 69 23 70 24 71 28 72 25 73 27 74 26 75 45 76
REMARK SMILES IDX 46 77 50 78 47 79 49 80 48 81 35 82 36 83 40 84 37 85 39 86
REMARK SMILES IDX 38 87
REMARK H PARENT 6 6 11 36 55 55 33 66
REMARK Flexibility Score: inf
ROOT
ATOM      1  C   UNL A   1      43.764  23.025  25.283  1.00  0.00     0.023 C 
ENDROOT
BRANCH   1   2
ATOM      2  C   UNL A   1      42.246  22.959  25.519  1.00  0.00     0.116 C 
BRANCH   2   3
ATOM      3  N   UNL A   1      41.854  21.792  26.292  1.00  0.00    -0.351 N 
ATOM      4  C   UNL A   1      40.678  21.126  26.566  1.00  0.00     0.261 C 
ATOM      5  O   UNL A   1      40.885  20.070  27.183  1.00  0.00    -0.268 OA
ATOM      6  H   UNL A   1      42.626  21.370  26.734  1.00  0.00     0.163 HD
BRANCH   4   7
ATOM      7  C   UNL A   1      39.318  21.556  26.189  1.00  0.00     0.098 A 
ATOM      8  C   UNL A   1      38.128  19.678  24.840  1.00  0.00     0.047 C 
ATOM      9  C   UNL A   1      38.227  20.989  25.530  1.00  0.00    -0.012 A 
ATOM     10  C   UNL A   1      37.110  21.893  25.465  1.00  0.00     0.081 A 
ATOM     11  S   UNL A   1      38.955  23.245  26.532  1.00  0.00    -0.110 S 
ATOM     12  C   UNL A   1      37.405  23.185  25.837  1.00  0.00     0.132 A 
ATOM     13  C   UNL A   1      35.793  21.629  24.926  1.00  0.00     0.262 A 
ATOM     14  N   UNL A   1      36.604  24.287  25.670  1.00  0.00    -0.219 NA
ATOM     15  N   UNL A   1      35.111  22.772  24.617  1.00  0.00    -0.292 N 
ATOM     16  O   UNL A   1      35.328  20.501  24.768  1.00  0.00    -0.269 OA
ATOM     17  C   UNL A   1      35.505  24.038  25.033  1.00  0.00     0.140 A 
ATOM     18  C   UNL A   1      33.874  22.727  23.901  1.00  0.00     0.132 C 
ATOM     19  C   UNL A   1      34.401  24.948  24.612  1.00  0.00    -0.002 C 
ATOM     20  C   UNL A   1      33.366  24.142  23.865  1.00  0.00     0.061 C 
ATOM     21  C   UNL A   1      34.323  26.261  24.882  1.00  0.00     0.015 C 
BRANCH  21  22
ATOM     22  C   UNL A   1      33.126  27.007  24.466  1.00  0.00    -0.025 A 
ATOM     23  C   UNL A   1      32.003  27.083  25.290  1.00  0.00     0.012 A 
ATOM     24  C   UNL A   1      33.163  27.784  23.299  1.00  0.00     0.012 A 
ATOM     25  C   UNL A   1      30.964  27.969  24.975  1.00  0.00     0.047 A 
ATOM     26  C   UNL A   1      32.140  28.690  23.004  1.00  0.00     0.047 A 
ATOM     27  C   UNL A   1      31.037  28.797  23.847  1.00  0.00     0.126 A 
BRANCH  27  28
ATOM     28  O   UNL A   1      29.986  29.654  23.692  1.00  0.00    -0.435 OA
BRANCH  28  29
ATOM     29  C   UNL A   1      29.070  29.409  22.631  1.00  0.00     0.542 C 
ATOM     30  F   UNL A   1      27.801  29.640  23.048  1.00  0.00    -0.167 F 
ATOM     31  F   UNL A   1      29.330  30.233  21.588  1.00  0.00    -0.167 F 
ENDBRANCH  28  29
ENDBRANCH  27  28
ENDBRANCH  21  22
ENDBRANCH   4   7
ENDBRANCH   2   3
ENDBRANCH   1   2
BRANCH   1  32
ATOM     32  C   UNL A   1      44.439  24.396  25.339  1.00  0.00     0.023 C 
BRANCH  32  33
ATOM     33  C   UNL A   1      44.906  24.823  26.726  1.00  0.00     0.116 C 
BRANCH  33  34
ATOM     34  N   UNL A   1      44.766  23.777  27.741  1.00  0.00    -0.352 N 
ATOM     35  C   UNL A   1      44.298  23.914  29.035  1.00  0.00     0.251 C 
ATOM     36  H   UNL A   1      45.038  22.870  27.471  1.00  0.00     0.163 HD
ATOM     37  O   UNL A   1      44.581  23.106  29.910  1.00  0.00    -0.269 OA
BRANCH  35  38
ATOM     38  C   UNL A   1      43.441  25.071  29.338  1.00  0.00     0.039 A 
ATOM     39  C   UNL A   1      43.872  26.087  30.191  1.00  0.00     0.014 A 
ATOM     40  C   UNL A   1      42.228  25.166  28.659  1.00  0.00     0.014 A 
ATOM     41  C   UNL A   1      43.120  27.257  30.264  1.00  0.00     0.010 A 
ATOM     42  C   UNL A   1      41.568  26.372  28.622  1.00  0.00     0.010 A 
ATOM     43  C   UNL A   1      41.987  27.414  29.443  1.00  0.00    -0.014 A 
BRANCH  43  44
ATOM     44  C   UNL A   1      41.322  28.714  29.356  1.00  0.00     0.031 A 
ATOM     45  C   UNL A   1      42.216  29.850  29.005  1.00  0.00     0.074 A 
ATOM     46  C   UNL A   1      39.985  28.901  29.417  1.00  0.00     0.049 A 
ATOM     47  N   UNL A   1      42.625  30.783  29.797  1.00  0.00    -0.248 NA
ATOM     48  C   UNL A   1      42.822  29.897  27.664  1.00  0.00     0.031 C 
ATOM     49  C   UNL A   1      38.930  27.881  29.444  1.00  0.00     0.029 A 
ATOM     50  N   UNL A   1      39.274  30.065  29.368  1.00  0.00    -0.354 N 
ATOM     51  C   UNL A   1      43.361  31.660  29.008  1.00  0.00     0.074 A 
ATOM     52  C   UNL A   1      43.597  30.981  27.760  1.00  0.00     0.031 C 
ATOM     53  C   UNL A   1      37.738  28.450  29.161  1.00  0.00     0.029 A 
ATOM     54  C   UNL A   1      37.915  29.890  29.148  1.00  0.00     0.049 A 
ATOM     55  H   UNL A   1      39.689  30.951  29.481  1.00  0.00     0.167 HD
ATOM     56  C   UNL A   1      43.460  32.977  29.341  1.00  0.00     0.031 A 
ATOM     57  C   UNL A   1      36.985  30.857  28.988  1.00  0.00     0.031 A 
ATOM     58  C   UNL A   1      42.952  33.222  30.666  1.00  0.00     0.049 A 
ATOM     59  C   UNL A   1      37.489  32.071  29.658  1.00  0.00     0.074 A 
ATOM     60  C   UNL A   1      43.367  33.037  31.965  1.00  0.00     0.029 A 
ATOM     61  N   UNL A   1      41.597  33.422  30.694  1.00  0.00    -0.354 N 
ATOM     62  N   UNL A   1      37.664  32.153  30.945  1.00  0.00    -0.248 NA
ATOM     63  C   UNL A   1      38.097  33.136  28.870  1.00  0.00     0.031 C 
ATOM     64  C   UNL A   1      42.179  32.947  32.752  1.00  0.00     0.029 A 
ATOM     65  C   UNL A   1      41.074  33.116  31.920  1.00  0.00     0.049 A 
ATOM     66  H   UNL A   1      41.067  33.744  29.928  1.00  0.00     0.167 HD
ATOM     67  C   UNL A   1      38.748  32.995  31.082  1.00  0.00     0.074 A 
ATOM     68  C   UNL A   1      38.841  33.713  29.818  1.00  0.00     0.031 C 
ATOM     69  C   UNL A   1      39.671  32.795  32.066  1.00  0.00     0.031 A 
BRANCH  56  70
ATOM     70  C   UNL A   1      43.508  34.105  28.334  1.00  0.00    -0.014 A 
ATOM     71  C   UNL A   1      42.513  35.100  28.393  1.00  0.00     0.009 A 
ATOM     72  C   UNL A   1      44.286  34.060  27.162  1.00  0.00     0.009 A 
ATOM     73  C   UNL A   1      42.281  35.968  27.318  1.00  0.00     0.001 A 
ATOM     74  C   UNL A   1      44.080  34.949  26.101  1.00  0.00     0.001 A 
ATOM     75  C   UNL A   1      43.062  35.889  26.170  1.00  0.00     0.000 A 
ENDBRANCH  56  70
BRANCH  57  76
ATOM     76  C   UNL A   1      35.789  30.886  28.124  1.00  0.00    -0.014 A 
ATOM     77  C   UNL A   1      35.402  29.731  27.424  1.00  0.00     0.009 A 
ATOM     78  C   UNL A   1      34.851  31.926  28.247  1.00  0.00     0.009 A 
ATOM     79  C   UNL A   1      34.096  29.582  26.948  1.00  0.00     0.001 A 
ATOM     80  C   UNL A   1      33.547  31.780  27.762  1.00  0.00     0.001 A 
ATOM     81  C   UNL A   1      33.162  30.596  27.138  1.00  0.00     0.000 A 
ENDBRANCH  57  76
BRANCH  69  82
ATOM     82  C   UNL A   1      39.242  32.024  33.280  1.00  0.00    -0.014 A 
ATOM     83  C   UNL A   1      39.482  30.652  33.461  1.00  0.00     0.009 A 
ATOM     84  C   UNL A   1      38.629  32.739  34.319  1.00  0.00     0.009 A 
ATOM     85  C   UNL A   1      39.100  30.015  34.646  1.00  0.00     0.001 A 
ATOM     86  C   UNL A   1      38.267  32.108  35.509  1.00  0.00     0.001 A 
ATOM     87  C   UNL A   1      38.499  30.745  35.671  1.00  0.00     0.000 A 
ENDBRANCH  69  82
ENDBRANCH  43  44
ENDBRANCH  35  38
ENDBRANCH  33  34
ENDBRANCH  32  33
ENDBRANCH   1  32
TORSDOF 14
ENDMDL
MODEL 3
REMARK VINA RESULT:     -12.7      2.199      3.181
REMARK SMILES Cc1c(C(=O)NCCCCNC(=O)c2ccc(-c3c4nc(c(-c5ccccc5)c5ccc([nH]5)c(-c5ccccc5)c5nc(c(-c6ccccc6)c6ccc3[nH]6)C=C5)C=C4)cc2)sc2nc3n(c(=O)c12)CC/C3=C\c1ccc(OC(F)F)cc1
REMARK SMILES IDX 8 1 7 2 6 3 4 4 5 5 3 7 1 8 2 9 69 10 62 11 63 12 67 13
REMARK SMILES IDX 64 14 66 15 68 16 65 17 70 18 72 19 71 20 73 21 74 22 75 23
REMARK SMILES IDX 83 24 76 25 82 26 77 27 78 28 79 29 80 30 81 31 9 32 10 33
REMARK SMILES IDX 11 34 12 35 13 37 14 38 15 39 61 40 16 41 60 42 17 43 18 44
REMARK SMILES IDX 19 45 54 46 20 47 59 48 53 49 55 50 21 51 58 52 52 53 51 54
REMARK SMILES IDX 22 56 44 57 29 58 43 59 30 60 33 61 42 62 56 63 31 64 32 65
REMARK SMILES IDX 41 67 57 68 34 69 23 70 24 71 28 72 25 73 27 74 26 75 45 76
REMARK SMILES IDX 46 77 50 78 47 79 49 80 48 81 35 82 36 83 40 84 37 85 39 86
REMARK SMILES IDX 38 87
REMARK H PARENT 6 6 11 36 55 55 33 66
REMARK Flexibility Score: inf
ROOT
ATOM      1  C   UNL A   1      34.692  31.703  28.545  1.00  0.00     0.023 C 
ENDROOT
BRANCH   1   2
ATOM      2  C   UNL A   1      34.357  30.625  27.501  1.00  0.00     0.116 C 
BRANCH   2   3
ATOM      3  N   UNL A   1      33.102  30.883  26.817  1.00  0.00    -0.351 N 
ATOM      4  C   UNL A   1      32.295  30.209  25.924  1.00  0.00     0.261 C 
ATOM      5  O   UNL A   1      31.224  30.806  25.737  1.00  0.00    -0.268 OA
ATOM      6  H   UNL A   1      32.731  31.765  27.052  1.00  0.00     0.163 HD
BRANCH   4   7
ATOM      7  C   UNL A   1      32.605  28.932  25.253  1.00  0.00     0.098 A 
ATOM      8  C   UNL A   1      32.289  29.172  22.684  1.00  0.00     0.047 C 
ATOM      9  C   UNL A   1      32.663  28.472  23.938  1.00  0.00    -0.012 A 
ATOM     10  C   UNL A   1      33.058  27.090  23.869  1.00  0.00     0.081 A 
ATOM     11  S   UNL A   1      32.869  27.570  26.340  1.00  0.00    -0.110 S 
ATOM     12  C   UNL A   1      33.064  26.442  25.083  1.00  0.00     0.132 A 
ATOM     13  C   UNL A   1      33.295  26.299  22.681  1.00  0.00     0.262 A 
ATOM     14  N   UNL A   1      33.187  25.091  25.289  1.00  0.00    -0.219 NA
ATOM     15  N   UNL A   1      33.231  24.955  22.920  1.00  0.00    -0.292 N 
ATOM     16  O   UNL A   1      33.536  26.777  21.573  1.00  0.00    -0.269 OA
ATOM     17  C   UNL A   1      33.229  24.402  24.195  1.00  0.00     0.140 A 
ATOM     18  C   UNL A   1      33.249  24.010  21.847  1.00  0.00     0.132 C 
ATOM     19  C   UNL A   1      33.311  22.928  23.979  1.00  0.00    -0.002 C 
ATOM     20  C   UNL A   1      33.296  22.653  22.494  1.00  0.00     0.061 C 
ATOM     21  C   UNL A   1      33.416  22.001  24.944  1.00  0.00     0.015 C 
BRANCH  21  22
ATOM     22  C   UNL A   1      33.571  20.588  24.565  1.00  0.00    -0.025 A 
ATOM     23  C   UNL A   1      34.763  19.905  24.805  1.00  0.00     0.012 A 
ATOM     24  C   UNL A   1      32.460  19.869  24.100  1.00  0.00     0.012 A 
ATOM     25  C   UNL A   1      34.817  18.514  24.637  1.00  0.00     0.047 A 
ATOM     26  C   UNL A   1      32.508  18.478  23.964  1.00  0.00     0.047 A 
ATOM     27  C   UNL A   1      33.686  17.790  24.243  1.00  0.00     0.126 A 
BRANCH  27  28
ATOM     28  O   UNL A   1      33.862  16.437  24.176  1.00  0.00    -0.435 OA
BRANCH  28  29
ATOM     29  C   UNL A   1      34.215  15.745  25.369  1.00  0.00     0.542 C 
ATOM     30  F   UNL A   1      33.450  14.635  25.507  1.00  0.00    -0.167 F 
ATOM     31  F   UNL A   1      35.513  15.363  25.321  1.00  0.00    -0.167 F 
ENDBRANCH  28  29
ENDBRANCH  27  28
ENDBRANCH  21  22
ENDBRANCH   4   7
ENDBRANCH   2   3
ENDBRANCH   1   2
BRANCH   1  32
ATOM     32  C   UNL A   1      34.966  33.123  28.045  1.00  0.00     0.023 C 
BRANCH  32  33
ATOM     33  C   UNL A   1      36.305  33.707  28.480  1.00  0.00     0.116 C 
BRANCH  33  34
ATOM     34  N   UNL A   1      36.396  33.960  29.920  1.00  0.00    -0.352 N 
ATOM     35  C   UNL A   1      36.901  33.117  30.894  1.00  0.00     0.251 C 
ATOM     36  H   UNL A   1      36.058  34.831  30.231  1.00  0.00     0.163 HD
ATOM     37  O   UNL A   1      36.584  33.233  32.070  1.00  0.00    -0.269 OA
BRANCH  35  38
ATOM     38  C   UNL A   1      37.839  32.064  30.475  1.00  0.00     0.039 A 
ATOM     39  C   UNL A   1      39.203  32.324  30.337  1.00  0.00     0.014 A 
ATOM     40  C   UNL A   1      37.332  30.775  30.327  1.00  0.00     0.014 A 
ATOM     41  C   UNL A   1      40.069  31.249  30.159  1.00  0.00     0.010 A 
ATOM     42  C   UNL A   1      38.200  29.709  30.297  1.00  0.00     0.010 A 
ATOM     43  C   UNL A   1      39.568  29.934  30.183  1.00  0.00    -0.014 A 
BRANCH  43  44
ATOM     44  C   UNL A   1      40.491  28.800  30.215  1.00  0.00     0.031 A 
ATOM     45  C   UNL A   1      40.999  28.446  31.567  1.00  0.00     0.074 A 
ATOM     46  C   UNL A   1      40.767  28.002  29.160  1.00  0.00     0.049 A 
ATOM     47  N   UNL A   1      42.187  28.658  32.025  1.00  0.00    -0.248 NA
ATOM     48  C   UNL A   1      40.061  27.908  32.566  1.00  0.00     0.031 C 
ATOM     49  C   UNL A   1      40.132  27.999  27.837  1.00  0.00     0.029 A 
ATOM     50  N   UNL A   1      41.623  26.941  29.082  1.00  0.00    -0.354 N 
ATOM     51  C   UNL A   1      42.217  28.084  33.291  1.00  0.00     0.074 A 
ATOM     52  C   UNL A   1      40.849  27.799  33.640  1.00  0.00     0.031 C 
ATOM     53  C   UNL A   1      40.433  26.853  27.188  1.00  0.00     0.029 A 
ATOM     54  C   UNL A   1      41.446  26.152  27.954  1.00  0.00     0.049 A 
ATOM     55  H   UNL A   1      42.307  26.754  29.765  1.00  0.00     0.167 HD
ATOM     56  C   UNL A   1      43.387  27.624  33.817  1.00  0.00     0.031 A 
ATOM     57  C   UNL A   1      42.101  25.009  27.648  1.00  0.00     0.031 A 
ATOM     58  C   UNL A   1      44.517  28.045  33.030  1.00  0.00     0.049 A 
ATOM     59  C   UNL A   1      43.398  25.042  28.349  1.00  0.00     0.074 A 
ATOM     60  C   UNL A   1      45.251  29.193  32.837  1.00  0.00     0.029 A 
ATOM     61  N   UNL A   1      44.780  27.209  31.977  1.00  0.00    -0.354 N 
ATOM     62  N   UNL A   1      44.334  25.904  28.074  1.00  0.00    -0.248 NA
ATOM     63  C   UNL A   1      43.574  24.295  29.588  1.00  0.00     0.031 C 
ATOM     64  C   UNL A   1      45.818  29.086  31.530  1.00  0.00     0.029 A 
ATOM     65  C   UNL A   1      45.447  27.862  30.977  1.00  0.00     0.049 A 
ATOM     66  H   UNL A   1      44.522  26.259  31.945  1.00  0.00     0.167 HD
ATOM     67  C   UNL A   1      44.953  26.124  29.287  1.00  0.00     0.074 A 
ATOM     68  C   UNL A   1      44.588  24.984  30.118  1.00  0.00     0.031 C 
ATOM     69  C   UNL A   1      45.421  27.360  29.621  1.00  0.00     0.031 A 
BRANCH  56  70
ATOM     70  C   UNL A   1      43.498  26.397  34.694  1.00  0.00    -0.014 A 
ATOM     71  C   UNL A   1      43.589  26.573  36.088  1.00  0.00     0.009 A 
ATOM     72  C   UNL A   1      43.828  25.122  34.198  1.00  0.00     0.009 A 
ATOM     73  C   UNL A   1      44.031  25.544  36.930  1.00  0.00     0.001 A 
ATOM     74  C   UNL A   1      44.237  24.081  35.040  1.00  0.00     0.001 A 
ATOM     75  C   UNL A   1      44.359  24.300  36.404  1.00  0.00     0.000 A 
ENDBRANCH  56  70
BRANCH  57  76
ATOM     76  C   UNL A   1      41.613  23.792  26.971  1.00  0.00    -0.014 A 
ATOM     77  C   UNL A   1      42.496  23.016  26.202  1.00  0.00     0.009 A 
ATOM     78  C   UNL A   1      40.386  23.217  27.345  1.00  0.00     0.009 A 
ATOM     79  C   UNL A   1      42.205  21.682  25.901  1.00  0.00     0.001 A 
ATOM     80  C   UNL A   1      40.092  21.885  27.035  1.00  0.00     0.001 A 
ATOM     81  C   UNL A   1      41.014  21.110  26.338  1.00  0.00     0.000 A 
ENDBRANCH  57  76
BRANCH  69  82
ATOM     82  C   UNL A   1      45.738  28.312  28.505  1.00  0.00    -0.014 A 
ATOM     83  C   UNL A   1      46.977  28.362  27.846  1.00  0.00     0.009 A 
ATOM     84  C   UNL A   1      44.706  29.148  28.054  1.00  0.00     0.009 A 
ATOM     85  C   UNL A   1      47.178  29.240  26.777  1.00  0.00     0.001 A 
ATOM     86  C   UNL A   1      44.900  30.009  26.974  1.00  0.00     0.001 A 
ATOM     87  C   UNL A   1      46.138  30.058  26.338  1.00  0.00     0.000 A 
ENDBRANCH  69  82
ENDBRANCH  43  44
ENDBRANCH  35  38
ENDBRANCH  33  34
ENDBRANCH  32  33
ENDBRANCH   1  32
TORSDOF 14
ENDMDL
