MODEL 1
REMARK VINA RESULT:      -9.7      0.000      0.000
REMARK SMILES [NH3+][C@H](CS[C@@H]1CC(=O)N(c2ccc3ccccc3c2)C1=O)C(=O)NCCCCNC(=O)c1ccc(-c2c3nc(c(-c4ccccc4)c4ccc([nH]4)c(-c4ccccc4)c4nc(c(-c5ccccc5)c5ccc2[nH]5)C=C4)C=C3)cc1
REMARK SMILES IDX 25 1 24 2 22 3 23 4 2 6 1 7 3 11 4 12 5 13 6 14 20 15 7 16
REMARK SMILES IDX 9 17 21 18 8 19 10 20 11 21 19 22 12 23 18 24 13 25 17 26
REMARK SMILES IDX 14 27 16 28 15 29 26 30 27 31 28 32 29 33 30 34 31 36 32 37
REMARK SMILES IDX 33 38 79 39 34 40 78 41 35 42 36 43 37 44 72 45 38 46 77 47
REMARK SMILES IDX 71 48 73 49 39 50 76 51 70 52 69 53 40 55 62 56 47 57 61 58
REMARK SMILES IDX 48 59 51 60 60 61 74 62 49 63 50 64 59 66 75 67 52 68 41 69
REMARK SMILES IDX 42 70 46 71 43 72 45 73 44 74 63 75 64 76 68 77 65 78 67 79
REMARK SMILES IDX 66 80 53 81 54 82 58 83 55 84 57 85 56 86
REMARK H PARENT 24 5 1 8 1 9 1 10 29 35 73 54 51 65
REMARK Flexibility Score: inf
ROOT
ATOM      1  C   UNL A   1      42.271  19.330  25.784  1.00  0.00     0.116 C 
ENDROOT
BRANCH   1   2
ATOM      2  N   UNL A   1      43.565  18.863  25.319  1.00  0.00    -0.351 N 
ATOM      3  C   UNL A   1      44.656  19.518  24.837  1.00  0.00     0.279 C 
ATOM      4  O   UNL A   1      45.620  18.811  24.517  1.00  0.00    -0.268 OA
ATOM      5  H   UNL A   1      43.674  17.885  25.360  1.00  0.00     0.163 HD
BRANCH   3   6
ATOM      6  C   UNL A   1      44.706  21.034  24.621  1.00  0.00     0.280 C 
BRANCH   6   7
ATOM      7  N   UNL A   1      44.528  21.382  23.194  1.00  0.00    -0.347 N 
ATOM      8  H   UNL A   1      45.440  21.552  22.770  1.00  0.00     0.345 HD
ATOM      9  H   UNL A   1      43.955  22.223  23.118  1.00  0.00     0.345 HD
ATOM     10  H   UNL A   1      44.066  20.612  22.711  1.00  0.00     0.345 HD
ENDBRANCH   6   7
BRANCH   6  11
ATOM     11  C   UNL A   1      45.779  21.841  25.383  1.00  0.00     0.145 C 
BRANCH  11  12
ATOM     12  S   UNL A   1      46.100  23.622  25.192  1.00  0.00    -0.141 SA
BRANCH  12  13
ATOM     13  C   UNL A   1      44.660  24.469  25.974  1.00  0.00     0.146 C 
ATOM     14  C   UNL A   1      43.557  25.036  25.106  1.00  0.00     0.125 C 
ATOM     15  C   UNL A   1      45.203  25.670  26.711  1.00  0.00     0.247 C 
ATOM     16  C   UNL A   1      43.673  26.520  25.250  1.00  0.00     0.235 C 
ATOM     17  N   UNL A   1      44.676  26.801  26.139  1.00  0.00    -0.250 N 
ATOM     18  O   UNL A   1      45.959  25.602  27.673  1.00  0.00    -0.273 OA
ATOM     19  O   UNL A   1      42.965  27.297  24.622  1.00  0.00    -0.274 OA
BRANCH  17  20
ATOM     20  C   UNL A   1      45.178  28.096  26.364  1.00  0.00     0.052 A 
ATOM     21  C   UNL A   1      46.549  28.361  26.345  1.00  0.00     0.027 A 
ATOM     22  C   UNL A   1      44.287  29.107  26.746  1.00  0.00     0.035 A 
ATOM     23  C   UNL A   1      47.026  29.620  26.713  1.00  0.00     0.011 A 
ATOM     24  C   UNL A   1      44.759  30.344  27.201  1.00  0.00    -0.016 A 
ATOM     25  C   UNL A   1      46.145  30.609  27.175  1.00  0.00    -0.018 A 
ATOM     26  C   UNL A   1      43.877  31.299  27.726  1.00  0.00     0.009 A 
ATOM     27  C   UNL A   1      46.612  31.845  27.645  1.00  0.00     0.009 A 
ATOM     28  C   UNL A   1      44.360  32.508  28.223  1.00  0.00     0.001 A 
ATOM     29  C   UNL A   1      45.723  32.785  28.174  1.00  0.00     0.001 A 
ENDBRANCH  17  20
ENDBRANCH  12  13
ENDBRANCH  11  12
ENDBRANCH   6  11
ENDBRANCH   3   6
ENDBRANCH   1   2
BRANCH   1  30
ATOM     30  C   UNL A   1      42.235  19.730  27.262  1.00  0.00     0.023 C 
BRANCH  30  31
ATOM     31  C   UNL A   1      41.588  21.072  27.590  1.00  0.00     0.023 C 
BRANCH  31  32
ATOM     32  C   UNL A   1      41.413  21.994  26.399  1.00  0.00     0.116 C 
BRANCH  32  33
ATOM     33  N   UNL A   1      40.048  21.995  25.905  1.00  0.00    -0.352 N 
ATOM     34  C   UNL A   1      39.036  22.889  26.144  1.00  0.00     0.251 C 
ATOM     35  H   UNL A   1      39.814  21.243  25.313  1.00  0.00     0.163 HD
ATOM     36  O   UNL A   1      37.884  22.612  25.829  1.00  0.00    -0.269 OA
BRANCH  34  37
ATOM     37  C   UNL A   1      39.340  24.182  26.789  1.00  0.00     0.039 A 
ATOM     38  C   UNL A   1      38.961  24.385  28.117  1.00  0.00     0.014 A 
ATOM     39  C   UNL A   1      39.994  25.193  26.080  1.00  0.00     0.014 A 
ATOM     40  C   UNL A   1      39.282  25.587  28.747  1.00  0.00     0.010 A 
ATOM     41  C   UNL A   1      40.403  26.344  26.737  1.00  0.00     0.010 A 
ATOM     42  C   UNL A   1      40.031  26.563  28.071  1.00  0.00    -0.014 A 
BRANCH  42  43
ATOM     43  C   UNL A   1      40.409  27.841  28.723  1.00  0.00     0.031 A 
ATOM     44  C   UNL A   1      41.789  28.003  29.301  1.00  0.00     0.074 A 
ATOM     45  C   UNL A   1      39.495  28.821  28.852  1.00  0.00     0.049 A 
ATOM     46  N   UNL A   1      42.292  29.012  29.968  1.00  0.00    -0.248 NA
ATOM     47  C   UNL A   1      42.718  26.872  29.137  1.00  0.00     0.031 C 
ATOM     48  C   UNL A   1      38.113  28.764  28.372  1.00  0.00     0.029 A 
ATOM     49  N   UNL A   1      39.594  30.060  29.433  1.00  0.00    -0.354 N 
ATOM     50  C   UNL A   1      43.577  28.623  30.323  1.00  0.00     0.074 A 
ATOM     51  C   UNL A   1      43.759  27.270  29.851  1.00  0.00     0.031 C 
ATOM     52  C   UNL A   1      37.505  29.930  28.644  1.00  0.00     0.029 A 
ATOM     53  C   UNL A   1      38.437  30.797  29.355  1.00  0.00     0.049 A 
ATOM     54  H   UNL A   1      40.416  30.389  29.863  1.00  0.00     0.167 HD
ATOM     55  C   UNL A   1      44.530  29.338  30.966  1.00  0.00     0.031 A 
ATOM     56  C   UNL A   1      38.162  32.034  29.809  1.00  0.00     0.031 A 
ATOM     57  C   UNL A   1      44.353  30.692  31.413  1.00  0.00     0.049 A 
ATOM     58  C   UNL A   1      39.237  32.805  30.523  1.00  0.00     0.074 A 
ATOM     59  C   UNL A   1      45.276  31.530  32.013  1.00  0.00     0.029 A 
ATOM     60  N   UNL A   1      43.169  31.407  31.307  1.00  0.00    -0.354 N 
ATOM     61  N   UNL A   1      40.472  32.451  30.787  1.00  0.00    -0.248 NA
ATOM     62  C   UNL A   1      38.881  34.151  30.992  1.00  0.00     0.031 C 
ATOM     63  C   UNL A   1      44.635  32.735  32.319  1.00  0.00     0.029 A 
ATOM     64  C   UNL A   1      43.331  32.668  31.854  1.00  0.00     0.049 A 
ATOM     65  H   UNL A   1      42.339  31.068  30.903  1.00  0.00     0.167 HD
ATOM     66  C   UNL A   1      41.050  33.542  31.423  1.00  0.00     0.074 A 
ATOM     67  C   UNL A   1      40.035  34.573  31.491  1.00  0.00     0.031 C 
ATOM     68  C   UNL A   1      42.308  33.680  31.909  1.00  0.00     0.031 A 
BRANCH  55  69
ATOM     69  C   UNL A   1      45.848  28.661  31.228  1.00  0.00    -0.014 A 
ATOM     70  C   UNL A   1      46.075  27.934  32.408  1.00  0.00     0.009 A 
ATOM     71  C   UNL A   1      46.870  28.729  30.267  1.00  0.00     0.009 A 
ATOM     72  C   UNL A   1      47.310  27.323  32.638  1.00  0.00     0.001 A 
ATOM     73  C   UNL A   1      48.092  28.090  30.485  1.00  0.00     0.001 A 
ATOM     74  C   UNL A   1      48.315  27.396  31.674  1.00  0.00     0.000 A 
ENDBRANCH  55  69
BRANCH  56  75
ATOM     75  C   UNL A   1      36.819  32.632  29.584  1.00  0.00    -0.014 A 
ATOM     76  C   UNL A   1      36.574  33.421  28.449  1.00  0.00     0.009 A 
ATOM     77  C   UNL A   1      35.777  32.425  30.502  1.00  0.00     0.009 A 
ATOM     78  C   UNL A   1      35.325  34.016  28.255  1.00  0.00     0.001 A 
ATOM     79  C   UNL A   1      34.520  32.995  30.290  1.00  0.00     0.001 A 
ATOM     80  C   UNL A   1      34.299  33.799  29.173  1.00  0.00     0.000 A 
ENDBRANCH  56  75
BRANCH  68  81
ATOM     81  C   UNL A   1      42.668  35.004  32.519  1.00  0.00    -0.014 A 
ATOM     82  C   UNL A   1      42.329  35.314  33.845  1.00  0.00     0.009 A 
ATOM     83  C   UNL A   1      43.396  35.938  31.764  1.00  0.00     0.009 A 
ATOM     84  C   UNL A   1      42.683  36.550  34.391  1.00  0.00     0.001 A 
ATOM     85  C   UNL A   1      43.776  37.158  32.323  1.00  0.00     0.001 A 
ATOM     86  C   UNL A   1      43.410  37.467  33.632  1.00  0.00     0.000 A 
ENDBRANCH  68  81
ENDBRANCH  42  43
ENDBRANCH  34  37
ENDBRANCH  32  33
ENDBRANCH  31  32
ENDBRANCH  30  31
ENDBRANCH   1  30
TORSDOF 16
ENDMDL
MODEL 2
REMARK VINA RESULT:      -9.5      5.030     11.289
REMARK SMILES [NH3+][C@H](CS[C@@H]1CC(=O)N(c2ccc3ccccc3c2)C1=O)C(=O)NCCCCNC(=O)c1ccc(-c2c3nc(c(-c4ccccc4)c4ccc([nH]4)c(-c4ccccc4)c4nc(c(-c5ccccc5)c5ccc2[nH]5)C=C4)C=C3)cc1
REMARK SMILES IDX 25 1 24 2 22 3 23 4 2 6 1 7 3 11 4 12 5 13 6 14 20 15 7 16
REMARK SMILES IDX 9 17 21 18 8 19 10 20 11 21 19 22 12 23 18 24 13 25 17 26
REMARK SMILES IDX 14 27 16 28 15 29 26 30 27 31 28 32 29 33 30 34 31 36 32 37
REMARK SMILES IDX 33 38 79 39 34 40 78 41 35 42 36 43 37 44 72 45 38 46 77 47
REMARK SMILES IDX 71 48 73 49 39 50 76 51 70 52 69 53 40 55 62 56 47 57 61 58
REMARK SMILES IDX 48 59 51 60 60 61 74 62 49 63 50 64 59 66 75 67 52 68 41 69
REMARK SMILES IDX 42 70 46 71 43 72 45 73 44 74 63 75 64 76 68 77 65 78 67 79
REMARK SMILES IDX 66 80 53 81 54 82 58 83 55 84 57 85 56 86
REMARK H PARENT 24 5 1 8 1 9 1 10 29 35 73 54 51 65
REMARK Flexibility Score: inf
ROOT
ATOM      1  C   UNL A   1      34.468  30.027  27.198  1.00  0.00     0.116 C 
ENDROOT
BRANCH   1   2
ATOM      2  N   UNL A   1      33.285  29.308  27.637  1.00  0.00    -0.351 N 
ATOM      3  C   UNL A   1      32.166  28.898  26.980  1.00  0.00     0.279 C 
ATOM      4  O   UNL A   1      31.323  28.298  27.659  1.00  0.00    -0.268 OA
ATOM      5  H   UNL A   1      33.295  29.071  28.592  1.00  0.00     0.163 HD
BRANCH   3   6
ATOM      6  C   UNL A   1      31.892  29.202  25.504  1.00  0.00     0.280 C 
BRANCH   6   7
ATOM      7  N   UNL A   1      31.386  30.581  25.322  1.00  0.00    -0.347 N 
ATOM      8  H   UNL A   1      31.771  30.973  24.463  1.00  0.00     0.345 HD
ATOM      9  H   UNL A   1      31.671  31.155  26.116  1.00  0.00     0.345 HD
ATOM     10  H   UNL A   1      30.368  30.565  25.262  1.00  0.00     0.345 HD
ENDBRANCH   6   7
BRANCH   6  11
ATOM     11  C   UNL A   1      31.201  28.114  24.654  1.00  0.00     0.145 C 
BRANCH  11  12
ATOM     12  S   UNL A   1      31.972  26.570  24.079  1.00  0.00    -0.141 SA
BRANCH  12  13
ATOM     13  C   UNL A   1      30.848  25.218  24.638  1.00  0.00     0.146 C 
ATOM     14  C   UNL A   1      30.596  25.012  26.117  1.00  0.00     0.125 C 
ATOM     15  C   UNL A   1      31.464  23.917  24.184  1.00  0.00     0.247 C 
ATOM     16  C   UNL A   1      31.255  23.710  26.445  1.00  0.00     0.235 C 
ATOM     17  N   UNL A   1      31.777  23.177  25.297  1.00  0.00    -0.250 N 
ATOM     18  O   UNL A   1      31.611  23.599  23.009  1.00  0.00    -0.273 OA
ATOM     19  O   UNL A   1      31.299  23.267  27.585  1.00  0.00    -0.274 OA
BRANCH  17  20
ATOM     20  C   UNL A   1      32.626  22.055  25.274  1.00  0.00     0.052 A 
ATOM     21  C   UNL A   1      34.008  22.182  25.422  1.00  0.00     0.027 A 
ATOM     22  C   UNL A   1      32.079  20.803  24.964  1.00  0.00     0.035 A 
ATOM     23  C   UNL A   1      34.837  21.072  25.251  1.00  0.00     0.011 A 
ATOM     24  C   UNL A   1      32.906  19.704  24.704  1.00  0.00    -0.016 A 
ATOM     25  C   UNL A   1      34.303  19.836  24.860  1.00  0.00    -0.018 A 
ATOM     26  C   UNL A   1      32.368  18.493  24.246  1.00  0.00     0.009 A 
ATOM     27  C   UNL A   1      35.126  18.735  24.584  1.00  0.00     0.009 A 
ATOM     28  C   UNL A   1      33.202  17.420  23.942  1.00  0.00     0.001 A 
ATOM     29  C   UNL A   1      34.577  17.536  24.120  1.00  0.00     0.001 A 
ENDBRANCH  17  20
ENDBRANCH  12  13
ENDBRANCH  11  12
ENDBRANCH   6  11
ENDBRANCH   3   6
ENDBRANCH   1   2
BRANCH   1  30
ATOM     30  C   UNL A   1      34.664  31.392  27.865  1.00  0.00     0.023 C 
BRANCH  30  31
ATOM     31  C   UNL A   1      33.433  32.289  27.957  1.00  0.00     0.023 C 
BRANCH  31  32
ATOM     32  C   UNL A   1      33.721  33.770  27.798  1.00  0.00     0.116 C 
BRANCH  32  33
ATOM     33  N   UNL A   1      33.260  34.541  28.940  1.00  0.00    -0.352 N 
ATOM     34  C   UNL A   1      33.673  34.492  30.246  1.00  0.00     0.251 C 
ATOM     35  H   UNL A   1      32.547  35.192  28.747  1.00  0.00     0.163 HD
ATOM     36  O   UNL A   1      33.018  35.052  31.119  1.00  0.00    -0.269 OA
BRANCH  34  37
ATOM     37  C   UNL A   1      34.904  33.757  30.597  1.00  0.00     0.039 A 
ATOM     38  C   UNL A   1      34.821  32.668  31.468  1.00  0.00     0.014 A 
ATOM     39  C   UNL A   1      36.139  34.146  30.072  1.00  0.00     0.014 A 
ATOM     40  C   UNL A   1      35.972  31.941  31.772  1.00  0.00     0.010 A 
ATOM     41  C   UNL A   1      37.262  33.362  30.292  1.00  0.00     0.010 A 
ATOM     42  C   UNL A   1      37.195  32.265  31.162  1.00  0.00    -0.014 A 
BRANCH  42  43
ATOM     43  C   UNL A   1      38.431  31.495  31.446  1.00  0.00     0.031 A 
ATOM     44  C   UNL A   1      39.320  31.906  32.589  1.00  0.00     0.074 A 
ATOM     45  C   UNL A   1      38.782  30.474  30.641  1.00  0.00     0.049 A 
ATOM     46  N   UNL A   1      40.473  31.407  32.959  1.00  0.00    -0.248 NA
ATOM     47  C   UNL A   1      38.872  33.048  33.404  1.00  0.00     0.031 C 
ATOM     48  C   UNL A   1      38.024  30.009  29.477  1.00  0.00     0.029 A 
ATOM     49  N   UNL A   1      39.873  29.644  30.679  1.00  0.00    -0.354 N 
ATOM     50  C   UNL A   1      40.895  32.191  34.025  1.00  0.00     0.074 A 
ATOM     51  C   UNL A   1      39.909  33.230  34.207  1.00  0.00     0.031 C 
ATOM     52  C   UNL A   1      38.654  28.954  28.935  1.00  0.00     0.029 A 
ATOM     53  C   UNL A   1      39.879  28.697  29.684  1.00  0.00     0.049 A 
ATOM     54  H   UNL A   1      40.584  29.720  31.356  1.00  0.00     0.167 HD
ATOM     55  C   UNL A   1      41.997  32.045  34.799  1.00  0.00     0.031 A 
ATOM     56  C   UNL A   1      40.775  27.732  29.407  1.00  0.00     0.031 A 
ATOM     57  C   UNL A   1      42.963  30.995  34.628  1.00  0.00     0.049 A 
ATOM     58  C   UNL A   1      41.991  27.593  30.280  1.00  0.00     0.074 A 
ATOM     59  C   UNL A   1      44.077  30.715  35.400  1.00  0.00     0.029 A 
ATOM     60  N   UNL A   1      42.928  30.050  33.615  1.00  0.00    -0.354 N 
ATOM     61  N   UNL A   1      42.339  28.296  31.330  1.00  0.00    -0.248 NA
ATOM     62  C   UNL A   1      42.932  26.519  29.933  1.00  0.00     0.031 C 
ATOM     63  C   UNL A   1      44.747  29.633  34.820  1.00  0.00     0.029 A 
ATOM     64  C   UNL A   1      44.016  29.202  33.724  1.00  0.00     0.049 A 
ATOM     65  H   UNL A   1      42.233  29.992  32.920  1.00  0.00     0.167 HD
ATOM     66  C   UNL A   1      43.522  27.730  31.789  1.00  0.00     0.074 A 
ATOM     67  C   UNL A   1      43.820  26.617  30.912  1.00  0.00     0.031 C 
ATOM     68  C   UNL A   1      44.293  28.098  32.842  1.00  0.00     0.031 A 
BRANCH  55  69
ATOM     69  C   UNL A   1      42.214  33.051  35.896  1.00  0.00    -0.014 A 
ATOM     70  C   UNL A   1      42.954  34.224  35.676  1.00  0.00     0.009 A 
ATOM     71  C   UNL A   1      41.645  32.837  37.161  1.00  0.00     0.009 A 
ATOM     72  C   UNL A   1      43.155  35.141  36.710  1.00  0.00     0.001 A 
ATOM     73  C   UNL A   1      41.820  33.770  38.185  1.00  0.00     0.001 A 
ATOM     74  C   UNL A   1      42.583  34.916  37.962  1.00  0.00     0.000 A 
ENDBRANCH  55  69
BRANCH  56  75
ATOM     75  C   UNL A   1      40.547  26.804  28.267  1.00  0.00    -0.014 A 
ATOM     76  C   UNL A   1      39.769  25.648  28.437  1.00  0.00     0.009 A 
ATOM     77  C   UNL A   1      41.110  27.062  27.007  1.00  0.00     0.009 A 
ATOM     78  C   UNL A   1      39.585  24.755  27.379  1.00  0.00     0.001 A 
ATOM     79  C   UNL A   1      40.899  26.183  25.942  1.00  0.00     0.001 A 
ATOM     80  C   UNL A   1      40.147  25.026  26.132  1.00  0.00     0.000 A 
ENDBRANCH  56  75
BRANCH  68  81
ATOM     81  C   UNL A   1      45.509  27.264  33.126  1.00  0.00    -0.014 A 
ATOM     82  C   UNL A   1      46.769  27.614  32.618  1.00  0.00     0.009 A 
ATOM     83  C   UNL A   1      45.396  26.135  33.953  1.00  0.00     0.009 A 
ATOM     84  C   UNL A   1      47.887  26.827  32.904  1.00  0.00     0.001 A 
ATOM     85  C   UNL A   1      46.520  25.370  34.265  1.00  0.00     0.001 A 
ATOM     86  C   UNL A   1      47.762  25.711  33.731  1.00  0.00     0.000 A 
ENDBRANCH  68  81
ENDBRANCH  42  43
ENDBRANCH  34  37
ENDBRANCH  32  33
ENDBRANCH  31  32
ENDBRANCH  30  31
ENDBRANCH   1  30
TORSDOF 16
ENDMDL
MODEL 3
REMARK VINA RESULT:      -9.5      4.781     10.650
REMARK SMILES [NH3+][C@H](CS[C@@H]1CC(=O)N(c2ccc3ccccc3c2)C1=O)C(=O)NCCCCNC(=O)c1ccc(-c2c3nc(c(-c4ccccc4)c4ccc([nH]4)c(-c4ccccc4)c4nc(c(-c5ccccc5)c5ccc2[nH]5)C=C4)C=C3)cc1
REMARK SMILES IDX 25 1 24 2 22 3 23 4 2 6 1 7 3 11 4 12 5 13 6 14 20 15 7 16
REMARK SMILES IDX 9 17 21 18 8 19 10 20 11 21 19 22 12 23 18 24 13 25 17 26
REMARK SMILES IDX 14 27 16 28 15 29 26 30 27 31 28 32 29 33 30 34 31 36 32 37
REMARK SMILES IDX 33 38 79 39 34 40 78 41 35 42 36 43 37 44 72 45 38 46 77 47
REMARK SMILES IDX 71 48 73 49 39 50 76 51 70 52 69 53 40 55 62 56 47 57 61 58
REMARK SMILES IDX 48 59 51 60 60 61 74 62 49 63 50 64 59 66 75 67 52 68 41 69
REMARK SMILES IDX 42 70 46 71 43 72 45 73 44 74 63 75 64 76 68 77 65 78 67 79
REMARK SMILES IDX 66 80 53 81 54 82 58 83 55 84 57 85 56 86
REMARK H PARENT 24 5 1 8 1 9 1 10 29 35 73 54 51 65
REMARK Flexibility Score: inf
ROOT
ATOM      1  C   UNL A   1      33.314  28.985  23.963  1.00  0.00     0.116 C 
ENDROOT
BRANCH   1   2
ATOM      2  N   UNL A   1      32.142  29.757  24.335  1.00  0.00    -0.351 N 
ATOM      3  C   UNL A   1      30.880  29.807  23.829  1.00  0.00     0.279 C 
ATOM      4  O   UNL A   1      30.100  30.591  24.384  1.00  0.00    -0.268 OA
ATOM      5  H   UNL A   1      32.288  30.360  25.100  1.00  0.00     0.163 HD
BRANCH   3   6
ATOM      6  C   UNL A   1      30.428  29.009  22.602  1.00  0.00     0.280 C 
BRANCH   6   7
ATOM      7  N   UNL A   1      29.388  29.734  21.839  1.00  0.00    -0.347 N 
ATOM      8  H   UNL A   1      28.972  30.454  22.431  1.00  0.00     0.345 HD
ATOM      9  H   UNL A   1      28.664  29.079  21.542  1.00  0.00     0.345 HD
ATOM     10  H   UNL A   1      29.809  30.170  21.018  1.00  0.00     0.345 HD
ENDBRANCH   6   7
BRANCH   6  11
ATOM     11  C   UNL A   1      30.206  27.490  22.765  1.00  0.00     0.145 C 
BRANCH  11  12
ATOM     12  S   UNL A   1      31.304  26.185  22.130  1.00  0.00    -0.141 SA
BRANCH  12  13
ATOM     13  C   UNL A   1      30.971  24.706  23.181  1.00  0.00     0.146 C 
ATOM     14  C   UNL A   1      30.550  24.887  24.624  1.00  0.00     0.125 C 
ATOM     15  C   UNL A   1      32.262  23.929  23.270  1.00  0.00     0.247 C 
ATOM     16  C   UNL A   1      31.705  24.388  25.432  1.00  0.00     0.235 C 
ATOM     17  N   UNL A   1      32.666  23.911  24.581  1.00  0.00    -0.250 N 
ATOM     18  O   UNL A   1      32.807  23.391  22.312  1.00  0.00    -0.273 OA
ATOM     19  O   UNL A   1      31.726  24.450  26.654  1.00  0.00    -0.274 OA
BRANCH  17  20
ATOM     20  C   UNL A   1      33.960  23.543  24.994  1.00  0.00     0.052 A 
ATOM     21  C   UNL A   1      34.912  24.498  25.354  1.00  0.00     0.027 A 
ATOM     22  C   UNL A   1      34.334  22.195  24.913  1.00  0.00     0.035 A 
ATOM     23  C   UNL A   1      36.227  24.114  25.620  1.00  0.00     0.011 A 
ATOM     24  C   UNL A   1      35.668  21.810  25.090  1.00  0.00    -0.016 A 
ATOM     25  C   UNL A   1      36.626  22.779  25.460  1.00  0.00    -0.018 A 
ATOM     26  C   UNL A   1      36.070  20.486  24.859  1.00  0.00     0.009 A 
ATOM     27  C   UNL A   1      37.963  22.388  25.622  1.00  0.00     0.009 A 
ATOM     28  C   UNL A   1      37.408  20.122  24.991  1.00  0.00     0.001 A 
ATOM     29  C   UNL A   1      38.351  21.068  25.380  1.00  0.00     0.001 A 
ENDBRANCH  17  20
ENDBRANCH  12  13
ENDBRANCH  11  12
ENDBRANCH   6  11
ENDBRANCH   3   6
ENDBRANCH   1   2
BRANCH   1  30
ATOM     30  C   UNL A   1      33.960  28.215  25.119  1.00  0.00     0.023 C 
BRANCH  30  31
ATOM     31  C   UNL A   1      33.035  27.790  26.256  1.00  0.00     0.023 C 
BRANCH  31  32
ATOM     32  C   UNL A   1      33.386  28.382  27.608  1.00  0.00     0.116 C 
BRANCH  32  33
ATOM     33  N   UNL A   1      33.431  29.833  27.573  1.00  0.00    -0.352 N 
ATOM     34  C   UNL A   1      34.435  30.682  27.962  1.00  0.00     0.251 C 
ATOM     35  H   UNL A   1      32.623  30.270  27.219  1.00  0.00     0.163 HD
ATOM     36  O   UNL A   1      34.215  31.883  28.074  1.00  0.00    -0.269 OA
BRANCH  34  37
ATOM     37  C   UNL A   1      35.778  30.142  28.252  1.00  0.00     0.039 A 
ATOM     38  C   UNL A   1      36.736  30.121  27.236  1.00  0.00     0.014 A 
ATOM     39  C   UNL A   1      36.087  29.651  29.523  1.00  0.00     0.014 A 
ATOM     40  C   UNL A   1      38.021  29.651  27.512  1.00  0.00     0.010 A 
ATOM     41  C   UNL A   1      37.391  29.283  29.823  1.00  0.00     0.010 A 
ATOM     42  C   UNL A   1      38.365  29.257  28.815  1.00  0.00    -0.014 A 
BRANCH  42  43
ATOM     43  C   UNL A   1      39.729  28.777  29.145  1.00  0.00     0.031 A 
ATOM     44  C   UNL A   1      40.685  29.686  29.871  1.00  0.00     0.074 A 
ATOM     45  C   UNL A   1      40.126  27.557  28.736  1.00  0.00     0.049 A 
ATOM     46  N   UNL A   1      41.937  29.482  30.191  1.00  0.00    -0.248 NA
ATOM     47  C   UNL A   1      40.177  31.013  30.259  1.00  0.00     0.031 C 
ATOM     48  C   UNL A   1      39.305  26.602  27.988  1.00  0.00     0.029 A 
ATOM     49  N   UNL A   1      41.327  26.912  28.891  1.00  0.00    -0.354 N 
ATOM     50  C   UNL A   1      42.369  30.659  30.789  1.00  0.00     0.074 A 
ATOM     51  C   UNL A   1      41.267  31.592  30.737  1.00  0.00     0.031 C 
ATOM     52  C   UNL A   1      40.014  25.480  27.783  1.00  0.00     0.029 A 
ATOM     53  C   UNL A   1      41.349  25.653  28.343  1.00  0.00     0.049 A 
ATOM     54  H   UNL A   1      42.098  27.314  29.351  1.00  0.00     0.167 HD
ATOM     55  C   UNL A   1      43.569  30.932  31.352  1.00  0.00     0.031 A 
ATOM     56  C   UNL A   1      42.339  24.741  28.297  1.00  0.00     0.031 A 
ATOM     57  C   UNL A   1      44.654  29.992  31.422  1.00  0.00     0.049 A 
ATOM     58  C   UNL A   1      43.663  25.071  28.927  1.00  0.00     0.074 A 
ATOM     59  C   UNL A   1      45.888  30.143  32.032  1.00  0.00     0.029 A 
ATOM     60  N   UNL A   1      44.634  28.723  30.864  1.00  0.00    -0.354 N 
ATOM     61  N   UNL A   1      44.032  26.162  29.554  1.00  0.00    -0.248 NA
ATOM     62  C   UNL A   1      44.704  24.037  28.851  1.00  0.00     0.031 C 
ATOM     63  C   UNL A   1      46.634  28.984  31.795  1.00  0.00     0.029 A 
ATOM     64  C   UNL A   1      45.843  28.090  31.091  1.00  0.00     0.049 A 
ATOM     65  H   UNL A   1      43.873  28.332  30.378  1.00  0.00     0.167 HD
ATOM     66  C   UNL A   1      45.336  25.933  29.976  1.00  0.00     0.074 A 
ATOM     67  C   UNL A   1      45.685  24.595  29.546  1.00  0.00     0.031 C 
ATOM     68  C   UNL A   1      46.170  26.756  30.657  1.00  0.00     0.031 A 
BRANCH  55  69
ATOM     69  C   UNL A   1      43.769  32.306  31.931  1.00  0.00    -0.014 A 
ATOM     70  C   UNL A   1      43.477  32.582  33.276  1.00  0.00     0.009 A 
ATOM     71  C   UNL A   1      44.284  33.334  31.125  1.00  0.00     0.009 A 
ATOM     72  C   UNL A   1      43.658  33.867  33.792  1.00  0.00     0.001 A 
ATOM     73  C   UNL A   1      44.494  34.610  31.651  1.00  0.00     0.001 A 
ATOM     74  C   UNL A   1      44.172  34.878  32.981  1.00  0.00     0.000 A 
ENDBRANCH  55  69
BRANCH  56  75
ATOM     75  C   UNL A   1      42.110  23.421  27.651  1.00  0.00    -0.014 A 
ATOM     76  C   UNL A   1      42.477  23.212  26.313  1.00  0.00     0.009 A 
ATOM     77  C   UNL A   1      41.516  22.367  28.363  1.00  0.00     0.009 A 
ATOM     78  C   UNL A   1      42.227  21.986  25.692  1.00  0.00     0.001 A 
ATOM     79  C   UNL A   1      41.296  21.132  27.749  1.00  0.00     0.001 A 
ATOM     80  C   UNL A   1      41.641  20.946  26.412  1.00  0.00     0.000 A 
ENDBRANCH  56  75
BRANCH  68  81
ATOM     81  C   UNL A   1      47.525  26.217  31.015  1.00  0.00    -0.014 A 
ATOM     82  C   UNL A   1      48.592  26.261  30.105  1.00  0.00     0.009 A 
ATOM     83  C   UNL A   1      47.745  25.697  32.300  1.00  0.00     0.009 A 
ATOM     84  C   UNL A   1      49.846  25.761  30.465  1.00  0.00     0.001 A 
ATOM     85  C   UNL A   1      49.007  25.228  32.668  1.00  0.00     0.001 A 
ATOM     86  C   UNL A   1      50.052  25.252  31.747  1.00  0.00     0.000 A 
ENDBRANCH  68  81
ENDBRANCH  42  43
ENDBRANCH  34  37
ENDBRANCH  32  33
ENDBRANCH  31  32
ENDBRANCH  30  31
ENDBRANCH   1  30
TORSDOF 16
ENDMDL
