MODEL 1
REMARK VINA RESULT:     -10.8      0.000      0.000
REMARK SMILES CC(C)C[C@@H](CNc1ccc(C(N)=O)cc1)C(=O)NCCCCNC(=O)c1ccc(-c2c3nc(c(-c4ccccc4)c4ccc([nH]4)c(-c4ccccc4)c4nc(c(-c5ccccc5)c5ccc2[nH]5)C=C4)C=C3)cc1
REMARK SMILES IDX 20 1 19 2 17 3 18 4 5 6 4 7 2 8 1 9 3 10 6 11 7 12 8 14 9 15
REMARK SMILES IDX 16 16 10 17 15 18 11 19 12 20 13 21 14 22 21 25 22 26 23 27
REMARK SMILES IDX 24 28 25 29 26 31 27 32 28 33 74 34 29 35 73 36 30 37 31 38
REMARK SMILES IDX 32 39 67 40 33 41 72 42 66 43 68 44 34 45 71 46 65 47 64 48
REMARK SMILES IDX 35 50 57 51 42 52 56 53 43 54 46 55 55 56 69 57 44 58 45 59
REMARK SMILES IDX 54 61 70 62 47 63 36 64 37 65 41 66 38 67 40 68 39 69 58 70
REMARK SMILES IDX 59 71 63 72 60 73 62 74 61 75 48 76 49 77 53 78 50 79 52 80
REMARK SMILES IDX 51 81
REMARK H PARENT 19 5 7 13 13 23 13 24 24 30 68 49 46 60
REMARK Flexibility Score: inf
ROOT
ATOM      1  C   UNL A   1      31.735  26.361  25.864  1.00  0.00     0.116 C 
ENDROOT
BRANCH   1   2
ATOM      2  N   UNL A   1      31.185  25.263  26.624  1.00  0.00    -0.356 N 
ATOM      3  C   UNL A   1      31.583  23.960  26.670  1.00  0.00     0.224 C 
ATOM      4  O   UNL A   1      31.145  23.272  27.598  1.00  0.00    -0.275 OA
ATOM      5  H   UNL A   1      30.412  25.487  27.190  1.00  0.00     0.163 HD
BRANCH   3   6
ATOM      6  C   UNL A   1      32.499  23.330  25.617  1.00  0.00     0.098 C 
BRANCH   6   7
ATOM      7  C   UNL A   1      33.872  22.949  26.201  1.00  0.00     0.018 C 
BRANCH   7   8
ATOM      8  C   UNL A   1      35.112  23.478  25.463  1.00  0.00    -0.017 C 
ATOM      9  C   UNL A   1      35.748  22.425  24.558  1.00  0.00     0.007 C 
ATOM     10  C   UNL A   1      34.704  24.698  24.626  1.00  0.00     0.007 C 
ENDBRANCH   7   8
ENDBRANCH   6   7
BRANCH   6  11
ATOM     11  C   UNL A   1      31.757  22.342  24.697  1.00  0.00     0.126 C 
BRANCH  11  12
ATOM     12  N   UNL A   1      32.602  21.363  24.024  1.00  0.00    -0.384 N 
ATOM     13  H   UNL A   1      33.217  21.681  23.324  1.00  0.00     0.160 HD
BRANCH  12  14
ATOM     14  C   UNL A   1      32.589  20.007  24.313  1.00  0.00     0.034 A 
ATOM     15  C   UNL A   1      32.525  19.082  23.258  1.00  0.00     0.026 A 
ATOM     16  C   UNL A   1      32.737  19.495  25.604  1.00  0.00     0.026 A 
ATOM     17  C   UNL A   1      32.674  17.703  23.473  1.00  0.00     0.016 A 
ATOM     18  C   UNL A   1      32.846  18.116  25.835  1.00  0.00     0.016 A 
ATOM     19  C   UNL A   1      32.852  17.215  24.768  1.00  0.00     0.039 A 
BRANCH  19  20
ATOM     20  C   UNL A   1      33.037  15.769  25.072  1.00  0.00     0.248 C 
ATOM     21  N   UNL A   1      31.936  15.044  25.437  1.00  0.00    -0.366 N 
ATOM     22  O   UNL A   1      34.129  15.225  24.965  1.00  0.00    -0.270 OA
ATOM     23  H   UNL A   1      31.061  15.486  25.521  1.00  0.00     0.159 HD
ATOM     24  H   UNL A   1      32.021  14.079  25.614  1.00  0.00     0.159 HD
ENDBRANCH  19  20
ENDBRANCH  12  14
ENDBRANCH  11  12
ENDBRANCH   6  11
ENDBRANCH   3   6
ENDBRANCH   1   2
BRANCH   1  25
ATOM     25  C   UNL A   1      31.436  27.730  26.457  1.00  0.00     0.023 C 
BRANCH  25  26
ATOM     26  C   UNL A   1      32.489  28.792  26.154  1.00  0.00     0.023 C 
BRANCH  26  27
ATOM     27  C   UNL A   1      33.581  28.954  27.208  1.00  0.00     0.116 C 
BRANCH  27  28
ATOM     28  N   UNL A   1      33.613  30.270  27.835  1.00  0.00    -0.352 N 
ATOM     29  C   UNL A   1      34.665  30.881  28.480  1.00  0.00     0.251 C 
ATOM     30  H   UNL A   1      32.777  30.788  27.791  1.00  0.00     0.163 HD
ATOM     31  O   UNL A   1      34.535  31.979  28.998  1.00  0.00    -0.269 OA
BRANCH  29  32
ATOM     32  C   UNL A   1      35.949  30.158  28.569  1.00  0.00     0.039 A 
ATOM     33  C   UNL A   1      36.827  30.211  27.485  1.00  0.00     0.014 A 
ATOM     34  C   UNL A   1      36.314  29.519  29.757  1.00  0.00     0.014 A 
ATOM     35  C   UNL A   1      38.115  29.694  27.624  1.00  0.00     0.010 A 
ATOM     36  C   UNL A   1      37.619  29.070  29.915  1.00  0.00     0.010 A 
ATOM     37  C   UNL A   1      38.536  29.163  28.855  1.00  0.00    -0.014 A 
BRANCH  37  38
ATOM     38  C   UNL A   1      39.936  28.722  29.066  1.00  0.00     0.031 A 
ATOM     39  C   UNL A   1      40.951  29.679  29.623  1.00  0.00     0.074 A 
ATOM     40  C   UNL A   1      40.313  27.487  28.681  1.00  0.00     0.049 A 
ATOM     41  N   UNL A   1      42.234  29.505  29.810  1.00  0.00    -0.248 NA
ATOM     42  C   UNL A   1      40.464  31.019  29.991  1.00  0.00     0.031 C 
ATOM     43  C   UNL A   1      39.435  26.478  28.082  1.00  0.00     0.029 A 
ATOM     44  N   UNL A   1      41.539  26.873  28.728  1.00  0.00    -0.354 N 
ATOM     45  C   UNL A   1      42.709  30.712  30.302  1.00  0.00     0.074 A 
ATOM     46  C   UNL A   1      41.589  31.628  30.335  1.00  0.00     0.031 C 
ATOM     47  C   UNL A   1      40.146  25.365  27.839  1.00  0.00     0.029 A 
ATOM     48  C   UNL A   1      41.533  25.593  28.229  1.00  0.00     0.049 A 
ATOM     49  H   UNL A   1      42.346  27.309  29.085  1.00  0.00     0.167 HD
ATOM     50  C   UNL A   1      43.961  31.029  30.709  1.00  0.00     0.031 A 
ATOM     51  C   UNL A   1      42.535  24.704  28.096  1.00  0.00     0.031 A 
ATOM     52  C   UNL A   1      45.074  30.118  30.686  1.00  0.00     0.049 A 
ATOM     53  C   UNL A   1      43.918  25.079  28.550  1.00  0.00     0.074 A 
ATOM     54  C   UNL A   1      46.368  30.328  31.127  1.00  0.00     0.029 A 
ATOM     55  N   UNL A   1      45.023  28.825  30.189  1.00  0.00    -0.354 N 
ATOM     56  N   UNL A   1      44.337  26.204  29.078  1.00  0.00    -0.248 NA
ATOM     57  C   UNL A   1      44.964  24.057  28.400  1.00  0.00     0.031 C 
ATOM     58  C   UNL A   1      47.113  29.175  30.858  1.00  0.00     0.029 A 
ATOM     59  C   UNL A   1      46.269  28.230  30.297  1.00  0.00     0.049 A 
ATOM     60  H   UNL A   1      44.220  28.393  29.817  1.00  0.00     0.167 HD
ATOM     61  C   UNL A   1      45.687  26.017  29.347  1.00  0.00     0.074 A 
ATOM     62  C   UNL A   1      46.012  24.666  28.939  1.00  0.00     0.031 C 
ATOM     63  C   UNL A   1      46.576  26.885  29.885  1.00  0.00     0.031 A 
BRANCH  50  64
ATOM     64  C   UNL A   1      44.187  32.425  31.215  1.00  0.00    -0.014 A 
ATOM     65  C   UNL A   1      44.561  33.461  30.342  1.00  0.00     0.009 A 
ATOM     66  C   UNL A   1      44.003  32.717  32.574  1.00  0.00     0.009 A 
ATOM     67  C   UNL A   1      44.784  34.750  30.828  1.00  0.00     0.001 A 
ATOM     68  C   UNL A   1      44.200  34.013  33.053  1.00  0.00     0.001 A 
ATOM     69  C   UNL A   1      44.600  35.025  32.183  1.00  0.00     0.000 A 
ENDBRANCH  50  64
BRANCH  51  70
ATOM     70  C   UNL A   1      42.267  23.359  27.521  1.00  0.00    -0.014 A 
ATOM     71  C   UNL A   1      41.760  22.330  28.329  1.00  0.00     0.009 A 
ATOM     72  C   UNL A   1      42.521  23.097  26.167  1.00  0.00     0.009 A 
ATOM     73  C   UNL A   1      41.536  21.058  27.797  1.00  0.00     0.001 A 
ATOM     74  C   UNL A   1      42.272  21.832  25.631  1.00  0.00     0.001 A 
ATOM     75  C   UNL A   1      41.788  20.811  26.448  1.00  0.00     0.000 A 
ENDBRANCH  51  70
BRANCH  63  76
ATOM     76  C   UNL A   1      47.979  26.390  30.095  1.00  0.00    -0.014 A 
ATOM     77  C   UNL A   1      48.957  26.530  29.099  1.00  0.00     0.009 A 
ATOM     78  C   UNL A   1      48.334  25.813  31.324  1.00  0.00     0.009 A 
ATOM     79  C   UNL A   1      50.258  26.073  29.320  1.00  0.00     0.001 A 
ATOM     80  C   UNL A   1      49.641  25.381  31.552  1.00  0.00     0.001 A 
ATOM     81  C   UNL A   1      50.600  25.504  30.547  1.00  0.00     0.000 A 
ENDBRANCH  63  76
ENDBRANCH  37  38
ENDBRANCH  29  32
ENDBRANCH  27  28
ENDBRANCH  26  27
ENDBRANCH  25  26
ENDBRANCH   1  25
TORSDOF 17
ENDMDL
MODEL 2
REMARK VINA RESULT:     -10.8      3.456      8.243
REMARK SMILES CC(C)C[C@@H](CNc1ccc(C(N)=O)cc1)C(=O)NCCCCNC(=O)c1ccc(-c2c3nc(c(-c4ccccc4)c4ccc([nH]4)c(-c4ccccc4)c4nc(c(-c5ccccc5)c5ccc2[nH]5)C=C4)C=C3)cc1
REMARK SMILES IDX 20 1 19 2 17 3 18 4 5 6 4 7 2 8 1 9 3 10 6 11 7 12 8 14 9 15
REMARK SMILES IDX 16 16 10 17 15 18 11 19 12 20 13 21 14 22 21 25 22 26 23 27
REMARK SMILES IDX 24 28 25 29 26 31 27 32 28 33 74 34 29 35 73 36 30 37 31 38
REMARK SMILES IDX 32 39 67 40 33 41 72 42 66 43 68 44 34 45 71 46 65 47 64 48
REMARK SMILES IDX 35 50 57 51 42 52 56 53 43 54 46 55 55 56 69 57 44 58 45 59
REMARK SMILES IDX 54 61 70 62 47 63 36 64 37 65 41 66 38 67 40 68 39 69 58 70
REMARK SMILES IDX 59 71 63 72 60 73 62 74 61 75 48 76 49 77 53 78 50 79 52 80
REMARK SMILES IDX 51 81
REMARK H PARENT 19 5 7 13 13 23 13 24 24 30 68 49 46 60
REMARK Flexibility Score: inf
ROOT
ATOM      1  C   UNL A   1      32.282  27.707  26.817  1.00  0.00     0.116 C 
ENDROOT
BRANCH   1   2
ATOM      2  N   UNL A   1      31.344  26.610  26.870  1.00  0.00    -0.356 N 
ATOM      3  C   UNL A   1      31.319  25.459  26.141  1.00  0.00     0.224 C 
ATOM      4  O   UNL A   1      30.594  24.548  26.554  1.00  0.00    -0.275 OA
ATOM      5  H   UNL A   1      30.618  26.707  27.528  1.00  0.00     0.163 HD
BRANCH   3   6
ATOM      6  C   UNL A   1      32.110  25.277  24.842  1.00  0.00     0.098 C 
BRANCH   6   7
ATOM      7  C   UNL A   1      33.070  24.074  24.914  1.00  0.00     0.018 C 
BRANCH   7   8
ATOM      8  C   UNL A   1      34.166  24.124  25.990  1.00  0.00    -0.017 C 
ATOM      9  C   UNL A   1      33.960  23.079  27.084  1.00  0.00     0.007 C 
ATOM     10  C   UNL A   1      35.528  23.903  25.317  1.00  0.00     0.007 C 
ENDBRANCH   7   8
ENDBRANCH   6   7
BRANCH   6  11
ATOM     11  C   UNL A   1      31.249  25.495  23.584  1.00  0.00     0.126 C 
BRANCH  11  12
ATOM     12  N   UNL A   1      29.853  25.834  23.835  1.00  0.00    -0.384 N 
ATOM     13  H   UNL A   1      29.248  25.118  24.136  1.00  0.00     0.160 HD
BRANCH  12  14
ATOM     14  C   UNL A   1      29.329  27.107  23.674  1.00  0.00     0.034 A 
ATOM     15  C   UNL A   1      30.202  28.203  23.594  1.00  0.00     0.026 A 
ATOM     16  C   UNL A   1      27.967  27.359  23.485  1.00  0.00     0.026 A 
ATOM     17  C   UNL A   1      29.748  29.490  23.268  1.00  0.00     0.016 A 
ATOM     18  C   UNL A   1      27.496  28.648  23.198  1.00  0.00     0.016 A 
ATOM     19  C   UNL A   1      28.387  29.715  23.052  1.00  0.00     0.039 A 
BRANCH  19  20
ATOM     20  C   UNL A   1      27.833  31.046  22.683  1.00  0.00     0.248 C 
ATOM     21  N   UNL A   1      28.037  31.495  21.407  1.00  0.00    -0.366 N 
ATOM     22  O   UNL A   1      27.180  31.713  23.477  1.00  0.00    -0.270 OA
ATOM     23  H   UNL A   1      28.562  30.955  20.773  1.00  0.00     0.159 HD
ATOM     24  H   UNL A   1      27.657  32.357  21.123  1.00  0.00     0.159 HD
ENDBRANCH  19  20
ENDBRANCH  12  14
ENDBRANCH  11  12
ENDBRANCH   6  11
ENDBRANCH   3   6
ENDBRANCH   1   2
BRANCH   1  25
ATOM     25  C   UNL A   1      31.737  29.009  27.386  1.00  0.00     0.023 C 
BRANCH  25  26
ATOM     26  C   UNL A   1      31.986  30.232  26.509  1.00  0.00     0.023 C 
BRANCH  26  27
ATOM     27  C   UNL A   1      33.006  31.232  27.047  1.00  0.00     0.116 C 
BRANCH  27  28
ATOM     28  N   UNL A   1      32.450  32.544  27.353  1.00  0.00    -0.352 N 
ATOM     29  C   UNL A   1      33.014  33.557  28.097  1.00  0.00     0.251 C 
ATOM     30  H   UNL A   1      31.559  32.732  26.980  1.00  0.00     0.163 HD
ATOM     31  O   UNL A   1      32.411  34.598  28.306  1.00  0.00    -0.269 OA
BRANCH  29  32
ATOM     32  C   UNL A   1      34.356  33.339  28.674  1.00  0.00     0.039 A 
ATOM     33  C   UNL A   1      34.461  32.690  29.906  1.00  0.00     0.014 A 
ATOM     34  C   UNL A   1      35.497  33.688  27.948  1.00  0.00     0.014 A 
ATOM     35  C   UNL A   1      35.720  32.311  30.373  1.00  0.00     0.010 A 
ATOM     36  C   UNL A   1      36.741  33.247  28.381  1.00  0.00     0.010 A 
ATOM     37  C   UNL A   1      36.864  32.545  29.591  1.00  0.00    -0.014 A 
BRANCH  37  38
ATOM     38  C   UNL A   1      38.196  32.042  30.006  1.00  0.00     0.031 A 
ATOM     39  C   UNL A   1      38.693  30.719  29.497  1.00  0.00     0.074 A 
ATOM     40  C   UNL A   1      38.923  32.736  30.903  1.00  0.00     0.049 A 
ATOM     41  N   UNL A   1      39.793  30.078  29.801  1.00  0.00    -0.248 NA
ATOM     42  C   UNL A   1      37.825  30.009  28.542  1.00  0.00     0.031 C 
ATOM     43  C   UNL A   1      38.531  34.011  31.511  1.00  0.00     0.029 A 
ATOM     44  N   UNL A   1      40.142  32.461  31.469  1.00  0.00    -0.354 N 
ATOM     45  C   UNL A   1      39.742  28.888  29.089  1.00  0.00     0.074 A 
ATOM     46  C   UNL A   1      38.481  28.870  28.380  1.00  0.00     0.031 C 
ATOM     47  C   UNL A   1      39.502  34.416  32.346  1.00  0.00     0.029 A 
ATOM     48  C   UNL A   1      40.565  33.416  32.361  1.00  0.00     0.049 A 
ATOM     49  H   UNL A   1      40.665  31.654  31.255  1.00  0.00     0.167 HD
ATOM     50  C   UNL A   1      40.669  27.904  29.014  1.00  0.00     0.031 A 
ATOM     51  C   UNL A   1      41.680  33.477  33.112  1.00  0.00     0.031 A 
ATOM     52  C   UNL A   1      41.927  27.923  29.712  1.00  0.00     0.049 A 
ATOM     53  C   UNL A   1      42.693  32.370  33.017  1.00  0.00     0.074 A 
ATOM     54  C   UNL A   1      42.956  26.999  29.659  1.00  0.00     0.029 A 
ATOM     55  N   UNL A   1      42.324  28.918  30.592  1.00  0.00    -0.354 N 
ATOM     56  N   UNL A   1      42.661  31.283  32.285  1.00  0.00    -0.248 NA
ATOM     57  C   UNL A   1      43.901  32.506  33.844  1.00  0.00     0.031 C 
ATOM     58  C   UNL A   1      43.959  27.413  30.542  1.00  0.00     0.029 A 
ATOM     59  C   UNL A   1      43.577  28.620  31.104  1.00  0.00     0.049 A 
ATOM     60  H   UNL A   1      41.796  29.716  30.820  1.00  0.00     0.167 HD
ATOM     61  C   UNL A   1      43.854  30.618  32.543  1.00  0.00     0.074 A 
ATOM     62  C   UNL A   1      44.592  31.433  33.485  1.00  0.00     0.031 C 
ATOM     63  C   UNL A   1      44.297  29.441  32.042  1.00  0.00     0.031 A 
BRANCH  50  64
ATOM     64  C   UNL A   1      40.349  26.722  28.145  1.00  0.00    -0.014 A 
ATOM     65  C   UNL A   1      40.799  26.656  26.815  1.00  0.00     0.009 A 
ATOM     66  C   UNL A   1      39.608  25.650  28.664  1.00  0.00     0.009 A 
ATOM     67  C   UNL A   1      40.480  25.559  26.013  1.00  0.00     0.001 A 
ATOM     68  C   UNL A   1      39.314  24.541  27.868  1.00  0.00     0.001 A 
ATOM     69  C   UNL A   1      39.740  24.502  26.542  1.00  0.00     0.000 A 
ENDBRANCH  50  64
BRANCH  51  70
ATOM     70  C   UNL A   1      41.911  34.638  34.011  1.00  0.00    -0.014 A 
ATOM     71  C   UNL A   1      41.490  34.596  35.348  1.00  0.00     0.009 A 
ATOM     72  C   UNL A   1      42.546  35.795  33.535  1.00  0.00     0.009 A 
ATOM     73  C   UNL A   1      41.678  35.699  36.185  1.00  0.00     0.001 A 
ATOM     74  C   UNL A   1      42.758  36.886  34.380  1.00  0.00     0.001 A 
ATOM     75  C   UNL A   1      42.316  36.841  35.702  1.00  0.00     0.000 A 
ENDBRANCH  51  70
BRANCH  63  76
ATOM     76  C   UNL A   1      45.659  28.978  32.478  1.00  0.00    -0.014 A 
ATOM     77  C   UNL A   1      46.815  29.362  31.782  1.00  0.00     0.009 A 
ATOM     78  C   UNL A   1      45.787  28.182  33.626  1.00  0.00     0.009 A 
ATOM     79  C   UNL A   1      48.072  28.929  32.211  1.00  0.00     0.001 A 
ATOM     80  C   UNL A   1      47.045  27.773  34.068  1.00  0.00     0.001 A 
ATOM     81  C   UNL A   1      48.186  28.140  33.355  1.00  0.00     0.000 A 
ENDBRANCH  63  76
ENDBRANCH  37  38
ENDBRANCH  29  32
ENDBRANCH  27  28
ENDBRANCH  26  27
ENDBRANCH  25  26
ENDBRANCH   1  25
TORSDOF 17
ENDMDL
MODEL 3
REMARK VINA RESULT:     -10.6      2.150      3.891
REMARK SMILES CC(C)C[C@@H](CNc1ccc(C(N)=O)cc1)C(=O)NCCCCNC(=O)c1ccc(-c2c3nc(c(-c4ccccc4)c4ccc([nH]4)c(-c4ccccc4)c4nc(c(-c5ccccc5)c5ccc2[nH]5)C=C4)C=C3)cc1
REMARK SMILES IDX 20 1 19 2 17 3 18 4 5 6 4 7 2 8 1 9 3 10 6 11 7 12 8 14 9 15
REMARK SMILES IDX 16 16 10 17 15 18 11 19 12 20 13 21 14 22 21 25 22 26 23 27
REMARK SMILES IDX 24 28 25 29 26 31 27 32 28 33 74 34 29 35 73 36 30 37 31 38
REMARK SMILES IDX 32 39 67 40 33 41 72 42 66 43 68 44 34 45 71 46 65 47 64 48
REMARK SMILES IDX 35 50 57 51 42 52 56 53 43 54 46 55 55 56 69 57 44 58 45 59
REMARK SMILES IDX 54 61 70 62 47 63 36 64 37 65 41 66 38 67 40 68 39 69 58 70
REMARK SMILES IDX 59 71 63 72 60 73 62 74 61 75 48 76 49 77 53 78 50 79 52 80
REMARK SMILES IDX 51 81
REMARK H PARENT 19 5 7 13 13 23 13 24 24 30 68 49 46 60
REMARK Flexibility Score: inf
ROOT
ATOM      1  C   UNL A   1      32.908  26.219  26.144  1.00  0.00     0.116 C 
ENDROOT
BRANCH   1   2
ATOM      2  N   UNL A   1      32.515  24.936  26.679  1.00  0.00    -0.356 N 
ATOM      3  C   UNL A   1      32.879  23.685  26.279  1.00  0.00     0.224 C 
ATOM      4  O   UNL A   1      32.644  22.756  27.058  1.00  0.00    -0.275 OA
ATOM      5  H   UNL A   1      31.895  24.970  27.443  1.00  0.00     0.163 HD
BRANCH   3   6
ATOM      6  C   UNL A   1      33.517  23.398  24.916  1.00  0.00     0.098 C 
BRANCH   6   7
ATOM      7  C   UNL A   1      34.913  22.761  25.056  1.00  0.00     0.018 C 
BRANCH   7   8
ATOM      8  C   UNL A   1      36.104  23.575  24.526  1.00  0.00    -0.017 C 
ATOM      9  C   UNL A   1      37.212  23.734  25.565  1.00  0.00     0.007 C 
ATOM     10  C   UNL A   1      36.664  22.876  23.280  1.00  0.00     0.007 C 
ENDBRANCH   7   8
ENDBRANCH   6   7
BRANCH   6  11
ATOM     11  C   UNL A   1      32.514  22.829  23.896  1.00  0.00     0.126 C 
BRANCH  11  12
ATOM     12  N   UNL A   1      32.400  23.575  22.649  1.00  0.00    -0.384 N 
ATOM     13  H   UNL A   1      32.624  23.114  21.809  1.00  0.00     0.160 HD
BRANCH  12  14
ATOM     14  C   UNL A   1      31.996  24.899  22.579  1.00  0.00     0.034 A 
ATOM     15  C   UNL A   1      30.713  25.249  23.029  1.00  0.00     0.026 A 
ATOM     16  C   UNL A   1      32.836  25.939  22.173  1.00  0.00     0.026 A 
ATOM     17  C   UNL A   1      30.305  26.588  23.138  1.00  0.00     0.016 A 
ATOM     18  C   UNL A   1      32.426  27.278  22.239  1.00  0.00     0.016 A 
ATOM     19  C   UNL A   1      31.172  27.613  22.756  1.00  0.00     0.039 A 
BRANCH  19  20
ATOM     20  C   UNL A   1      30.819  29.055  22.862  1.00  0.00     0.248 C 
ATOM     21  N   UNL A   1      31.166  29.879  21.826  1.00  0.00    -0.366 N 
ATOM     22  O   UNL A   1      30.203  29.497  23.824  1.00  0.00    -0.270 OA
ATOM     23  H   UNL A   1      31.661  29.519  21.056  1.00  0.00     0.159 HD
ATOM     24  H   UNL A   1      30.920  30.832  21.853  1.00  0.00     0.159 HD
ENDBRANCH  19  20
ENDBRANCH  12  14
ENDBRANCH  11  12
ENDBRANCH   6  11
ENDBRANCH   3   6
ENDBRANCH   1   2
BRANCH   1  25
ATOM     25  C   UNL A   1      31.855  27.304  26.313  1.00  0.00     0.023 C 
BRANCH  25  26
ATOM     26  C   UNL A   1      32.411  28.725  26.327  1.00  0.00     0.023 C 
BRANCH  26  27
ATOM     27  C   UNL A   1      33.593  28.959  27.264  1.00  0.00     0.116 C 
BRANCH  27  28
ATOM     28  N   UNL A   1      33.652  30.304  27.823  1.00  0.00    -0.352 N 
ATOM     29  C   UNL A   1      34.721  30.931  28.424  1.00  0.00     0.251 C 
ATOM     30  H   UNL A   1      32.824  30.832  27.763  1.00  0.00     0.163 HD
ATOM     31  O   UNL A   1      34.615  32.056  28.886  1.00  0.00    -0.269 OA
BRANCH  29  32
ATOM     32  C   UNL A   1      35.996  30.194  28.534  1.00  0.00     0.039 A 
ATOM     33  C   UNL A   1      36.896  30.245  27.469  1.00  0.00     0.014 A 
ATOM     34  C   UNL A   1      36.329  29.543  29.724  1.00  0.00     0.014 A 
ATOM     35  C   UNL A   1      38.176  29.713  27.630  1.00  0.00     0.010 A 
ATOM     36  C   UNL A   1      37.626  29.078  29.906  1.00  0.00     0.010 A 
ATOM     37  C   UNL A   1      38.565  29.169  28.866  1.00  0.00    -0.014 A 
BRANCH  37  38
ATOM     38  C   UNL A   1      39.956  28.711  29.102  1.00  0.00     0.031 A 
ATOM     39  C   UNL A   1      40.966  29.650  29.699  1.00  0.00     0.074 A 
ATOM     40  C   UNL A   1      40.330  27.479  28.707  1.00  0.00     0.049 A 
ATOM     41  N   UNL A   1      42.243  29.460  29.914  1.00  0.00    -0.248 NA
ATOM     42  C   UNL A   1      40.482  30.988  30.078  1.00  0.00     0.031 C 
ATOM     43  C   UNL A   1      39.458  26.488  28.070  1.00  0.00     0.029 A 
ATOM     44  N   UNL A   1      41.549  26.853  28.772  1.00  0.00    -0.354 N 
ATOM     45  C   UNL A   1      42.716  30.655  30.437  1.00  0.00     0.074 A 
ATOM     46  C   UNL A   1      41.605  31.580  30.458  1.00  0.00     0.031 C 
ATOM     47  C   UNL A   1      40.164  25.373  27.826  1.00  0.00     0.029 A 
ATOM     48  C   UNL A   1      41.544  25.581  28.253  1.00  0.00     0.049 A 
ATOM     49  H   UNL A   1      42.352  27.275  29.156  1.00  0.00     0.167 HD
ATOM     50  C   UNL A   1      43.961  30.953  30.879  1.00  0.00     0.031 A 
ATOM     51  C   UNL A   1      42.541  24.685  28.129  1.00  0.00     0.031 A 
ATOM     52  C   UNL A   1      45.066  30.032  30.866  1.00  0.00     0.049 A 
ATOM     53  C   UNL A   1      43.916  25.040  28.621  1.00  0.00     0.074 A 
ATOM     54  C   UNL A   1      46.351  30.223  31.342  1.00  0.00     0.029 A 
ATOM     55  N   UNL A   1      45.015  28.747  30.348  1.00  0.00    -0.354 N 
ATOM     56  N   UNL A   1      44.332  26.152  29.177  1.00  0.00    -0.248 NA
ATOM     57  C   UNL A   1      44.956  24.010  28.479  1.00  0.00     0.031 C 
ATOM     58  C   UNL A   1      47.092  29.067  31.071  1.00  0.00     0.029 A 
ATOM     59  C   UNL A   1      46.253  28.139  30.475  1.00  0.00     0.049 A 
ATOM     60  H   UNL A   1      44.218  28.330  29.949  1.00  0.00     0.167 HD
ATOM     61  C   UNL A   1      45.674  25.947  29.475  1.00  0.00     0.074 A 
ATOM     62  C   UNL A   1      45.996  24.600  29.053  1.00  0.00     0.031 C 
ATOM     63  C   UNL A   1      46.558  26.798  30.048  1.00  0.00     0.031 A 
BRANCH  50  64
ATOM     64  C   UNL A   1      44.188  32.339  31.412  1.00  0.00    -0.014 A 
ATOM     65  C   UNL A   1      44.600  33.382  30.567  1.00  0.00     0.009 A 
ATOM     66  C   UNL A   1      43.967  32.612  32.770  1.00  0.00     0.009 A 
ATOM     67  C   UNL A   1      44.823  34.662  31.080  1.00  0.00     0.001 A 
ATOM     68  C   UNL A   1      44.163  33.898  33.275  1.00  0.00     0.001 A 
ATOM     69  C   UNL A   1      44.601  34.919  32.433  1.00  0.00     0.000 A 
ENDBRANCH  50  64
BRANCH  51  70
ATOM     70  C   UNL A   1      42.274  23.352  27.526  1.00  0.00    -0.014 A 
ATOM     71  C   UNL A   1      41.730  22.318  28.302  1.00  0.00     0.009 A 
ATOM     72  C   UNL A   1      42.566  23.107  26.175  1.00  0.00     0.009 A 
ATOM     73  C   UNL A   1      41.508  21.057  27.744  1.00  0.00     0.001 A 
ATOM     74  C   UNL A   1      42.318  21.854  25.613  1.00  0.00     0.001 A 
ATOM     75  C   UNL A   1      41.798  20.827  26.400  1.00  0.00     0.000 A 
ENDBRANCH  51  70
BRANCH  63  76
ATOM     76  C   UNL A   1      47.950  26.287  30.284  1.00  0.00    -0.014 A 
ATOM     77  C   UNL A   1      48.339  25.783  31.534  1.00  0.00     0.009 A 
ATOM     78  C   UNL A   1      48.872  26.271  29.225  1.00  0.00     0.009 A 
ATOM     79  C   UNL A   1      49.636  25.302  31.727  1.00  0.00     0.001 A 
ATOM     80  C   UNL A   1      50.158  25.766  29.414  1.00  0.00     0.001 A 
ATOM     81  C   UNL A   1      50.542  25.289  30.667  1.00  0.00     0.000 A 
ENDBRANCH  63  76
ENDBRANCH  37  38
ENDBRANCH  29  32
ENDBRANCH  27  28
ENDBRANCH  26  27
ENDBRANCH  25  26
ENDBRANCH   1  25
TORSDOF 17
ENDMDL
