MODEL 1
REMARK VINA RESULT:     -13.1      0.000      0.000
REMARK SMILES Cc1ccccc1C(=O)Nc1ccc(N2CCCCC2)cc1C(=O)NCCCCNC(=O)c1ccc(-c2c3nc(c(-c4ccccc4)c4ccc([nH]4)c(-c4ccccc4)c4nc(c(-c5ccccc5)c5ccc2[nH]5)C=C4)C=C3)cc1
REMARK SMILES IDX 27 1 26 2 25 3 23 4 24 5 22 7 11 8 12 9 13 10 21 11 14 12
REMARK SMILES IDX 10 13 8 14 9 15 7 17 1 18 2 19 3 20 4 21 6 22 5 23 15 24
REMARK SMILES IDX 16 25 20 26 17 27 19 28 18 29 28 30 29 31 30 32 31 33 32 35
REMARK SMILES IDX 33 36 34 37 80 38 35 39 79 40 36 41 37 42 38 43 73 44 39 45
REMARK SMILES IDX 78 46 72 47 74 48 40 49 77 50 71 51 70 52 41 54 63 55 48 56
REMARK SMILES IDX 62 57 49 58 52 59 61 60 75 61 50 62 51 63 60 65 76 66 53 67
REMARK SMILES IDX 42 68 43 69 47 70 44 71 46 72 45 73 64 74 65 75 69 76 66 77
REMARK SMILES IDX 68 78 67 79 54 80 55 81 59 82 56 83 58 84 57 85
REMARK H PARENT 25 6 10 16 30 34 74 53 52 64
REMARK Flexibility Score: inf
ROOT
ATOM      1  C   UNL A   1      35.391  29.394  27.060  1.00  0.00     0.023 C 
ENDROOT
BRANCH   1   2
ATOM      2  C   UNL A   1      34.126  28.715  26.537  1.00  0.00     0.116 C 
BRANCH   2   3
ATOM      3  N   UNL A   1      33.058  28.530  27.515  1.00  0.00    -0.352 N 
ATOM      4  C   UNL A   1      31.758  28.075  27.411  1.00  0.00     0.253 C 
ATOM      5  O   UNL A   1      31.105  27.944  28.446  1.00  0.00    -0.269 OA
ATOM      6  H   UNL A   1      33.316  28.780  28.431  1.00  0.00     0.163 HD
BRANCH   4   7
ATOM      7  C   UNL A   1      31.139  27.742  26.104  1.00  0.00     0.065 A 
ATOM      8  C   UNL A   1      30.792  26.432  25.725  1.00  0.00     0.054 A 
ATOM      9  C   UNL A   1      30.278  26.214  24.437  1.00  0.00     0.029 A 
ATOM     10  C   UNL A   1      29.936  27.286  23.621  1.00  0.00     0.028 A 
ATOM     11  C   UNL A   1      30.971  28.778  25.167  1.00  0.00     0.042 A 
ATOM     12  C   UNL A   1      30.229  28.594  24.001  1.00  0.00     0.038 A 
BRANCH   8  13
ATOM     13  N   UNL A   1      30.850  25.261  26.493  1.00  0.00    -0.321 N 
ATOM     14  C   UNL A   1      31.572  24.100  26.411  1.00  0.00     0.255 C 
ATOM     15  O   UNL A   1      31.283  23.194  27.199  1.00  0.00    -0.269 OA
ATOM     16  H   UNL A   1      30.236  25.275  27.263  1.00  0.00     0.170 HD
BRANCH  14  17
ATOM     17  C   UNL A   1      32.767  23.902  25.547  1.00  0.00     0.043 A 
ATOM     18  C   UNL A   1      31.559  22.865  23.514  1.00  0.00     0.045 C 
ATOM     19  C   UNL A   1      32.766  23.395  24.232  1.00  0.00    -0.038 A 
ATOM     20  C   UNL A   1      33.977  23.395  23.510  1.00  0.00     0.004 A 
ATOM     21  C   UNL A   1      35.147  23.934  24.046  1.00  0.00     0.000 A 
ATOM     22  C   UNL A   1      33.953  24.462  26.064  1.00  0.00     0.014 A 
ATOM     23  C   UNL A   1      35.132  24.481  25.321  1.00  0.00     0.001 A 
ENDBRANCH  14  17
ENDBRANCH   8  13
BRANCH  12  24
ATOM     24  N   UNL A   1      29.683  29.652  23.281  1.00  0.00    -0.372 N 
ATOM     25  C   UNL A   1      29.633  30.915  24.039  1.00  0.00     0.116 C 
ATOM     26  C   UNL A   1      29.963  29.796  21.855  1.00  0.00     0.116 C 
ATOM     27  C   UNL A   1      28.562  31.826  23.450  1.00  0.00     0.021 C 
ATOM     28  C   UNL A   1      28.877  30.672  21.229  1.00  0.00     0.021 C 
ATOM     29  C   UNL A   1      28.753  32.016  21.947  1.00  0.00     0.004 C 
ENDBRANCH  12  24
ENDBRANCH   4   7
ENDBRANCH   2   3
ENDBRANCH   1   2
BRANCH   1  30
ATOM     30  C   UNL A   1      35.197  30.410  28.175  1.00  0.00     0.023 C 
BRANCH  30  31
ATOM     31  C   UNL A   1      35.262  31.859  27.720  1.00  0.00     0.116 C 
BRANCH  31  32
ATOM     32  N   UNL A   1      34.258  32.729  28.330  1.00  0.00    -0.352 N 
ATOM     33  C   UNL A   1      34.369  33.512  29.471  1.00  0.00     0.251 C 
ATOM     34  H   UNL A   1      33.388  32.763  27.871  1.00  0.00     0.163 HD
ATOM     35  O   UNL A   1      33.451  34.229  29.832  1.00  0.00    -0.269 OA
BRANCH  33  36
ATOM     36  C   UNL A   1      35.677  33.560  30.166  1.00  0.00     0.039 A 
ATOM     37  C   UNL A   1      36.736  34.201  29.519  1.00  0.00     0.014 A 
ATOM     38  C   UNL A   1      35.908  32.754  31.278  1.00  0.00     0.014 A 
ATOM     39  C   UNL A   1      38.038  33.808  29.809  1.00  0.00     0.010 A 
ATOM     40  C   UNL A   1      37.188  32.282  31.489  1.00  0.00     0.010 A 
ATOM     41  C   UNL A   1      38.240  32.752  30.697  1.00  0.00    -0.014 A 
BRANCH  41  42
ATOM     42  C   UNL A   1      39.473  31.971  30.721  1.00  0.00     0.031 A 
ATOM     43  C   UNL A   1      39.596  30.716  29.957  1.00  0.00     0.074 A 
ATOM     44  C   UNL A   1      40.543  32.436  31.405  1.00  0.00     0.049 A 
ATOM     45  N   UNL A   1      40.450  29.788  30.230  1.00  0.00    -0.248 NA
ATOM     46  C   UNL A   1      38.715  30.383  28.845  1.00  0.00     0.031 C 
ATOM     47  C   UNL A   1      41.923  31.964  31.335  1.00  0.00     0.029 A 
ATOM     48  N   UNL A   1      40.528  33.307  32.498  1.00  0.00    -0.354 N 
ATOM     49  C   UNL A   1      40.441  28.900  29.182  1.00  0.00     0.074 A 
ATOM     50  C   UNL A   1      39.286  29.264  28.394  1.00  0.00     0.031 C 
ATOM     51  C   UNL A   1      42.556  32.317  32.465  1.00  0.00     0.029 A 
ATOM     52  C   UNL A   1      41.565  32.888  33.359  1.00  0.00     0.049 A 
ATOM     53  H   UNL A   1      39.916  34.064  32.639  1.00  0.00     0.167 HD
ATOM     54  C   UNL A   1      41.485  28.039  29.023  1.00  0.00     0.031 A 
ATOM     55  C   UNL A   1      41.283  32.432  34.615  1.00  0.00     0.031 A 
ATOM     56  C   UNL A   1      42.450  28.119  30.121  1.00  0.00     0.049 A 
ATOM     57  C   UNL A   1      41.674  30.987  34.868  1.00  0.00     0.074 A 
ATOM     58  C   UNL A   1      43.724  28.645  30.264  1.00  0.00     0.029 A 
ATOM     59  N   UNL A   1      42.017  27.823  31.405  1.00  0.00    -0.354 N 
ATOM     60  N   UNL A   1      42.194  30.191  33.977  1.00  0.00    -0.248 NA
ATOM     61  C   UNL A   1      41.400  30.297  36.130  1.00  0.00     0.031 C 
ATOM     62  C   UNL A   1      44.054  28.649  31.651  1.00  0.00     0.029 A 
ATOM     63  C   UNL A   1      42.985  28.117  32.345  1.00  0.00     0.049 A 
ATOM     64  H   UNL A   1      41.132  27.451  31.619  1.00  0.00     0.167 HD
ATOM     65  C   UNL A   1      42.272  28.920  34.486  1.00  0.00     0.074 A 
ATOM     66  C   UNL A   1      41.768  29.038  35.841  1.00  0.00     0.031 C 
ATOM     67  C   UNL A   1      42.694  27.855  33.745  1.00  0.00     0.031 A 
BRANCH  54  68
ATOM     68  C   UNL A   1      41.747  27.290  27.737  1.00  0.00    -0.014 A 
ATOM     69  C   UNL A   1      40.790  26.380  27.254  1.00  0.00     0.009 A 
ATOM     70  C   UNL A   1      42.928  27.394  26.983  1.00  0.00     0.009 A 
ATOM     71  C   UNL A   1      41.042  25.549  26.153  1.00  0.00     0.001 A 
ATOM     72  C   UNL A   1      43.208  26.537  25.909  1.00  0.00     0.001 A 
ATOM     73  C   UNL A   1      42.266  25.604  25.502  1.00  0.00     0.000 A 
ENDBRANCH  54  68
BRANCH  55  74
ATOM     74  C   UNL A   1      40.117  33.116  35.242  1.00  0.00    -0.014 A 
ATOM     75  C   UNL A   1      38.835  32.559  35.057  1.00  0.00     0.009 A 
ATOM     76  C   UNL A   1      40.295  34.064  36.258  1.00  0.00     0.009 A 
ATOM     77  C   UNL A   1      37.791  32.855  35.940  1.00  0.00     0.001 A 
ATOM     78  C   UNL A   1      39.244  34.368  37.131  1.00  0.00     0.001 A 
ATOM     79  C   UNL A   1      38.006  33.739  36.993  1.00  0.00     0.000 A 
ENDBRANCH  55  74
BRANCH  67  80
ATOM     80  C   UNL A   1      42.820  26.444  34.262  1.00  0.00    -0.014 A 
ATOM     81  C   UNL A   1      43.853  25.577  33.883  1.00  0.00     0.009 A 
ATOM     82  C   UNL A   1      41.802  25.902  35.075  1.00  0.00     0.009 A 
ATOM     83  C   UNL A   1      43.904  24.258  34.357  1.00  0.00     0.001 A 
ATOM     84  C   UNL A   1      41.835  24.582  35.529  1.00  0.00     0.001 A 
ATOM     85  C   UNL A   1      42.897  23.762  35.181  1.00  0.00     0.000 A 
ENDBRANCH  67  80
ENDBRANCH  41  42
ENDBRANCH  33  36
ENDBRANCH  31  32
ENDBRANCH  30  31
ENDBRANCH   1  30
TORSDOF 14
ENDMDL
MODEL 2
REMARK VINA RESULT:     -11.8      1.993      3.179
REMARK SMILES Cc1ccccc1C(=O)Nc1ccc(N2CCCCC2)cc1C(=O)NCCCCNC(=O)c1ccc(-c2c3nc(c(-c4ccccc4)c4ccc([nH]4)c(-c4ccccc4)c4nc(c(-c5ccccc5)c5ccc2[nH]5)C=C4)C=C3)cc1
REMARK SMILES IDX 27 1 26 2 25 3 23 4 24 5 22 7 11 8 12 9 13 10 21 11 14 12
REMARK SMILES IDX 10 13 8 14 9 15 7 17 1 18 2 19 3 20 4 21 6 22 5 23 15 24
REMARK SMILES IDX 16 25 20 26 17 27 19 28 18 29 28 30 29 31 30 32 31 33 32 35
REMARK SMILES IDX 33 36 34 37 80 38 35 39 79 40 36 41 37 42 38 43 73 44 39 45
REMARK SMILES IDX 78 46 72 47 74 48 40 49 77 50 71 51 70 52 41 54 63 55 48 56
REMARK SMILES IDX 62 57 49 58 52 59 61 60 75 61 50 62 51 63 60 65 76 66 53 67
REMARK SMILES IDX 42 68 43 69 47 70 44 71 46 72 45 73 64 74 65 75 69 76 66 77
REMARK SMILES IDX 68 78 67 79 54 80 55 81 59 82 56 83 58 84 57 85
REMARK H PARENT 25 6 10 16 30 34 74 53 52 64
REMARK Flexibility Score: inf
ROOT
ATOM      1  C   UNL A   1      34.975  31.040  28.156  1.00  0.00     0.023 C 
ENDROOT
BRANCH   1   2
ATOM      2  C   UNL A   1      33.838  30.613  27.229  1.00  0.00     0.116 C 
BRANCH   2   3
ATOM      3  N   UNL A   1      33.077  29.445  27.660  1.00  0.00    -0.352 N 
ATOM      4  C   UNL A   1      32.398  28.458  26.970  1.00  0.00     0.253 C 
ATOM      5  O   UNL A   1      31.911  27.531  27.614  1.00  0.00    -0.269 OA
ATOM      6  H   UNL A   1      33.040  29.338  28.638  1.00  0.00     0.163 HD
BRANCH   4   7
ATOM      7  C   UNL A   1      32.246  28.489  25.494  1.00  0.00     0.065 A 
ATOM      8  C   UNL A   1      33.035  27.717  24.621  1.00  0.00     0.054 A 
ATOM      9  C   UNL A   1      32.861  27.872  23.236  1.00  0.00     0.029 A 
ATOM     10  C   UNL A   1      31.804  28.623  22.735  1.00  0.00     0.028 A 
ATOM     11  C   UNL A   1      31.326  29.397  24.940  1.00  0.00     0.042 A 
ATOM     12  C   UNL A   1      30.983  29.357  23.589  1.00  0.00     0.038 A 
BRANCH   8  13
ATOM     13  N   UNL A   1      33.988  26.740  24.944  1.00  0.00    -0.321 N 
ATOM     14  C   UNL A   1      33.916  25.447  25.387  1.00  0.00     0.255 C 
ATOM     15  O   UNL A   1      34.976  24.894  25.702  1.00  0.00    -0.269 OA
ATOM     16  H   UNL A   1      34.914  27.054  24.827  1.00  0.00     0.170 HD
BRANCH  14  17
ATOM     17  C   UNL A   1      32.684  24.613  25.381  1.00  0.00     0.043 A 
ATOM     18  C   UNL A   1      32.521  24.251  22.830  1.00  0.00     0.045 C 
ATOM     19  C   UNL A   1      32.079  24.034  24.248  1.00  0.00    -0.038 A 
ATOM     20  C   UNL A   1      30.986  23.164  24.440  1.00  0.00     0.004 A 
ATOM     21  C   UNL A   1      30.536  22.826  25.716  1.00  0.00     0.000 A 
ATOM     22  C   UNL A   1      32.230  24.243  26.664  1.00  0.00     0.014 A 
ATOM     23  C   UNL A   1      31.168  23.357  26.832  1.00  0.00     0.001 A 
ENDBRANCH  14  17
ENDBRANCH   8  13
BRANCH  12  24
ATOM     24  N   UNL A   1      29.809  29.916  23.093  1.00  0.00    -0.372 N 
ATOM     25  C   UNL A   1      29.281  31.010  23.926  1.00  0.00     0.116 C 
ATOM     26  C   UNL A   1      29.624  30.087  21.655  1.00  0.00     0.116 C 
ATOM     27  C   UNL A   1      27.787  31.176  23.671  1.00  0.00     0.021 C 
ATOM     28  C   UNL A   1      28.128  30.213  21.365  1.00  0.00     0.021 C 
ATOM     29  C   UNL A   1      27.488  31.335  22.182  1.00  0.00     0.004 C 
ENDBRANCH  12  24
ENDBRANCH   4   7
ENDBRANCH   2   3
ENDBRANCH   1   2
BRANCH   1  30
ATOM     30  C   UNL A   1      34.618  32.048  29.237  1.00  0.00     0.023 C 
BRANCH  30  31
ATOM     31  C   UNL A   1      35.618  33.182  29.393  1.00  0.00     0.116 C 
BRANCH  31  32
ATOM     32  N   UNL A   1      36.111  33.369  30.756  1.00  0.00    -0.352 N 
ATOM     33  C   UNL A   1      37.000  32.577  31.471  1.00  0.00     0.251 C 
ATOM     34  H   UNL A   1      35.766  34.160  31.230  1.00  0.00     0.163 HD
ATOM     35  O   UNL A   1      37.358  32.891  32.594  1.00  0.00    -0.269 OA
BRANCH  33  36
ATOM     36  C   UNL A   1      37.610  31.412  30.787  1.00  0.00     0.039 A 
ATOM     37  C   UNL A   1      37.641  30.196  31.474  1.00  0.00     0.014 A 
ATOM     38  C   UNL A   1      38.370  31.596  29.636  1.00  0.00     0.014 A 
ATOM     39  C   UNL A   1      38.641  29.278  31.171  1.00  0.00     0.010 A 
ATOM     40  C   UNL A   1      39.430  30.741  29.407  1.00  0.00     0.010 A 
ATOM     41  C   UNL A   1      39.610  29.624  30.230  1.00  0.00    -0.014 A 
BRANCH  41  42
ATOM     42  C   UNL A   1      40.916  28.976  30.171  1.00  0.00     0.031 A 
ATOM     43  C   UNL A   1      41.099  27.693  29.469  1.00  0.00     0.074 A 
ATOM     44  C   UNL A   1      41.990  29.591  30.717  1.00  0.00     0.049 A 
ATOM     45  N   UNL A   1      42.070  26.876  29.704  1.00  0.00    -0.248 NA
ATOM     46  C   UNL A   1      40.157  27.200  28.473  1.00  0.00     0.031 C 
ATOM     47  C   UNL A   1      43.400  29.258  30.533  1.00  0.00     0.029 A 
ATOM     48  N   UNL A   1      41.986  30.526  31.756  1.00  0.00    -0.354 N 
ATOM     49  C   UNL A   1      42.057  25.925  28.713  1.00  0.00     0.074 A 
ATOM     50  C   UNL A   1      40.799  26.117  28.028  1.00  0.00     0.031 C 
ATOM     51  C   UNL A   1      44.096  29.746  31.571  1.00  0.00     0.029 A 
ATOM     52  C   UNL A   1      43.139  30.271  32.528  1.00  0.00     0.049 A 
ATOM     53  H   UNL A   1      41.312  31.224  31.916  1.00  0.00     0.167 HD
ATOM     54  C   UNL A   1      43.168  25.166  28.497  1.00  0.00     0.031 A 
ATOM     55  C   UNL A   1      43.029  29.872  33.830  1.00  0.00     0.031 A 
ATOM     56  C   UNL A   1      44.218  25.415  29.486  1.00  0.00     0.049 A 
ATOM     57  C   UNL A   1      43.595  28.494  34.121  1.00  0.00     0.074 A 
ATOM     58  C   UNL A   1      45.437  26.076  29.469  1.00  0.00     0.029 A 
ATOM     59  N   UNL A   1      43.944  25.162  30.821  1.00  0.00    -0.354 N 
ATOM     60  N   UNL A   1      44.110  27.698  33.227  1.00  0.00    -0.248 NA
ATOM     61  C   UNL A   1      43.518  27.865  35.441  1.00  0.00     0.031 C 
ATOM     62  C   UNL A   1      45.895  26.204  30.812  1.00  0.00     0.029 A 
ATOM     63  C   UNL A   1      44.960  25.613  31.640  1.00  0.00     0.049 A 
ATOM     64  H   UNL A   1      43.129  24.716  31.144  1.00  0.00     0.167 HD
ATOM     65  C   UNL A   1      44.373  26.478  33.795  1.00  0.00     0.074 A 
ATOM     66  C   UNL A   1      43.990  26.633  35.186  1.00  0.00     0.031 C 
ATOM     67  C   UNL A   1      44.834  25.415  33.074  1.00  0.00     0.031 A 
BRANCH  54  68
ATOM     68  C   UNL A   1      43.385  24.365  27.234  1.00  0.00    -0.014 A 
ATOM     69  C   UNL A   1      44.124  24.921  26.175  1.00  0.00     0.009 A 
ATOM     70  C   UNL A   1      42.851  23.087  27.002  1.00  0.00     0.009 A 
ATOM     71  C   UNL A   1      44.230  24.289  24.928  1.00  0.00     0.001 A 
ATOM     72  C   UNL A   1      42.913  22.466  25.746  1.00  0.00     0.001 A 
ATOM     73  C   UNL A   1      43.594  23.077  24.703  1.00  0.00     0.000 A 
ENDBRANCH  54  68
BRANCH  55  74
ATOM     74  C   UNL A   1      41.861  30.474  34.533  1.00  0.00    -0.014 A 
ATOM     75  C   UNL A   1      41.948  31.821  34.943  1.00  0.00     0.009 A 
ATOM     76  C   UNL A   1      40.599  29.868  34.492  1.00  0.00     0.009 A 
ATOM     77  C   UNL A   1      40.794  32.571  35.189  1.00  0.00     0.001 A 
ATOM     78  C   UNL A   1      39.447  30.618  34.753  1.00  0.00     0.001 A 
ATOM     79  C   UNL A   1      39.543  31.975  35.066  1.00  0.00     0.000 A 
ENDBRANCH  55  74
BRANCH  67  80
ATOM     80  C   UNL A   1      45.160  24.061  33.653  1.00  0.00    -0.014 A 
ATOM     81  C   UNL A   1      44.196  23.069  33.877  1.00  0.00     0.009 A 
ATOM     82  C   UNL A   1      46.468  23.791  34.109  1.00  0.00     0.009 A 
ATOM     83  C   UNL A   1      44.540  21.841  34.459  1.00  0.00     0.001 A 
ATOM     84  C   UNL A   1      46.810  22.578  34.712  1.00  0.00     0.001 A 
ATOM     85  C   UNL A   1      45.847  21.595  34.873  1.00  0.00     0.000 A 
ENDBRANCH  67  80
ENDBRANCH  41  42
ENDBRANCH  33  36
ENDBRANCH  31  32
ENDBRANCH  30  31
ENDBRANCH   1  30
TORSDOF 14
ENDMDL
MODEL 3
REMARK VINA RESULT:     -11.4      2.349      6.521
REMARK SMILES Cc1ccccc1C(=O)Nc1ccc(N2CCCCC2)cc1C(=O)NCCCCNC(=O)c1ccc(-c2c3nc(c(-c4ccccc4)c4ccc([nH]4)c(-c4ccccc4)c4nc(c(-c5ccccc5)c5ccc2[nH]5)C=C4)C=C3)cc1
REMARK SMILES IDX 27 1 26 2 25 3 23 4 24 5 22 7 11 8 12 9 13 10 21 11 14 12
REMARK SMILES IDX 10 13 8 14 9 15 7 17 1 18 2 19 3 20 4 21 6 22 5 23 15 24
REMARK SMILES IDX 16 25 20 26 17 27 19 28 18 29 28 30 29 31 30 32 31 33 32 35
REMARK SMILES IDX 33 36 34 37 80 38 35 39 79 40 36 41 37 42 38 43 73 44 39 45
REMARK SMILES IDX 78 46 72 47 74 48 40 49 77 50 71 51 70 52 41 54 63 55 48 56
REMARK SMILES IDX 62 57 49 58 52 59 61 60 75 61 50 62 51 63 60 65 76 66 53 67
REMARK SMILES IDX 42 68 43 69 47 70 44 71 46 72 45 73 64 74 65 75 69 76 66 77
REMARK SMILES IDX 68 78 67 79 54 80 55 81 59 82 56 83 58 84 57 85
REMARK H PARENT 25 6 10 16 30 34 74 53 52 64
REMARK Flexibility Score: inf
ROOT
ATOM      1  C   UNL A   1      35.065  30.973  27.977  1.00  0.00     0.023 C 
ENDROOT
BRANCH   1   2
ATOM      2  C   UNL A   1      34.770  29.569  27.451  1.00  0.00     0.116 C 
BRANCH   2   3
ATOM      3  N   UNL A   1      33.519  28.973  27.911  1.00  0.00    -0.352 N 
ATOM      4  C   UNL A   1      32.431  28.440  27.244  1.00  0.00     0.253 C 
ATOM      5  O   UNL A   1      31.539  27.921  27.913  1.00  0.00    -0.269 OA
ATOM      6  H   UNL A   1      33.433  28.945  28.891  1.00  0.00     0.163 HD
BRANCH   4   7
ATOM      7  C   UNL A   1      32.317  28.476  25.765  1.00  0.00     0.065 A 
ATOM      8  C   UNL A   1      33.143  27.726  24.908  1.00  0.00     0.054 A 
ATOM      9  C   UNL A   1      33.001  27.885  23.521  1.00  0.00     0.029 A 
ATOM     10  C   UNL A   1      31.941  28.618  22.997  1.00  0.00     0.028 A 
ATOM     11  C   UNL A   1      31.392  29.369  25.194  1.00  0.00     0.042 A 
ATOM     12  C   UNL A   1      31.084  29.330  23.834  1.00  0.00     0.038 A 
BRANCH   8  13
ATOM     13  N   UNL A   1      34.107  26.767  25.250  1.00  0.00    -0.321 N 
ATOM     14  C   UNL A   1      34.123  25.398  25.282  1.00  0.00     0.255 C 
ATOM     15  O   UNL A   1      35.121  24.852  25.765  1.00  0.00    -0.269 OA
ATOM     16  H   UNL A   1      34.963  27.166  25.529  1.00  0.00     0.170 HD
BRANCH  14  17
ATOM     17  C   UNL A   1      33.099  24.522  24.652  1.00  0.00     0.043 A 
ATOM     18  C   UNL A   1      31.276  24.754  26.466  1.00  0.00     0.045 C 
ATOM     19  C   UNL A   1      31.806  24.266  25.149  1.00  0.00    -0.038 A 
ATOM     20  C   UNL A   1      30.917  23.511  24.356  1.00  0.00     0.004 A 
ATOM     21  C   UNL A   1      31.271  23.069  23.081  1.00  0.00     0.000 A 
ATOM     22  C   UNL A   1      33.432  24.086  23.353  1.00  0.00     0.014 A 
ATOM     23  C   UNL A   1      32.528  23.369  22.573  1.00  0.00     0.001 A 
ENDBRANCH  14  17
ENDBRANCH   8  13
BRANCH  12  24
ATOM     24  N   UNL A   1      29.912  29.867  23.312  1.00  0.00    -0.372 N 
ATOM     25  C   UNL A   1      29.494  31.117  23.969  1.00  0.00     0.116 C 
ATOM     26  C   UNL A   1      29.646  29.803  21.877  1.00  0.00     0.116 C 
ATOM     27  C   UNL A   1      27.997  31.329  23.769  1.00  0.00     0.021 C 
ATOM     28  C   UNL A   1      28.144  29.969  21.649  1.00  0.00     0.021 C 
ATOM     29  C   UNL A   1      27.614  31.251  22.293  1.00  0.00     0.004 C 
ENDBRANCH  12  24
ENDBRANCH   4   7
ENDBRANCH   2   3
ENDBRANCH   1   2
BRANCH   1  30
ATOM     30  C   UNL A   1      33.888  31.935  28.022  1.00  0.00     0.023 C 
BRANCH  30  31
ATOM     31  C   UNL A   1      34.264  33.397  27.841  1.00  0.00     0.116 C 
BRANCH  31  32
ATOM     32  N   UNL A   1      33.890  34.260  28.960  1.00  0.00    -0.352 N 
ATOM     33  C   UNL A   1      34.305  34.192  30.283  1.00  0.00     0.251 C 
ATOM     34  H   UNL A   1      33.259  34.985  28.746  1.00  0.00     0.163 HD
ATOM     35  O   UNL A   1      33.940  35.020  31.099  1.00  0.00    -0.269 OA
BRANCH  33  36
ATOM     36  C   UNL A   1      35.311  33.167  30.651  1.00  0.00     0.039 A 
ATOM     37  C   UNL A   1      35.004  32.301  31.704  1.00  0.00     0.014 A 
ATOM     38  C   UNL A   1      36.610  33.255  30.161  1.00  0.00     0.014 A 
ATOM     39  C   UNL A   1      36.044  31.746  32.443  1.00  0.00     0.010 A 
ATOM     40  C   UNL A   1      37.643  32.798  30.956  1.00  0.00     0.010 A 
ATOM     41  C   UNL A   1      37.355  32.114  32.141  1.00  0.00    -0.014 A 
BRANCH  41  42
ATOM     42  C   UNL A   1      38.449  31.978  33.098  1.00  0.00     0.031 A 
ATOM     43  C   UNL A   1      38.924  33.132  33.882  1.00  0.00     0.074 A 
ATOM     44  C   UNL A   1      38.996  30.761  33.315  1.00  0.00     0.049 A 
ATOM     45  N   UNL A   1      40.096  33.205  34.417  1.00  0.00    -0.248 NA
ATOM     46  C   UNL A   1      38.122  34.333  34.077  1.00  0.00     0.031 C 
ATOM     47  C   UNL A   1      39.888  30.361  34.400  1.00  0.00     0.029 A 
ATOM     48  N   UNL A   1      39.022  29.679  32.429  1.00  0.00    -0.354 N 
ATOM     49  C   UNL A   1      40.097  34.291  35.257  1.00  0.00     0.074 A 
ATOM     50  C   UNL A   1      38.883  35.009  34.942  1.00  0.00     0.031 C 
ATOM     51  C   UNL A   1      40.577  29.277  34.014  1.00  0.00     0.029 A 
ATOM     52  C   UNL A   1      40.264  29.036  32.617  1.00  0.00     0.049 A 
ATOM     53  H   UNL A   1      38.313  29.418  31.799  1.00  0.00     0.167 HD
ATOM     54  C   UNL A   1      41.057  34.395  36.218  1.00  0.00     0.031 A 
ATOM     55  C   UNL A   1      41.178  28.983  31.604  1.00  0.00     0.031 A 
ATOM     56  C   UNL A   1      42.061  33.334  36.124  1.00  0.00     0.049 A 
ATOM     57  C   UNL A   1      42.489  29.690  31.895  1.00  0.00     0.074 A 
ATOM     58  C   UNL A   1      42.344  32.191  36.855  1.00  0.00     0.029 A 
ATOM     59  N   UNL A   1      42.816  33.237  34.965  1.00  0.00    -0.354 N 
ATOM     60  N   UNL A   1      42.752  30.351  32.987  1.00  0.00    -0.248 NA
ATOM     61  C   UNL A   1      43.571  29.795  30.914  1.00  0.00     0.031 C 
ATOM     62  C   UNL A   1      43.288  31.413  36.122  1.00  0.00     0.029 A 
ATOM     63  C   UNL A   1      43.583  32.089  34.954  1.00  0.00     0.049 A 
ATOM     64  H   UNL A   1      42.805  33.903  34.240  1.00  0.00     0.167 HD
ATOM     65  C   UNL A   1      43.953  30.998  32.856  1.00  0.00     0.074 A 
ATOM     66  C   UNL A   1      44.432  30.615  31.541  1.00  0.00     0.031 C 
ATOM     67  C   UNL A   1      44.443  31.841  33.810  1.00  0.00     0.031 A 
BRANCH  54  68
ATOM     68  C   UNL A   1      40.945  35.334  37.398  1.00  0.00    -0.014 A 
ATOM     69  C   UNL A   1      41.905  36.346  37.576  1.00  0.00     0.009 A 
ATOM     70  C   UNL A   1      39.956  35.247  38.391  1.00  0.00     0.009 A 
ATOM     71  C   UNL A   1      41.939  37.145  38.727  1.00  0.00     0.001 A 
ATOM     72  C   UNL A   1      40.005  36.012  39.566  1.00  0.00     0.001 A 
ATOM     73  C   UNL A   1      41.008  36.954  39.738  1.00  0.00     0.000 A 
ENDBRANCH  54  68
BRANCH  55  74
ATOM     74  C   UNL A   1      40.556  28.872  30.254  1.00  0.00    -0.014 A 
ATOM     75  C   UNL A   1      40.139  27.600  29.811  1.00  0.00     0.009 A 
ATOM     76  C   UNL A   1      40.077  30.005  29.584  1.00  0.00     0.009 A 
ATOM     77  C   UNL A   1      39.178  27.472  28.803  1.00  0.00     0.001 A 
ATOM     78  C   UNL A   1      39.127  29.872  28.565  1.00  0.00     0.001 A 
ATOM     79  C   UNL A   1      38.652  28.611  28.200  1.00  0.00     0.000 A 
ENDBRANCH  55  74
BRANCH  67  80
ATOM     80  C   UNL A   1      45.766  32.558  33.726  1.00  0.00    -0.014 A 
ATOM     81  C   UNL A   1      46.915  32.135  34.407  1.00  0.00     0.009 A 
ATOM     82  C   UNL A   1      45.856  33.783  33.030  1.00  0.00     0.009 A 
ATOM     83  C   UNL A   1      48.112  32.860  34.332  1.00  0.00     0.001 A 
ATOM     84  C   UNL A   1      47.040  34.522  32.973  1.00  0.00     0.001 A 
ATOM     85  C   UNL A   1      48.175  34.051  33.614  1.00  0.00     0.000 A 
ENDBRANCH  67  80
ENDBRANCH  41  42
ENDBRANCH  33  36
ENDBRANCH  31  32
ENDBRANCH  30  31
ENDBRANCH   1  30
TORSDOF 14
ENDMDL
