MODEL 1
REMARK VINA RESULT:     -11.7      0.000      0.000
REMARK SMILES Cc1n[nH]c2c1[C@@]1(C(=O)N([C@@H](C)C(=O)NCCCCNC(=O)c3ccc(-c4c5nc(c(-c6ccccc6)c6ccc([nH]6)c(-c6ccccc6)c6nc(c(-c7ccccc7)c7ccc4[nH]7)C=C6)C=C5)cc3)c3ccccc31)C(C#N)=C(N)O2
REMARK SMILES IDX 17 1 16 2 15 3 13 4 14 5 11 7 12 8 10 9 1 10 2 11 3 12 6 13
REMARK SMILES IDX 4 14 5 15 7 16 82 18 8 19 76 20 77 21 80 22 9 23 71 24 75 25
REMARK SMILES IDX 72 26 74 27 73 28 78 29 79 30 81 31 18 34 19 35 20 36 21 37
REMARK SMILES IDX 22 39 23 40 24 41 70 42 25 43 69 44 26 45 27 46 28 47 63 48
REMARK SMILES IDX 29 49 68 50 62 51 64 52 30 53 67 54 61 55 60 56 31 58 53 59
REMARK SMILES IDX 38 60 52 61 39 62 42 63 51 64 65 65 40 66 41 67 50 69 66 70
REMARK SMILES IDX 43 71 32 72 33 73 37 74 34 75 36 76 35 77 54 78 55 79 59 80
REMARK SMILES IDX 56 81 58 82 57 83 44 84 45 85 49 86 46 87 48 88 47 89
REMARK H PARENT 15 6 4 17 81 32 81 33 20 38 64 57 42 68
REMARK Flexibility Score: inf
ROOT
ATOM      1  C   UNL A   1      40.932  33.754  34.253  1.00  0.00     0.023 C 
ENDROOT
BRANCH   1   2
ATOM      2  C   UNL A   1      39.518  34.074  34.756  1.00  0.00     0.116 C 
BRANCH   2   3
ATOM      3  N   UNL A   1      38.685  32.890  34.835  1.00  0.00    -0.354 N 
ATOM      4  C   UNL A   1      37.441  32.598  34.369  1.00  0.00     0.242 C 
ATOM      5  O   UNL A   1      37.054  31.437  34.571  1.00  0.00    -0.273 OA
ATOM      6  H   UNL A   1      39.105  32.146  35.324  1.00  0.00     0.163 HD
BRANCH   4   7
ATOM      7  C   UNL A   1      36.499  33.585  33.630  1.00  0.00     0.176 C 
ATOM      8  C   UNL A   1      35.147  33.808  34.302  1.00  0.00     0.042 C 
BRANCH   7   9
ATOM      9  N   UNL A   1      36.430  33.374  32.184  1.00  0.00    -0.298 N 
ATOM     10  C   UNL A   1      33.959  35.557  30.358  1.00  0.00     0.069 C 
ATOM     11  C   UNL A   1      33.860  34.481  29.335  1.00  0.00     0.068 A 
ATOM     12  N   UNL A   1      32.860  34.500  28.440  1.00  0.00    -0.177 NA
ATOM     13  C   UNL A   1      34.634  33.301  29.215  1.00  0.00     0.063 A 
ATOM     14  N   UNL A   1      32.941  33.301  27.825  1.00  0.00    -0.246 N 
ATOM     15  C   UNL A   1      33.987  32.556  28.264  1.00  0.00     0.222 A 
ATOM     16  C   UNL A   1      35.711  32.676  30.025  1.00  0.00     0.149 C 
ATOM     17  H   UNL A   1      32.312  33.001  27.130  1.00  0.00     0.193 HD
ATOM     18  O   UNL A   1      34.218  31.297  27.912  1.00  0.00    -0.422 OA
ATOM     19  C   UNL A   1      35.335  32.829  31.512  1.00  0.00     0.248 C 
ATOM     20  C   UNL A   1      36.960  33.511  29.942  1.00  0.00     0.002 A 
ATOM     21  C   UNL A   1      35.918  31.212  29.634  1.00  0.00     0.114 C 
ATOM     22  C   UNL A   1      35.207  30.611  28.641  1.00  0.00     0.208 C 
ATOM     23  O   UNL A   1      34.224  32.618  31.970  1.00  0.00    -0.273 OA
ATOM     24  C   UNL A   1      37.372  33.849  31.244  1.00  0.00     0.050 A 
ATOM     25  C   UNL A   1      37.695  33.890  28.828  1.00  0.00     0.008 A 
ATOM     26  C   UNL A   1      38.516  34.599  31.450  1.00  0.00     0.027 A 
ATOM     27  C   UNL A   1      38.841  34.658  29.031  1.00  0.00     0.001 A 
ATOM     28  C   UNL A   1      39.244  35.012  30.328  1.00  0.00     0.002 A 
BRANCH  21  29
ATOM     29  C   UNL A   1      36.918  30.467  30.338  1.00  0.00     0.102 C 
ATOM     30  N   UNL A   1      37.714  29.874  30.925  1.00  0.00    -0.193 NA
ENDBRANCH  21  29
BRANCH  22  31
ATOM     31  N   UNL A   1      35.356  29.315  28.239  1.00  0.00    -0.369 N 
ATOM     32  H   UNL A   1      34.907  28.592  28.733  1.00  0.00     0.159 HD
ATOM     33  H   UNL A   1      35.914  29.103  27.456  1.00  0.00     0.159 HD
ENDBRANCH  22  31
ENDBRANCH   7   9
ENDBRANCH   4   7
ENDBRANCH   2   3
ENDBRANCH   1   2
BRANCH   1  34
ATOM     34  C   UNL A   1      41.587  34.836  33.392  1.00  0.00     0.023 C 
BRANCH  34  35
ATOM     35  C   UNL A   1      42.850  34.366  32.671  1.00  0.00     0.116 C 
BRANCH  35  36
ATOM     36  N   UNL A   1      42.892  34.768  31.279  1.00  0.00    -0.352 N 
ATOM     37  C   UNL A   1      42.559  34.184  30.092  1.00  0.00     0.251 C 
ATOM     38  H   UNL A   1      43.244  35.681  31.163  1.00  0.00     0.163 HD
ATOM     39  O   UNL A   1      42.506  34.940  29.117  1.00  0.00    -0.269 OA
BRANCH  37  40
ATOM     40  C   UNL A   1      42.344  32.729  29.863  1.00  0.00     0.039 A 
ATOM     41  C   UNL A   1      41.239  31.993  30.277  1.00  0.00     0.014 A 
ATOM     42  C   UNL A   1      43.429  32.035  29.281  1.00  0.00     0.014 A 
ATOM     43  C   UNL A   1      41.288  30.599  30.243  1.00  0.00     0.010 A 
ATOM     44  C   UNL A   1      43.466  30.645  29.214  1.00  0.00     0.010 A 
ATOM     45  C   UNL A   1      42.428  29.918  29.770  1.00  0.00    -0.014 A 
BRANCH  45  46
ATOM     46  C   UNL A   1      42.391  28.452  29.697  1.00  0.00     0.031 A 
ATOM     47  C   UNL A   1      42.976  27.848  30.919  1.00  0.00     0.074 A 
ATOM     48  C   UNL A   1      41.893  27.681  28.697  1.00  0.00     0.049 A 
ATOM     49  N   UNL A   1      44.142  27.303  30.993  1.00  0.00    -0.248 NA
ATOM     50  C   UNL A   1      42.336  28.069  32.226  1.00  0.00     0.031 C 
ATOM     51  C   UNL A   1      41.112  28.092  27.527  1.00  0.00     0.029 A 
ATOM     52  N   UNL A   1      41.962  26.317  28.532  1.00  0.00    -0.354 N 
ATOM     53  C   UNL A   1      44.297  26.907  32.313  1.00  0.00     0.074 A 
ATOM     54  C   UNL A   1      43.240  27.540  33.055  1.00  0.00     0.031 C 
ATOM     55  C   UNL A   1      40.589  27.000  26.910  1.00  0.00     0.029 A 
ATOM     56  C   UNL A   1      41.128  25.802  27.534  1.00  0.00     0.049 A 
ATOM     57  H   UNL A   1      42.552  25.746  29.075  1.00  0.00     0.167 HD
ATOM     58  C   UNL A   1      45.129  25.872  32.610  1.00  0.00     0.031 A 
ATOM     59  C   UNL A   1      40.974  24.501  27.156  1.00  0.00     0.031 A 
ATOM     60  C   UNL A   1      46.008  25.591  31.504  1.00  0.00     0.049 A 
ATOM     61  C   UNL A   1      42.205  23.795  27.553  1.00  0.00     0.074 A 
ATOM     62  C   UNL A   1      47.155  26.145  30.979  1.00  0.00     0.029 A 
ATOM     63  N   UNL A   1      45.402  24.880  30.501  1.00  0.00    -0.354 N 
ATOM     64  N   UNL A   1      43.355  24.007  26.985  1.00  0.00    -0.248 NA
ATOM     65  C   UNL A   1      42.239  23.106  28.835  1.00  0.00     0.031 C 
ATOM     66  C   UNL A   1      47.128  25.865  29.580  1.00  0.00     0.029 A 
ATOM     67  C   UNL A   1      46.025  25.064  29.297  1.00  0.00     0.049 A 
ATOM     68  H   UNL A   1      44.612  24.307  30.631  1.00  0.00     0.167 HD
ATOM     69  C   UNL A   1      44.255  23.898  28.023  1.00  0.00     0.074 A 
ATOM     70  C   UNL A   1      43.548  23.185  29.083  1.00  0.00     0.031 C 
ATOM     71  C   UNL A   1      45.372  24.676  28.064  1.00  0.00     0.031 A 
BRANCH  58  72
ATOM     72  C   UNL A   1      44.794  24.829  33.645  1.00  0.00    -0.014 A 
ATOM     73  C   UNL A   1      44.001  23.698  33.365  1.00  0.00     0.009 A 
ATOM     74  C   UNL A   1      45.498  24.816  34.862  1.00  0.00     0.009 A 
ATOM     75  C   UNL A   1      43.887  22.627  34.255  1.00  0.00     0.001 A 
ATOM     76  C   UNL A   1      45.409  23.730  35.745  1.00  0.00     0.001 A 
ATOM     77  C   UNL A   1      44.599  22.639  35.444  1.00  0.00     0.000 A 
ENDBRANCH  58  72
BRANCH  59  78
ATOM     78  C   UNL A   1      39.731  23.711  26.918  1.00  0.00    -0.014 A 
ATOM     79  C   UNL A   1      39.825  22.387  26.459  1.00  0.00     0.009 A 
ATOM     80  C   UNL A   1      38.483  24.356  26.778  1.00  0.00     0.009 A 
ATOM     81  C   UNL A   1      38.744  21.760  25.820  1.00  0.00     0.001 A 
ATOM     82  C   UNL A   1      37.399  23.724  26.142  1.00  0.00     0.001 A 
ATOM     83  C   UNL A   1      37.539  22.434  25.643  1.00  0.00     0.000 A 
ENDBRANCH  59  78
BRANCH  71  84
ATOM     84  C   UNL A   1      45.882  25.278  26.784  1.00  0.00    -0.014 A 
ATOM     85  C   UNL A   1      46.871  24.553  26.102  1.00  0.00     0.009 A 
ATOM     86  C   UNL A   1      45.528  26.547  26.298  1.00  0.00     0.009 A 
ATOM     87  C   UNL A   1      47.523  25.088  24.993  1.00  0.00     0.001 A 
ATOM     88  C   UNL A   1      46.164  27.074  25.166  1.00  0.00     0.001 A 
ATOM     89  C   UNL A   1      47.172  26.351  24.526  1.00  0.00     0.000 A 
ENDBRANCH  71  84
ENDBRANCH  45  46
ENDBRANCH  37  40
ENDBRANCH  35  36
ENDBRANCH  34  35
ENDBRANCH   1  34
TORSDOF 14
ENDMDL
MODEL 2
REMARK VINA RESULT:     -11.5      3.408     10.910
REMARK SMILES Cc1n[nH]c2c1[C@@]1(C(=O)N([C@@H](C)C(=O)NCCCCNC(=O)c3ccc(-c4c5nc(c(-c6ccccc6)c6ccc([nH]6)c(-c6ccccc6)c6nc(c(-c7ccccc7)c7ccc4[nH]7)C=C6)C=C5)cc3)c3ccccc31)C(C#N)=C(N)O2
REMARK SMILES IDX 17 1 16 2 15 3 13 4 14 5 11 7 12 8 10 9 1 10 2 11 3 12 6 13
REMARK SMILES IDX 4 14 5 15 7 16 82 18 8 19 76 20 77 21 80 22 9 23 71 24 75 25
REMARK SMILES IDX 72 26 74 27 73 28 78 29 79 30 81 31 18 34 19 35 20 36 21 37
REMARK SMILES IDX 22 39 23 40 24 41 70 42 25 43 69 44 26 45 27 46 28 47 63 48
REMARK SMILES IDX 29 49 68 50 62 51 64 52 30 53 67 54 61 55 60 56 31 58 53 59
REMARK SMILES IDX 38 60 52 61 39 62 42 63 51 64 65 65 40 66 41 67 50 69 66 70
REMARK SMILES IDX 43 71 32 72 33 73 37 74 34 75 36 76 35 77 54 78 55 79 59 80
REMARK SMILES IDX 56 81 58 82 57 83 44 84 45 85 49 86 46 87 48 88 47 89
REMARK H PARENT 15 6 4 17 81 32 81 33 20 38 64 57 42 68
REMARK Flexibility Score: inf
ROOT
ATOM      1  C   UNL A   1      43.776  31.026  27.059  1.00  0.00     0.023 C 
ENDROOT
BRANCH   1   2
ATOM      2  C   UNL A   1      43.927  29.502  27.154  1.00  0.00     0.116 C 
BRANCH   2   3
ATOM      3  N   UNL A   1      43.197  28.814  26.107  1.00  0.00    -0.354 N 
ATOM      4  C   UNL A   1      43.270  27.555  25.597  1.00  0.00     0.242 C 
ATOM      5  O   UNL A   1      42.429  27.281  24.728  1.00  0.00    -0.273 OA
ATOM      6  H   UNL A   1      42.507  29.371  25.678  1.00  0.00     0.163 HD
BRANCH   4   7
ATOM      7  C   UNL A   1      44.302  26.473  26.009  1.00  0.00     0.176 C 
ATOM      8  C   UNL A   1      45.424  26.238  25.001  1.00  0.00     0.042 C 
BRANCH   7   9
ATOM      9  N   UNL A   1      43.704  25.251  26.547  1.00  0.00    -0.298 N 
ATOM     10  C   UNL A   1      45.506  22.058  25.672  1.00  0.00     0.069 C 
ATOM     11  C   UNL A   1      44.201  21.358  25.813  1.00  0.00     0.068 A 
ATOM     12  N   UNL A   1      44.060  20.108  25.344  1.00  0.00    -0.177 NA
ATOM     13  C   UNL A   1      42.969  21.869  26.289  1.00  0.00     0.063 A 
ATOM     14  N   UNL A   1      42.735  19.866  25.434  1.00  0.00    -0.246 N 
ATOM     15  C   UNL A   1      42.050  20.897  25.990  1.00  0.00     0.222 A 
ATOM     16  C   UNL A   1      42.500  23.207  26.733  1.00  0.00     0.149 C 
ATOM     17  H   UNL A   1      42.312  19.031  25.131  1.00  0.00     0.193 HD
ATOM     18  O   UNL A   1      40.727  20.965  26.080  1.00  0.00    -0.422 OA
ATOM     19  C   UNL A   1      43.096  24.260  25.777  1.00  0.00     0.248 C 
ATOM     20  C   UNL A   1      43.161  23.572  28.034  1.00  0.00     0.002 A 
ATOM     21  C   UNL A   1      40.972  23.270  26.776  1.00  0.00     0.114 C 
ATOM     22  C   UNL A   1      40.185  22.203  26.471  1.00  0.00     0.208 C 
ATOM     23  O   UNL A   1      43.122  24.154  24.562  1.00  0.00    -0.273 OA
ATOM     24  C   UNL A   1      43.810  24.811  27.886  1.00  0.00     0.050 A 
ATOM     25  C   UNL A   1      43.146  22.904  29.249  1.00  0.00     0.008 A 
ATOM     26  C   UNL A   1      44.481  25.389  28.949  1.00  0.00     0.027 A 
ATOM     27  C   UNL A   1      43.833  23.475  30.320  1.00  0.00     0.001 A 
ATOM     28  C   UNL A   1      44.496  24.703  30.170  1.00  0.00     0.002 A 
BRANCH  21  29
ATOM     29  C   UNL A   1      40.365  24.505  27.175  1.00  0.00     0.102 C 
ATOM     30  N   UNL A   1      39.881  25.493  27.518  1.00  0.00    -0.193 NA
ENDBRANCH  21  29
BRANCH  22  31
ATOM     31  N   UNL A   1      38.820  22.195  26.504  1.00  0.00    -0.369 N 
ATOM     32  H   UNL A   1      38.311  21.870  25.727  1.00  0.00     0.159 HD
ATOM     33  H   UNL A   1      38.346  22.515  27.305  1.00  0.00     0.159 HD
ENDBRANCH  22  31
ENDBRANCH   7   9
ENDBRANCH   4   7
ENDBRANCH   2   3
ENDBRANCH   1   2
BRANCH   1  34
ATOM     34  C   UNL A   1      44.946  31.766  26.407  1.00  0.00     0.023 C 
BRANCH  34  35
ATOM     35  C   UNL A   1      44.537  33.055  25.696  1.00  0.00     0.116 C 
BRANCH  35  36
ATOM     36  N   UNL A   1      45.211  34.229  26.216  1.00  0.00    -0.352 N 
ATOM     37  C   UNL A   1      45.227  34.886  27.412  1.00  0.00     0.251 C 
ATOM     38  H   UNL A   1      45.798  34.651  25.548  1.00  0.00     0.163 HD
ATOM     39  O   UNL A   1      46.126  35.719  27.555  1.00  0.00    -0.269 OA
BRANCH  37  40
ATOM     40  C   UNL A   1      44.220  34.746  28.499  1.00  0.00     0.039 A 
ATOM     41  C   UNL A   1      44.197  33.746  29.466  1.00  0.00     0.014 A 
ATOM     42  C   UNL A   1      43.136  35.652  28.449  1.00  0.00     0.014 A 
ATOM     43  C   UNL A   1      43.056  33.572  30.250  1.00  0.00     0.010 A 
ATOM     44  C   UNL A   1      42.011  35.502  29.255  1.00  0.00     0.010 A 
ATOM     45  C   UNL A   1      41.933  34.411  30.103  1.00  0.00    -0.014 A 
BRANCH  45  46
ATOM     46  C   UNL A   1      40.789  34.220  31.005  1.00  0.00     0.031 A 
ATOM     47  C   UNL A   1      41.226  34.250  32.422  1.00  0.00     0.074 A 
ATOM     48  C   UNL A   1      39.485  34.050  30.671  1.00  0.00     0.049 A 
ATOM     49  N   UNL A   1      41.344  33.218  33.186  1.00  0.00    -0.248 NA
ATOM     50  C   UNL A   1      41.810  35.478  32.985  1.00  0.00     0.031 C 
ATOM     51  C   UNL A   1      38.852  34.190  29.357  1.00  0.00     0.029 A 
ATOM     52  N   UNL A   1      38.414  33.736  31.474  1.00  0.00    -0.354 N 
ATOM     53  C   UNL A   1      41.807  33.692  34.404  1.00  0.00     0.074 A 
ATOM     54  C   UNL A   1      42.227  35.049  34.179  1.00  0.00     0.031 C 
ATOM     55  C   UNL A   1      37.500  34.191  29.490  1.00  0.00     0.029 A 
ATOM     56  C   UNL A   1      37.161  33.888  30.871  1.00  0.00     0.049 A 
ATOM     57  H   UNL A   1      38.519  33.428  32.403  1.00  0.00     0.167 HD
ATOM     58  C   UNL A   1      41.539  32.995  35.541  1.00  0.00     0.031 A 
ATOM     59  C   UNL A   1      35.932  33.666  31.419  1.00  0.00     0.031 A 
ATOM     60  C   UNL A   1      41.115  31.654  35.229  1.00  0.00     0.049 A 
ATOM     61  C   UNL A   1      36.127  32.719  32.530  1.00  0.00     0.074 A 
ATOM     62  C   UNL A   1      41.728  30.480  34.851  1.00  0.00     0.029 A 
ATOM     63  N   UNL A   1      39.808  31.583  34.821  1.00  0.00    -0.354 N 
ATOM     64  N   UNL A   1      36.464  31.475  32.347  1.00  0.00    -0.248 NA
ATOM     65  C   UNL A   1      36.302  33.240  33.878  1.00  0.00     0.031 C 
ATOM     66  C   UNL A   1      40.774  29.769  34.062  1.00  0.00     0.029 A 
ATOM     67  C   UNL A   1      39.572  30.473  34.058  1.00  0.00     0.049 A 
ATOM     68  H   UNL A   1      39.123  32.253  35.048  1.00  0.00     0.167 HD
ATOM     69  C   UNL A   1      37.302  31.207  33.408  1.00  0.00     0.074 A 
ATOM     70  C   UNL A   1      37.035  32.251  34.394  1.00  0.00     0.031 C 
ATOM     71  C   UNL A   1      38.366  30.369  33.264  1.00  0.00     0.031 A 
BRANCH  58  72
ATOM     72  C   UNL A   1      41.168  33.665  36.839  1.00  0.00    -0.014 A 
ATOM     73  C   UNL A   1      42.057  33.771  37.928  1.00  0.00     0.009 A 
ATOM     74  C   UNL A   1      40.005  34.453  36.899  1.00  0.00     0.009 A 
ATOM     75  C   UNL A   1      41.792  34.587  39.030  1.00  0.00     0.001 A 
ATOM     76  C   UNL A   1      39.749  35.296  37.990  1.00  0.00     0.001 A 
ATOM     77  C   UNL A   1      40.640  35.357  39.058  1.00  0.00     0.000 A 
ENDBRANCH  58  72
BRANCH  59  78
ATOM     78  C   UNL A   1      34.704  34.513  31.396  1.00  0.00    -0.014 A 
ATOM     79  C   UNL A   1      33.922  34.574  30.231  1.00  0.00     0.009 A 
ATOM     80  C   UNL A   1      34.511  35.530  32.357  1.00  0.00     0.009 A 
ATOM     81  C   UNL A   1      33.041  35.642  30.001  1.00  0.00     0.001 A 
ATOM     82  C   UNL A   1      33.625  36.597  32.127  1.00  0.00     0.001 A 
ATOM     83  C   UNL A   1      32.907  36.663  30.938  1.00  0.00     0.000 A 
ENDBRANCH  59  78
BRANCH  71  84
ATOM     84  C   UNL A   1      38.352  29.371  32.140  1.00  0.00    -0.014 A 
ATOM     85  C   UNL A   1      38.221  28.021  32.502  1.00  0.00     0.009 A 
ATOM     86  C   UNL A   1      38.576  29.682  30.788  1.00  0.00     0.009 A 
ATOM     87  C   UNL A   1      38.353  27.004  31.559  1.00  0.00     0.001 A 
ATOM     88  C   UNL A   1      38.680  28.659  29.835  1.00  0.00     0.001 A 
ATOM     89  C   UNL A   1      38.586  27.323  30.225  1.00  0.00     0.000 A 
ENDBRANCH  71  84
ENDBRANCH  45  46
ENDBRANCH  37  40
ENDBRANCH  35  36
ENDBRANCH  34  35
ENDBRANCH   1  34
TORSDOF 14
ENDMDL
MODEL 3
REMARK VINA RESULT:     -11.4      4.214     10.087
REMARK SMILES Cc1n[nH]c2c1[C@@]1(C(=O)N([C@@H](C)C(=O)NCCCCNC(=O)c3ccc(-c4c5nc(c(-c6ccccc6)c6ccc([nH]6)c(-c6ccccc6)c6nc(c(-c7ccccc7)c7ccc4[nH]7)C=C6)C=C5)cc3)c3ccccc31)C(C#N)=C(N)O2
REMARK SMILES IDX 17 1 16 2 15 3 13 4 14 5 11 7 12 8 10 9 1 10 2 11 3 12 6 13
REMARK SMILES IDX 4 14 5 15 7 16 82 18 8 19 76 20 77 21 80 22 9 23 71 24 75 25
REMARK SMILES IDX 72 26 74 27 73 28 78 29 79 30 81 31 18 34 19 35 20 36 21 37
REMARK SMILES IDX 22 39 23 40 24 41 70 42 25 43 69 44 26 45 27 46 28 47 63 48
REMARK SMILES IDX 29 49 68 50 62 51 64 52 30 53 67 54 61 55 60 56 31 58 53 59
REMARK SMILES IDX 38 60 52 61 39 62 42 63 51 64 65 65 40 66 41 67 50 69 66 70
REMARK SMILES IDX 43 71 32 72 33 73 37 74 34 75 36 76 35 77 54 78 55 79 59 80
REMARK SMILES IDX 56 81 58 82 57 83 44 84 45 85 49 86 46 87 48 88 47 89
REMARK H PARENT 15 6 4 17 81 32 81 33 20 38 64 57 42 68
REMARK Flexibility Score: inf
ROOT
ATOM      1  C   UNL A   1      39.186  23.361  26.875  1.00  0.00     0.023 C 
ENDROOT
BRANCH   1   2
ATOM      2  C   UNL A   1      37.941  23.856  26.128  1.00  0.00     0.116 C 
BRANCH   2   3
ATOM      3  N   UNL A   1      37.129  22.761  25.633  1.00  0.00    -0.354 N 
ATOM      4  C   UNL A   1      35.809  22.456  25.755  1.00  0.00     0.242 C 
ATOM      5  O   UNL A   1      35.435  21.450  25.134  1.00  0.00    -0.273 OA
ATOM      6  H   UNL A   1      37.636  22.105  25.101  1.00  0.00     0.163 HD
BRANCH   4   7
ATOM      7  C   UNL A   1      34.772  23.250  26.592  1.00  0.00     0.176 C 
ATOM      8  C   UNL A   1      34.037  22.430  27.648  1.00  0.00     0.042 C 
BRANCH   7   9
ATOM      9  N   UNL A   1      33.913  24.129  25.800  1.00  0.00    -0.298 N 
ATOM     10  C   UNL A   1      33.062  22.868  22.352  1.00  0.00     0.069 C 
ATOM     11  C   UNL A   1      32.903  24.289  21.940  1.00  0.00     0.068 A 
ATOM     12  N   UNL A   1      32.846  24.604  20.636  1.00  0.00    -0.177 NA
ATOM     13  C   UNL A   1      32.920  25.452  22.749  1.00  0.00     0.063 A 
ATOM     14  N   UNL A   1      32.921  25.951  20.616  1.00  0.00    -0.246 N 
ATOM     15  C   UNL A   1      32.971  26.493  21.860  1.00  0.00     0.222 A 
ATOM     16  C   UNL A   1      33.152  25.711  24.193  1.00  0.00     0.149 C 
ATOM     17  H   UNL A   1      32.936  26.484  19.788  1.00  0.00     0.193 HD
ATOM     18  O   UNL A   1      33.171  27.780  22.116  1.00  0.00    -0.422 OA
ATOM     19  C   UNL A   1      34.318  24.814  24.654  1.00  0.00     0.248 C 
ATOM     20  C   UNL A   1      32.009  25.159  25.000  1.00  0.00     0.002 A 
ATOM     21  C   UNL A   1      33.432  27.193  24.450  1.00  0.00     0.114 C 
ATOM     22  C   UNL A   1      33.425  28.123  23.457  1.00  0.00     0.208 C 
ATOM     23  O   UNL A   1      35.358  24.658  24.035  1.00  0.00    -0.273 OA
ATOM     24  C   UNL A   1      32.517  24.274  25.968  1.00  0.00     0.050 A 
ATOM     25  C   UNL A   1      30.655  25.450  24.925  1.00  0.00     0.008 A 
ATOM     26  C   UNL A   1      31.670  23.644  26.862  1.00  0.00     0.027 A 
ATOM     27  C   UNL A   1      29.796  24.805  25.814  1.00  0.00     0.001 A 
ATOM     28  C   UNL A   1      30.299  23.908  26.770  1.00  0.00     0.002 A 
BRANCH  21  29
ATOM     29  C   UNL A   1      33.689  27.600  25.798  1.00  0.00     0.102 C 
ATOM     30  N   UNL A   1      33.919  27.934  26.878  1.00  0.00    -0.193 NA
ENDBRANCH  21  29
BRANCH  22  31
ATOM     31  N   UNL A   1      33.654  29.459  23.626  1.00  0.00    -0.369 N 
ATOM     32  H   UNL A   1      32.896  30.085  23.677  1.00  0.00     0.159 HD
ATOM     33  H   UNL A   1      34.576  29.795  23.698  1.00  0.00     0.159 HD
ENDBRANCH  22  31
ENDBRANCH   7   9
ENDBRANCH   4   7
ENDBRANCH   2   3
ENDBRANCH   1   2
BRANCH   1  34
ATOM     34  C   UNL A   1      39.670  21.959  26.498  1.00  0.00     0.023 C 
BRANCH  34  35
ATOM     35  C   UNL A   1      40.966  21.548  27.195  1.00  0.00     0.116 C 
BRANCH  35  36
ATOM     36  N   UNL A   1      42.148  21.824  26.402  1.00  0.00    -0.352 N 
ATOM     37  C   UNL A   1      43.037  22.855  26.316  1.00  0.00     0.251 C 
ATOM     38  H   UNL A   1      42.360  21.091  25.778  1.00  0.00     0.163 HD
ATOM     39  O   UNL A   1      44.073  22.620  25.686  1.00  0.00    -0.269 OA
BRANCH  37  40
ATOM     40  C   UNL A   1      42.828  24.235  26.832  1.00  0.00     0.039 A 
ATOM     41  C   UNL A   1      43.171  24.692  28.100  1.00  0.00     0.014 A 
ATOM     42  C   UNL A   1      42.106  25.103  25.982  1.00  0.00     0.014 A 
ATOM     43  C   UNL A   1      42.675  25.917  28.548  1.00  0.00     0.010 A 
ATOM     44  C   UNL A   1      41.639  26.341  26.415  1.00  0.00     0.010 A 
ATOM     45  C   UNL A   1      41.854  26.718  27.729  1.00  0.00    -0.014 A 
BRANCH  45  46
ATOM     46  C   UNL A   1      41.420  28.027  28.234  1.00  0.00     0.031 A 
ATOM     47  C   UNL A   1      42.416  29.075  27.905  1.00  0.00     0.074 A 
ATOM     48  C   UNL A   1      40.276  28.324  28.900  1.00  0.00     0.049 A 
ATOM     49  N   UNL A   1      43.244  29.601  28.741  1.00  0.00    -0.248 NA
ATOM     50  C   UNL A   1      42.695  29.408  26.499  1.00  0.00     0.031 C 
ATOM     51  C   UNL A   1      39.106  27.473  29.134  1.00  0.00     0.029 A 
ATOM     52  N   UNL A   1      39.899  29.502  29.503  1.00  0.00    -0.354 N 
ATOM     53  C   UNL A   1      44.007  30.501  28.012  1.00  0.00     0.074 A 
ATOM     54  C   UNL A   1      43.743  30.228  26.624  1.00  0.00     0.031 C 
ATOM     55  C   UNL A   1      38.076  28.219  29.613  1.00  0.00     0.029 A 
ATOM     56  C   UNL A   1      38.553  29.566  29.880  1.00  0.00     0.049 A 
ATOM     57  H   UNL A   1      40.527  30.243  29.657  1.00  0.00     0.167 HD
ATOM     58  C   UNL A   1      44.574  31.565  28.641  1.00  0.00     0.031 A 
ATOM     59  C   UNL A   1      37.897  30.601  30.479  1.00  0.00     0.031 A 
ATOM     60  C   UNL A   1      44.581  31.369  30.069  1.00  0.00     0.049 A 
ATOM     61  C   UNL A   1      38.918  31.404  31.174  1.00  0.00     0.074 A 
ATOM     62  C   UNL A   1      45.333  30.647  30.969  1.00  0.00     0.029 A 
ATOM     63  N   UNL A   1      43.365  31.610  30.652  1.00  0.00    -0.354 N 
ATOM     64  N   UNL A   1      39.563  30.977  32.220  1.00  0.00    -0.248 NA
ATOM     65  C   UNL A   1      39.491  32.557  30.493  1.00  0.00     0.031 C 
ATOM     66  C   UNL A   1      44.460  30.333  32.054  1.00  0.00     0.029 A 
ATOM     67  C   UNL A   1      43.230  30.950  31.842  1.00  0.00     0.049 A 
ATOM     68  H   UNL A   1      42.670  32.189  30.260  1.00  0.00     0.167 HD
ATOM     69  C   UNL A   1      40.828  31.499  32.056  1.00  0.00     0.074 A 
ATOM     70  C   UNL A   1      40.684  32.583  31.090  1.00  0.00     0.031 C 
ATOM     71  C   UNL A   1      41.928  30.802  32.458  1.00  0.00     0.031 A 
BRANCH  58  72
ATOM     72  C   UNL A   1      44.629  32.941  28.027  1.00  0.00    -0.014 A 
ATOM     73  C   UNL A   1      45.639  33.339  27.128  1.00  0.00     0.009 A 
ATOM     74  C   UNL A   1      43.507  33.783  28.124  1.00  0.00     0.009 A 
ATOM     75  C   UNL A   1      45.556  34.522  26.390  1.00  0.00     0.001 A 
ATOM     76  C   UNL A   1      43.407  34.957  27.363  1.00  0.00     0.001 A 
ATOM     77  C   UNL A   1      44.435  35.329  26.501  1.00  0.00     0.000 A 
ENDBRANCH  58  72
BRANCH  59  78
ATOM     78  C   UNL A   1      36.585  31.227  30.146  1.00  0.00    -0.014 A 
ATOM     79  C   UNL A   1      36.314  31.614  28.824  1.00  0.00     0.009 A 
ATOM     80  C   UNL A   1      35.772  31.778  31.160  1.00  0.00     0.009 A 
ATOM     81  C   UNL A   1      35.325  32.567  28.533  1.00  0.00     0.001 A 
ATOM     82  C   UNL A   1      34.778  32.729  30.867  1.00  0.00     0.001 A 
ATOM     83  C   UNL A   1      34.572  33.139  29.554  1.00  0.00     0.000 A 
ENDBRANCH  59  78
BRANCH  71  84
ATOM     84  C   UNL A   1      41.764  29.730  33.499  1.00  0.00    -0.014 A 
ATOM     85  C   UNL A   1      41.932  30.124  34.836  1.00  0.00     0.009 A 
ATOM     86  C   UNL A   1      41.576  28.366  33.223  1.00  0.00     0.009 A 
ATOM     87  C   UNL A   1      41.958  29.188  35.867  1.00  0.00     0.001 A 
ATOM     88  C   UNL A   1      41.574  27.427  34.263  1.00  0.00     0.001 A 
ATOM     89  C   UNL A   1      41.782  27.837  35.581  1.00  0.00     0.000 A 
ENDBRANCH  71  84
ENDBRANCH  45  46
ENDBRANCH  37  40
ENDBRANCH  35  36
ENDBRANCH  34  35
ENDBRANCH   1  34
TORSDOF 14
ENDMDL
