MODEL 1
REMARK VINA RESULT:     -11.3      0.000      0.000
REMARK SMILES CC(C)(C)OC(=O)Nc1ccc(-c2cccc(Cl)c2C(=O)NCCCCNC(=O)c2ccc(-c3c4nc(c(-c5ccccc5)c5ccc([nH]5)c(-c5ccccc5)c5nc(c(-c6ccccc6)c6ccc3[nH]6)C=C5)C=C4)cc2)cc1
REMARK SMILES IDX 23 1 22 2 20 3 21 4 19 6 13 7 14 8 15 9 17 10 16 11 18 12
REMARK SMILES IDX 12 13 9 14 10 15 79 16 11 17 78 18 8 19 6 20 7 21 5 23 2 24
REMARK SMILES IDX 1 25 3 26 4 27 24 28 25 29 26 30 27 31 28 32 29 34 30 35
REMARK SMILES IDX 31 36 77 37 32 38 76 39 33 40 34 41 35 42 70 43 36 44 75 45
REMARK SMILES IDX 69 46 71 47 37 48 74 49 68 50 67 51 38 53 60 54 45 55 59 56
REMARK SMILES IDX 46 57 49 58 58 59 72 60 47 61 48 62 57 64 73 65 50 66 39 67
REMARK SMILES IDX 40 68 44 69 41 70 43 71 42 72 61 73 62 74 66 75 63 76 65 77
REMARK SMILES IDX 64 78 51 79 52 80 56 81 53 82 55 83 54 84
REMARK H PARENT 22 5 8 22 27 33 71 52 49 63
REMARK Flexibility Score: inf
ROOT
ATOM      1  C   UNL A   1      35.111  23.835  25.285  1.00  0.00     0.116 C 
ENDROOT
BRANCH   1   2
ATOM      2  N   UNL A   1      33.860  23.931  25.982  1.00  0.00    -0.352 N 
ATOM      3  C   UNL A   1      32.803  23.039  25.936  1.00  0.00     0.253 C 
ATOM      4  O   UNL A   1      32.067  23.004  26.925  1.00  0.00    -0.269 OA
ATOM      5  H   UNL A   1      33.740  24.722  26.559  1.00  0.00     0.163 HD
BRANCH   3   6
ATOM      6  C   UNL A   1      32.455  22.166  24.759  1.00  0.00     0.066 A 
ATOM      7  C   UNL A   1      31.955  22.614  23.502  1.00  0.00    -0.004 A 
ATOM      8  C   UNL A   1      31.830  21.685  22.439  1.00  0.00     0.009 A 
ATOM      9  C   UNL A   1      32.193  20.353  22.575  1.00  0.00     0.002 A 
ATOM     10  C   UNL A   1      32.792  20.792  24.879  1.00  0.00     0.054 A 
ATOM     11  C   UNL A   1      32.671  19.906  23.797  1.00  0.00     0.021 A 
ATOM     12  Cl  UNL A   1      33.324  20.061  26.363  1.00  0.00    -0.083 Cl
BRANCH   7  13
ATOM     13  C   UNL A   1      31.539  23.985  23.180  1.00  0.00    -0.017 A 
ATOM     14  C   UNL A   1      30.794  26.690  22.795  1.00  0.00     0.044 A 
ATOM     15  C   UNL A   1      29.944  25.817  23.474  1.00  0.00     0.027 A 
ATOM     16  C   UNL A   1      31.987  26.180  22.263  1.00  0.00     0.027 A 
ATOM     17  C   UNL A   1      30.297  24.475  23.638  1.00  0.00     0.011 A 
ATOM     18  C   UNL A   1      32.357  24.843  22.448  1.00  0.00     0.011 A 
BRANCH  14  19
ATOM     19  N   UNL A   1      30.423  28.048  22.760  1.00  0.00    -0.291 N 
ATOM     20  C   UNL A   1      30.447  29.003  23.745  1.00  0.00     0.412 C 
ATOM     21  O   UNL A   1      30.007  30.127  23.568  1.00  0.00    -0.224 OA
ATOM     22  H   UNL A   1      30.094  28.364  21.887  1.00  0.00     0.173 HD
BRANCH  20  23
ATOM     23  O   UNL A   1      31.047  28.583  24.875  1.00  0.00    -0.444 OA
BRANCH  23  24
ATOM     24  C   UNL A   1      32.364  29.022  25.265  1.00  0.00     0.106 C 
ATOM     25  C   UNL A   1      32.862  27.874  26.153  1.00  0.00     0.056 C 
ATOM     26  C   UNL A   1      32.267  30.306  26.089  1.00  0.00     0.056 C 
ATOM     27  C   UNL A   1      33.300  29.167  24.062  1.00  0.00     0.056 C 
ENDBRANCH  23  24
ENDBRANCH  20  23
ENDBRANCH  14  19
ENDBRANCH   7  13
ENDBRANCH   3   6
ENDBRANCH   1   2
BRANCH   1  28
ATOM     28  C   UNL A   1      36.346  23.380  26.046  1.00  0.00     0.023 C 
BRANCH  28  29
ATOM     29  C   UNL A   1      36.837  21.951  25.811  1.00  0.00     0.023 C 
BRANCH  29  30
ATOM     30  C   UNL A   1      38.201  21.777  25.139  1.00  0.00     0.116 C 
BRANCH  30  31
ATOM     31  N   UNL A   1      38.823  20.502  25.457  1.00  0.00    -0.352 N 
ATOM     32  C   UNL A   1      40.084  20.187  25.903  1.00  0.00     0.251 C 
ATOM     33  H   UNL A   1      38.234  19.724  25.330  1.00  0.00     0.163 HD
ATOM     34  O   UNL A   1      40.493  19.044  25.703  1.00  0.00    -0.269 OA
BRANCH  32  35
ATOM     35  C   UNL A   1      40.953  21.195  26.565  1.00  0.00     0.039 A 
ATOM     36  C   UNL A   1      41.670  22.086  25.760  1.00  0.00     0.014 A 
ATOM     37  C   UNL A   1      41.048  21.304  27.953  1.00  0.00     0.014 A 
ATOM     38  C   UNL A   1      42.326  23.174  26.339  1.00  0.00     0.010 A 
ATOM     39  C   UNL A   1      41.597  22.450  28.524  1.00  0.00     0.010 A 
ATOM     40  C   UNL A   1      42.197  23.422  27.716  1.00  0.00    -0.014 A 
BRANCH  40  41
ATOM     41  C   UNL A   1      42.556  24.753  28.270  1.00  0.00     0.031 A 
ATOM     42  C   UNL A   1      43.962  25.090  28.670  1.00  0.00     0.074 A 
ATOM     43  C   UNL A   1      41.561  25.644  28.468  1.00  0.00     0.049 A 
ATOM     44  N   UNL A   1      44.438  26.229  29.107  1.00  0.00    -0.248 NA
ATOM     45  C   UNL A   1      44.957  24.011  28.602  1.00  0.00     0.031 C 
ATOM     46  C   UNL A   1      40.138  25.391  28.213  1.00  0.00     0.029 A 
ATOM     47  N   UNL A   1      41.585  26.943  28.909  1.00  0.00    -0.354 N 
ATOM     48  C   UNL A   1      45.784  26.002  29.364  1.00  0.00     0.074 A 
ATOM     49  C   UNL A   1      46.033  24.602  29.100  1.00  0.00     0.031 C 
ATOM     50  C   UNL A   1      39.441  26.516  28.426  1.00  0.00     0.029 A 
ATOM     51  C   UNL A   1      40.354  27.554  28.882  1.00  0.00     0.049 A 
ATOM     52  H   UNL A   1      42.405  27.393  29.215  1.00  0.00     0.167 HD
ATOM     53  C   UNL A   1      46.730  26.887  29.761  1.00  0.00     0.031 A 
ATOM     54  C   UNL A   1      39.998  28.818  29.177  1.00  0.00     0.031 A 
ATOM     55  C   UNL A   1      46.464  28.276  30.039  1.00  0.00     0.049 A 
ATOM     56  C   UNL A   1      41.069  29.784  29.597  1.00  0.00     0.074 A 
ATOM     57  C   UNL A   1      47.354  29.271  30.399  1.00  0.00     0.029 A 
ATOM     58  N   UNL A   1      45.206  28.860  29.994  1.00  0.00    -0.354 N 
ATOM     59  N   UNL A   1      42.356  29.578  29.739  1.00  0.00    -0.248 NA
ATOM     60  C   UNL A   1      40.641  31.160  29.877  1.00  0.00     0.031 C 
ATOM     61  C   UNL A   1      46.627  30.443  30.631  1.00  0.00     0.029 A 
ATOM     62  C   UNL A   1      45.294  30.198  30.342  1.00  0.00     0.049 A 
ATOM     63  H   UNL A   1      44.375  28.394  29.750  1.00  0.00     0.167 HD
ATOM     64  C   UNL A   1      42.898  30.805  30.095  1.00  0.00     0.074 A 
ATOM     65  C   UNL A   1      41.800  31.751  30.123  1.00  0.00     0.031 C 
ATOM     66  C   UNL A   1      44.186  31.121  30.374  1.00  0.00     0.031 A 
BRANCH  53  67
ATOM     67  C   UNL A   1      48.137  26.372  29.923  1.00  0.00    -0.014 A 
ATOM     68  C   UNL A   1      48.592  25.874  31.156  1.00  0.00     0.009 A 
ATOM     69  C   UNL A   1      49.012  26.357  28.827  1.00  0.00     0.009 A 
ATOM     70  C   UNL A   1      49.904  25.418  31.298  1.00  0.00     0.001 A 
ATOM     71  C   UNL A   1      50.314  25.868  28.962  1.00  0.00     0.001 A 
ATOM     72  C   UNL A   1      50.763  25.411  30.200  1.00  0.00     0.000 A 
ENDBRANCH  53  67
BRANCH  54  73
ATOM     73  C   UNL A   1      38.579  29.249  29.047  1.00  0.00    -0.014 A 
ATOM     74  C   UNL A   1      37.707  29.188  30.146  1.00  0.00     0.009 A 
ATOM     75  C   UNL A   1      38.088  29.730  27.823  1.00  0.00     0.009 A 
ATOM     76  C   UNL A   1      36.368  29.566  30.012  1.00  0.00     0.001 A 
ATOM     77  C   UNL A   1      36.758  30.141  27.702  1.00  0.00     0.001 A 
ATOM     78  C   UNL A   1      35.897  30.047  28.792  1.00  0.00     0.000 A 
ENDBRANCH  54  73
BRANCH  66  79
ATOM     79  C   UNL A   1      44.477  32.562  30.691  1.00  0.00    -0.014 A 
ATOM     80  C   UNL A   1      44.789  33.489  29.684  1.00  0.00     0.009 A 
ATOM     81  C   UNL A   1      44.429  32.997  32.025  1.00  0.00     0.009 A 
ATOM     82  C   UNL A   1      45.097  34.810  30.013  1.00  0.00     0.001 A 
ATOM     83  C   UNL A   1      44.700  34.327  32.346  1.00  0.00     0.001 A 
ATOM     84  C   UNL A   1      45.047  35.228  31.343  1.00  0.00     0.000 A 
ENDBRANCH  66  79
ENDBRANCH  40  41
ENDBRANCH  32  35
ENDBRANCH  30  31
ENDBRANCH  29  30
ENDBRANCH  28  29
ENDBRANCH   1  28
TORSDOF 15
ENDMDL
MODEL 2
REMARK VINA RESULT:     -11.1      2.073      2.619
REMARK SMILES CC(C)(C)OC(=O)Nc1ccc(-c2cccc(Cl)c2C(=O)NCCCCNC(=O)c2ccc(-c3c4nc(c(-c5ccccc5)c5ccc([nH]5)c(-c5ccccc5)c5nc(c(-c6ccccc6)c6ccc3[nH]6)C=C5)C=C4)cc2)cc1
REMARK SMILES IDX 23 1 22 2 20 3 21 4 19 6 13 7 14 8 15 9 17 10 16 11 18 12
REMARK SMILES IDX 12 13 9 14 10 15 79 16 11 17 78 18 8 19 6 20 7 21 5 23 2 24
REMARK SMILES IDX 1 25 3 26 4 27 24 28 25 29 26 30 27 31 28 32 29 34 30 35
REMARK SMILES IDX 31 36 77 37 32 38 76 39 33 40 34 41 35 42 70 43 36 44 75 45
REMARK SMILES IDX 69 46 71 47 37 48 74 49 68 50 67 51 38 53 60 54 45 55 59 56
REMARK SMILES IDX 46 57 49 58 58 59 72 60 47 61 48 62 57 64 73 65 50 66 39 67
REMARK SMILES IDX 40 68 44 69 41 70 43 71 42 72 61 73 62 74 66 75 63 76 65 77
REMARK SMILES IDX 64 78 51 79 52 80 56 81 53 82 55 83 54 84
REMARK H PARENT 22 5 8 22 27 33 71 52 49 63
REMARK Flexibility Score: inf
ROOT
ATOM      1  C   UNL A   1      34.916  23.997  25.545  1.00  0.00     0.116 C 
ENDROOT
BRANCH   1   2
ATOM      2  N   UNL A   1      33.625  24.064  26.169  1.00  0.00    -0.352 N 
ATOM      3  C   UNL A   1      32.597  23.143  26.071  1.00  0.00     0.253 C 
ATOM      4  O   UNL A   1      31.807  23.096  27.017  1.00  0.00    -0.269 OA
ATOM      5  H   UNL A   1      33.451  24.856  26.730  1.00  0.00     0.163 HD
BRANCH   3   6
ATOM      6  C   UNL A   1      32.340  22.251  24.884  1.00  0.00     0.066 A 
ATOM      7  C   UNL A   1      31.909  22.677  23.594  1.00  0.00    -0.004 A 
ATOM      8  C   UNL A   1      31.869  21.735  22.536  1.00  0.00     0.009 A 
ATOM      9  C   UNL A   1      32.251  20.412  22.709  1.00  0.00     0.002 A 
ATOM     10  C   UNL A   1      32.698  20.886  25.040  1.00  0.00     0.054 A 
ATOM     11  C   UNL A   1      32.662  19.988  23.962  1.00  0.00     0.021 A 
ATOM     12  Cl  UNL A   1      33.153  20.182  26.562  1.00  0.00    -0.083 Cl
BRANCH   7  13
ATOM     13  C   UNL A   1      31.484  24.035  23.233  1.00  0.00    -0.017 A 
ATOM     14  C   UNL A   1      30.735  26.726  22.765  1.00  0.00     0.044 A 
ATOM     15  C   UNL A   1      29.914  25.889  23.521  1.00  0.00     0.027 A 
ATOM     16  C   UNL A   1      31.899  26.185  22.199  1.00  0.00     0.027 A 
ATOM     17  C   UNL A   1      30.269  24.553  23.727  1.00  0.00     0.011 A 
ATOM     18  C   UNL A   1      32.271  24.854  22.426  1.00  0.00     0.011 A 
BRANCH  14  19
ATOM     19  N   UNL A   1      30.370  28.084  22.688  1.00  0.00    -0.291 N 
ATOM     20  C   UNL A   1      30.359  29.058  23.653  1.00  0.00     0.412 C 
ATOM     21  O   UNL A   1      29.930  30.180  23.437  1.00  0.00    -0.224 OA
ATOM     22  H   UNL A   1      30.076  28.382  21.797  1.00  0.00     0.173 HD
BRANCH  20  23
ATOM     23  O   UNL A   1      30.915  28.660  24.814  1.00  0.00    -0.444 OA
BRANCH  23  24
ATOM     24  C   UNL A   1      32.269  28.990  25.180  1.00  0.00     0.106 C 
ATOM     25  C   UNL A   1      32.734  27.744  25.944  1.00  0.00     0.056 C 
ATOM     26  C   UNL A   1      32.281  30.201  26.115  1.00  0.00     0.056 C 
ATOM     27  C   UNL A   1      33.163  29.189  23.954  1.00  0.00     0.056 C 
ENDBRANCH  23  24
ENDBRANCH  20  23
ENDBRANCH  14  19
ENDBRANCH   7  13
ENDBRANCH   3   6
ENDBRANCH   1   2
BRANCH   1  28
ATOM     28  C   UNL A   1      36.019  23.196  26.217  1.00  0.00     0.023 C 
BRANCH  28  29
ATOM     29  C   UNL A   1      36.328  21.806  25.659  1.00  0.00     0.023 C 
BRANCH  29  30
ATOM     30  C   UNL A   1      37.588  21.654  24.807  1.00  0.00     0.116 C 
BRANCH  30  31
ATOM     31  N   UNL A   1      38.592  20.811  25.437  1.00  0.00    -0.352 N 
ATOM     32  C   UNL A   1      39.724  21.118  26.152  1.00  0.00     0.251 C 
ATOM     33  H   UNL A   1      38.431  19.845  25.331  1.00  0.00     0.163 HD
ATOM     34  O   UNL A   1      40.608  20.265  26.219  1.00  0.00    -0.269 OA
BRANCH  32  35
ATOM     35  C   UNL A   1      39.909  22.447  26.791  1.00  0.00     0.039 A 
ATOM     36  C   UNL A   1      40.798  22.552  27.865  1.00  0.00     0.014 A 
ATOM     37  C   UNL A   1      39.257  23.594  26.332  1.00  0.00     0.014 A 
ATOM     38  C   UNL A   1      41.158  23.810  28.350  1.00  0.00     0.010 A 
ATOM     39  C   UNL A   1      39.702  24.852  26.731  1.00  0.00     0.010 A 
ATOM     40  C   UNL A   1      40.695  24.971  27.710  1.00  0.00    -0.014 A 
BRANCH  40  41
ATOM     41  C   UNL A   1      41.357  26.277  27.962  1.00  0.00     0.031 A 
ATOM     42  C   UNL A   1      42.691  26.615  27.366  1.00  0.00     0.074 A 
ATOM     43  C   UNL A   1      40.750  27.140  28.805  1.00  0.00     0.049 A 
ATOM     44  N   UNL A   1      43.362  27.737  27.444  1.00  0.00    -0.248 NA
ATOM     45  C   UNL A   1      43.379  25.557  26.612  1.00  0.00     0.031 C 
ATOM     46  C   UNL A   1      39.499  26.878  29.526  1.00  0.00     0.029 A 
ATOM     47  N   UNL A   1      41.084  28.414  29.188  1.00  0.00    -0.354 N 
ATOM     48  C   UNL A   1      44.546  27.518  26.751  1.00  0.00     0.074 A 
ATOM     49  C   UNL A   1      44.532  26.139  26.318  1.00  0.00     0.031 C 
ATOM     50  C   UNL A   1      39.134  27.979  30.198  1.00  0.00     0.029 A 
ATOM     51  C   UNL A   1      40.146  29.007  30.000  1.00  0.00     0.049 A 
ATOM     52  H   UNL A   1      41.916  28.861  28.908  1.00  0.00     0.167 HD
ATOM     53  C   UNL A   1      45.541  28.397  26.479  1.00  0.00     0.031 A 
ATOM     54  C   UNL A   1      40.096  30.248  30.518  1.00  0.00     0.031 A 
ATOM     55  C   UNL A   1      45.551  29.765  26.932  1.00  0.00     0.049 A 
ATOM     56  C   UNL A   1      41.203  31.207  30.187  1.00  0.00     0.074 A 
ATOM     57  C   UNL A   1      46.482  30.754  26.675  1.00  0.00     0.029 A 
ATOM     58  N   UNL A   1      44.580  30.331  27.747  1.00  0.00    -0.354 N 
ATOM     59  N   UNL A   1      42.267  31.015  29.446  1.00  0.00    -0.248 NA
ATOM     60  C   UNL A   1      41.090  32.559  30.746  1.00  0.00     0.031 C 
ATOM     61  C   UNL A   1      46.108  31.901  27.383  1.00  0.00     0.029 A 
ATOM     62  C   UNL A   1      44.902  31.650  28.020  1.00  0.00     0.049 A 
ATOM     63  H   UNL A   1      43.780  29.864  28.080  1.00  0.00     0.167 HD
ATOM     64  C   UNL A   1      42.937  32.230  29.424  1.00  0.00     0.074 A 
ATOM     65  C   UNL A   1      42.143  33.156  30.207  1.00  0.00     0.031 C 
ATOM     66  C   UNL A   1      44.103  32.552  28.812  1.00  0.00     0.031 A 
BRANCH  53  67
ATOM     67  C   UNL A   1      46.703  27.897  25.660  1.00  0.00    -0.014 A 
ATOM     68  C   UNL A   1      47.832  27.326  26.272  1.00  0.00     0.009 A 
ATOM     69  C   UNL A   1      46.660  27.970  24.260  1.00  0.00     0.009 A 
ATOM     70  C   UNL A   1      48.911  26.884  25.502  1.00  0.00     0.001 A 
ATOM     71  C   UNL A   1      47.725  27.496  23.490  1.00  0.00     0.001 A 
ATOM     72  C   UNL A   1      48.854  26.965  24.111  1.00  0.00     0.000 A 
ENDBRANCH  53  67
BRANCH  54  73
ATOM     73  C   UNL A   1      38.944  30.662  31.366  1.00  0.00    -0.014 A 
ATOM     74  C   UNL A   1      37.791  31.217  30.788  1.00  0.00     0.009 A 
ATOM     75  C   UNL A   1      38.988  30.499  32.759  1.00  0.00     0.009 A 
ATOM     76  C   UNL A   1      36.724  31.632  31.589  1.00  0.00     0.001 A 
ATOM     77  C   UNL A   1      37.904  30.880  33.555  1.00  0.00     0.001 A 
ATOM     78  C   UNL A   1      36.779  31.458  32.971  1.00  0.00     0.000 A 
ENDBRANCH  54  73
BRANCH  66  79
ATOM     79  C   UNL A   1      44.562  33.978  28.934  1.00  0.00    -0.014 A 
ATOM     80  C   UNL A   1      44.167  34.961  28.012  1.00  0.00     0.009 A 
ATOM     81  C   UNL A   1      45.399  34.344  30.000  1.00  0.00     0.009 A 
ATOM     82  C   UNL A   1      44.644  36.268  28.127  1.00  0.00     0.001 A 
ATOM     83  C   UNL A   1      45.842  35.660  30.134  1.00  0.00     0.001 A 
ATOM     84  C   UNL A   1      45.477  36.616  29.190  1.00  0.00     0.000 A 
ENDBRANCH  66  79
ENDBRANCH  40  41
ENDBRANCH  32  35
ENDBRANCH  30  31
ENDBRANCH  29  30
ENDBRANCH  28  29
ENDBRANCH   1  28
TORSDOF 15
ENDMDL
MODEL 3
REMARK VINA RESULT:     -10.9      2.169      5.720
REMARK SMILES CC(C)(C)OC(=O)Nc1ccc(-c2cccc(Cl)c2C(=O)NCCCCNC(=O)c2ccc(-c3c4nc(c(-c5ccccc5)c5ccc([nH]5)c(-c5ccccc5)c5nc(c(-c6ccccc6)c6ccc3[nH]6)C=C5)C=C4)cc2)cc1
REMARK SMILES IDX 23 1 22 2 20 3 21 4 19 6 13 7 14 8 15 9 17 10 16 11 18 12
REMARK SMILES IDX 12 13 9 14 10 15 79 16 11 17 78 18 8 19 6 20 7 21 5 23 2 24
REMARK SMILES IDX 1 25 3 26 4 27 24 28 25 29 26 30 27 31 28 32 29 34 30 35
REMARK SMILES IDX 31 36 77 37 32 38 76 39 33 40 34 41 35 42 70 43 36 44 75 45
REMARK SMILES IDX 69 46 71 47 37 48 74 49 68 50 67 51 38 53 60 54 45 55 59 56
REMARK SMILES IDX 46 57 49 58 58 59 72 60 47 61 48 62 57 64 73 65 50 66 39 67
REMARK SMILES IDX 40 68 44 69 41 70 43 71 42 72 61 73 62 74 66 75 63 76 65 77
REMARK SMILES IDX 64 78 51 79 52 80 56 81 53 82 55 83 54 84
REMARK H PARENT 22 5 8 22 27 33 71 52 49 63
REMARK Flexibility Score: inf
ROOT
ATOM      1  C   UNL A   1      34.938  23.995  25.519  1.00  0.00     0.116 C 
ENDROOT
BRANCH   1   2
ATOM      2  N   UNL A   1      33.639  24.081  26.124  1.00  0.00    -0.352 N 
ATOM      3  C   UNL A   1      32.604  23.168  26.023  1.00  0.00     0.253 C 
ATOM      4  O   UNL A   1      31.801  23.139  26.958  1.00  0.00    -0.269 OA
ATOM      5  H   UNL A   1      33.465  24.880  26.673  1.00  0.00     0.163 HD
BRANCH   3   6
ATOM      6  C   UNL A   1      32.356  22.264  24.842  1.00  0.00     0.066 A 
ATOM      7  C   UNL A   1      31.943  22.678  23.543  1.00  0.00    -0.004 A 
ATOM      8  C   UNL A   1      31.910  21.725  22.494  1.00  0.00     0.009 A 
ATOM      9  C   UNL A   1      32.281  20.402  22.687  1.00  0.00     0.002 A 
ATOM     10  C   UNL A   1      32.703  20.899  25.018  1.00  0.00     0.054 A 
ATOM     11  C   UNL A   1      32.674  19.989  23.949  1.00  0.00     0.021 A 
ATOM     12  Cl  UNL A   1      33.136  20.209  26.552  1.00  0.00    -0.083 Cl
BRANCH   7  13
ATOM     13  C   UNL A   1      31.532  24.035  23.161  1.00  0.00    -0.017 A 
ATOM     14  C   UNL A   1      30.797  26.723  22.657  1.00  0.00     0.044 A 
ATOM     15  C   UNL A   1      29.943  25.883  23.373  1.00  0.00     0.027 A 
ATOM     16  C   UNL A   1      31.988  26.186  22.148  1.00  0.00     0.027 A 
ATOM     17  C   UNL A   1      30.292  24.549  23.596  1.00  0.00     0.011 A 
ATOM     18  C   UNL A   1      32.353  24.857  22.393  1.00  0.00     0.011 A 
BRANCH  14  19
ATOM     19  N   UNL A   1      30.431  28.080  22.563  1.00  0.00    -0.291 N 
ATOM     20  C   UNL A   1      30.364  29.053  23.527  1.00  0.00     0.412 C 
ATOM     21  O   UNL A   1      29.942  30.173  23.290  1.00  0.00    -0.224 OA
ATOM     22  H   UNL A   1      30.184  28.378  21.657  1.00  0.00     0.173 HD
BRANCH  20  23
ATOM     23  O   UNL A   1      30.857  28.655  24.716  1.00  0.00    -0.444 OA
BRANCH  23  24
ATOM     24  C   UNL A   1      32.197  28.969  25.144  1.00  0.00     0.106 C 
ATOM     25  C   UNL A   1      32.619  27.708  25.910  1.00  0.00     0.056 C 
ATOM     26  C   UNL A   1      32.179  30.167  26.095  1.00  0.00     0.056 C 
ATOM     27  C   UNL A   1      33.145  29.176  23.960  1.00  0.00     0.056 C 
ENDBRANCH  23  24
ENDBRANCH  20  23
ENDBRANCH  14  19
ENDBRANCH   7  13
ENDBRANCH   3   6
ENDBRANCH   1   2
BRANCH   1  28
ATOM     28  C   UNL A   1      36.030  23.208  26.226  1.00  0.00     0.023 C 
BRANCH  28  29
ATOM     29  C   UNL A   1      36.317  21.790  25.730  1.00  0.00     0.023 C 
BRANCH  29  30
ATOM     30  C   UNL A   1      37.559  21.587  24.860  1.00  0.00     0.116 C 
BRANCH  30  31
ATOM     31  N   UNL A   1      38.574  20.775  25.514  1.00  0.00    -0.352 N 
ATOM     32  C   UNL A   1      39.721  21.116  26.188  1.00  0.00     0.251 C 
ATOM     33  H   UNL A   1      38.408  19.806  25.464  1.00  0.00     0.163 HD
ATOM     34  O   UNL A   1      40.604  20.264  26.282  1.00  0.00    -0.269 OA
BRANCH  32  35
ATOM     35  C   UNL A   1      39.923  22.477  26.750  1.00  0.00     0.039 A 
ATOM     36  C   UNL A   1      40.834  22.635  27.800  1.00  0.00     0.014 A 
ATOM     37  C   UNL A   1      39.266  23.600  26.244  1.00  0.00     0.014 A 
ATOM     38  C   UNL A   1      41.207  23.916  28.209  1.00  0.00     0.010 A 
ATOM     39  C   UNL A   1      39.723  24.876  26.565  1.00  0.00     0.010 A 
ATOM     40  C   UNL A   1      40.736  25.043  27.516  1.00  0.00    -0.014 A 
BRANCH  40  41
ATOM     41  C   UNL A   1      41.407  26.357  27.685  1.00  0.00     0.031 A 
ATOM     42  C   UNL A   1      40.799  27.456  28.505  1.00  0.00     0.074 A 
ATOM     43  C   UNL A   1      42.565  26.565  27.022  1.00  0.00     0.049 A 
ATOM     44  N   UNL A   1      41.296  28.632  28.797  1.00  0.00    -0.248 NA
ATOM     45  C   UNL A   1      39.450  27.226  29.044  1.00  0.00     0.031 C 
ATOM     46  C   UNL A   1      43.201  25.605  26.112  1.00  0.00     0.029 A 
ATOM     47  N   UNL A   1      43.425  27.634  27.019  1.00  0.00    -0.354 N 
ATOM     48  C   UNL A   1      40.324  29.278  29.550  1.00  0.00     0.074 A 
ATOM     49  C   UNL A   1      39.183  28.392  29.613  1.00  0.00     0.031 C 
ATOM     50  C   UNL A   1      44.380  26.095  25.703  1.00  0.00     0.029 A 
ATOM     51  C   UNL A   1      44.563  27.421  26.276  1.00  0.00     0.049 A 
ATOM     52  H   UNL A   1      43.244  28.473  27.501  1.00  0.00     0.167 HD
ATOM     53  C   UNL A   1      40.388  30.488  30.154  1.00  0.00     0.031 A 
ATOM     54  C   UNL A   1      45.643  28.200  26.087  1.00  0.00     0.031 A 
ATOM     55  C   UNL A   1      41.525  31.369  30.068  1.00  0.00     0.049 A 
ATOM     56  C   UNL A   1      45.697  29.530  26.783  1.00  0.00     0.074 A 
ATOM     57  C   UNL A   1      41.717  32.596  30.678  1.00  0.00     0.029 A 
ATOM     58  N   UNL A   1      42.662  31.116  29.312  1.00  0.00    -0.354 N 
ATOM     59  N   UNL A   1      44.811  30.083  27.575  1.00  0.00    -0.248 NA
ATOM     60  C   UNL A   1      46.909  30.332  26.576  1.00  0.00     0.031 C 
ATOM     61  C   UNL A   1      42.943  33.112  30.245  1.00  0.00     0.029 A 
ATOM     62  C   UNL A   1      43.549  32.174  29.424  1.00  0.00     0.049 A 
ATOM     63  H   UNL A   1      42.814  30.305  28.776  1.00  0.00     0.167 HD
ATOM     64  C   UNL A   1      45.369  31.286  27.985  1.00  0.00     0.074 A 
ATOM     65  C   UNL A   1      46.680  31.365  27.372  1.00  0.00     0.031 C 
ATOM     66  C   UNL A   1      44.846  32.238  28.796  1.00  0.00     0.031 A 
BRANCH  53  67
ATOM     67  C   UNL A   1      39.190  30.929  30.954  1.00  0.00    -0.014 A 
ATOM     68  C   UNL A   1      38.124  31.617  30.349  1.00  0.00     0.009 A 
ATOM     69  C   UNL A   1      39.109  30.631  32.323  1.00  0.00     0.009 A 
ATOM     70  C   UNL A   1      37.027  32.036  31.106  1.00  0.00     0.001 A 
ATOM     71  C   UNL A   1      37.995  31.021  33.071  1.00  0.00     0.001 A 
ATOM     72  C   UNL A   1      36.962  31.734  32.465  1.00  0.00     0.000 A 
ENDBRANCH  53  67
BRANCH  54  73
ATOM     73  C   UNL A   1      46.772  27.726  25.240  1.00  0.00    -0.014 A 
ATOM     74  C   UNL A   1      47.801  26.944  25.786  1.00  0.00     0.009 A 
ATOM     75  C   UNL A   1      46.824  28.050  23.875  1.00  0.00     0.009 A 
ATOM     76  C   UNL A   1      48.873  26.526  24.994  1.00  0.00     0.001 A 
ATOM     77  C   UNL A   1      47.879  27.600  23.076  1.00  0.00     0.001 A 
ATOM     78  C   UNL A   1      48.908  26.850  23.639  1.00  0.00     0.000 A 
ENDBRANCH  54  73
BRANCH  66  79
ATOM     79  C   UNL A   1      45.717  33.426  29.096  1.00  0.00    -0.014 A 
ATOM     80  C   UNL A   1      46.604  33.433  30.184  1.00  0.00     0.009 A 
ATOM     81  C   UNL A   1      45.651  34.556  28.265  1.00  0.00     0.009 A 
ATOM     82  C   UNL A   1      47.369  34.567  30.463  1.00  0.00     0.001 A 
ATOM     83  C   UNL A   1      46.445  35.673  28.524  1.00  0.00     0.001 A 
ATOM     84  C   UNL A   1      47.292  35.683  29.631  1.00  0.00     0.000 A 
ENDBRANCH  66  79
ENDBRANCH  40  41
ENDBRANCH  32  35
ENDBRANCH  30  31
ENDBRANCH  29  30
ENDBRANCH  28  29
ENDBRANCH   1  28
TORSDOF 15
ENDMDL
