MODEL 1
REMARK VINA RESULT:      -8.5      0.000      0.000
REMARK SMILES CC/C=C/C/C=C/C/C=C/C/C=C/CCSCCCC(=O)NCCCCNC(=O)c1ccc(-c2c3nc(c(-c4ccccc4)c4ccc([nH]4)c(-c4ccccc4)c4nc(c(-c5ccccc5)c5ccc2[nH]5)C=C4)C=C3)cc1
REMARK SMILES IDX 17 1 16 2 15 3 14 4 13 5 12 6 11 7 10 8 9 9 8 10 7 11 6 12
REMARK SMILES IDX 5 13 4 14 3 15 2 16 1 17 18 18 19 19 20 20 21 21 22 22 23 24
REMARK SMILES IDX 24 25 25 26 26 27 27 28 28 29 29 31 30 32 31 33 77 34 32 35
REMARK SMILES IDX 76 36 33 37 34 38 35 39 70 40 36 41 75 42 69 43 71 44 37 45
REMARK SMILES IDX 74 46 68 47 67 48 38 50 60 51 45 52 59 53 46 54 49 55 58 56
REMARK SMILES IDX 72 57 47 58 48 59 57 61 73 62 50 63 39 64 40 65 44 66 41 67
REMARK SMILES IDX 43 68 42 69 61 70 62 71 66 72 63 73 65 74 64 75 51 76 52 77
REMARK SMILES IDX 56 78 53 79 55 80 54 81
REMARK H PARENT 22 23 27 30 71 49 49 60
REMARK Flexibility Score: inf
ROOT
ATOM      1  C   UNL A   1      33.270  27.625  24.140  1.00  0.00     0.070 C 
ENDROOT
BRANCH   1   2
ATOM      2  S   UNL A   1      32.051  28.462  23.028  1.00  0.00    -0.162 SA
BRANCH   2   3
ATOM      3  C   UNL A   1      30.347  28.408  23.738  1.00  0.00     0.073 C 
BRANCH   3   4
ATOM      4  C   UNL A   1      29.560  27.069  23.641  1.00  0.00     0.038 C 
BRANCH   4   5
ATOM      5  C   UNL A   1      29.785  26.086  24.758  1.00  0.00    -0.030 C 
ATOM      6  C   UNL A   1      30.808  25.233  24.945  1.00  0.00    -0.027 C 
BRANCH   6   7
ATOM      7  C   UNL A   1      31.037  24.535  26.275  1.00  0.00     0.054 C 
BRANCH   7   8
ATOM      8  C   UNL A   1      32.388  23.898  26.425  1.00  0.00    -0.027 C 
ATOM      9  C   UNL A   1      32.709  23.073  27.436  1.00  0.00    -0.027 C 
BRANCH   9  10
ATOM     10  C   UNL A   1      34.072  22.466  27.629  1.00  0.00     0.054 C 
BRANCH  10  11
ATOM     11  C   UNL A   1      34.808  22.537  26.326  1.00  0.00    -0.027 C 
ATOM     12  C   UNL A   1      35.857  23.338  26.084  1.00  0.00    -0.027 C 
BRANCH  12  13
ATOM     13  C   UNL A   1      36.423  23.560  24.711  1.00  0.00     0.054 C 
BRANCH  13  14
ATOM     14  C   UNL A   1      35.336  23.354  23.695  1.00  0.00    -0.027 C 
ATOM     15  C   UNL A   1      34.451  24.295  23.335  1.00  0.00    -0.031 C 
BRANCH  15  16
ATOM     16  C   UNL A   1      33.303  24.041  22.403  1.00  0.00     0.023 C 
ATOM     17  C   UNL A   1      32.865  22.586  22.480  1.00  0.00     0.008 C 
ENDBRANCH  15  16
ENDBRANCH  13  14
ENDBRANCH  12  13
ENDBRANCH  10  11
ENDBRANCH   9  10
ENDBRANCH   7   8
ENDBRANCH   6   7
ENDBRANCH   4   5
ENDBRANCH   3   4
ENDBRANCH   2   3
ENDBRANCH   1   2
BRANCH   1  18
ATOM     18  C   UNL A   1      33.952  28.188  25.384  1.00  0.00     0.021 C 
BRANCH  18  19
ATOM     19  C   UNL A   1      33.422  27.845  26.758  1.00  0.00     0.101 C 
BRANCH  19  20
ATOM     20  C   UNL A   1      32.051  28.362  27.168  1.00  0.00     0.220 C 
ATOM     21  O   UNL A   1      31.359  27.686  27.936  1.00  0.00    -0.275 OA
ATOM     22  N   UNL A   1      31.541  29.564  26.803  1.00  0.00    -0.356 N 
ATOM     23  H   UNL A   1      30.563  29.623  26.899  1.00  0.00     0.163 HD
BRANCH  22  24
ATOM     24  C   UNL A   1      32.149  30.779  26.299  1.00  0.00     0.116 C 
BRANCH  24  25
ATOM     25  C   UNL A   1      32.847  31.602  27.378  1.00  0.00     0.023 C 
BRANCH  25  26
ATOM     26  C   UNL A   1      32.298  33.031  27.438  1.00  0.00     0.023 C 
BRANCH  26  27
ATOM     27  C   UNL A   1      33.337  34.092  27.806  1.00  0.00     0.116 C 
BRANCH  27  28
ATOM     28  N   UNL A   1      33.060  34.734  29.080  1.00  0.00    -0.352 N 
ATOM     29  C   UNL A   1      33.657  34.538  30.306  1.00  0.00     0.251 C 
ATOM     30  H   UNL A   1      32.340  35.406  29.066  1.00  0.00     0.163 HD
ATOM     31  O   UNL A   1      33.194  35.049  31.314  1.00  0.00    -0.269 OA
BRANCH  29  32
ATOM     32  C   UNL A   1      34.853  33.673  30.402  1.00  0.00     0.039 A 
ATOM     33  C   UNL A   1      36.005  34.031  29.698  1.00  0.00     0.014 A 
ATOM     34  C   UNL A   1      34.844  32.526  31.199  1.00  0.00     0.014 A 
ATOM     35  C   UNL A   1      37.174  33.285  29.861  1.00  0.00     0.010 A 
ATOM     36  C   UNL A   1      36.032  31.834  31.426  1.00  0.00     0.010 A 
ATOM     37  C   UNL A   1      37.210  32.206  30.762  1.00  0.00    -0.014 A 
BRANCH  37  38
ATOM     38  C   UNL A   1      38.472  31.466  31.024  1.00  0.00     0.031 A 
ATOM     39  C   UNL A   1      39.448  31.969  32.052  1.00  0.00     0.074 A 
ATOM     40  C   UNL A   1      38.769  30.369  30.297  1.00  0.00     0.049 A 
ATOM     41  N   UNL A   1      40.615  31.481  32.392  1.00  0.00    -0.248 NA
ATOM     42  C   UNL A   1      39.077  33.195  32.777  1.00  0.00     0.031 C 
ATOM     43  C   UNL A   1      37.930  29.799  29.240  1.00  0.00     0.029 A 
ATOM     44  N   UNL A   1      39.861  29.538  30.336  1.00  0.00    -0.354 N 
ATOM     45  C   UNL A   1      41.118  32.344  33.359  1.00  0.00     0.074 A 
ATOM     46  C   UNL A   1      40.161  33.418  33.506  1.00  0.00     0.031 C 
ATOM     47  C   UNL A   1      38.521  28.694  28.758  1.00  0.00     0.029 A 
ATOM     48  C   UNL A   1      39.797  28.501  29.437  1.00  0.00     0.049 A 
ATOM     49  H   UNL A   1      40.618  29.672  30.952  1.00  0.00     0.167 HD
ATOM     50  C   UNL A   1      42.262  32.242  34.076  1.00  0.00     0.031 A 
ATOM     51  C   UNL A   1      40.670  27.507  29.184  1.00  0.00     0.031 A 
ATOM     52  C   UNL A   1      43.216  31.174  33.932  1.00  0.00     0.049 A 
ATOM     53  C   UNL A   1      41.948  27.432  29.974  1.00  0.00     0.074 A 
ATOM     54  C   UNL A   1      44.380  30.957  34.647  1.00  0.00     0.029 A 
ATOM     55  N   UNL A   1      43.115  30.146  33.007  1.00  0.00    -0.354 N 
ATOM     56  N   UNL A   1      42.373  28.217  30.935  1.00  0.00    -0.248 NA
ATOM     57  C   UNL A   1      42.860  26.325  29.653  1.00  0.00     0.031 C 
ATOM     58  C   UNL A   1      45.016  29.830  34.114  1.00  0.00     0.029 A 
ATOM     59  C   UNL A   1      44.212  29.307  33.114  1.00  0.00     0.049 A 
ATOM     60  H   UNL A   1      42.374  30.030  32.369  1.00  0.00     0.167 HD
ATOM     61  C   UNL A   1      43.585  27.681  31.353  1.00  0.00     0.074 A 
ATOM     62  C   UNL A   1      43.815  26.494  30.556  1.00  0.00     0.031 C 
ATOM     63  C   UNL A   1      44.429  28.130  32.314  1.00  0.00     0.031 A 
BRANCH  50  64
ATOM     64  C   UNL A   1      42.546  33.325  35.082  1.00  0.00    -0.014 A 
ATOM     65  C   UNL A   1      42.106  33.219  36.411  1.00  0.00     0.009 A 
ATOM     66  C   UNL A   1      43.292  34.454  34.704  1.00  0.00     0.009 A 
ATOM     67  C   UNL A   1      42.368  34.238  37.329  1.00  0.00     0.001 A 
ATOM     68  C   UNL A   1      43.582  35.455  35.632  1.00  0.00     0.001 A 
ATOM     69  C   UNL A   1      43.110  35.352  36.940  1.00  0.00     0.000 A 
ENDBRANCH  50  64
BRANCH  51  70
ATOM     70  C   UNL A   1      40.367  26.489  28.141  1.00  0.00    -0.014 A 
ATOM     71  C   UNL A   1      39.576  25.369  28.446  1.00  0.00     0.009 A 
ATOM     72  C   UNL A   1      40.881  26.621  26.842  1.00  0.00     0.009 A 
ATOM     73  C   UNL A   1      39.336  24.387  27.482  1.00  0.00     0.001 A 
ATOM     74  C   UNL A   1      40.612  25.653  25.871  1.00  0.00     0.001 A 
ATOM     75  C   UNL A   1      39.850  24.532  26.194  1.00  0.00     0.000 A 
ENDBRANCH  51  70
BRANCH  63  76
ATOM     76  C   UNL A   1      45.662  27.313  32.585  1.00  0.00    -0.014 A 
ATOM     77  C   UNL A   1      45.661  26.273  33.528  1.00  0.00     0.009 A 
ATOM     78  C   UNL A   1      46.835  27.566  31.855  1.00  0.00     0.009 A 
ATOM     79  C   UNL A   1      46.820  25.528  33.759  1.00  0.00     0.001 A 
ATOM     80  C   UNL A   1      47.981  26.800  32.064  1.00  0.00     0.001 A 
ATOM     81  C   UNL A   1      47.977  25.789  33.025  1.00  0.00     0.000 A 
ENDBRANCH  63  76
ENDBRANCH  37  38
ENDBRANCH  29  32
ENDBRANCH  27  28
ENDBRANCH  26  27
ENDBRANCH  25  26
ENDBRANCH  24  25
ENDBRANCH  22  24
ENDBRANCH  19  20
ENDBRANCH  18  19
ENDBRANCH   1  18
TORSDOF 24
ENDMDL
MODEL 2
REMARK VINA RESULT:      -8.0      4.155      9.220
REMARK SMILES CC/C=C/C/C=C/C/C=C/C/C=C/CCSCCCC(=O)NCCCCNC(=O)c1ccc(-c2c3nc(c(-c4ccccc4)c4ccc([nH]4)c(-c4ccccc4)c4nc(c(-c5ccccc5)c5ccc2[nH]5)C=C4)C=C3)cc1
REMARK SMILES IDX 17 1 16 2 15 3 14 4 13 5 12 6 11 7 10 8 9 9 8 10 7 11 6 12
REMARK SMILES IDX 5 13 4 14 3 15 2 16 1 17 18 18 19 19 20 20 21 21 22 22 23 24
REMARK SMILES IDX 24 25 25 26 26 27 27 28 28 29 29 31 30 32 31 33 77 34 32 35
REMARK SMILES IDX 76 36 33 37 34 38 35 39 70 40 36 41 75 42 69 43 71 44 37 45
REMARK SMILES IDX 74 46 68 47 67 48 38 50 60 51 45 52 59 53 46 54 49 55 58 56
REMARK SMILES IDX 72 57 47 58 48 59 57 61 73 62 50 63 39 64 40 65 44 66 41 67
REMARK SMILES IDX 43 68 42 69 61 70 62 71 66 72 63 73 65 74 64 75 51 76 52 77
REMARK SMILES IDX 56 78 53 79 55 80 54 81
REMARK H PARENT 22 23 27 30 71 49 49 60
REMARK Flexibility Score: inf
ROOT
ATOM      1  C   UNL A   1      35.271  21.465  26.037  1.00  0.00     0.070 C 
ENDROOT
BRANCH   1   2
ATOM      2  S   UNL A   1      33.515  20.921  26.254  1.00  0.00    -0.162 SA
BRANCH   2   3
ATOM      3  C   UNL A   1      32.734  20.507  24.632  1.00  0.00     0.073 C 
BRANCH   3   4
ATOM      4  C   UNL A   1      32.197  21.681  23.763  1.00  0.00     0.038 C 
BRANCH   4   5
ATOM      5  C   UNL A   1      31.960  22.982  24.481  1.00  0.00    -0.030 C 
ATOM      6  C   UNL A   1      30.804  23.510  24.922  1.00  0.00    -0.027 C 
BRANCH   6   7
ATOM      7  C   UNL A   1      30.776  24.677  25.894  1.00  0.00     0.054 C 
BRANCH   7   8
ATOM      8  C   UNL A   1      30.218  25.950  25.329  1.00  0.00    -0.027 C 
ATOM      9  C   UNL A   1      29.679  26.041  24.101  1.00  0.00    -0.027 C 
BRANCH   9  10
ATOM     10  C   UNL A   1      29.160  27.319  23.500  1.00  0.00     0.054 C 
BRANCH  10  11
ATOM     11  C   UNL A   1      30.298  28.290  23.403  1.00  0.00    -0.027 C 
ATOM     12  C   UNL A   1      31.439  28.065  22.735  1.00  0.00    -0.027 C 
BRANCH  12  13
ATOM     13  C   UNL A   1      32.647  28.949  22.849  1.00  0.00     0.054 C 
BRANCH  13  14
ATOM     14  C   UNL A   1      33.024  29.078  24.298  1.00  0.00    -0.027 C 
ATOM     15  C   UNL A   1      33.697  28.146  24.988  1.00  0.00    -0.031 C 
BRANCH  15  16
ATOM     16  C   UNL A   1      33.968  28.239  26.461  1.00  0.00     0.023 C 
ATOM     17  C   UNL A   1      32.665  28.204  27.246  1.00  0.00     0.008 C 
ENDBRANCH  15  16
ENDBRANCH  13  14
ENDBRANCH  12  13
ENDBRANCH  10  11
ENDBRANCH   9  10
ENDBRANCH   7   8
ENDBRANCH   6   7
ENDBRANCH   4   5
ENDBRANCH   3   4
ENDBRANCH   2   3
ENDBRANCH   1   2
BRANCH   1  18
ATOM     18  C   UNL A   1      36.201  21.199  24.857  1.00  0.00     0.021 C 
BRANCH  18  19
ATOM     19  C   UNL A   1      37.400  22.091  24.623  1.00  0.00     0.101 C 
BRANCH  19  20
ATOM     20  C   UNL A   1      37.723  23.171  25.645  1.00  0.00     0.220 C 
ATOM     21  O   UNL A   1      36.801  23.832  26.134  1.00  0.00    -0.275 OA
ATOM     22  N   UNL A   1      38.965  23.431  26.124  1.00  0.00    -0.356 N 
ATOM     23  H   UNL A   1      39.050  24.320  26.537  1.00  0.00     0.163 HD
BRANCH  22  24
ATOM     24  C   UNL A   1      40.191  22.659  26.148  1.00  0.00     0.116 C 
BRANCH  24  25
ATOM     25  C   UNL A   1      40.062  21.335  26.896  1.00  0.00     0.023 C 
BRANCH  25  26
ATOM     26  C   UNL A   1      40.650  20.174  26.089  1.00  0.00     0.023 C 
BRANCH  26  27
ATOM     27  C   UNL A   1      41.962  19.617  26.645  1.00  0.00     0.116 C 
BRANCH  27  28
ATOM     28  N   UNL A   1      43.021  19.572  25.651  1.00  0.00    -0.352 N 
ATOM     29  C   UNL A   1      43.764  20.601  25.115  1.00  0.00     0.251 C 
ATOM     30  H   UNL A   1      43.240  18.674  25.309  1.00  0.00     0.163 HD
ATOM     31  O   UNL A   1      44.509  20.405  24.168  1.00  0.00    -0.269 OA
BRANCH  29  32
ATOM     32  C   UNL A   1      43.628  21.963  25.676  1.00  0.00     0.039 A 
ATOM     33  C   UNL A   1      43.745  22.141  27.057  1.00  0.00     0.014 A 
ATOM     34  C   UNL A   1      43.407  23.062  24.842  1.00  0.00     0.014 A 
ATOM     35  C   UNL A   1      43.725  23.431  27.591  1.00  0.00     0.010 A 
ATOM     36  C   UNL A   1      43.472  24.351  25.366  1.00  0.00     0.010 A 
ATOM     37  C   UNL A   1      43.634  24.551  26.745  1.00  0.00    -0.014 A 
BRANCH  37  38
ATOM     38  C   UNL A   1      43.716  25.931  27.288  1.00  0.00     0.031 A 
ATOM     39  C   UNL A   1      45.050  26.604  27.457  1.00  0.00     0.074 A 
ATOM     40  C   UNL A   1      42.591  26.563  27.682  1.00  0.00     0.049 A 
ATOM     41  N   UNL A   1      45.323  27.788  27.947  1.00  0.00    -0.248 NA
ATOM     42  C   UNL A   1      46.238  25.839  27.045  1.00  0.00     0.031 C 
ATOM     43  C   UNL A   1      41.236  26.009  27.612  1.00  0.00     0.029 A 
ATOM     44  N   UNL A   1      42.408  27.812  28.223  1.00  0.00    -0.354 N 
ATOM     45  C   UNL A   1      46.708  27.901  27.912  1.00  0.00     0.074 A 
ATOM     46  C   UNL A   1      47.222  26.646  27.412  1.00  0.00     0.031 C 
ATOM     47  C   UNL A   1      40.363  26.926  28.057  1.00  0.00     0.029 A 
ATOM     48  C   UNL A   1      41.093  28.113  28.485  1.00  0.00     0.049 A 
ATOM     49  H   UNL A   1      43.150  28.434  28.404  1.00  0.00     0.167 HD
ATOM     50  C   UNL A   1      47.483  28.961  28.244  1.00  0.00     0.031 A 
ATOM     51  C   UNL A   1      40.538  29.220  29.015  1.00  0.00     0.031 A 
ATOM     52  C   UNL A   1      46.973  30.212  28.741  1.00  0.00     0.049 A 
ATOM     53  C   UNL A   1      41.422  30.373  29.402  1.00  0.00     0.074 A 
ATOM     54  C   UNL A   1      47.673  31.362  29.059  1.00  0.00     0.029 A 
ATOM     55  N   UNL A   1      45.635  30.474  28.995  1.00  0.00    -0.354 N 
ATOM     56  N   UNL A   1      42.723  30.490  29.293  1.00  0.00    -0.248 NA
ATOM     57  C   UNL A   1      40.757  31.553  29.973  1.00  0.00     0.031 C 
ATOM     58  C   UNL A   1      46.766  32.300  29.564  1.00  0.00     0.029 A 
ATOM     59  C   UNL A   1      45.493  31.758  29.494  1.00  0.00     0.049 A 
ATOM     60  H   UNL A   1      44.897  29.841  28.845  1.00  0.00     0.167 HD
ATOM     61  C   UNL A   1      43.029  31.765  29.753  1.00  0.00     0.074 A 
ATOM     62  C   UNL A   1      41.775  32.389  30.121  1.00  0.00     0.031 C 
ATOM     63  C   UNL A   1      44.239  32.366  29.857  1.00  0.00     0.031 A 
BRANCH  50  64
ATOM     64  C   UNL A   1      48.971  28.807  28.083  1.00  0.00    -0.014 A 
ATOM     65  C   UNL A   1      49.772  28.327  29.131  1.00  0.00     0.009 A 
ATOM     66  C   UNL A   1      49.577  29.118  26.854  1.00  0.00     0.009 A 
ATOM     67  C   UNL A   1      51.153  28.199  28.968  1.00  0.00     0.001 A 
ATOM     68  C   UNL A   1      50.953  28.958  26.683  1.00  0.00     0.001 A 
ATOM     69  C   UNL A   1      51.742  28.510  27.743  1.00  0.00     0.000 A 
ENDBRANCH  50  64
BRANCH  51  70
ATOM     70  C   UNL A   1      39.063  29.303  29.202  1.00  0.00    -0.014 A 
ATOM     71  C   UNL A   1      38.480  28.970  30.435  1.00  0.00     0.009 A 
ATOM     72  C   UNL A   1      38.230  29.698  28.145  1.00  0.00     0.009 A 
ATOM     73  C   UNL A   1      37.093  28.997  30.594  1.00  0.00     0.001 A 
ATOM     74  C   UNL A   1      36.845  29.756  28.316  1.00  0.00     0.001 A 
ATOM     75  C   UNL A   1      36.276  29.395  29.536  1.00  0.00     0.000 A 
ENDBRANCH  51  70
BRANCH  63  76
ATOM     76  C   UNL A   1      44.263  33.786  30.353  1.00  0.00    -0.014 A 
ATOM     77  C   UNL A   1      44.123  34.872  29.476  1.00  0.00     0.009 A 
ATOM     78  C   UNL A   1      44.392  34.036  31.729  1.00  0.00     0.009 A 
ATOM     79  C   UNL A   1      44.148  36.182  29.963  1.00  0.00     0.001 A 
ATOM     80  C   UNL A   1      44.383  35.343  32.217  1.00  0.00     0.001 A 
ATOM     81  C   UNL A   1      44.273  36.415  31.332  1.00  0.00     0.000 A 
ENDBRANCH  63  76
ENDBRANCH  37  38
ENDBRANCH  29  32
ENDBRANCH  27  28
ENDBRANCH  26  27
ENDBRANCH  25  26
ENDBRANCH  24  25
ENDBRANCH  22  24
ENDBRANCH  19  20
ENDBRANCH  18  19
ENDBRANCH   1  18
TORSDOF 24
ENDMDL
MODEL 3
REMARK VINA RESULT:      -8.0      0.858      2.007
REMARK SMILES CC/C=C/C/C=C/C/C=C/C/C=C/CCSCCCC(=O)NCCCCNC(=O)c1ccc(-c2c3nc(c(-c4ccccc4)c4ccc([nH]4)c(-c4ccccc4)c4nc(c(-c5ccccc5)c5ccc2[nH]5)C=C4)C=C3)cc1
REMARK SMILES IDX 17 1 16 2 15 3 14 4 13 5 12 6 11 7 10 8 9 9 8 10 7 11 6 12
REMARK SMILES IDX 5 13 4 14 3 15 2 16 1 17 18 18 19 19 20 20 21 21 22 22 23 24
REMARK SMILES IDX 24 25 25 26 26 27 27 28 28 29 29 31 30 32 31 33 77 34 32 35
REMARK SMILES IDX 76 36 33 37 34 38 35 39 70 40 36 41 75 42 69 43 71 44 37 45
REMARK SMILES IDX 74 46 68 47 67 48 38 50 60 51 45 52 59 53 46 54 49 55 58 56
REMARK SMILES IDX 72 57 47 58 48 59 57 61 73 62 50 63 39 64 40 65 44 66 41 67
REMARK SMILES IDX 43 68 42 69 61 70 62 71 66 72 63 73 65 74 64 75 51 76 52 77
REMARK SMILES IDX 56 78 53 79 55 80 54 81
REMARK H PARENT 22 23 27 30 71 49 49 60
REMARK Flexibility Score: inf
ROOT
ATOM      1  C   UNL A   1      33.886  27.707  24.721  1.00  0.00     0.070 C 
ENDROOT
BRANCH   1   2
ATOM      2  S   UNL A   1      33.151  28.396  23.169  1.00  0.00    -0.162 SA
BRANCH   2   3
ATOM      3  C   UNL A   1      31.352  28.002  23.044  1.00  0.00     0.073 C 
BRANCH   3   4
ATOM      4  C   UNL A   1      30.943  26.695  22.303  1.00  0.00     0.038 C 
BRANCH   4   5
ATOM      5  C   UNL A   1      32.050  25.710  22.038  1.00  0.00    -0.030 C 
ATOM      6  C   UNL A   1      32.392  24.611  22.734  1.00  0.00    -0.027 C 
BRANCH   6   7
ATOM      7  C   UNL A   1      33.330  23.561  22.164  1.00  0.00     0.054 C 
BRANCH   7   8
ATOM      8  C   UNL A   1      34.254  22.934  23.166  1.00  0.00    -0.027 C 
ATOM      9  C   UNL A   1      35.586  23.113  23.157  1.00  0.00    -0.027 C 
BRANCH   9  10
ATOM     10  C   UNL A   1      36.532  22.453  24.123  1.00  0.00     0.054 C 
BRANCH  10  11
ATOM     11  C   UNL A   1      35.910  22.482  25.486  1.00  0.00    -0.027 C 
ATOM     12  C   UNL A   1      35.120  21.520  25.986  1.00  0.00    -0.027 C 
BRANCH  12  13
ATOM     13  C   UNL A   1      34.326  21.682  27.250  1.00  0.00     0.054 C 
BRANCH  13  14
ATOM     14  C   UNL A   1      33.662  23.030  27.242  1.00  0.00    -0.027 C 
ATOM     15  C   UNL A   1      32.438  23.265  26.747  1.00  0.00    -0.031 C 
BRANCH  15  16
ATOM     16  C   UNL A   1      31.835  24.634  26.644  1.00  0.00     0.023 C 
ATOM     17  C   UNL A   1      30.529  24.585  25.864  1.00  0.00     0.008 C 
ENDBRANCH  15  16
ENDBRANCH  13  14
ENDBRANCH  12  13
ENDBRANCH  10  11
ENDBRANCH   9  10
ENDBRANCH   7   8
ENDBRANCH   6   7
ENDBRANCH   4   5
ENDBRANCH   3   4
ENDBRANCH   2   3
ENDBRANCH   1   2
BRANCH   1  18
ATOM     18  C   UNL A   1      34.346  28.464  25.963  1.00  0.00     0.021 C 
BRANCH  18  19
ATOM     19  C   UNL A   1      33.593  28.310  27.266  1.00  0.00     0.101 C 
BRANCH  19  20
ATOM     20  C   UNL A   1      32.079  28.459  27.262  1.00  0.00     0.220 C 
ATOM     21  O   UNL A   1      31.397  27.681  27.938  1.00  0.00    -0.275 OA
ATOM     22  N   UNL A   1      31.403  29.440  26.615  1.00  0.00    -0.356 N 
ATOM     23  H   UNL A   1      30.452  29.234  26.470  1.00  0.00     0.163 HD
BRANCH  22  24
ATOM     24  C   UNL A   1      31.804  30.732  26.095  1.00  0.00     0.116 C 
BRANCH  24  25
ATOM     25  C   UNL A   1      32.482  31.622  27.133  1.00  0.00     0.023 C 
BRANCH  25  26
ATOM     26  C   UNL A   1      31.947  33.056  27.080  1.00  0.00     0.023 C 
BRANCH  26  27
ATOM     27  C   UNL A   1      33.002  34.135  27.334  1.00  0.00     0.116 C 
BRANCH  27  28
ATOM     28  N   UNL A   1      32.724  34.927  28.520  1.00  0.00    -0.352 N 
ATOM     29  C   UNL A   1      33.330  34.892  29.757  1.00  0.00     0.251 C 
ATOM     30  H   UNL A   1      31.995  35.583  28.427  1.00  0.00     0.163 HD
ATOM     31  O   UNL A   1      32.865  35.519  30.697  1.00  0.00    -0.269 OA
BRANCH  29  32
ATOM     32  C   UNL A   1      34.537  34.060  29.952  1.00  0.00     0.039 A 
ATOM     33  C   UNL A   1      35.679  34.338  29.196  1.00  0.00     0.014 A 
ATOM     34  C   UNL A   1      34.549  33.025  30.890  1.00  0.00     0.014 A 
ATOM     35  C   UNL A   1      36.858  33.631  29.443  1.00  0.00     0.010 A 
ATOM     36  C   UNL A   1      35.746  32.382  31.193  1.00  0.00     0.010 A 
ATOM     37  C   UNL A   1      36.915  32.678  30.475  1.00  0.00    -0.014 A 
BRANCH  37  38
ATOM     38  C   UNL A   1      38.188  31.993  30.818  1.00  0.00     0.031 A 
ATOM     39  C   UNL A   1      39.127  32.595  31.826  1.00  0.00     0.074 A 
ATOM     40  C   UNL A   1      38.528  30.853  30.180  1.00  0.00     0.049 A 
ATOM     41  N   UNL A   1      40.297  32.163  32.227  1.00  0.00    -0.248 NA
ATOM     42  C   UNL A   1      38.710  33.860  32.451  1.00  0.00     0.031 C 
ATOM     43  C   UNL A   1      37.728  30.185  29.151  1.00  0.00     0.029 A 
ATOM     44  N   UNL A   1      39.638  30.056  30.304  1.00  0.00    -0.354 N 
ATOM     45  C   UNL A   1      40.757  33.107  33.137  1.00  0.00     0.074 A 
ATOM     46  C   UNL A   1      39.771  34.164  33.184  1.00  0.00     0.031 C 
ATOM     47  C   UNL A   1      38.356  29.063  28.765  1.00  0.00     0.029 A 
ATOM     48  C   UNL A   1      39.621  28.954  29.483  1.00  0.00     0.049 A 
ATOM     49  H   UNL A   1      40.377  30.254  30.924  1.00  0.00     0.167 HD
ATOM     50  C   UNL A   1      41.886  33.088  33.885  1.00  0.00     0.031 A 
ATOM     51  C   UNL A   1      40.523  27.967  29.323  1.00  0.00     0.031 A 
ATOM     52  C   UNL A   1      42.868  32.037  33.840  1.00  0.00     0.049 A 
ATOM     53  C   UNL A   1      41.784  27.984  30.144  1.00  0.00     0.074 A 
ATOM     54  C   UNL A   1      44.021  31.903  34.594  1.00  0.00     0.029 A 
ATOM     55  N   UNL A   1      42.814  30.942  32.992  1.00  0.00    -0.354 N 
ATOM     56  N   UNL A   1      42.167  28.847  31.053  1.00  0.00    -0.248 NA
ATOM     57  C   UNL A   1      42.729  26.880  29.925  1.00  0.00     0.031 C 
ATOM     58  C   UNL A   1      44.696  30.757  34.159  1.00  0.00     0.029 A 
ATOM     59  C   UNL A   1      43.928  30.142  33.184  1.00  0.00     0.049 A 
ATOM     60  H   UNL A   1      42.091  30.760  32.349  1.00  0.00     0.167 HD
ATOM     61  C   UNL A   1      43.382  28.375  31.535  1.00  0.00     0.074 A 
ATOM     62  C   UNL A   1      43.659  27.139  30.833  1.00  0.00     0.031 C 
ATOM     63  C   UNL A   1      44.192  28.915  32.478  1.00  0.00     0.031 A 
BRANCH  50  64
ATOM     64  C   UNL A   1      42.120  34.249  34.813  1.00  0.00    -0.014 A 
ATOM     65  C   UNL A   1      42.800  35.400  34.385  1.00  0.00     0.009 A 
ATOM     66  C   UNL A   1      41.627  34.204  36.128  1.00  0.00     0.009 A 
ATOM     67  C   UNL A   1      43.017  36.464  35.263  1.00  0.00     0.001 A 
ATOM     68  C   UNL A   1      41.816  35.282  36.993  1.00  0.00     0.001 A 
ATOM     69  C   UNL A   1      42.521  36.406  36.564  1.00  0.00     0.000 A 
ENDBRANCH  50  64
BRANCH  51  70
ATOM     70  C   UNL A   1      40.269  26.868  28.352  1.00  0.00    -0.014 A 
ATOM     71  C   UNL A   1      40.798  26.926  27.053  1.00  0.00     0.009 A 
ATOM     72  C   UNL A   1      39.481  25.764  28.713  1.00  0.00     0.009 A 
ATOM     73  C   UNL A   1      40.515  25.920  26.126  1.00  0.00     0.001 A 
ATOM     74  C   UNL A   1      39.226  24.743  27.794  1.00  0.00     0.001 A 
ATOM     75  C   UNL A   1      39.733  24.826  26.499  1.00  0.00     0.000 A 
ENDBRANCH  51  70
BRANCH  63  76
ATOM     76  C   UNL A   1      45.438  28.152  32.835  1.00  0.00    -0.014 A 
ATOM     77  C   UNL A   1      46.660  28.398  32.189  1.00  0.00     0.009 A 
ATOM     78  C   UNL A   1      45.394  27.194  33.860  1.00  0.00     0.009 A 
ATOM     79  C   UNL A   1      47.803  27.675  32.540  1.00  0.00     0.001 A 
ATOM     80  C   UNL A   1      46.543  26.497  34.232  1.00  0.00     0.001 A 
ATOM     81  C   UNL A   1      47.744  26.730  33.563  1.00  0.00     0.000 A 
ENDBRANCH  63  76
ENDBRANCH  37  38
ENDBRANCH  29  32
ENDBRANCH  27  28
ENDBRANCH  26  27
ENDBRANCH  25  26
ENDBRANCH  24  25
ENDBRANCH  22  24
ENDBRANCH  19  20
ENDBRANCH  18  19
ENDBRANCH   1  18
TORSDOF 24
ENDMDL
