MODEL 1
REMARK VINA RESULT:     -10.8      0.000      0.000
REMARK SMILES COc1ccc(-n2cc(C(=O)NCCCCNC(=O)c3ccc(-c4c5nc(c(-c6ccccc6)c6ccc([nH]6)c(-c6ccccc6)c6nc(c(-c7ccccc7)c7ccc4[nH]7)C=C6)C=C5)cc3)c3c2[C@H](c2ccc(OCC(N)=O)cc2)CC(O)=N3)cc1
REMARK SMILES IDX 13 1 12 2 10 3 11 4 9 6 7 7 8 8 69 9 68 10 70 11 85 12 82 13
REMARK SMILES IDX 83 14 6 15 3 16 4 17 87 18 5 19 86 20 2 21 1 22 71 23 72 24
REMARK SMILES IDX 81 25 73 26 80 27 74 28 75 29 76 30 77 31 78 32 79 33 84 36
REMARK SMILES IDX 14 38 15 39 16 40 17 41 18 42 19 44 20 45 21 46 67 47 22 48
REMARK SMILES IDX 66 49 23 50 24 51 25 52 60 53 26 54 65 55 59 56 61 57 27 58
REMARK SMILES IDX 64 59 58 60 57 61 28 63 50 64 35 65 49 66 36 67 39 68 48 69
REMARK SMILES IDX 62 70 37 71 38 72 47 74 63 75 40 76 29 77 30 78 34 79 31 80
REMARK SMILES IDX 33 81 32 82 51 83 52 84 56 85 53 86 55 87 54 88 41 89 42 90
REMARK SMILES IDX 46 91 43 92 45 93 44 94
REMARK H PARENT 12 5 78 34 78 35 84 37 17 43 61 62 39 73
REMARK Flexibility Score: inf
ROOT
ATOM      1  C   UNL A   1      42.587  28.192  35.002  1.00  0.00     0.116 C 
ENDROOT
BRANCH   1   2
ATOM      2  N   UNL A   1      42.103  29.151  35.973  1.00  0.00    -0.352 N 
ATOM      3  C   UNL A   1      41.370  30.305  35.748  1.00  0.00     0.255 C 
ATOM      4  O   UNL A   1      41.063  30.981  36.732  1.00  0.00    -0.269 OA
ATOM      5  H   UNL A   1      42.322  28.958  36.914  1.00  0.00     0.163 HD
BRANCH   3   6
ATOM      6  C   UNL A   1      41.045  30.751  34.391  1.00  0.00     0.084 A 
ATOM      7  N   UNL A   1      41.325  31.792  32.385  1.00  0.00    -0.317 N 
ATOM      8  C   UNL A   1      41.891  31.557  33.624  1.00  0.00     0.107 A 
ATOM      9  C   UNL A   1      40.179  31.029  32.301  1.00  0.00     0.057 A 
ATOM     10  C   UNL A   1      39.930  30.521  33.551  1.00  0.00     0.101 A 
ATOM     11  C   UNL A   1      39.438  30.581  31.077  1.00  0.00     0.078 C 
ATOM     12  N   UNL A   1      38.809  29.731  33.821  1.00  0.00    -0.215 NA
ATOM     13  C   UNL A   1      38.943  29.145  31.381  1.00  0.00     0.111 C 
ATOM     14  C   UNL A   1      38.392  29.070  32.790  1.00  0.00     0.186 C 
BRANCH   7  15
ATOM     15  C   UNL A   1      41.848  32.653  31.395  1.00  0.00     0.046 A 
ATOM     16  C   UNL A   1      42.775  34.313  29.346  1.00  0.00     0.119 A 
ATOM     17  C   UNL A   1      41.558  34.583  29.969  1.00  0.00     0.048 A 
ATOM     18  C   UNL A   1      43.563  33.252  29.800  1.00  0.00     0.048 A 
ATOM     19  C   UNL A   1      41.089  33.753  30.989  1.00  0.00     0.030 A 
ATOM     20  C   UNL A   1      43.110  32.427  30.842  1.00  0.00     0.030 A 
BRANCH  16  21
ATOM     21  O   UNL A   1      43.122  35.176  28.342  1.00  0.00    -0.497 OA
ATOM     22  C   UNL A   1      43.339  34.572  27.071  1.00  0.00     0.278 C 
ENDBRANCH  16  21
ENDBRANCH   7  15
BRANCH  11  23
ATOM     23  C   UNL A   1      38.323  31.527  30.672  1.00  0.00    -0.038 A 
ATOM     24  C   UNL A   1      37.889  31.539  29.339  1.00  0.00     0.008 A 
ATOM     25  C   UNL A   1      37.755  32.455  31.557  1.00  0.00     0.008 A 
ATOM     26  C   UNL A   1      36.990  32.506  28.888  1.00  0.00     0.047 A 
ATOM     27  C   UNL A   1      36.825  33.397  31.115  1.00  0.00     0.047 A 
ATOM     28  C   UNL A   1      36.450  33.430  29.776  1.00  0.00     0.120 A 
BRANCH  28  29
ATOM     29  O   UNL A   1      35.595  34.347  29.232  1.00  0.00    -0.484 OA
BRANCH  29  30
ATOM     30  C   UNL A   1      34.309  34.410  29.832  1.00  0.00     0.329 C 
BRANCH  30  31
ATOM     31  C   UNL A   1      33.204  34.931  28.907  1.00  0.00     0.255 C 
ATOM     32  N   UNL A   1      32.990  34.206  27.768  1.00  0.00    -0.367 N 
ATOM     33  O   UNL A   1      32.546  35.943  29.127  1.00  0.00    -0.271 OA
ATOM     34  H   UNL A   1      33.520  33.394  27.595  1.00  0.00     0.159 HD
ATOM     35  H   UNL A   1      32.307  34.494  27.121  1.00  0.00     0.159 HD
ENDBRANCH  30  31
ENDBRANCH  29  30
ENDBRANCH  28  29
ENDBRANCH  11  23
BRANCH  14  36
ATOM     36  O   UNL A   1      37.402  28.176  32.970  1.00  0.00    -0.496 OA
ATOM     37  H   UNL A   1      36.962  27.808  32.229  1.00  0.00     0.294 HD
ENDBRANCH  14  36
ENDBRANCH   3   6
ENDBRANCH   1   2
BRANCH   1  38
ATOM     38  C   UNL A   1      41.729  26.954  34.758  1.00  0.00     0.023 C 
BRANCH  38  39
ATOM     39  C   UNL A   1      41.387  26.066  35.952  1.00  0.00     0.023 C 
BRANCH  39  40
ATOM     40  C   UNL A   1      41.974  24.663  35.913  1.00  0.00     0.116 C 
BRANCH  40  41
ATOM     41  N   UNL A   1      43.126  24.455  36.788  1.00  0.00    -0.352 N 
ATOM     42  C   UNL A   1      44.417  24.107  36.407  1.00  0.00     0.251 C 
ATOM     43  H   UNL A   1      42.971  24.574  37.753  1.00  0.00     0.163 HD
ATOM     44  O   UNL A   1      45.228  23.682  37.202  1.00  0.00    -0.269 OA
BRANCH  42  45
ATOM     45  C   UNL A   1      44.772  24.264  34.980  1.00  0.00     0.039 A 
ATOM     46  C   UNL A   1      44.702  23.189  34.090  1.00  0.00     0.014 A 
ATOM     47  C   UNL A   1      45.086  25.543  34.534  1.00  0.00     0.014 A 
ATOM     48  C   UNL A   1      44.841  23.435  32.724  1.00  0.00     0.010 A 
ATOM     49  C   UNL A   1      45.083  25.804  33.186  1.00  0.00     0.010 A 
ATOM     50  C   UNL A   1      44.999  24.754  32.271  1.00  0.00    -0.014 A 
BRANCH  50  51
ATOM     51  C   UNL A   1      44.955  25.071  30.842  1.00  0.00     0.031 A 
ATOM     52  C   UNL A   1      46.025  25.983  30.345  1.00  0.00     0.074 A 
ATOM     53  C   UNL A   1      44.182  24.386  29.969  1.00  0.00     0.049 A 
ATOM     54  N   UNL A   1      45.886  27.140  29.787  1.00  0.00    -0.248 NA
ATOM     55  C   UNL A   1      47.428  25.592  30.564  1.00  0.00     0.031 C 
ATOM     56  C   UNL A   1      43.322  23.230  30.261  1.00  0.00     0.029 A 
ATOM     57  N   UNL A   1      44.115  24.476  28.609  1.00  0.00    -0.354 N 
ATOM     58  C   UNL A   1      47.167  27.544  29.412  1.00  0.00     0.074 A 
ATOM     59  C   UNL A   1      48.083  26.635  30.052  1.00  0.00     0.031 C 
ATOM     60  C   UNL A   1      43.042  22.576  29.115  1.00  0.00     0.029 A 
ATOM     61  C   UNL A   1      43.530  23.370  28.004  1.00  0.00     0.049 A 
ATOM     62  H   UNL A   1      44.449  25.252  28.104  1.00  0.00     0.167 HD
ATOM     63  C   UNL A   1      47.365  28.434  28.398  1.00  0.00     0.031 A 
ATOM     64  C   UNL A   1      43.448  23.101  26.683  1.00  0.00     0.031 A 
ATOM     65  C   UNL A   1      46.136  29.076  28.012  1.00  0.00     0.049 A 
ATOM     66  C   UNL A   1      43.625  24.370  25.952  1.00  0.00     0.074 A 
ATOM     67  C   UNL A   1      45.261  29.980  28.569  1.00  0.00     0.029 A 
ATOM     68  N   UNL A   1      45.487  28.476  26.965  1.00  0.00    -0.354 N 
ATOM     69  N   UNL A   1      42.769  25.349  26.005  1.00  0.00    -0.248 NA
ATOM     70  C   UNL A   1      44.928  24.710  25.402  1.00  0.00     0.031 C 
ATOM     71  C   UNL A   1      43.982  29.657  28.024  1.00  0.00     0.029 A 
ATOM     72  C   UNL A   1      44.134  28.597  27.129  1.00  0.00     0.049 A 
ATOM     73  H   UNL A   1      45.928  28.026  26.208  1.00  0.00     0.167 HD
ATOM     74  C   UNL A   1      43.549  26.489  25.934  1.00  0.00     0.074 A 
ATOM     75  C   UNL A   1      44.818  26.042  25.373  1.00  0.00     0.031 C 
ATOM     76  C   UNL A   1      43.198  27.615  26.622  1.00  0.00     0.031 A 
BRANCH  63  77
ATOM     77  C   UNL A   1      48.532  28.383  27.432  1.00  0.00    -0.014 A 
ATOM     78  C   UNL A   1      48.748  27.196  26.702  1.00  0.00     0.009 A 
ATOM     79  C   UNL A   1      49.589  29.311  27.445  1.00  0.00     0.009 A 
ATOM     80  C   UNL A   1      49.979  26.925  26.087  1.00  0.00     0.001 A 
ATOM     81  C   UNL A   1      50.805  29.061  26.799  1.00  0.00     0.001 A 
ATOM     82  C   UNL A   1      51.010  27.854  26.145  1.00  0.00     0.000 A 
ENDBRANCH  63  77
BRANCH  64  83
ATOM     83  C   UNL A   1      43.370  21.795  26.002  1.00  0.00    -0.014 A 
ATOM     84  C   UNL A   1      44.491  21.244  25.366  1.00  0.00     0.009 A 
ATOM     85  C   UNL A   1      42.248  20.969  26.200  1.00  0.00     0.009 A 
ATOM     86  C   UNL A   1      44.506  19.898  24.980  1.00  0.00     0.001 A 
ATOM     87  C   UNL A   1      42.262  19.625  25.813  1.00  0.00     0.001 A 
ATOM     88  C   UNL A   1      43.399  19.085  25.218  1.00  0.00     0.000 A 
ENDBRANCH  64  83
BRANCH  76  89
ATOM     89  C   UNL A   1      41.771  27.721  27.092  1.00  0.00    -0.014 A 
ATOM     90  C   UNL A   1      41.243  26.952  28.143  1.00  0.00     0.009 A 
ATOM     91  C   UNL A   1      40.959  28.706  26.512  1.00  0.00     0.009 A 
ATOM     92  C   UNL A   1      39.926  27.142  28.574  1.00  0.00     0.001 A 
ATOM     93  C   UNL A   1      39.653  28.911  26.959  1.00  0.00     0.001 A 
ATOM     94  C   UNL A   1      39.134  28.124  27.984  1.00  0.00     0.000 A 
ENDBRANCH  76  89
ENDBRANCH  50  51
ENDBRANCH  42  45
ENDBRANCH  40  41
ENDBRANCH  39  40
ENDBRANCH  38  39
ENDBRANCH   1  38
TORSDOF 18
ENDMDL
MODEL 2
REMARK VINA RESULT:     -10.6      3.049     11.709
REMARK SMILES COc1ccc(-n2cc(C(=O)NCCCCNC(=O)c3ccc(-c4c5nc(c(-c6ccccc6)c6ccc([nH]6)c(-c6ccccc6)c6nc(c(-c7ccccc7)c7ccc4[nH]7)C=C6)C=C5)cc3)c3c2[C@H](c2ccc(OCC(N)=O)cc2)CC(O)=N3)cc1
REMARK SMILES IDX 13 1 12 2 10 3 11 4 9 6 7 7 8 8 69 9 68 10 70 11 85 12 82 13
REMARK SMILES IDX 83 14 6 15 3 16 4 17 87 18 5 19 86 20 2 21 1 22 71 23 72 24
REMARK SMILES IDX 81 25 73 26 80 27 74 28 75 29 76 30 77 31 78 32 79 33 84 36
REMARK SMILES IDX 14 38 15 39 16 40 17 41 18 42 19 44 20 45 21 46 67 47 22 48
REMARK SMILES IDX 66 49 23 50 24 51 25 52 60 53 26 54 65 55 59 56 61 57 27 58
REMARK SMILES IDX 64 59 58 60 57 61 28 63 50 64 35 65 49 66 36 67 39 68 48 69
REMARK SMILES IDX 62 70 37 71 38 72 47 74 63 75 40 76 29 77 30 78 34 79 31 80
REMARK SMILES IDX 33 81 32 82 51 83 52 84 56 85 53 86 55 87 54 88 41 89 42 90
REMARK SMILES IDX 46 91 43 92 45 93 44 94
REMARK H PARENT 12 5 78 34 78 35 84 37 17 43 61 62 39 73
REMARK Flexibility Score: inf
ROOT
ATOM      1  C   UNL A   1      45.426  32.054  27.181  1.00  0.00     0.116 C 
ENDROOT
BRANCH   1   2
ATOM      2  N   UNL A   1      46.560  31.352  26.615  1.00  0.00    -0.352 N 
ATOM      3  C   UNL A   1      46.839  29.995  26.661  1.00  0.00     0.255 C 
ATOM      4  O   UNL A   1      47.871  29.611  26.107  1.00  0.00    -0.269 OA
ATOM      5  H   UNL A   1      47.215  31.909  26.135  1.00  0.00     0.163 HD
BRANCH   3   6
ATOM      6  C   UNL A   1      45.990  29.065  27.409  1.00  0.00     0.084 A 
ATOM      7  N   UNL A   1      45.214  27.881  29.193  1.00  0.00    -0.317 N 
ATOM      8  C   UNL A   1      46.180  28.770  28.762  1.00  0.00     0.107 A 
ATOM      9  C   UNL A   1      44.320  27.706  28.158  1.00  0.00     0.057 A 
ATOM     10  C   UNL A   1      44.860  28.296  27.042  1.00  0.00     0.101 A 
ATOM     11  C   UNL A   1      42.906  27.212  28.212  1.00  0.00     0.078 C 
ATOM     12  N   UNL A   1      44.220  28.262  25.801  1.00  0.00    -0.215 NA
ATOM     13  C   UNL A   1      42.122  28.045  27.166  1.00  0.00     0.111 C 
ATOM     14  C   UNL A   1      42.932  28.180  25.894  1.00  0.00     0.186 C 
BRANCH   7  15
ATOM     15  C   UNL A   1      45.163  27.280  30.471  1.00  0.00     0.046 A 
ATOM     16  C   UNL A   1      45.045  25.961  32.932  1.00  0.00     0.119 A 
ATOM     17  C   UNL A   1      46.123  25.748  32.075  1.00  0.00     0.048 A 
ATOM     18  C   UNL A   1      44.061  26.892  32.587  1.00  0.00     0.048 A 
ATOM     19  C   UNL A   1      46.183  26.401  30.842  1.00  0.00     0.030 A 
ATOM     20  C   UNL A   1      44.127  27.571  31.360  1.00  0.00     0.030 A 
BRANCH  16  21
ATOM     21  O   UNL A   1      45.078  25.248  34.100  1.00  0.00    -0.497 OA
ATOM     22  C   UNL A   1      43.889  24.524  34.402  1.00  0.00     0.278 C 
ENDBRANCH  16  21
ENDBRANCH   7  15
BRANCH  11  23
ATOM     23  C   UNL A   1      42.785  25.714  27.998  1.00  0.00    -0.038 A 
ATOM     24  C   UNL A   1      41.536  25.170  27.668  1.00  0.00     0.008 A 
ATOM     25  C   UNL A   1      43.857  24.830  28.196  1.00  0.00     0.008 A 
ATOM     26  C   UNL A   1      41.345  23.789  27.630  1.00  0.00     0.047 A 
ATOM     27  C   UNL A   1      43.674  23.449  28.118  1.00  0.00     0.047 A 
ATOM     28  C   UNL A   1      42.415  22.926  27.846  1.00  0.00     0.120 A 
BRANCH  28  29
ATOM     29  O   UNL A   1      42.119  21.593  27.807  1.00  0.00    -0.484 OA
BRANCH  29  30
ATOM     30  C   UNL A   1      42.510  20.918  26.619  1.00  0.00     0.329 C 
BRANCH  30  31
ATOM     31  C   UNL A   1      42.013  19.472  26.521  1.00  0.00     0.255 C 
ATOM     32  N   UNL A   1      42.615  18.577  27.360  1.00  0.00    -0.367 N 
ATOM     33  O   UNL A   1      41.147  19.096  25.736  1.00  0.00    -0.271 OA
ATOM     34  H   UNL A   1      43.309  18.881  27.988  1.00  0.00     0.159 HD
ATOM     35  H   UNL A   1      42.356  17.628  27.336  1.00  0.00     0.159 HD
ENDBRANCH  30  31
ENDBRANCH  29  30
ENDBRANCH  28  29
ENDBRANCH  11  23
BRANCH  14  36
ATOM     36  O   UNL A   1      42.209  28.276  24.763  1.00  0.00    -0.496 OA
ATOM     37  H   UNL A   1      41.622  27.586  24.522  1.00  0.00     0.294 HD
ENDBRANCH  14  36
ENDBRANCH   3   6
ENDBRANCH   1   2
BRANCH   1  38
ATOM     38  C   UNL A   1      44.176  32.170  26.316  1.00  0.00     0.023 C 
BRANCH  38  39
ATOM     39  C   UNL A   1      44.190  33.160  25.154  1.00  0.00     0.023 C 
BRANCH  39  40
ATOM     40  C   UNL A   1      43.640  34.544  25.467  1.00  0.00     0.116 C 
BRANCH  40  41
ATOM     41  N   UNL A   1      44.640  35.519  25.897  1.00  0.00    -0.352 N 
ATOM     42  C   UNL A   1      44.629  36.272  27.067  1.00  0.00     0.251 C 
ATOM     43  H   UNL A   1      45.405  35.659  25.293  1.00  0.00     0.163 HD
ATOM     44  O   UNL A   1      45.334  37.248  27.208  1.00  0.00    -0.269 OA
BRANCH  42  45
ATOM     45  C   UNL A   1      43.709  35.845  28.143  1.00  0.00     0.039 A 
ATOM     46  C   UNL A   1      42.429  36.391  28.267  1.00  0.00     0.014 A 
ATOM     47  C   UNL A   1      44.128  34.809  28.971  1.00  0.00     0.014 A 
ATOM     48  C   UNL A   1      41.531  35.809  29.161  1.00  0.00     0.010 A 
ATOM     49  C   UNL A   1      43.204  34.151  29.744  1.00  0.00     0.010 A 
ATOM     50  C   UNL A   1      41.912  34.663  29.876  1.00  0.00    -0.014 A 
BRANCH  50  51
ATOM     51  C   UNL A   1      40.939  33.914  30.674  1.00  0.00     0.031 A 
ATOM     52  C   UNL A   1      41.326  33.646  32.089  1.00  0.00     0.074 A 
ATOM     53  C   UNL A   1      39.667  33.709  30.264  1.00  0.00     0.049 A 
ATOM     54  N   UNL A   1      41.480  32.501  32.667  1.00  0.00    -0.248 NA
ATOM     55  C   UNL A   1      41.658  34.796  32.948  1.00  0.00     0.031 C 
ATOM     56  C   UNL A   1      39.039  34.209  29.033  1.00  0.00     0.029 A 
ATOM     57  N   UNL A   1      38.619  33.143  30.929  1.00  0.00    -0.354 N 
ATOM     58  C   UNL A   1      41.742  32.777  34.008  1.00  0.00     0.074 A 
ATOM     59  C   UNL A   1      41.995  34.193  34.090  1.00  0.00     0.031 C 
ATOM     60  C   UNL A   1      37.697  34.162  29.161  1.00  0.00     0.029 A 
ATOM     61  C   UNL A   1      37.379  33.454  30.385  1.00  0.00     0.049 A 
ATOM     62  H   UNL A   1      38.730  32.568  31.720  1.00  0.00     0.167 HD
ATOM     63  C   UNL A   1      41.476  31.867  34.988  1.00  0.00     0.031 A 
ATOM     64  C   UNL A   1      36.160  33.165  30.892  1.00  0.00     0.031 A 
ATOM     65  C   UNL A   1      41.196  30.567  34.439  1.00  0.00     0.049 A 
ATOM     66  C   UNL A   1      36.320  32.051  31.846  1.00  0.00     0.074 A 
ATOM     67  C   UNL A   1      41.901  29.583  33.785  1.00  0.00     0.029 A 
ATOM     68  N   UNL A   1      39.864  30.308  34.245  1.00  0.00    -0.354 N 
ATOM     69  N   UNL A   1      36.672  30.850  31.488  1.00  0.00    -0.248 NA
ATOM     70  C   UNL A   1      36.415  32.330  33.271  1.00  0.00     0.031 C 
ATOM     71  C   UNL A   1      40.954  28.934  32.938  1.00  0.00     0.029 A 
ATOM     72  C   UNL A   1      39.703  29.521  33.138  1.00  0.00     0.049 A 
ATOM     73  H   UNL A   1      39.134  30.638  34.817  1.00  0.00     0.167 HD
ATOM     74  C   UNL A   1      37.446  30.393  32.539  1.00  0.00     0.074 A 
ATOM     75  C   UNL A   1      37.092  31.247  33.666  1.00  0.00     0.031 C 
ATOM     76  C   UNL A   1      38.516  29.576  32.310  1.00  0.00     0.031 A 
BRANCH  63  77
ATOM     77  C   UNL A   1      40.990  32.226  36.379  1.00  0.00    -0.014 A 
ATOM     78  C   UNL A   1      39.699  32.778  36.517  1.00  0.00     0.009 A 
ATOM     79  C   UNL A   1      41.842  32.341  37.492  1.00  0.00     0.009 A 
ATOM     80  C   UNL A   1      39.316  33.470  37.674  1.00  0.00     0.001 A 
ATOM     81  C   UNL A   1      41.449  32.997  38.664  1.00  0.00     0.001 A 
ATOM     82  C   UNL A   1      40.196  33.588  38.744  1.00  0.00     0.000 A 
ENDBRANCH  63  77
BRANCH  64  83
ATOM     83  C   UNL A   1      34.885  33.883  30.716  1.00  0.00    -0.014 A 
ATOM     84  C   UNL A   1      34.437  34.807  31.671  1.00  0.00     0.009 A 
ATOM     85  C   UNL A   1      34.226  33.846  29.472  1.00  0.00     0.009 A 
ATOM     86  C   UNL A   1      33.395  35.694  31.376  1.00  0.00     0.001 A 
ATOM     87  C   UNL A   1      33.185  34.731  29.178  1.00  0.00     0.001 A 
ATOM     88  C   UNL A   1      32.780  35.667  30.125  1.00  0.00     0.000 A 
ENDBRANCH  64  83
BRANCH  76  89
ATOM     89  C   UNL A   1      38.570  28.863  30.984  1.00  0.00    -0.014 A 
ATOM     90  C   UNL A   1      38.577  29.528  29.747  1.00  0.00     0.009 A 
ATOM     91  C   UNL A   1      38.717  27.468  30.994  1.00  0.00     0.009 A 
ATOM     92  C   UNL A   1      38.691  28.811  28.552  1.00  0.00     0.001 A 
ATOM     93  C   UNL A   1      38.855  26.755  29.802  1.00  0.00     0.001 A 
ATOM     94  C   UNL A   1      38.834  27.427  28.581  1.00  0.00     0.000 A 
ENDBRANCH  76  89
ENDBRANCH  50  51
ENDBRANCH  42  45
ENDBRANCH  40  41
ENDBRANCH  39  40
ENDBRANCH  38  39
ENDBRANCH   1  38
TORSDOF 18
ENDMDL
MODEL 3
REMARK VINA RESULT:     -10.2      5.491     10.491
REMARK SMILES COc1ccc(-n2cc(C(=O)NCCCCNC(=O)c3ccc(-c4c5nc(c(-c6ccccc6)c6ccc([nH]6)c(-c6ccccc6)c6nc(c(-c7ccccc7)c7ccc4[nH]7)C=C6)C=C5)cc3)c3c2[C@H](c2ccc(OCC(N)=O)cc2)CC(O)=N3)cc1
REMARK SMILES IDX 13 1 12 2 10 3 11 4 9 6 7 7 8 8 69 9 68 10 70 11 85 12 82 13
REMARK SMILES IDX 83 14 6 15 3 16 4 17 87 18 5 19 86 20 2 21 1 22 71 23 72 24
REMARK SMILES IDX 81 25 73 26 80 27 74 28 75 29 76 30 77 31 78 32 79 33 84 36
REMARK SMILES IDX 14 38 15 39 16 40 17 41 18 42 19 44 20 45 21 46 67 47 22 48
REMARK SMILES IDX 66 49 23 50 24 51 25 52 60 53 26 54 65 55 59 56 61 57 27 58
REMARK SMILES IDX 64 59 58 60 57 61 28 63 50 64 35 65 49 66 36 67 39 68 48 69
REMARK SMILES IDX 62 70 37 71 38 72 47 74 63 75 40 76 29 77 30 78 34 79 31 80
REMARK SMILES IDX 33 81 32 82 51 83 52 84 56 85 53 86 55 87 54 88 41 89 42 90
REMARK SMILES IDX 46 91 43 92 45 93 44 94
REMARK H PARENT 12 5 78 34 78 35 84 37 17 43 61 62 39 73
REMARK Flexibility Score: inf
ROOT
ATOM      1  C   UNL A   1      34.130  30.059  27.136  1.00  0.00     0.116 C 
ENDROOT
BRANCH   1   2
ATOM      2  N   UNL A   1      33.002  30.716  26.508  1.00  0.00    -0.352 N 
ATOM      3  C   UNL A   1      31.979  30.145  25.767  1.00  0.00     0.255 C 
ATOM      4  O   UNL A   1      31.114  30.900  25.321  1.00  0.00    -0.269 OA
ATOM      5  H   UNL A   1      32.955  31.693  26.622  1.00  0.00     0.163 HD
BRANCH   3   6
ATOM      6  C   UNL A   1      31.969  28.713  25.455  1.00  0.00     0.084 A 
ATOM      7  N   UNL A   1      31.369  26.522  25.607  1.00  0.00    -0.317 N 
ATOM      8  C   UNL A   1      31.183  27.783  26.140  1.00  0.00     0.107 A 
ATOM      9  C   UNL A   1      32.170  26.657  24.493  1.00  0.00     0.057 A 
ATOM     10  C   UNL A   1      32.651  27.942  24.484  1.00  0.00     0.101 A 
ATOM     11  C   UNL A   1      32.331  25.720  23.334  1.00  0.00     0.078 C 
ATOM     12  N   UNL A   1      33.533  28.398  23.501  1.00  0.00    -0.215 NA
ATOM     13  C   UNL A   1      32.478  26.617  22.078  1.00  0.00     0.111 C 
ATOM     14  C   UNL A   1      33.402  27.780  22.373  1.00  0.00     0.186 C 
BRANCH   7  15
ATOM     15  C   UNL A   1      30.820  25.325  26.120  1.00  0.00     0.046 A 
ATOM     16  C   UNL A   1      29.704  23.031  27.261  1.00  0.00     0.119 A 
ATOM     17  C   UNL A   1      28.896  24.124  26.953  1.00  0.00     0.048 A 
ATOM     18  C   UNL A   1      31.062  23.060  26.930  1.00  0.00     0.048 A 
ATOM     19  C   UNL A   1      29.451  25.274  26.389  1.00  0.00     0.030 A 
ATOM     20  C   UNL A   1      31.622  24.204  26.339  1.00  0.00     0.030 A 
BRANCH  16  21
ATOM     21  O   UNL A   1      29.058  21.970  27.836  1.00  0.00    -0.497 OA
ATOM     22  C   UNL A   1      27.696  21.810  27.451  1.00  0.00     0.278 C 
ENDBRANCH  16  21
ENDBRANCH   7  15
BRANCH  11  23
ATOM     23  C   UNL A   1      33.477  24.741  23.509  1.00  0.00    -0.038 A 
ATOM     24  C   UNL A   1      34.461  25.006  24.471  1.00  0.00     0.008 A 
ATOM     25  C   UNL A   1      33.643  23.613  22.690  1.00  0.00     0.008 A 
ATOM     26  C   UNL A   1      35.615  24.226  24.547  1.00  0.00     0.047 A 
ATOM     27  C   UNL A   1      34.779  22.810  22.794  1.00  0.00     0.047 A 
ATOM     28  C   UNL A   1      35.772  23.122  23.716  1.00  0.00     0.120 A 
BRANCH  28  29
ATOM     29  O   UNL A   1      36.946  22.436  23.856  1.00  0.00    -0.484 OA
BRANCH  29  30
ATOM     30  C   UNL A   1      37.122  21.782  25.104  1.00  0.00     0.329 C 
BRANCH  30  31
ATOM     31  C   UNL A   1      36.953  20.260  25.051  1.00  0.00     0.255 C 
ATOM     32  N   UNL A   1      35.664  19.803  25.072  1.00  0.00    -0.367 N 
ATOM     33  O   UNL A   1      37.888  19.466  25.012  1.00  0.00    -0.271 OA
ATOM     34  H   UNL A   1      34.916  20.443  25.102  1.00  0.00     0.159 HD
ATOM     35  H   UNL A   1      35.484  18.836  25.058  1.00  0.00     0.159 HD
ENDBRANCH  30  31
ENDBRANCH  29  30
ENDBRANCH  28  29
ENDBRANCH  11  23
BRANCH  14  36
ATOM     36  O   UNL A   1      34.109  28.229  21.319  1.00  0.00    -0.496 OA
ATOM     37  H   UNL A   1      35.038  28.102  21.290  1.00  0.00     0.294 HD
ENDBRANCH  14  36
ENDBRANCH   3   6
ENDBRANCH   1   2
BRANCH   1  38
ATOM     38  C   UNL A   1      35.158  30.949  27.826  1.00  0.00     0.023 C 
BRANCH  38  39
ATOM     39  C   UNL A   1      34.742  32.365  28.215  1.00  0.00     0.023 C 
BRANCH  39  40
ATOM     40  C   UNL A   1      35.768  33.152  29.018  1.00  0.00     0.116 C 
BRANCH  40  41
ATOM     41  N   UNL A   1      35.559  33.133  30.465  1.00  0.00    -0.352 N 
ATOM     42  C   UNL A   1      36.107  32.242  31.381  1.00  0.00     0.251 C 
ATOM     43  H   UNL A   1      34.966  33.829  30.831  1.00  0.00     0.163 HD
ATOM     44  O   UNL A   1      35.665  32.122  32.503  1.00  0.00    -0.269 OA
BRANCH  42  45
ATOM     45  C   UNL A   1      37.255  31.425  30.932  1.00  0.00     0.039 A 
ATOM     46  C   UNL A   1      38.525  31.983  30.763  1.00  0.00     0.014 A 
ATOM     47  C   UNL A   1      37.047  30.058  30.776  1.00  0.00     0.014 A 
ATOM     48  C   UNL A   1      39.611  31.134  30.545  1.00  0.00     0.010 A 
ATOM     49  C   UNL A   1      38.131  29.218  30.703  1.00  0.00     0.010 A 
ATOM     50  C   UNL A   1      39.414  29.745  30.549  1.00  0.00    -0.014 A 
BRANCH  50  51
ATOM     51  C   UNL A   1      40.551  28.822  30.517  1.00  0.00     0.031 A 
ATOM     52  C   UNL A   1      41.201  28.546  31.830  1.00  0.00     0.074 A 
ATOM     53  C   UNL A   1      40.835  28.055  29.440  1.00  0.00     0.049 A 
ATOM     54  N   UNL A   1      42.425  28.774  32.174  1.00  0.00    -0.248 NA
ATOM     55  C   UNL A   1      40.364  28.018  32.921  1.00  0.00     0.031 C 
ATOM     56  C   UNL A   1      40.075  27.971  28.185  1.00  0.00     0.029 A 
ATOM     57  N   UNL A   1      41.772  27.075  29.292  1.00  0.00    -0.354 N 
ATOM     58  C   UNL A   1      42.570  28.250  33.458  1.00  0.00     0.074 A 
ATOM     59  C   UNL A   1      41.242  27.944  33.924  1.00  0.00     0.031 C 
ATOM     60  C   UNL A   1      40.406  26.837  27.533  1.00  0.00     0.029 A 
ATOM     61  C   UNL A   1      41.529  26.227  28.219  1.00  0.00     0.049 A 
ATOM     62  H   UNL A   1      42.547  26.977  29.890  1.00  0.00     0.167 HD
ATOM     63  C   UNL A   1      43.787  27.867  33.938  1.00  0.00     0.031 A 
ATOM     64  C   UNL A   1      42.187  25.091  27.900  1.00  0.00     0.031 A 
ATOM     65  C   UNL A   1      44.857  28.338  33.099  1.00  0.00     0.049 A 
ATOM     66  C   UNL A   1      43.507  25.134  28.558  1.00  0.00     0.074 A 
ATOM     67  C   UNL A   1      45.420  29.552  32.780  1.00  0.00     0.029 A 
ATOM     68  N   UNL A   1      45.275  27.437  32.153  1.00  0.00    -0.354 N 
ATOM     69  N   UNL A   1      44.434  25.992  28.243  1.00  0.00    -0.248 NA
ATOM     70  C   UNL A   1      43.708  24.433  29.817  1.00  0.00     0.031 C 
ATOM     71  C   UNL A   1      45.909  29.407  31.447  1.00  0.00     0.029 A 
ATOM     72  C   UNL A   1      45.661  28.101  31.022  1.00  0.00     0.049 A 
ATOM     73  H   UNL A   1      45.294  26.460  32.272  1.00  0.00     0.167 HD
ATOM     74  C   UNL A   1      45.067  26.267  29.441  1.00  0.00     0.074 A 
ATOM     75  C   UNL A   1      44.718  25.153  30.315  1.00  0.00     0.031 C 
ATOM     76  C   UNL A   1      45.550  27.517  29.700  1.00  0.00     0.031 A 
BRANCH  63  77
ATOM     77  C   UNL A   1      44.009  26.685  34.861  1.00  0.00    -0.014 A 
ATOM     78  C   UNL A   1      43.489  25.430  34.480  1.00  0.00     0.009 A 
ATOM     79  C   UNL A   1      44.415  26.814  36.201  1.00  0.00     0.009 A 
ATOM     80  C   UNL A   1      43.317  24.394  35.409  1.00  0.00     0.001 A 
ATOM     81  C   UNL A   1      44.282  25.768  37.122  1.00  0.00     0.001 A 
ATOM     82  C   UNL A   1      43.705  24.568  36.733  1.00  0.00     0.000 A 
ENDBRANCH  63  77
BRANCH  64  83
ATOM     83  C   UNL A   1      41.697  23.902  27.180  1.00  0.00    -0.014 A 
ATOM     84  C   UNL A   1      42.529  23.198  26.297  1.00  0.00     0.009 A 
ATOM     85  C   UNL A   1      40.479  23.307  27.558  1.00  0.00     0.009 A 
ATOM     86  C   UNL A   1      42.174  21.921  25.843  1.00  0.00     0.001 A 
ATOM     87  C   UNL A   1      40.124  22.033  27.104  1.00  0.00     0.001 A 
ATOM     88  C   UNL A   1      40.981  21.332  26.259  1.00  0.00     0.000 A 
ENDBRANCH  64  83
BRANCH  76  89
ATOM     89  C   UNL A   1      45.757  28.436  28.525  1.00  0.00    -0.014 A 
ATOM     90  C   UNL A   1      46.953  28.495  27.790  1.00  0.00     0.009 A 
ATOM     91  C   UNL A   1      44.666  29.200  28.088  1.00  0.00     0.009 A 
ATOM     92  C   UNL A   1      47.062  29.325  26.670  1.00  0.00     0.001 A 
ATOM     93  C   UNL A   1      44.767  30.009  26.955  1.00  0.00     0.001 A 
ATOM     94  C   UNL A   1      45.968  30.077  26.251  1.00  0.00     0.000 A 
ENDBRANCH  76  89
ENDBRANCH  50  51
ENDBRANCH  42  45
ENDBRANCH  40  41
ENDBRANCH  39  40
ENDBRANCH  38  39
ENDBRANCH   1  38
TORSDOF 18
ENDMDL
