MODEL 1
REMARK VINA RESULT:     -11.2      0.000      0.000
REMARK SMILES COc1c(C(=O)NCCCCNC(=O)c2ccc(-c3c4nc(c(-c5ccccc5)c5ccc([nH]5)c(-c5ccccc5)c5nc(c(-c6ccccc6)c6ccc3[nH]6)C=C5)C=C4)cc2)cccc1-c1cc(C)ccc1C
REMARK SMILES IDX 10 1 9 2 8 3 7 4 5 5 6 6 4 8 3 9 66 10 63 11 65 12 64 13
REMARK SMILES IDX 2 14 1 15 67 16 68 17 73 18 69 19 72 20 74 21 70 22 71 23
REMARK SMILES IDX 11 24 12 25 13 26 14 28 15 29 16 30 62 31 17 32 61 33 18 34
REMARK SMILES IDX 19 35 20 36 55 37 21 38 60 39 54 40 56 41 22 42 59 43 53 44
REMARK SMILES IDX 52 45 23 47 45 48 30 49 44 50 31 51 34 52 43 53 57 54 32 55
REMARK SMILES IDX 33 56 42 58 58 59 35 60 24 61 25 62 29 63 26 64 28 65 27 66
REMARK SMILES IDX 46 67 47 68 51 69 48 70 50 71 49 72 36 73 37 74 41 75 38 76
REMARK SMILES IDX 40 77 39 78
REMARK H PARENT 7 7 12 27 56 46 34 57
REMARK Flexibility Score: inf
ROOT
ATOM      1  C   UNL A   1      33.703  28.741  26.094  1.00  0.00     0.023 C 
ENDROOT
BRANCH   1   2
ATOM      2  C   UNL A   1      33.099  29.702  25.076  1.00  0.00     0.023 C 
BRANCH   2   3
ATOM      3  C   UNL A   1      31.582  29.765  25.029  1.00  0.00     0.116 C 
BRANCH   3   4
ATOM      4  N   UNL A   1      30.925  29.376  23.814  1.00  0.00    -0.352 N 
ATOM      5  C   UNL A   1      30.586  28.095  23.428  1.00  0.00     0.255 C 
ATOM      6  O   UNL A   1      29.870  27.969  22.433  1.00  0.00    -0.269 OA
ATOM      7  H   UNL A   1      30.691  30.099  23.190  1.00  0.00     0.163 HD
BRANCH   5   8
ATOM      8  C   UNL A   1      31.154  26.862  24.067  1.00  0.00     0.082 A 
ATOM      9  C   UNL A   1      32.415  26.263  23.822  1.00  0.00     0.139 A 
ATOM     10  C   UNL A   1      32.783  25.079  24.524  1.00  0.00     0.025 A 
ATOM     11  C   UNL A   1      30.297  26.288  25.029  1.00  0.00     0.018 A 
ATOM     12  C   UNL A   1      31.883  24.541  25.468  1.00  0.00     0.012 A 
ATOM     13  C   UNL A   1      30.656  25.139  25.725  1.00  0.00     0.002 A 
BRANCH   9  14
ATOM     14  O   UNL A   1      33.300  26.921  22.994  1.00  0.00    -0.495 OA
ATOM     15  C   UNL A   1      33.225  26.595  21.599  1.00  0.00     0.278 C 
ENDBRANCH   9  14
BRANCH  10  16
ATOM     16  C   UNL A   1      34.035  24.331  24.278  1.00  0.00    -0.011 A 
ATOM     17  C   UNL A   1      35.103  24.539  25.180  1.00  0.00     0.012 A 
ATOM     18  C   UNL A   1      34.189  23.365  23.262  1.00  0.00    -0.043 A 
ATOM     19  C   UNL A   1      36.265  23.760  25.145  1.00  0.00    -0.050 A 
ATOM     20  C   UNL A   1      35.354  22.575  23.241  1.00  0.00     0.004 A 
ATOM     21  C   UNL A   1      33.099  23.042  22.274  1.00  0.00     0.045 C 
ATOM     22  C   UNL A   1      37.347  23.995  26.156  1.00  0.00     0.044 C 
ATOM     23  C   UNL A   1      36.375  22.766  24.176  1.00  0.00     0.004 A 
ENDBRANCH  10  16
ENDBRANCH   5   8
ENDBRANCH   3   4
ENDBRANCH   2   3
ENDBRANCH   1   2
BRANCH   1  24
ATOM     24  C   UNL A   1      33.404  29.008  27.567  1.00  0.00     0.116 C 
BRANCH  24  25
ATOM     25  N   UNL A   1      33.641  30.384  28.000  1.00  0.00    -0.352 N 
ATOM     26  C   UNL A   1      34.779  31.001  28.464  1.00  0.00     0.251 C 
ATOM     27  H   UNL A   1      32.850  30.969  27.950  1.00  0.00     0.163 HD
ATOM     28  O   UNL A   1      34.741  32.167  28.825  1.00  0.00    -0.269 OA
BRANCH  26  29
ATOM     29  C   UNL A   1      36.044  30.239  28.584  1.00  0.00     0.039 A 
ATOM     30  C   UNL A   1      36.927  30.220  27.499  1.00  0.00     0.014 A 
ATOM     31  C   UNL A   1      36.384  29.585  29.767  1.00  0.00     0.014 A 
ATOM     32  C   UNL A   1      38.198  29.659  27.651  1.00  0.00     0.010 A 
ATOM     33  C   UNL A   1      37.685  29.126  29.951  1.00  0.00     0.010 A 
ATOM     34  C   UNL A   1      38.614  29.172  28.900  1.00  0.00    -0.014 A 
BRANCH  34  35
ATOM     35  C   UNL A   1      40.013  28.732  29.143  1.00  0.00     0.031 A 
ATOM     36  C   UNL A   1      41.013  29.679  29.751  1.00  0.00     0.074 A 
ATOM     37  C   UNL A   1      40.414  27.514  28.724  1.00  0.00     0.049 A 
ATOM     38  N   UNL A   1      42.297  29.514  29.943  1.00  0.00    -0.248 NA
ATOM     39  C   UNL A   1      40.510  31.000  30.167  1.00  0.00     0.031 C 
ATOM     40  C   UNL A   1      39.566  26.513  28.070  1.00  0.00     0.029 A 
ATOM     41  N   UNL A   1      41.647  26.910  28.781  1.00  0.00    -0.354 N 
ATOM     42  C   UNL A   1      42.758  30.716  30.465  1.00  0.00     0.074 A 
ATOM     43  C   UNL A   1      41.628  31.616  30.520  1.00  0.00     0.031 C 
ATOM     44  C   UNL A   1      40.292  25.411  27.822  1.00  0.00     0.029 A 
ATOM     45  C   UNL A   1      41.666  25.640  28.253  1.00  0.00     0.049 A 
ATOM     46  H   UNL A   1      42.443  27.346  29.164  1.00  0.00     0.167 HD
ATOM     47  C   UNL A   1      44.006  31.038  30.880  1.00  0.00     0.031 A 
ATOM     48  C   UNL A   1      42.678  24.761  28.126  1.00  0.00     0.031 A 
ATOM     49  C   UNL A   1      45.124  30.134  30.865  1.00  0.00     0.049 A 
ATOM     50  C   UNL A   1      44.050  25.142  28.606  1.00  0.00     0.074 A 
ATOM     51  C   UNL A   1      46.405  30.341  31.347  1.00  0.00     0.029 A 
ATOM     52  N   UNL A   1      45.094  28.851  30.343  1.00  0.00    -0.354 N 
ATOM     53  N   UNL A   1      44.450  26.254  29.171  1.00  0.00    -0.248 NA
ATOM     54  C   UNL A   1      45.111  24.137  28.435  1.00  0.00     0.031 C 
ATOM     55  C   UNL A   1      47.164  29.198  31.075  1.00  0.00     0.029 A 
ATOM     56  C   UNL A   1      46.340  28.263  30.471  1.00  0.00     0.049 A 
ATOM     57  H   UNL A   1      44.303  28.422  29.943  1.00  0.00     0.167 HD
ATOM     58  C   UNL A   1      45.796  26.071  29.454  1.00  0.00     0.074 A 
ATOM     59  C   UNL A   1      46.144  24.738  29.009  1.00  0.00     0.031 C 
ATOM     60  C   UNL A   1      46.668  26.932  30.033  1.00  0.00     0.031 A 
BRANCH  47  61
ATOM     61  C   UNL A   1      44.230  32.434  31.390  1.00  0.00    -0.014 A 
ATOM     62  C   UNL A   1      44.064  32.750  32.748  1.00  0.00     0.009 A 
ATOM     63  C   UNL A   1      44.654  33.438  30.505  1.00  0.00     0.009 A 
ATOM     64  C   UNL A   1      44.285  34.050  33.203  1.00  0.00     0.001 A 
ATOM     65  C   UNL A   1      44.901  34.731  30.969  1.00  0.00     0.001 A 
ATOM     66  C   UNL A   1      44.708  35.039  32.314  1.00  0.00     0.000 A 
ENDBRANCH  47  61
BRANCH  48  67
ATOM     67  C   UNL A   1      42.436  23.417  27.538  1.00  0.00    -0.014 A 
ATOM     68  C   UNL A   1      42.653  23.195  26.168  1.00  0.00     0.009 A 
ATOM     69  C   UNL A   1      41.963  22.358  28.328  1.00  0.00     0.009 A 
ATOM     70  C   UNL A   1      42.370  21.953  25.596  1.00  0.00     0.001 A 
ATOM     71  C   UNL A   1      41.708  21.108  27.759  1.00  0.00     0.001 A 
ATOM     72  C   UNL A   1      41.900  20.910  26.393  1.00  0.00     0.000 A 
ENDBRANCH  48  67
BRANCH  60  73
ATOM     73  C   UNL A   1      48.070  26.443  30.260  1.00  0.00    -0.014 A 
ATOM     74  C   UNL A   1      48.436  25.809  31.457  1.00  0.00     0.009 A 
ATOM     75  C   UNL A   1      49.025  26.582  29.242  1.00  0.00     0.009 A 
ATOM     76  C   UNL A   1      49.743  25.353  31.640  1.00  0.00     0.001 A 
ATOM     77  C   UNL A   1      50.323  26.099  29.417  1.00  0.00     0.001 A 
ATOM     78  C   UNL A   1      50.682  25.493  30.619  1.00  0.00     0.000 A 
ENDBRANCH  60  73
ENDBRANCH  34  35
ENDBRANCH  26  29
ENDBRANCH  24  25
ENDBRANCH   1  24
TORSDOF 13
ENDMDL
MODEL 2
REMARK VINA RESULT:     -11.1      3.633      5.155
REMARK SMILES COc1c(C(=O)NCCCCNC(=O)c2ccc(-c3c4nc(c(-c5ccccc5)c5ccc([nH]5)c(-c5ccccc5)c5nc(c(-c6ccccc6)c6ccc3[nH]6)C=C5)C=C4)cc2)cccc1-c1cc(C)ccc1C
REMARK SMILES IDX 10 1 9 2 8 3 7 4 5 5 6 6 4 8 3 9 66 10 63 11 65 12 64 13
REMARK SMILES IDX 2 14 1 15 67 16 68 17 73 18 69 19 72 20 74 21 70 22 71 23
REMARK SMILES IDX 11 24 12 25 13 26 14 28 15 29 16 30 62 31 17 32 61 33 18 34
REMARK SMILES IDX 19 35 20 36 55 37 21 38 60 39 54 40 56 41 22 42 59 43 53 44
REMARK SMILES IDX 52 45 23 47 45 48 30 49 44 50 31 51 34 52 43 53 57 54 32 55
REMARK SMILES IDX 33 56 42 58 58 59 35 60 24 61 25 62 29 63 26 64 28 65 27 66
REMARK SMILES IDX 46 67 47 68 51 69 48 70 50 71 49 72 36 73 37 74 41 75 38 76
REMARK SMILES IDX 40 77 39 78
REMARK H PARENT 7 7 12 27 56 46 34 57
REMARK Flexibility Score: inf
ROOT
ATOM      1  C   UNL A   1      31.541  31.919  26.852  1.00  0.00     0.023 C 
ENDROOT
BRANCH   1   2
ATOM      2  C   UNL A   1      31.778  30.414  26.792  1.00  0.00     0.023 C 
BRANCH   2   3
ATOM      3  C   UNL A   1      32.318  29.869  25.481  1.00  0.00     0.116 C 
BRANCH   3   4
ATOM      4  N   UNL A   1      31.384  29.576  24.432  1.00  0.00    -0.352 N 
ATOM      5  C   UNL A   1      30.851  28.343  24.116  1.00  0.00     0.255 C 
ATOM      6  O   UNL A   1      29.931  28.312  23.296  1.00  0.00    -0.269 OA
ATOM      7  H   UNL A   1      31.092  30.336  23.878  1.00  0.00     0.163 HD
BRANCH   5   8
ATOM      8  C   UNL A   1      31.423  27.046  24.609  1.00  0.00     0.082 A 
ATOM      9  C   UNL A   1      32.653  26.448  24.241  1.00  0.00     0.139 A 
ATOM     10  C   UNL A   1      33.030  25.197  24.811  1.00  0.00     0.025 A 
ATOM     11  C   UNL A   1      30.604  26.402  25.560  1.00  0.00     0.018 A 
ATOM     12  C   UNL A   1      32.168  24.592  25.751  1.00  0.00     0.012 A 
ATOM     13  C   UNL A   1      30.972  25.189  26.128  1.00  0.00     0.002 A 
BRANCH   9  14
ATOM     14  O   UNL A   1      33.509  27.162  23.429  1.00  0.00    -0.495 OA
ATOM     15  C   UNL A   1      33.286  27.046  22.015  1.00  0.00     0.278 C 
ENDBRANCH   9  14
BRANCH  10  16
ATOM     16  C   UNL A   1      34.249  24.452  24.429  1.00  0.00    -0.011 A 
ATOM     17  C   UNL A   1      35.348  24.510  25.314  1.00  0.00     0.012 A 
ATOM     18  C   UNL A   1      34.339  23.620  23.293  1.00  0.00    -0.043 A 
ATOM     19  C   UNL A   1      36.483  23.709  25.141  1.00  0.00    -0.050 A 
ATOM     20  C   UNL A   1      35.476  22.806  23.133  1.00  0.00     0.004 A 
ATOM     21  C   UNL A   1      33.210  23.459  22.310  1.00  0.00     0.045 C 
ATOM     22  C   UNL A   1      37.601  23.780  26.136  1.00  0.00     0.044 C 
ATOM     23  C   UNL A   1      36.530  22.844  24.049  1.00  0.00     0.004 A 
ENDBRANCH  10  16
ENDBRANCH   5   8
ENDBRANCH   3   4
ENDBRANCH   2   3
ENDBRANCH   1   2
BRANCH   1  24
ATOM     24  C   UNL A   1      32.727  32.795  27.248  1.00  0.00     0.116 C 
BRANCH  24  25
ATOM     25  N   UNL A   1      32.376  34.161  27.632  1.00  0.00    -0.352 N 
ATOM     26  C   UNL A   1      32.938  35.013  28.553  1.00  0.00     0.251 C 
ATOM     27  H   UNL A   1      31.604  34.535  27.148  1.00  0.00     0.163 HD
ATOM     28  O   UNL A   1      32.445  36.112  28.754  1.00  0.00    -0.269 OA
BRANCH  26  29
ATOM     29  C   UNL A   1      34.111  34.581  29.350  1.00  0.00     0.039 A 
ATOM     30  C   UNL A   1      33.909  34.120  30.654  1.00  0.00     0.014 A 
ATOM     31  C   UNL A   1      35.395  34.587  28.807  1.00  0.00     0.014 A 
ATOM     32  C   UNL A   1      34.971  33.545  31.357  1.00  0.00     0.010 A 
ATOM     33  C   UNL A   1      36.423  33.918  29.463  1.00  0.00     0.010 A 
ATOM     34  C   UNL A   1      36.220  33.374  30.740  1.00  0.00    -0.014 A 
BRANCH  34  35
ATOM     35  C   UNL A   1      37.317  32.611  31.392  1.00  0.00     0.031 A 
ATOM     36  C   UNL A   1      37.854  33.045  32.730  1.00  0.00     0.074 A 
ATOM     37  C   UNL A   1      37.901  31.586  30.737  1.00  0.00     0.049 A 
ATOM     38  N   UNL A   1      38.872  32.571  33.405  1.00  0.00    -0.248 NA
ATOM     39  C   UNL A   1      37.182  34.183  33.379  1.00  0.00     0.031 C 
ATOM     40  C   UNL A   1      37.518  31.091  29.411  1.00  0.00     0.029 A 
ATOM     41  N   UNL A   1      38.951  30.777  31.098  1.00  0.00    -0.354 N 
ATOM     42  C   UNL A   1      38.981  33.374  34.534  1.00  0.00     0.074 A 
ATOM     43  C   UNL A   1      37.958  34.390  34.433  1.00  0.00     0.031 C 
ATOM     44  C   UNL A   1      38.294  30.044  29.089  1.00  0.00     0.029 A 
ATOM     45  C   UNL A   1      39.260  29.821  30.158  1.00  0.00     0.049 A 
ATOM     46  H   UNL A   1      39.436  30.872  31.949  1.00  0.00     0.167 HD
ATOM     47  C   UNL A   1      39.844  33.265  35.571  1.00  0.00     0.031 A 
ATOM     48  C   UNL A   1      40.217  28.874  30.156  1.00  0.00     0.031 A 
ATOM     49  C   UNL A   1      40.838  32.233  35.695  1.00  0.00     0.049 A 
ATOM     50  C   UNL A   1      41.154  28.770  31.327  1.00  0.00     0.074 A 
ATOM     51  C   UNL A   1      41.698  31.989  36.752  1.00  0.00     0.029 A 
ATOM     52  N   UNL A   1      41.102  31.273  34.733  1.00  0.00    -0.354 N 
ATOM     53  N   UNL A   1      41.191  29.487  32.422  1.00  0.00    -0.248 NA
ATOM     54  C   UNL A   1      42.179  27.717  31.261  1.00  0.00     0.031 C 
ATOM     55  C   UNL A   1      42.515  30.908  36.409  1.00  0.00     0.029 A 
ATOM     56  C   UNL A   1      42.127  30.449  35.161  1.00  0.00     0.049 A 
ATOM     57  H   UNL A   1      40.629  31.190  33.873  1.00  0.00     0.167 HD
ATOM     58  C   UNL A   1      42.216  28.952  33.190  1.00  0.00     0.074 A 
ATOM     59  C   UNL A   1      42.769  27.843  32.441  1.00  0.00     0.031 C 
ATOM     60  C   UNL A   1      42.660  29.343  34.408  1.00  0.00     0.031 A 
BRANCH  47  61
ATOM     61  C   UNL A   1      39.751  34.295  36.662  1.00  0.00    -0.014 A 
ATOM     62  C   UNL A   1      38.971  34.074  37.809  1.00  0.00     0.009 A 
ATOM     63  C   UNL A   1      40.488  35.485  36.561  1.00  0.00     0.009 A 
ATOM     64  C   UNL A   1      38.904  35.039  38.815  1.00  0.00     0.001 A 
ATOM     65  C   UNL A   1      40.442  36.435  37.582  1.00  0.00     0.001 A 
ATOM     66  C   UNL A   1      39.643  36.217  38.703  1.00  0.00     0.000 A 
ENDBRANCH  47  61
BRANCH  48  67
ATOM     67  C   UNL A   1      40.334  27.925  29.017  1.00  0.00    -0.014 A 
ATOM     68  C   UNL A   1      39.707  26.670  29.077  1.00  0.00     0.009 A 
ATOM     69  C   UNL A   1      41.090  28.250  27.881  1.00  0.00     0.009 A 
ATOM     70  C   UNL A   1      39.863  25.748  28.040  1.00  0.00     0.001 A 
ATOM     71  C   UNL A   1      41.221  27.337  26.831  1.00  0.00     0.001 A 
ATOM     72  C   UNL A   1      40.617  26.084  26.917  1.00  0.00     0.000 A 
ENDBRANCH  48  67
BRANCH  60  73
ATOM     73  C   UNL A   1      43.767  28.540  35.028  1.00  0.00    -0.014 A 
ATOM     74  C   UNL A   1      43.498  27.403  35.804  1.00  0.00     0.009 A 
ATOM     75  C   UNL A   1      45.102  28.907  34.796  1.00  0.00     0.009 A 
ATOM     76  C   UNL A   1      44.545  26.666  36.360  1.00  0.00     0.001 A 
ATOM     77  C   UNL A   1      46.147  28.152  35.330  1.00  0.00     0.001 A 
ATOM     78  C   UNL A   1      45.867  27.038  36.118  1.00  0.00     0.000 A 
ENDBRANCH  60  73
ENDBRANCH  34  35
ENDBRANCH  26  29
ENDBRANCH  24  25
ENDBRANCH   1  24
TORSDOF 13
ENDMDL
MODEL 3
REMARK VINA RESULT:     -11.0      2.841      7.886
REMARK SMILES COc1c(C(=O)NCCCCNC(=O)c2ccc(-c3c4nc(c(-c5ccccc5)c5ccc([nH]5)c(-c5ccccc5)c5nc(c(-c6ccccc6)c6ccc3[nH]6)C=C5)C=C4)cc2)cccc1-c1cc(C)ccc1C
REMARK SMILES IDX 10 1 9 2 8 3 7 4 5 5 6 6 4 8 3 9 66 10 63 11 65 12 64 13
REMARK SMILES IDX 2 14 1 15 67 16 68 17 73 18 69 19 72 20 74 21 70 22 71 23
REMARK SMILES IDX 11 24 12 25 13 26 14 28 15 29 16 30 62 31 17 32 61 33 18 34
REMARK SMILES IDX 19 35 20 36 55 37 21 38 60 39 54 40 56 41 22 42 59 43 53 44
REMARK SMILES IDX 52 45 23 47 45 48 30 49 44 50 31 51 34 52 43 53 57 54 32 55
REMARK SMILES IDX 33 56 42 58 58 59 35 60 24 61 25 62 29 63 26 64 28 65 27 66
REMARK SMILES IDX 46 67 47 68 51 69 48 70 50 71 49 72 36 73 37 74 41 75 38 76
REMARK SMILES IDX 40 77 39 78
REMARK H PARENT 7 7 12 27 56 46 34 57
REMARK Flexibility Score: inf
ROOT
ATOM      1  C   UNL A   1      36.220  23.002  26.097  1.00  0.00     0.023 C 
ENDROOT
BRANCH   1   2
ATOM      2  C   UNL A   1      35.645  21.601  26.278  1.00  0.00     0.023 C 
BRANCH   2   3
ATOM      3  C   UNL A   1      34.375  21.497  27.104  1.00  0.00     0.116 C 
BRANCH   3   4
ATOM      4  N   UNL A   1      33.200  20.961  26.477  1.00  0.00    -0.352 N 
ATOM      5  C   UNL A   1      32.595  21.416  25.323  1.00  0.00     0.255 C 
ATOM      6  O   UNL A   1      31.697  20.724  24.839  1.00  0.00    -0.269 OA
ATOM      7  H   UNL A   1      32.781  20.188  26.918  1.00  0.00     0.163 HD
BRANCH   5   8
ATOM      8  C   UNL A   1      32.876  22.760  24.717  1.00  0.00     0.082 A 
ATOM      9  C   UNL A   1      32.571  24.034  25.258  1.00  0.00     0.139 A 
ATOM     10  C   UNL A   1      32.909  25.210  24.529  1.00  0.00     0.025 A 
ATOM     11  C   UNL A   1      33.539  22.683  23.475  1.00  0.00     0.018 A 
ATOM     12  C   UNL A   1      33.563  25.075  23.286  1.00  0.00     0.012 A 
ATOM     13  C   UNL A   1      33.882  23.827  22.765  1.00  0.00     0.002 A 
BRANCH   9  14
ATOM     14  O   UNL A   1      32.063  24.094  26.539  1.00  0.00    -0.495 OA
ATOM     15  C   UNL A   1      30.637  23.975  26.661  1.00  0.00     0.278 C 
ENDBRANCH   9  14
BRANCH  10  16
ATOM     16  C   UNL A   1      32.557  26.579  24.965  1.00  0.00    -0.011 A 
ATOM     17  C   UNL A   1      33.506  27.274  25.748  1.00  0.00     0.012 A 
ATOM     18  C   UNL A   1      31.383  27.254  24.569  1.00  0.00    -0.043 A 
ATOM     19  C   UNL A   1      33.354  28.628  26.068  1.00  0.00    -0.050 A 
ATOM     20  C   UNL A   1      31.243  28.619  24.882  1.00  0.00     0.004 A 
ATOM     21  C   UNL A   1      30.329  26.615  23.704  1.00  0.00     0.045 C 
ATOM     22  C   UNL A   1      34.414  29.327  26.864  1.00  0.00     0.044 C 
ATOM     23  C   UNL A   1      32.220  29.299  25.614  1.00  0.00     0.004 A 
ENDBRANCH  10  16
ENDBRANCH   5   8
ENDBRANCH   3   4
ENDBRANCH   2   3
ENDBRANCH   1   2
BRANCH   1  24
ATOM     24  C   UNL A   1      37.375  23.158  25.110  1.00  0.00     0.116 C 
BRANCH  24  25
ATOM     25  N   UNL A   1      38.606  22.472  25.498  1.00  0.00    -0.352 N 
ATOM     26  C   UNL A   1      39.673  22.893  26.256  1.00  0.00     0.251 C 
ATOM     27  H   UNL A   1      38.685  21.552  25.157  1.00  0.00     0.163 HD
ATOM     28  O   UNL A   1      40.639  22.162  26.415  1.00  0.00    -0.269 OA
BRANCH  26  29
ATOM     29  C   UNL A   1      39.685  24.256  26.838  1.00  0.00     0.039 A 
ATOM     30  C   UNL A   1      39.118  24.456  28.100  1.00  0.00     0.014 A 
ATOM     31  C   UNL A   1      40.287  25.321  26.170  1.00  0.00     0.014 A 
ATOM     32  C   UNL A   1      39.273  25.689  28.741  1.00  0.00     0.010 A 
ATOM     33  C   UNL A   1      40.536  26.509  26.850  1.00  0.00     0.010 A 
ATOM     34  C   UNL A   1      40.045  26.702  28.151  1.00  0.00    -0.014 A 
BRANCH  34  35
ATOM     35  C   UNL A   1      40.379  27.956  28.878  1.00  0.00     0.031 A 
ATOM     36  C   UNL A   1      41.696  28.092  29.593  1.00  0.00     0.074 A 
ATOM     37  C   UNL A   1      39.456  28.935  28.982  1.00  0.00     0.049 A 
ATOM     38  N   UNL A   1      42.122  29.062  30.363  1.00  0.00    -0.248 NA
ATOM     39  C   UNL A   1      42.648  26.977  29.453  1.00  0.00     0.031 C 
ATOM     40  C   UNL A   1      38.117  28.914  28.385  1.00  0.00     0.029 A 
ATOM     41  N   UNL A   1      39.504  30.142  29.636  1.00  0.00    -0.354 N 
ATOM     42  C   UNL A   1      43.369  28.658  30.824  1.00  0.00     0.074 A 
ATOM     43  C   UNL A   1      43.613  27.339  30.285  1.00  0.00     0.031 C 
ATOM     44  C   UNL A   1      37.488  30.066  28.669  1.00  0.00     0.029 A 
ATOM     45  C   UNL A   1      38.355  30.887  29.505  1.00  0.00     0.049 A 
ATOM     46  H   UNL A   1      40.286  30.444  30.151  1.00  0.00     0.167 HD
ATOM     47  C   UNL A   1      44.242  29.330  31.611  1.00  0.00     0.031 A 
ATOM     48  C   UNL A   1      38.034  32.094  30.007  1.00  0.00     0.031 A 
ATOM     49  C   UNL A   1      44.021  30.658  32.116  1.00  0.00     0.049 A 
ATOM     50  C   UNL A   1      39.028  32.823  30.868  1.00  0.00     0.074 A 
ATOM     51  C   UNL A   1      44.885  31.455  32.848  1.00  0.00     0.029 A 
ATOM     52  N   UNL A   1      42.855  31.385  31.941  1.00  0.00    -0.354 N 
ATOM     53  N   UNL A   1      40.233  32.460  31.227  1.00  0.00    -0.248 NA
ATOM     54  C   UNL A   1      38.614  34.136  31.387  1.00  0.00     0.031 C 
ATOM     55  C   UNL A   1      44.223  32.648  33.154  1.00  0.00     0.029 A 
ATOM     56  C   UNL A   1      42.967  32.612  32.570  1.00  0.00     0.049 A 
ATOM     57  H   UNL A   1      42.064  31.074  31.443  1.00  0.00     0.167 HD
ATOM     58  C   UNL A   1      40.735  33.510  31.984  1.00  0.00     0.074 A 
ATOM     59  C   UNL A   1      39.708  34.530  32.022  1.00  0.00     0.031 C 
ATOM     60  C   UNL A   1      41.941  33.621  32.591  1.00  0.00     0.031 A 
BRANCH  47  61
ATOM     61  C   UNL A   1      45.524  28.637  31.975  1.00  0.00    -0.014 A 
ATOM     62  C   UNL A   1      46.694  28.824  31.220  1.00  0.00     0.009 A 
ATOM     63  C   UNL A   1      45.574  27.818  33.114  1.00  0.00     0.009 A 
ATOM     64  C   UNL A   1      47.878  28.178  31.580  1.00  0.00     0.001 A 
ATOM     65  C   UNL A   1      46.767  27.196  33.487  1.00  0.00     0.001 A 
ATOM     66  C   UNL A   1      47.915  27.368  32.715  1.00  0.00     0.000 A 
ENDBRANCH  47  61
BRANCH  48  67
ATOM     67  C   UNL A   1      36.718  32.714  29.694  1.00  0.00    -0.014 A 
ATOM     68  C   UNL A   1      36.545  33.441  28.506  1.00  0.00     0.009 A 
ATOM     69  C   UNL A   1      35.641  32.608  30.588  1.00  0.00     0.009 A 
ATOM     70  C   UNL A   1      35.332  34.077  28.234  1.00  0.00     0.001 A 
ATOM     71  C   UNL A   1      34.420  33.222  30.299  1.00  0.00     0.001 A 
ATOM     72  C   UNL A   1      34.270  33.965  29.129  1.00  0.00     0.000 A 
ENDBRANCH  48  67
BRANCH  60  73
ATOM     73  C   UNL A   1      42.234  34.906  33.311  1.00  0.00    -0.014 A 
ATOM     74  C   UNL A   1      41.781  35.129  34.620  1.00  0.00     0.009 A 
ATOM     75  C   UNL A   1      43.011  35.890  32.681  1.00  0.00     0.009 A 
ATOM     76  C   UNL A   1      42.076  36.327  35.273  1.00  0.00     0.001 A 
ATOM     77  C   UNL A   1      43.328  37.075  33.347  1.00  0.00     0.001 A 
ATOM     78  C   UNL A   1      42.853  37.295  34.638  1.00  0.00     0.000 A 
ENDBRANCH  60  73
ENDBRANCH  34  35
ENDBRANCH  26  29
ENDBRANCH  24  25
ENDBRANCH   1  24
TORSDOF 13
ENDMDL
