MODEL 1
REMARK VINA RESULT:     -10.3      0.000      0.000
REMARK SMILES C[NH+](C)CCNC(=O)NC1(CC(=O)NCCCCNC(=O)c2ccc(-c3c4nc(c(-c5ccccc5)c5ccc([nH]5)c(-c5ccccc5)c5nc(c(-c6ccccc6)c6ccc3[nH]6)C=C5)C=C4)cc2)CCC1
REMARK SMILES IDX 15 1 14 2 12 3 13 4 11 6 10 7 70 8 72 9 71 10 9 11 6 12 7 13
REMARK SMILES IDX 8 15 5 17 4 18 2 19 1 20 3 21 16 23 17 24 18 25 19 26 20 27
REMARK SMILES IDX 21 29 22 30 23 31 69 32 24 33 68 34 25 35 26 36 27 37 62 38
REMARK SMILES IDX 28 39 67 40 61 41 63 42 29 43 66 44 60 45 59 46 30 48 52 49
REMARK SMILES IDX 37 50 51 51 38 52 41 53 50 54 64 55 39 56 40 57 49 59 65 60
REMARK SMILES IDX 42 61 31 62 32 63 36 64 33 65 35 66 34 67 53 68 54 69 58 70
REMARK SMILES IDX 55 71 57 72 56 73 43 74 44 75 48 76 45 77 47 78 46 79
REMARK H PARENT 14 5 6 14 9 16 2 22 19 28 63 47 41 58
REMARK Flexibility Score: inf
ROOT
ATOM      1  C   UNL A   1      33.347  29.122  26.459  1.00  0.00     0.116 C 
ENDROOT
BRANCH   1   2
ATOM      2  N   UNL A   1      33.721  29.476  25.111  1.00  0.00    -0.356 N 
ATOM      3  C   UNL A   1      33.441  28.822  23.952  1.00  0.00     0.222 C 
ATOM      4  O   UNL A   1      34.015  29.195  22.928  1.00  0.00    -0.275 OA
ATOM      5  H   UNL A   1      34.249  30.302  25.017  1.00  0.00     0.163 HD
BRANCH   3   6
ATOM      6  C   UNL A   1      32.405  27.716  23.932  1.00  0.00     0.128 C 
BRANCH   6   7
ATOM      7  C   UNL A   1      31.463  27.655  22.722  1.00  0.00     0.051 C 
ATOM      8  C   UNL A   1      30.636  28.948  22.373  1.00  0.00     0.029 C 
ATOM      9  C   UNL A   1      30.047  27.029  23.026  1.00  0.00     0.029 C 
ATOM     10  C   UNL A   1      29.524  28.441  23.298  1.00  0.00     0.005 C 
BRANCH   7  11
ATOM     11  N   UNL A   1      32.069  26.989  21.552  1.00  0.00    -0.332 N 
ATOM     12  N   UNL A   1      32.495  24.707  22.075  1.00  0.00    -0.332 N 
ATOM     13  C   UNL A   1      32.482  25.749  21.243  1.00  0.00     0.315 C 
ATOM     14  H   UNL A   1      32.776  23.876  21.629  1.00  0.00     0.165 HD
ATOM     15  O   UNL A   1      32.902  25.567  20.096  1.00  0.00    -0.249 OA
ATOM     16  H   UNL A   1      32.207  27.616  20.806  1.00  0.00     0.165 HD
BRANCH  12  17
ATOM     17  C   UNL A   1      32.197  24.506  23.476  1.00  0.00     0.179 C 
BRANCH  17  18
ATOM     18  C   UNL A   1      31.025  23.536  23.737  1.00  0.00     0.283 C 
BRANCH  18  19
ATOM     19  N   UNL A   1      30.506  23.420  25.107  1.00  0.00    -0.338 N 
ATOM     20  C   UNL A   1      31.116  22.324  25.848  1.00  0.00     0.332 C 
ATOM     21  C   UNL A   1      30.565  24.673  25.850  1.00  0.00     0.332 C 
ATOM     22  H   UNL A   1      29.517  23.192  25.003  1.00  0.00     0.347 HD
ENDBRANCH  18  19
ENDBRANCH  17  18
ENDBRANCH  12  17
ENDBRANCH   7  11
ENDBRANCH   6   7
ENDBRANCH   3   6
ENDBRANCH   1   2
BRANCH   1  23
ATOM     23  C   UNL A   1      32.011  29.767  26.821  1.00  0.00     0.023 C 
BRANCH  23  24
ATOM     24  C   UNL A   1      31.935  31.266  26.579  1.00  0.00     0.023 C 
BRANCH  24  25
ATOM     25  C   UNL A   1      32.956  32.080  27.349  1.00  0.00     0.116 C 
BRANCH  25  26
ATOM     26  N   UNL A   1      32.518  33.435  27.666  1.00  0.00    -0.352 N 
ATOM     27  C   UNL A   1      33.163  34.362  28.450  1.00  0.00     0.251 C 
ATOM     28  H   UNL A   1      31.662  33.718  27.272  1.00  0.00     0.163 HD
ATOM     29  O   UNL A   1      32.668  35.451  28.693  1.00  0.00    -0.269 OA
BRANCH  27  30
ATOM     30  C   UNL A   1      34.458  33.969  29.029  1.00  0.00     0.039 A 
ATOM     31  C   UNL A   1      34.466  33.221  30.205  1.00  0.00     0.014 A 
ATOM     32  C   UNL A   1      35.631  34.205  28.308  1.00  0.00     0.014 A 
ATOM     33  C   UNL A   1      35.660  32.640  30.627  1.00  0.00     0.010 A 
ATOM     34  C   UNL A   1      36.793  33.547  28.677  1.00  0.00     0.010 A 
ATOM     35  C   UNL A   1      36.819  32.764  29.842  1.00  0.00    -0.014 A 
BRANCH  35  36
ATOM     36  C   UNL A   1      38.085  32.105  30.231  1.00  0.00     0.031 A 
ATOM     37  C   UNL A   1      39.010  32.799  31.191  1.00  0.00     0.074 A 
ATOM     38  C   UNL A   1      38.432  30.931  29.672  1.00  0.00     0.049 A 
ATOM     39  N   UNL A   1      40.195  32.434  31.605  1.00  0.00    -0.248 NA
ATOM     40  C   UNL A   1      38.557  34.095  31.729  1.00  0.00     0.031 C 
ATOM     41  C   UNL A   1      37.642  30.188  28.685  1.00  0.00     0.029 A 
ATOM     42  N   UNL A   1      39.549  30.155  29.852  1.00  0.00    -0.354 N 
ATOM     43  C   UNL A   1      40.638  33.466  32.422  1.00  0.00     0.074 A 
ATOM     44  C   UNL A   1      39.623  34.494  32.404  1.00  0.00     0.031 C 
ATOM     45  C   UNL A   1      38.285  29.048  28.376  1.00  0.00     0.029 A 
ATOM     46  C   UNL A   1      39.543  28.998  29.112  1.00  0.00     0.049 A 
ATOM     47  H   UNL A   1      40.287  30.405  30.455  1.00  0.00     0.167 HD
ATOM     48  C   UNL A   1      41.777  33.540  33.147  1.00  0.00     0.031 A 
ATOM     49  C   UNL A   1      40.452  28.008  29.040  1.00  0.00     0.031 A 
ATOM     50  C   UNL A   1      42.765  32.499  33.194  1.00  0.00     0.049 A 
ATOM     51  C   UNL A   1      41.699  28.103  29.874  1.00  0.00     0.074 A 
ATOM     52  C   UNL A   1      43.920  32.439  33.953  1.00  0.00     0.029 A 
ATOM     53  N   UNL A   1      42.707  31.328  32.453  1.00  0.00    -0.354 N 
ATOM     54  N   UNL A   1      42.070  29.050  30.702  1.00  0.00    -0.248 NA
ATOM     55  C   UNL A   1      42.648  26.985  29.774  1.00  0.00     0.031 C 
ATOM     56  C   UNL A   1      44.580  31.246  33.643  1.00  0.00     0.029 A 
ATOM     57  C   UNL A   1      43.814  30.545  32.725  1.00  0.00     0.049 A 
ATOM     58  H   UNL A   1      41.986  31.090  31.827  1.00  0.00     0.167 HD
ATOM     59  C   UNL A   1      43.278  28.630  31.242  1.00  0.00     0.074 A 
ATOM     60  C   UNL A   1      43.570  27.336  30.660  1.00  0.00     0.031 C 
ATOM     61  C   UNL A   1      44.076  29.258  32.139  1.00  0.00     0.031 A 
BRANCH  48  62
ATOM     62  C   UNL A   1      42.005  34.788  33.949  1.00  0.00    -0.014 A 
ATOM     63  C   UNL A   1      41.519  34.908  35.260  1.00  0.00     0.009 A 
ATOM     64  C   UNL A   1      42.733  35.851  33.394  1.00  0.00     0.009 A 
ATOM     65  C   UNL A   1      41.726  36.081  35.987  1.00  0.00     0.001 A 
ATOM     66  C   UNL A   1      42.964  37.012  34.134  1.00  0.00     0.001 A 
ATOM     67  C   UNL A   1      42.452  37.130  35.425  1.00  0.00     0.000 A 
ENDBRANCH  48  62
BRANCH  49  68
ATOM     68  C   UNL A   1      40.209  26.825  28.174  1.00  0.00    -0.014 A 
ATOM     69  C   UNL A   1      40.690  26.802  26.855  1.00  0.00     0.009 A 
ATOM     70  C   UNL A   1      39.483  25.723  28.652  1.00  0.00     0.009 A 
ATOM     71  C   UNL A   1      40.421  25.713  26.022  1.00  0.00     0.001 A 
ATOM     72  C   UNL A   1      39.239  24.624  27.824  1.00  0.00     0.001 A 
ATOM     73  C   UNL A   1      39.698  24.624  26.508  1.00  0.00     0.000 A 
ENDBRANCH  49  68
BRANCH  61  74
ATOM     74  C   UNL A   1      45.317  28.535  32.573  1.00  0.00    -0.014 A 
ATOM     75  C   UNL A   1      45.299  27.638  33.651  1.00  0.00     0.009 A 
ATOM     76  C   UNL A   1      46.511  28.720  31.857  1.00  0.00     0.009 A 
ATOM     77  C   UNL A   1      46.462  26.963  34.024  1.00  0.00     0.001 A 
ATOM     78  C   UNL A   1      47.664  28.022  32.215  1.00  0.00     0.001 A 
ATOM     79  C   UNL A   1      47.641  27.152  33.303  1.00  0.00     0.000 A 
ENDBRANCH  61  74
ENDBRANCH  35  36
ENDBRANCH  27  30
ENDBRANCH  25  26
ENDBRANCH  24  25
ENDBRANCH  23  24
ENDBRANCH   1  23
TORSDOF 16
ENDMDL
MODEL 2
REMARK VINA RESULT:     -10.2      4.451      9.466
REMARK SMILES C[NH+](C)CCNC(=O)NC1(CC(=O)NCCCCNC(=O)c2ccc(-c3c4nc(c(-c5ccccc5)c5ccc([nH]5)c(-c5ccccc5)c5nc(c(-c6ccccc6)c6ccc3[nH]6)C=C5)C=C4)cc2)CCC1
REMARK SMILES IDX 15 1 14 2 12 3 13 4 11 6 10 7 70 8 72 9 71 10 9 11 6 12 7 13
REMARK SMILES IDX 8 15 5 17 4 18 2 19 1 20 3 21 16 23 17 24 18 25 19 26 20 27
REMARK SMILES IDX 21 29 22 30 23 31 69 32 24 33 68 34 25 35 26 36 27 37 62 38
REMARK SMILES IDX 28 39 67 40 61 41 63 42 29 43 66 44 60 45 59 46 30 48 52 49
REMARK SMILES IDX 37 50 51 51 38 52 41 53 50 54 64 55 39 56 40 57 49 59 65 60
REMARK SMILES IDX 42 61 31 62 32 63 36 64 33 65 35 66 34 67 53 68 54 69 58 70
REMARK SMILES IDX 55 71 57 72 56 73 43 74 44 75 48 76 45 77 47 78 46 79
REMARK H PARENT 14 5 6 14 9 16 2 22 19 28 63 47 41 58
REMARK Flexibility Score: inf
ROOT
ATOM      1  C   UNL A   1      35.686  20.840  25.314  1.00  0.00     0.116 C 
ENDROOT
BRANCH   1   2
ATOM      2  N   UNL A   1      35.095  21.406  26.502  1.00  0.00    -0.356 N 
ATOM      3  C   UNL A   1      34.195  22.421  26.602  1.00  0.00     0.222 C 
ATOM      4  O   UNL A   1      33.962  22.875  27.723  1.00  0.00    -0.275 OA
ATOM      5  H   UNL A   1      35.381  21.005  27.354  1.00  0.00     0.163 HD
BRANCH   3   6
ATOM      6  C   UNL A   1      33.466  22.919  25.370  1.00  0.00     0.128 C 
BRANCH   6   7
ATOM      7  C   UNL A   1      32.128  22.253  25.026  1.00  0.00     0.051 C 
ATOM      8  C   UNL A   1      32.170  20.859  24.296  1.00  0.00     0.029 C 
ATOM      9  C   UNL A   1      31.474  22.755  23.680  1.00  0.00     0.029 C 
ATOM     10  C   UNL A   1      32.175  21.603  22.955  1.00  0.00     0.005 C 
BRANCH   7  11
ATOM     11  N   UNL A   1      31.145  22.332  26.124  1.00  0.00    -0.332 N 
ATOM     12  N   UNL A   1      30.608  24.612  26.542  1.00  0.00    -0.332 N 
ATOM     13  C   UNL A   1      30.468  23.303  26.758  1.00  0.00     0.315 C 
ATOM     14  H   UNL A   1      29.971  25.148  27.068  1.00  0.00     0.165 HD
ATOM     15  O   UNL A   1      29.663  22.953  27.626  1.00  0.00    -0.249 OA
ATOM     16  H   UNL A   1      30.930  21.443  26.487  1.00  0.00     0.165 HD
BRANCH  12  17
ATOM     17  C   UNL A   1      31.471  25.433  25.721  1.00  0.00     0.179 C 
BRANCH  17  18
ATOM     18  C   UNL A   1      32.223  26.532  26.500  1.00  0.00     0.283 C 
BRANCH  18  19
ATOM     19  N   UNL A   1      32.103  27.922  26.039  1.00  0.00    -0.338 N 
ATOM     20  C   UNL A   1      31.196  28.063  24.907  1.00  0.00     0.332 C 
ATOM     21  C   UNL A   1      31.779  28.856  27.111  1.00  0.00     0.332 C 
ATOM     22  H   UNL A   1      33.033  28.177  25.705  1.00  0.00     0.347 HD
ENDBRANCH  18  19
ENDBRANCH  17  18
ENDBRANCH  12  17
ENDBRANCH   7  11
ENDBRANCH   6   7
ENDBRANCH   3   6
ENDBRANCH   1   2
BRANCH   1  23
ATOM     23  C   UNL A   1      37.129  21.318  25.165  1.00  0.00     0.023 C 
BRANCH  23  24
ATOM     24  C   UNL A   1      38.158  20.211  25.001  1.00  0.00     0.023 C 
BRANCH  24  25
ATOM     25  C   UNL A   1      39.345  20.312  25.939  1.00  0.00     0.116 C 
BRANCH  25  26
ATOM     26  N   UNL A   1      40.250  19.169  25.876  1.00  0.00    -0.352 N 
ATOM     27  C   UNL A   1      41.610  19.166  26.074  1.00  0.00     0.251 C 
ATOM     28  H   UNL A   1      39.838  18.300  25.667  1.00  0.00     0.163 HD
ATOM     29  O   UNL A   1      42.276  18.152  25.936  1.00  0.00    -0.269 OA
BRANCH  27  30
ATOM     30  C   UNL A   1      42.244  20.451  26.411  1.00  0.00     0.039 A 
ATOM     31  C   UNL A   1      42.642  21.295  25.376  1.00  0.00     0.014 A 
ATOM     32  C   UNL A   1      42.279  20.869  27.744  1.00  0.00     0.014 A 
ATOM     33  C   UNL A   1      43.014  22.603  25.676  1.00  0.00     0.010 A 
ATOM     34  C   UNL A   1      42.554  22.196  28.028  1.00  0.00     0.010 A 
ATOM     35  C   UNL A   1      42.930  23.072  26.998  1.00  0.00    -0.014 A 
BRANCH  35  36
ATOM     36  C   UNL A   1      43.257  24.475  27.337  1.00  0.00     0.031 A 
ATOM     37  C   UNL A   1      44.687  24.932  27.275  1.00  0.00     0.074 A 
ATOM     38  C   UNL A   1      42.289  25.307  27.766  1.00  0.00     0.049 A 
ATOM     39  N   UNL A   1      45.198  26.090  27.600  1.00  0.00    -0.248 NA
ATOM     40  C   UNL A   1      45.681  23.942  26.821  1.00  0.00     0.031 C 
ATOM     41  C   UNL A   1      40.873  24.962  27.921  1.00  0.00     0.029 A 
ATOM     42  N   UNL A   1      42.354  26.620  28.157  1.00  0.00    -0.354 N 
ATOM     43  C   UNL A   1      46.569  25.956  27.421  1.00  0.00     0.074 A 
ATOM     44  C   UNL A   1      46.817  24.593  27.012  1.00  0.00     0.031 C 
ATOM     45  C   UNL A   1      40.200  26.047  28.339  1.00  0.00     0.029 A 
ATOM     46  C   UNL A   1      41.138  27.150  28.516  1.00  0.00     0.049 A 
ATOM     47  H   UNL A   1      43.193  27.135  28.178  1.00  0.00     0.167 HD
ATOM     48  C   UNL A   1      47.534  26.894  27.557  1.00  0.00     0.031 A 
ATOM     49  C   UNL A   1      40.820  28.388  28.938  1.00  0.00     0.031 A 
ATOM     50  C   UNL A   1      47.280  28.258  27.925  1.00  0.00     0.049 A 
ATOM     51  C   UNL A   1      41.908  29.417  29.058  1.00  0.00     0.074 A 
ATOM     52  C   UNL A   1      48.175  29.308  28.020  1.00  0.00     0.029 A 
ATOM     53  N   UNL A   1      46.030  28.762  28.252  1.00  0.00    -0.354 N 
ATOM     54  N   UNL A   1      43.191  29.297  28.811  1.00  0.00    -0.248 NA
ATOM     55  C   UNL A   1      41.503  30.758  29.502  1.00  0.00     0.031 C 
ATOM     56  C   UNL A   1      47.472  30.441  28.440  1.00  0.00     0.029 A 
ATOM     57  C   UNL A   1      46.133  30.105  28.563  1.00  0.00     0.049 A 
ATOM     58  H   UNL A   1      45.195  28.242  28.260  1.00  0.00     0.167 HD
ATOM     59  C   UNL A   1      43.740  30.551  29.042  1.00  0.00     0.074 A 
ATOM     60  C   UNL A   1      42.649  31.421  29.434  1.00  0.00     0.031 C 
ATOM     61  C   UNL A   1      45.031  30.950  28.940  1.00  0.00     0.031 A 
BRANCH  48  62
ATOM     62  C   UNL A   1      48.951  26.468  27.300  1.00  0.00    -0.014 A 
ATOM     63  C   UNL A   1      49.523  26.581  26.023  1.00  0.00     0.009 A 
ATOM     64  C   UNL A   1      49.731  25.965  28.352  1.00  0.00     0.009 A 
ATOM     65  C   UNL A   1      50.836  26.166  25.796  1.00  0.00     0.001 A 
ATOM     66  C   UNL A   1      51.053  25.578  28.129  1.00  0.00     0.001 A 
ATOM     67  C   UNL A   1      51.601  25.670  26.851  1.00  0.00     0.000 A 
ENDBRANCH  48  62
BRANCH  49  68
ATOM     68  C   UNL A   1      39.409  28.737  29.248  1.00  0.00    -0.014 A 
ATOM     69  C   UNL A   1      38.563  29.229  28.242  1.00  0.00     0.009 A 
ATOM     70  C   UNL A   1      38.907  28.600  30.551  1.00  0.00     0.009 A 
ATOM     71  C   UNL A   1      37.251  29.605  28.540  1.00  0.00     0.001 A 
ATOM     72  C   UNL A   1      37.586  28.952  30.841  1.00  0.00     0.001 A 
ATOM     73  C   UNL A   1      36.763  29.464  29.839  1.00  0.00     0.000 A 
ENDBRANCH  49  68
BRANCH  61  74
ATOM     74  C   UNL A   1      45.325  32.395  29.219  1.00  0.00    -0.014 A 
ATOM     75  C   UNL A   1      45.321  33.349  28.191  1.00  0.00     0.009 A 
ATOM     76  C   UNL A   1      45.559  32.811  30.539  1.00  0.00     0.009 A 
ATOM     77  C   UNL A   1      45.578  34.691  28.478  1.00  0.00     0.001 A 
ATOM     78  C   UNL A   1      45.788  34.157  30.825  1.00  0.00     0.001 A 
ATOM     79  C   UNL A   1      45.806  35.094  29.794  1.00  0.00     0.000 A 
ENDBRANCH  61  74
ENDBRANCH  35  36
ENDBRANCH  27  30
ENDBRANCH  25  26
ENDBRANCH  24  25
ENDBRANCH  23  24
ENDBRANCH   1  23
TORSDOF 16
ENDMDL
MODEL 3
REMARK VINA RESULT:     -10.0      1.841      2.481
REMARK SMILES C[NH+](C)CCNC(=O)NC1(CC(=O)NCCCCNC(=O)c2ccc(-c3c4nc(c(-c5ccccc5)c5ccc([nH]5)c(-c5ccccc5)c5nc(c(-c6ccccc6)c6ccc3[nH]6)C=C5)C=C4)cc2)CCC1
REMARK SMILES IDX 15 1 14 2 12 3 13 4 11 6 10 7 70 8 72 9 71 10 9 11 6 12 7 13
REMARK SMILES IDX 8 15 5 17 4 18 2 19 1 20 3 21 16 23 17 24 18 25 19 26 20 27
REMARK SMILES IDX 21 29 22 30 23 31 69 32 24 33 68 34 25 35 26 36 27 37 62 38
REMARK SMILES IDX 28 39 67 40 61 41 63 42 29 43 66 44 60 45 59 46 30 48 52 49
REMARK SMILES IDX 37 50 51 51 38 52 41 53 50 54 64 55 39 56 40 57 49 59 65 60
REMARK SMILES IDX 42 61 31 62 32 63 36 64 33 65 35 66 34 67 53 68 54 69 58 70
REMARK SMILES IDX 55 71 57 72 56 73 43 74 44 75 48 76 45 77 47 78 46 79
REMARK H PARENT 14 5 6 14 9 16 2 22 19 28 63 47 41 58
REMARK Flexibility Score: inf
ROOT
ATOM      1  C   UNL A   1      34.238  29.205  27.244  1.00  0.00     0.116 C 
ENDROOT
BRANCH   1   2
ATOM      2  N   UNL A   1      32.999  28.730  27.811  1.00  0.00    -0.356 N 
ATOM      3  C   UNL A   1      32.174  27.751  27.351  1.00  0.00     0.222 C 
ATOM      4  O   UNL A   1      31.071  27.631  27.884  1.00  0.00    -0.275 OA
ATOM      5  H   UNL A   1      32.712  29.174  28.642  1.00  0.00     0.163 HD
BRANCH   3   6
ATOM      6  C   UNL A   1      32.644  26.808  26.261  1.00  0.00     0.128 C 
BRANCH   6   7
ATOM      7  C   UNL A   1      31.568  26.138  25.396  1.00  0.00     0.051 C 
ATOM      8  C   UNL A   1      31.984  25.650  23.959  1.00  0.00     0.029 C 
ATOM      9  C   UNL A   1      30.641  27.145  24.609  1.00  0.00     0.029 C 
ATOM     10  C   UNL A   1      31.597  27.032  23.419  1.00  0.00     0.005 C 
BRANCH   7  11
ATOM     11  N   UNL A   1      30.742  25.173  26.148  1.00  0.00    -0.332 N 
ATOM     12  N   UNL A   1      32.090  23.328  26.812  1.00  0.00    -0.332 N 
ATOM     13  C   UNL A   1      30.941  24.005  26.779  1.00  0.00     0.315 C 
ATOM     14  H   UNL A   1      32.036  22.528  27.382  1.00  0.00     0.165 HD
ATOM     15  O   UNL A   1      29.971  23.508  27.361  1.00  0.00    -0.249 OA
ATOM     16  H   UNL A   1      29.802  25.460  26.201  1.00  0.00     0.165 HD
BRANCH  12  17
ATOM     17  C   UNL A   1      33.395  23.489  26.210  1.00  0.00     0.179 C 
BRANCH  17  18
ATOM     18  C   UNL A   1      34.533  22.781  26.975  1.00  0.00     0.283 C 
BRANCH  18  19
ATOM     19  N   UNL A   1      35.880  22.788  26.388  1.00  0.00    -0.338 N 
ATOM     20  C   UNL A   1      36.215  21.530  25.733  1.00  0.00     0.332 C 
ATOM     21  C   UNL A   1      36.119  23.932  25.516  1.00  0.00     0.332 C 
ATOM     22  H   UNL A   1      36.519  22.888  27.177  1.00  0.00     0.347 HD
ENDBRANCH  18  19
ENDBRANCH  17  18
ENDBRANCH  12  17
ENDBRANCH   7  11
ENDBRANCH   6   7
ENDBRANCH   3   6
ENDBRANCH   1   2
BRANCH   1  23
ATOM     23  C   UNL A   1      34.504  30.641  27.690  1.00  0.00     0.023 C 
BRANCH  23  24
ATOM     24  C   UNL A   1      33.281  31.543  27.716  1.00  0.00     0.023 C 
BRANCH  24  25
ATOM     25  C   UNL A   1      33.523  32.947  27.196  1.00  0.00     0.116 C 
BRANCH  25  26
ATOM     26  N   UNL A   1      32.860  33.989  27.971  1.00  0.00    -0.352 N 
ATOM     27  C   UNL A   1      33.302  34.582  29.130  1.00  0.00     0.251 C 
ATOM     28  H   UNL A   1      31.994  34.304  27.624  1.00  0.00     0.163 HD
ATOM     29  O   UNL A   1      32.628  35.407  29.726  1.00  0.00    -0.269 OA
BRANCH  27  30
ATOM     30  C   UNL A   1      34.605  34.142  29.654  1.00  0.00     0.039 A 
ATOM     31  C   UNL A   1      34.632  33.276  30.746  1.00  0.00     0.014 A 
ATOM     32  C   UNL A   1      35.770  34.463  28.952  1.00  0.00     0.014 A 
ATOM     33  C   UNL A   1      35.834  32.666  31.095  1.00  0.00     0.010 A 
ATOM     34  C   UNL A   1      36.941  33.781  29.240  1.00  0.00     0.010 A 
ATOM     35  C   UNL A   1      36.984  32.882  30.317  1.00  0.00    -0.014 A 
BRANCH  35  36
ATOM     36  C   UNL A   1      38.260  32.198  30.625  1.00  0.00     0.031 A 
ATOM     37  C   UNL A   1      39.229  32.843  31.575  1.00  0.00     0.074 A 
ATOM     38  C   UNL A   1      38.573  31.046  30.002  1.00  0.00     0.049 A 
ATOM     39  N   UNL A   1      40.427  32.453  31.923  1.00  0.00    -0.248 NA
ATOM     40  C   UNL A   1      38.810  34.118  32.186  1.00  0.00     0.031 C 
ATOM     41  C   UNL A   1      37.737  30.353  29.018  1.00  0.00     0.029 A 
ATOM     42  N   UNL A   1      39.690  30.256  30.102  1.00  0.00    -0.354 N 
ATOM     43  C   UNL A   1      40.912  33.445  32.765  1.00  0.00     0.074 A 
ATOM     44  C   UNL A   1      39.906  34.480  32.833  1.00  0.00     0.031 C 
ATOM     45  C   UNL A   1      38.356  29.223  28.634  1.00  0.00     0.029 A 
ATOM     46  C   UNL A   1      39.643  29.132  29.314  1.00  0.00     0.049 A 
ATOM     47  H   UNL A   1      40.454  30.475  30.684  1.00  0.00     0.167 HD
ATOM     48  C   UNL A   1      42.081  33.479  33.444  1.00  0.00     0.031 A 
ATOM     49  C   UNL A   1      40.540  28.139  29.162  1.00  0.00     0.031 A 
ATOM     50  C   UNL A   1      43.061  32.430  33.405  1.00  0.00     0.049 A 
ATOM     51  C   UNL A   1      41.821  28.190  29.948  1.00  0.00     0.074 A 
ATOM     52  C   UNL A   1      44.245  32.330  34.113  1.00  0.00     0.029 A 
ATOM     53  N   UNL A   1      42.962  31.294  32.618  1.00  0.00    -0.354 N 
ATOM     54  N   UNL A   1      42.233  29.098  30.799  1.00  0.00    -0.248 NA
ATOM     55  C   UNL A   1      42.754  27.071  29.760  1.00  0.00     0.031 C 
ATOM     56  C   UNL A   1      44.882  31.147  33.725  1.00  0.00     0.029 A 
ATOM     57  C   UNL A   1      44.072  30.492  32.810  1.00  0.00     0.049 A 
ATOM     58  H   UNL A   1      42.214  31.088  32.013  1.00  0.00     0.167 HD
ATOM     59  C   UNL A   1      43.459  28.646  31.270  1.00  0.00     0.074 A 
ATOM     60  C   UNL A   1      43.715  27.377  30.621  1.00  0.00     0.031 C 
ATOM     61  C   UNL A   1      44.298  29.229  32.159  1.00  0.00     0.031 A 
BRANCH  48  62
ATOM     62  C   UNL A   1      42.353  34.690  34.289  1.00  0.00    -0.014 A 
ATOM     63  C   UNL A   1      41.977  34.732  35.641  1.00  0.00     0.009 A 
ATOM     64  C   UNL A   1      43.011  35.797  33.731  1.00  0.00     0.009 A 
ATOM     65  C   UNL A   1      42.223  35.871  36.409  1.00  0.00     0.001 A 
ATOM     66  C   UNL A   1      43.281  36.924  34.509  1.00  0.00     0.001 A 
ATOM     67  C   UNL A   1      42.879  36.964  35.843  1.00  0.00     0.000 A 
ENDBRANCH  48  62
BRANCH  49  68
ATOM     68  C   UNL A   1      40.251  26.997  28.257  1.00  0.00    -0.014 A 
ATOM     69  C   UNL A   1      39.450  25.931  28.694  1.00  0.00     0.009 A 
ATOM     70  C   UNL A   1      40.788  26.956  26.961  1.00  0.00     0.009 A 
ATOM     71  C   UNL A   1      39.217  24.832  27.864  1.00  0.00     0.001 A 
ATOM     72  C   UNL A   1      40.531  25.868  26.123  1.00  0.00     0.001 A 
ATOM     73  C   UNL A   1      39.755  24.803  26.578  1.00  0.00     0.000 A 
ENDBRANCH  49  68
BRANCH  61  74
ATOM     74  C   UNL A   1      45.551  28.480  32.510  1.00  0.00    -0.014 A 
ATOM     75  C   UNL A   1      46.744  28.688  31.803  1.00  0.00     0.009 A 
ATOM     76  C   UNL A   1      45.544  27.590  33.596  1.00  0.00     0.009 A 
ATOM     77  C   UNL A   1      47.902  27.994  32.160  1.00  0.00     0.001 A 
ATOM     78  C   UNL A   1      46.709  26.920  33.966  1.00  0.00     0.001 A 
ATOM     79  C   UNL A   1      47.884  27.116  33.243  1.00  0.00     0.000 A 
ENDBRANCH  61  74
ENDBRANCH  35  36
ENDBRANCH  27  30
ENDBRANCH  25  26
ENDBRANCH  24  25
ENDBRANCH  23  24
ENDBRANCH   1  23
TORSDOF 16
ENDMDL
