MODEL 1
REMARK VINA RESULT:     -10.9      0.000      0.000
REMARK SMILES C[C@H]1[C@H](C(=O)NCCCCNC(=O)c2ccc(-c3c4nc(c(-c5ccccc5)c5ccc([nH]5)c(-c5ccccc5)c5nc(c(-c6ccccc6)c6ccc3[nH]6)C=C5)C=C4)cc2)CCN1C(=O)COc1ccccc1F
REMARK SMILES IDX 7 1 6 2 4 3 5 4 3 6 1 7 2 8 64 9 62 10 63 11 65 12 66 13
REMARK SMILES IDX 67 14 68 15 69 16 70 17 74 18 71 19 73 20 75 21 72 22 8 23
REMARK SMILES IDX 9 24 10 25 11 26 12 27 13 29 14 30 15 31 61 32 16 33 60 34
REMARK SMILES IDX 17 35 18 36 19 37 54 38 20 39 59 40 53 41 55 42 21 43 58 44
REMARK SMILES IDX 52 45 51 46 22 48 44 49 29 50 43 51 30 52 33 53 42 54 56 55
REMARK SMILES IDX 31 56 32 57 41 59 57 60 34 61 23 62 24 63 28 64 25 65 27 66
REMARK SMILES IDX 26 67 45 68 46 69 50 70 47 71 49 72 48 73 35 74 36 75 40 76
REMARK SMILES IDX 37 77 39 78 38 79
REMARK H PARENT 6 5 11 28 55 47 33 58
REMARK Flexibility Score: inf
ROOT
ATOM      1  C   UNL A   1      37.313  22.474  25.570  1.00  0.00     0.116 C 
ENDROOT
BRANCH   1   2
ATOM      2  N   UNL A   1      36.557  23.637  25.141  1.00  0.00    -0.356 N 
ATOM      3  C   UNL A   1      35.217  23.845  25.045  1.00  0.00     0.225 C 
ATOM      4  O   UNL A   1      34.845  24.935  24.605  1.00  0.00    -0.275 OA
ATOM      5  H   UNL A   1      37.110  24.406  24.874  1.00  0.00     0.163 HD
BRANCH   3   6
ATOM      6  C   UNL A   1      34.193  22.803  25.460  1.00  0.00     0.102 C 
ATOM      7  C   UNL A   1      33.522  22.350  27.829  1.00  0.00     0.032 C 
ATOM      8  C   UNL A   1      33.295  23.266  26.626  1.00  0.00     0.094 C 
ATOM      9  N   UNL A   1      31.937  23.205  26.078  1.00  0.00    -0.336 N 
ATOM     10  C   UNL A   1      33.274  22.360  24.319  1.00  0.00     0.037 C 
ATOM     11  C   UNL A   1      31.880  22.345  24.912  1.00  0.00     0.121 C 
BRANCH   9  12
ATOM     12  C   UNL A   1      30.836  23.971  26.407  1.00  0.00     0.260 C 
ATOM     13  O   UNL A   1      30.013  23.580  27.243  1.00  0.00    -0.271 OA
BRANCH  12  14
ATOM     14  C   UNL A   1      30.600  25.315  25.707  1.00  0.00     0.329 C 
BRANCH  14  15
ATOM     15  O   UNL A   1      31.633  26.061  25.103  1.00  0.00    -0.481 OA
BRANCH  15  16
ATOM     16  C   UNL A   1      32.128  27.174  25.725  1.00  0.00     0.155 A 
ATOM     17  C   UNL A   1      31.407  27.553  26.864  1.00  0.00     0.049 A 
ATOM     18  C   UNL A   1      33.161  28.008  25.295  1.00  0.00     0.165 A 
ATOM     19  C   UNL A   1      31.710  28.735  27.548  1.00  0.00     0.004 A 
ATOM     20  C   UNL A   1      33.456  29.197  25.963  1.00  0.00     0.043 A 
ATOM     21  F   UNL A   1      33.882  27.747  24.203  1.00  0.00    -0.203 F 
ATOM     22  C   UNL A   1      32.729  29.565  27.090  1.00  0.00     0.003 A 
ENDBRANCH  15  16
ENDBRANCH  14  15
ENDBRANCH  12  14
ENDBRANCH   9  12
ENDBRANCH   3   6
ENDBRANCH   1   2
BRANCH   1  23
ATOM     23  C   UNL A   1      37.178  21.318  24.584  1.00  0.00     0.023 C 
BRANCH  23  24
ATOM     24  C   UNL A   1      38.002  20.084  24.948  1.00  0.00     0.023 C 
BRANCH  24  25
ATOM     25  C   UNL A   1      39.134  20.336  25.936  1.00  0.00     0.116 C 
BRANCH  25  26
ATOM     26  N   UNL A   1      40.213  19.365  25.832  1.00  0.00    -0.352 N 
ATOM     27  C   UNL A   1      41.554  19.551  26.059  1.00  0.00     0.251 C 
ATOM     28  H   UNL A   1      39.946  18.456  25.564  1.00  0.00     0.163 HD
ATOM     29  O   UNL A   1      42.361  18.661  25.809  1.00  0.00    -0.269 OA
BRANCH  27  30
ATOM     30  C   UNL A   1      42.023  20.853  26.572  1.00  0.00     0.039 A 
ATOM     31  C   UNL A   1      42.429  21.830  25.660  1.00  0.00     0.014 A 
ATOM     32  C   UNL A   1      42.016  21.120  27.943  1.00  0.00     0.014 A 
ATOM     33  C   UNL A   1      42.761  23.104  26.122  1.00  0.00     0.010 A 
ATOM     34  C   UNL A   1      42.272  22.410  28.393  1.00  0.00     0.010 A 
ATOM     35  C   UNL A   1      42.646  23.415  27.488  1.00  0.00    -0.014 A 
BRANCH  35  36
ATOM     36  C   UNL A   1      42.905  24.787  27.987  1.00  0.00     0.031 A 
ATOM     37  C   UNL A   1      44.298  25.199  28.372  1.00  0.00     0.074 A 
ATOM     38  C   UNL A   1      41.876  25.640  28.155  1.00  0.00     0.049 A 
ATOM     39  N   UNL A   1      44.713  26.332  28.879  1.00  0.00    -0.248 NA
ATOM     40  C   UNL A   1      45.361  24.197  28.191  1.00  0.00     0.031 C 
ATOM     41  C   UNL A   1      40.472  25.348  27.861  1.00  0.00     0.029 A 
ATOM     42  N   UNL A   1      41.854  26.931  28.623  1.00  0.00    -0.354 N 
ATOM     43  C   UNL A   1      46.076  26.174  29.092  1.00  0.00     0.074 A 
ATOM     44  C   UNL A   1      46.409  24.819  28.709  1.00  0.00     0.031 C 
ATOM     45  C   UNL A   1      39.731  26.435  28.127  1.00  0.00     0.029 A 
ATOM     46  C   UNL A   1      40.599  27.486  28.646  1.00  0.00     0.049 A 
ATOM     47  H   UNL A   1      42.663  27.412  28.914  1.00  0.00     0.167 HD
ATOM     48  C   UNL A   1      46.975  27.079  29.545  1.00  0.00     0.031 A 
ATOM     49  C   UNL A   1      40.191  28.705  29.046  1.00  0.00     0.031 A 
ATOM     50  C   UNL A   1      46.645  28.429  29.915  1.00  0.00     0.049 A 
ATOM     51  C   UNL A   1      41.207  29.690  29.554  1.00  0.00     0.074 A 
ATOM     52  C   UNL A   1      47.495  29.441  30.329  1.00  0.00     0.029 A 
ATOM     53  N   UNL A   1      45.363  28.956  29.916  1.00  0.00    -0.354 N 
ATOM     54  N   UNL A   1      42.504  29.547  29.682  1.00  0.00    -0.248 NA
ATOM     55  C   UNL A   1      40.701  31.008  29.965  1.00  0.00     0.031 C 
ATOM     56  C   UNL A   1      46.720  30.565  30.629  1.00  0.00     0.029 A 
ATOM     57  C   UNL A   1      45.395  30.271  30.347  1.00  0.00     0.049 A 
ATOM     58  H   UNL A   1      44.551  28.467  29.650  1.00  0.00     0.167 HD
ATOM     59  C   UNL A   1      42.973  30.764  30.160  1.00  0.00     0.074 A 
ATOM     60  C   UNL A   1      41.824  31.637  30.284  1.00  0.00     0.031 C 
ATOM     61  C   UNL A   1      44.242  31.126  30.467  1.00  0.00     0.031 A 
BRANCH  48  62
ATOM     62  C   UNL A   1      48.403  26.630  29.671  1.00  0.00    -0.014 A 
ATOM     63  C   UNL A   1      49.321  26.823  28.625  1.00  0.00     0.009 A 
ATOM     64  C   UNL A   1      48.846  26.032  30.860  1.00  0.00     0.009 A 
ATOM     65  C   UNL A   1      50.643  26.392  28.755  1.00  0.00     0.001 A 
ATOM     66  C   UNL A   1      50.176  25.628  30.998  1.00  0.00     0.001 A 
ATOM     67  C   UNL A   1      51.070  25.799  29.943  1.00  0.00     0.000 A 
ENDBRANCH  48  62
BRANCH  49  68
ATOM     68  C   UNL A   1      38.753  29.075  28.965  1.00  0.00    -0.014 A 
ATOM     69  C   UNL A   1      38.212  29.568  27.768  1.00  0.00     0.009 A 
ATOM     70  C   UNL A   1      37.917  28.943  30.084  1.00  0.00     0.009 A 
ATOM     71  C   UNL A   1      36.870  29.948  27.701  1.00  0.00     0.001 A 
ATOM     72  C   UNL A   1      36.568  29.296  30.005  1.00  0.00     0.001 A 
ATOM     73  C   UNL A   1      36.048  29.808  28.817  1.00  0.00     0.000 A 
ENDBRANCH  49  68
BRANCH  61  74
ATOM     74  C   UNL A   1      44.459  32.536  30.936  1.00  0.00    -0.014 A 
ATOM     75  C   UNL A   1      44.697  33.579  30.028  1.00  0.00     0.009 A 
ATOM     76  C   UNL A   1      44.386  32.830  32.307  1.00  0.00     0.009 A 
ATOM     77  C   UNL A   1      44.889  34.883  30.487  1.00  0.00     0.001 A 
ATOM     78  C   UNL A   1      44.549  34.140  32.760  1.00  0.00     0.001 A 
ATOM     79  C   UNL A   1      44.809  35.163  31.851  1.00  0.00     0.000 A 
ENDBRANCH  61  74
ENDBRANCH  35  36
ENDBRANCH  27  30
ENDBRANCH  25  26
ENDBRANCH  24  25
ENDBRANCH  23  24
ENDBRANCH   1  23
TORSDOF 15
ENDMDL
MODEL 2
REMARK VINA RESULT:     -10.8      4.670      9.175
REMARK SMILES C[C@H]1[C@H](C(=O)NCCCCNC(=O)c2ccc(-c3c4nc(c(-c5ccccc5)c5ccc([nH]5)c(-c5ccccc5)c5nc(c(-c6ccccc6)c6ccc3[nH]6)C=C5)C=C4)cc2)CCN1C(=O)COc1ccccc1F
REMARK SMILES IDX 7 1 6 2 4 3 5 4 3 6 1 7 2 8 64 9 62 10 63 11 65 12 66 13
REMARK SMILES IDX 67 14 68 15 69 16 70 17 74 18 71 19 73 20 75 21 72 22 8 23
REMARK SMILES IDX 9 24 10 25 11 26 12 27 13 29 14 30 15 31 61 32 16 33 60 34
REMARK SMILES IDX 17 35 18 36 19 37 54 38 20 39 59 40 53 41 55 42 21 43 58 44
REMARK SMILES IDX 52 45 51 46 22 48 44 49 29 50 43 51 30 52 33 53 42 54 56 55
REMARK SMILES IDX 31 56 32 57 41 59 57 60 34 61 23 62 24 63 28 64 25 65 27 66
REMARK SMILES IDX 26 67 45 68 46 69 50 70 47 71 49 72 48 73 35 74 36 75 40 76
REMARK SMILES IDX 37 77 39 78 38 79
REMARK H PARENT 6 5 11 28 55 47 33 58
REMARK Flexibility Score: inf
ROOT
ATOM      1  C   UNL A   1      33.351  30.068  26.505  1.00  0.00     0.116 C 
ENDROOT
BRANCH   1   2
ATOM      2  N   UNL A   1      33.659  29.576  25.176  1.00  0.00    -0.356 N 
ATOM      3  C   UNL A   1      33.693  28.311  24.678  1.00  0.00     0.225 C 
ATOM      4  O   UNL A   1      34.030  28.177  23.499  1.00  0.00    -0.275 OA
ATOM      5  H   UNL A   1      33.882  30.278  24.522  1.00  0.00     0.163 HD
BRANCH   3   6
ATOM      6  C   UNL A   1      33.328  27.093  25.507  1.00  0.00     0.102 C 
ATOM      7  C   UNL A   1      31.223  26.876  26.846  1.00  0.00     0.032 C 
ATOM      8  C   UNL A   1      31.826  26.744  25.447  1.00  0.00     0.094 C 
ATOM      9  N   UNL A   1      31.796  25.381  24.910  1.00  0.00    -0.336 N 
ATOM     10  C   UNL A   1      34.108  25.834  25.121  1.00  0.00     0.037 C 
ATOM     11  C   UNL A   1      33.078  24.724  25.075  1.00  0.00     0.121 C 
BRANCH   9  12
ATOM     12  C   UNL A   1      30.818  24.772  24.147  1.00  0.00     0.260 C 
ATOM     13  O   UNL A   1      30.713  23.541  24.110  1.00  0.00    -0.271 OA
BRANCH  12  14
ATOM     14  C   UNL A   1      29.861  25.624  23.303  1.00  0.00     0.329 C 
BRANCH  14  15
ATOM     15  O   UNL A   1      28.974  26.567  23.861  1.00  0.00    -0.481 OA
BRANCH  15  16
ATOM     16  C   UNL A   1      28.799  27.782  23.259  1.00  0.00     0.155 A 
ATOM     17  C   UNL A   1      29.978  28.331  22.739  1.00  0.00     0.049 A 
ATOM     18  C   UNL A   1      27.639  28.557  23.214  1.00  0.00     0.165 A 
ATOM     19  C   UNL A   1      29.993  29.620  22.195  1.00  0.00     0.004 A 
ATOM     20  C   UNL A   1      27.652  29.849  22.689  1.00  0.00     0.043 A 
ATOM     21  F   UNL A   1      26.476  28.132  23.712  1.00  0.00    -0.203 F 
ATOM     22  C   UNL A   1      28.831  30.385  22.181  1.00  0.00     0.003 A 
ENDBRANCH  15  16
ENDBRANCH  14  15
ENDBRANCH  12  14
ENDBRANCH   9  12
ENDBRANCH   3   6
ENDBRANCH   1   2
BRANCH   1  23
ATOM     23  C   UNL A   1      31.882  30.458  26.637  1.00  0.00     0.023 C 
BRANCH  23  24
ATOM     24  C   UNL A   1      31.638  31.964  26.724  1.00  0.00     0.023 C 
BRANCH  24  25
ATOM     25  C   UNL A   1      32.776  32.764  27.346  1.00  0.00     0.116 C 
BRANCH  25  26
ATOM     26  N   UNL A   1      32.413  34.143  27.639  1.00  0.00    -0.352 N 
ATOM     27  C   UNL A   1      32.971  34.996  28.559  1.00  0.00     0.251 C 
ATOM     28  H   UNL A   1      31.670  34.512  27.108  1.00  0.00     0.163 HD
ATOM     29  O   UNL A   1      32.472  36.096  28.776  1.00  0.00    -0.269 OA
BRANCH  27  30
ATOM     30  C   UNL A   1      34.160  34.559  29.316  1.00  0.00     0.039 A 
ATOM     31  C   UNL A   1      33.985  34.014  30.590  1.00  0.00     0.014 A 
ATOM     32  C   UNL A   1      35.434  34.646  28.749  1.00  0.00     0.014 A 
ATOM     33  C   UNL A   1      35.085  33.488  31.268  1.00  0.00     0.010 A 
ATOM     34  C   UNL A   1      36.514  34.052  29.393  1.00  0.00     0.010 A 
ATOM     35  C   UNL A   1      36.350  33.466  30.657  1.00  0.00    -0.014 A 
BRANCH  35  36
ATOM     36  C   UNL A   1      37.513  32.830  31.323  1.00  0.00     0.031 A 
ATOM     37  C   UNL A   1      38.177  31.633  30.700  1.00  0.00     0.074 A 
ATOM     38  C   UNL A   1      37.928  33.288  32.520  1.00  0.00     0.049 A 
ATOM     39  N   UNL A   1      39.167  30.909  31.157  1.00  0.00    -0.248 NA
ATOM     40  C   UNL A   1      37.641  31.174  29.409  1.00  0.00     0.031 C 
ATOM     41  C   UNL A   1      37.341  34.413  33.250  1.00  0.00     0.029 A 
ATOM     42  N   UNL A   1      38.944  32.857  33.336  1.00  0.00    -0.354 N 
ATOM     43  C   UNL A   1      39.360  29.902  30.220  1.00  0.00     0.074 A 
ATOM     44  C   UNL A   1      38.352  30.077  29.197  1.00  0.00     0.031 C 
ATOM     45  C   UNL A   1      38.023  34.601  34.391  1.00  0.00     0.029 A 
ATOM     46  C   UNL A   1      39.069  33.588  34.492  1.00  0.00     0.049 A 
ATOM     47  H   UNL A   1      39.527  32.095  33.115  1.00  0.00     0.167 HD
ATOM     48  C   UNL A   1      40.303  28.931  30.200  1.00  0.00     0.031 A 
ATOM     49  C   UNL A   1      39.927  33.456  35.521  1.00  0.00     0.031 A 
ATOM     50  C   UNL A   1      41.312  28.765  31.212  1.00  0.00     0.049 A 
ATOM     51  C   UNL A   1      40.959  32.363  35.480  1.00  0.00     0.074 A 
ATOM     52  C   UNL A   1      42.349  27.848  31.252  1.00  0.00     0.029 A 
ATOM     53  N   UNL A   1      41.409  29.532  32.362  1.00  0.00    -0.354 N 
ATOM     54  N   UNL A   1      41.173  31.463  34.551  1.00  0.00    -0.248 NA
ATOM     55  C   UNL A   1      41.874  32.277  36.628  1.00  0.00     0.031 C 
ATOM     56  C   UNL A   1      43.044  28.028  32.451  1.00  0.00     0.029 A 
ATOM     57  C   UNL A   1      42.474  29.094  33.131  1.00  0.00     0.049 A 
ATOM     58  H   UNL A   1      40.811  30.276  32.598  1.00  0.00     0.167 HD
ATOM     59  C   UNL A   1      42.263  30.721  34.988  1.00  0.00     0.074 A 
ATOM     60  C   UNL A   1      42.675  31.288  36.256  1.00  0.00     0.031 C 
ATOM     61  C   UNL A   1      42.870  29.667  34.392  1.00  0.00     0.031 A 
BRANCH  48  62
ATOM     62  C   UNL A   1      40.279  27.969  29.047  1.00  0.00    -0.014 A 
ATOM     63  C   UNL A   1      39.506  26.797  29.092  1.00  0.00     0.009 A 
ATOM     64  C   UNL A   1      41.018  28.250  27.887  1.00  0.00     0.009 A 
ATOM     65  C   UNL A   1      39.503  25.909  28.014  1.00  0.00     0.001 A 
ATOM     66  C   UNL A   1      40.990  27.374  26.800  1.00  0.00     0.001 A 
ATOM     67  C   UNL A   1      40.241  26.200  26.868  1.00  0.00     0.000 A 
ENDBRANCH  48  62
BRANCH  49  68
ATOM     68  C   UNL A   1      39.861  34.393  36.672  1.00  0.00    -0.014 A 
ATOM     69  C   UNL A   1      40.542  35.620  36.630  1.00  0.00     0.009 A 
ATOM     70  C   UNL A   1      39.125  34.066  37.820  1.00  0.00     0.009 A 
ATOM     71  C   UNL A   1      40.510  36.486  37.724  1.00  0.00     0.001 A 
ATOM     72  C   UNL A   1      39.071  34.948  38.903  1.00  0.00     0.001 A 
ATOM     73  C   UNL A   1      39.772  36.152  38.857  1.00  0.00     0.000 A 
ENDBRANCH  49  68
BRANCH  61  74
ATOM     74  C   UNL A   1      44.064  29.078  35.087  1.00  0.00    -0.014 A 
ATOM     75  C   UNL A   1      43.942  27.956  35.922  1.00  0.00     0.009 A 
ATOM     76  C   UNL A   1      45.335  29.632  34.872  1.00  0.00     0.009 A 
ATOM     77  C   UNL A   1      45.067  27.422  36.552  1.00  0.00     0.001 A 
ATOM     78  C   UNL A   1      46.462  29.077  35.480  1.00  0.00     0.001 A 
ATOM     79  C   UNL A   1      46.326  27.979  36.326  1.00  0.00     0.000 A 
ENDBRANCH  61  74
ENDBRANCH  35  36
ENDBRANCH  27  30
ENDBRANCH  25  26
ENDBRANCH  24  25
ENDBRANCH  23  24
ENDBRANCH   1  23
TORSDOF 15
ENDMDL
MODEL 3
REMARK VINA RESULT:     -10.7      1.027      6.053
REMARK SMILES C[C@H]1[C@H](C(=O)NCCCCNC(=O)c2ccc(-c3c4nc(c(-c5ccccc5)c5ccc([nH]5)c(-c5ccccc5)c5nc(c(-c6ccccc6)c6ccc3[nH]6)C=C5)C=C4)cc2)CCN1C(=O)COc1ccccc1F
REMARK SMILES IDX 7 1 6 2 4 3 5 4 3 6 1 7 2 8 64 9 62 10 63 11 65 12 66 13
REMARK SMILES IDX 67 14 68 15 69 16 70 17 74 18 71 19 73 20 75 21 72 22 8 23
REMARK SMILES IDX 9 24 10 25 11 26 12 27 13 29 14 30 15 31 61 32 16 33 60 34
REMARK SMILES IDX 17 35 18 36 19 37 54 38 20 39 59 40 53 41 55 42 21 43 58 44
REMARK SMILES IDX 52 45 51 46 22 48 44 49 29 50 43 51 30 52 33 53 42 54 56 55
REMARK SMILES IDX 31 56 32 57 41 59 57 60 34 61 23 62 24 63 28 64 25 65 27 66
REMARK SMILES IDX 26 67 45 68 46 69 50 70 47 71 49 72 48 73 35 74 36 75 40 76
REMARK SMILES IDX 37 77 39 78 38 79
REMARK H PARENT 6 5 11 28 55 47 33 58
REMARK Flexibility Score: inf
ROOT
ATOM      1  C   UNL A   1      37.324  22.599  25.443  1.00  0.00     0.116 C 
ENDROOT
BRANCH   1   2
ATOM      2  N   UNL A   1      36.493  23.658  24.902  1.00  0.00    -0.356 N 
ATOM      3  C   UNL A   1      35.143  23.760  24.779  1.00  0.00     0.225 C 
ATOM      4  O   UNL A   1      34.700  24.773  24.235  1.00  0.00    -0.275 OA
ATOM      5  H   UNL A   1      36.993  24.436  24.564  1.00  0.00     0.163 HD
BRANCH   3   6
ATOM      6  C   UNL A   1      34.191  22.691  25.288  1.00  0.00     0.102 C 
ATOM      7  C   UNL A   1      33.731  22.248  27.709  1.00  0.00     0.032 C 
ATOM      8  C   UNL A   1      33.377  23.140  26.520  1.00  0.00     0.094 C 
ATOM      9  N   UNL A   1      31.981  23.030  26.086  1.00  0.00    -0.336 N 
ATOM     10  C   UNL A   1      33.196  22.205  24.231  1.00  0.00     0.037 C 
ATOM     11  C   UNL A   1      31.857  22.153  24.937  1.00  0.00     0.121 C 
BRANCH   9  12
ATOM     12  C   UNL A   1      30.886  23.765  26.496  1.00  0.00     0.260 C 
ATOM     13  O   UNL A   1      30.148  23.359  27.401  1.00  0.00    -0.271 OA
BRANCH  12  14
ATOM     14  C   UNL A   1      30.549  25.092  25.803  1.00  0.00     0.329 C 
BRANCH  14  15
ATOM     15  O   UNL A   1      30.438  26.316  26.495  1.00  0.00    -0.481 OA
BRANCH  15  16
ATOM     16  C   UNL A   1      31.485  27.195  26.504  1.00  0.00     0.155 A 
ATOM     17  C   UNL A   1      32.494  26.882  25.584  1.00  0.00     0.049 A 
ATOM     18  C   UNL A   1      31.703  28.260  27.379  1.00  0.00     0.165 A 
ATOM     19  C   UNL A   1      33.687  27.612  25.548  1.00  0.00     0.004 A 
ATOM     20  C   UNL A   1      32.897  28.980  27.359  1.00  0.00     0.043 A 
ATOM     21  F   UNL A   1      30.814  28.612  28.310  1.00  0.00    -0.203 F 
ATOM     22  C   UNL A   1      33.894  28.656  26.445  1.00  0.00     0.003 A 
ENDBRANCH  15  16
ENDBRANCH  14  15
ENDBRANCH  12  14
ENDBRANCH   9  12
ENDBRANCH   3   6
ENDBRANCH   1   2
BRANCH   1  23
ATOM     23  C   UNL A   1      37.448  21.427  24.474  1.00  0.00     0.023 C 
BRANCH  23  24
ATOM     24  C   UNL A   1      38.099  20.182  25.076  1.00  0.00     0.023 C 
BRANCH  24  25
ATOM     25  C   UNL A   1      39.326  20.452  25.939  1.00  0.00     0.116 C 
BRANCH  25  26
ATOM     26  N   UNL A   1      40.313  19.385  25.879  1.00  0.00    -0.352 N 
ATOM     27  C   UNL A   1      41.666  19.460  26.104  1.00  0.00     0.251 C 
ATOM     28  H   UNL A   1      39.967  18.493  25.647  1.00  0.00     0.163 HD
ATOM     29  O   UNL A   1      42.391  18.492  25.894  1.00  0.00    -0.269 OA
BRANCH  27  30
ATOM     30  C   UNL A   1      42.249  20.734  26.566  1.00  0.00     0.039 A 
ATOM     31  C   UNL A   1      42.723  21.642  25.616  1.00  0.00     0.014 A 
ATOM     32  C   UNL A   1      42.282  21.048  27.927  1.00  0.00     0.014 A 
ATOM     33  C   UNL A   1      43.166  22.899  26.029  1.00  0.00     0.010 A 
ATOM     34  C   UNL A   1      42.651  22.328  28.328  1.00  0.00     0.010 A 
ATOM     35  C   UNL A   1      43.095  23.266  27.384  1.00  0.00    -0.014 A 
BRANCH  35  36
ATOM     36  C   UNL A   1      43.474  24.628  27.831  1.00  0.00     0.031 A 
ATOM     37  C   UNL A   1      42.412  25.653  28.114  1.00  0.00     0.074 A 
ATOM     38  C   UNL A   1      44.777  24.961  27.919  1.00  0.00     0.049 A 
ATOM     39  N   UNL A   1      42.548  26.907  28.460  1.00  0.00    -0.248 NA
ATOM     40  C   UNL A   1      41.014  25.219  27.962  1.00  0.00     0.031 C 
ATOM     41  C   UNL A   1      45.903  24.072  27.629  1.00  0.00     0.029 A 
ATOM     42  N   UNL A   1      45.373  26.146  28.273  1.00  0.00    -0.354 N 
ATOM     43  C   UNL A   1      41.259  27.415  28.550  1.00  0.00     0.074 A 
ATOM     44  C   UNL A   1      40.357  26.349  28.172  1.00  0.00     0.031 C 
ATOM     45  C   UNL A   1      47.053  24.733  27.845  1.00  0.00     0.029 A 
ATOM     46  C   UNL A   1      46.745  26.100  28.250  1.00  0.00     0.049 A 
ATOM     47  H   UNL A   1      44.864  26.952  28.521  1.00  0.00     0.167 HD
ATOM     48  C   UNL A   1      40.858  28.650  28.932  1.00  0.00     0.031 A 
ATOM     49  C   UNL A   1      47.655  27.055  28.519  1.00  0.00     0.031 A 
ATOM     50  C   UNL A   1      41.754  29.707  29.319  1.00  0.00     0.049 A 
ATOM     51  C   UNL A   1      47.185  28.422  28.933  1.00  0.00     0.074 A 
ATOM     52  C   UNL A   1      41.444  30.975  29.780  1.00  0.00     0.029 A 
ATOM     53  N   UNL A   1      43.137  29.617  29.290  1.00  0.00    -0.354 N 
ATOM     54  N   UNL A   1      45.960  28.864  29.082  1.00  0.00    -0.248 NA
ATOM     55  C   UNL A   1      48.226  29.418  29.224  1.00  0.00     0.031 C 
ATOM     56  C   UNL A   1      42.640  31.670  29.982  1.00  0.00     0.029 A 
ATOM     57  C   UNL A   1      43.695  30.816  29.700  1.00  0.00     0.049 A 
ATOM     58  H   UNL A   1      43.647  28.821  29.017  1.00  0.00     0.167 HD
ATOM     59  C   UNL A   1      46.082  30.180  29.511  1.00  0.00     0.074 A 
ATOM     60  C   UNL A   1      47.500  30.457  29.614  1.00  0.00     0.031 C 
ATOM     61  C   UNL A   1      45.108  31.077  29.796  1.00  0.00     0.031 A 
BRANCH  48  62
ATOM     62  C   UNL A   1      39.381  28.925  28.943  1.00  0.00    -0.014 A 
ATOM     63  C   UNL A   1      38.609  28.712  30.098  1.00  0.00     0.009 A 
ATOM     64  C   UNL A   1      38.755  29.429  27.793  1.00  0.00     0.009 A 
ATOM     65  C   UNL A   1      37.236  28.964  30.088  1.00  0.00     0.001 A 
ATOM     66  C   UNL A   1      37.386  29.708  27.795  1.00  0.00     0.001 A 
ATOM     67  C   UNL A   1      36.627  29.466  28.939  1.00  0.00     0.000 A 
ENDBRANCH  48  62
BRANCH  49  68
ATOM     68  C   UNL A   1      49.107  26.749  28.426  1.00  0.00    -0.014 A 
ATOM     69  C   UNL A   1      49.816  26.315  29.557  1.00  0.00     0.009 A 
ATOM     70  C   UNL A   1      49.792  26.896  27.211  1.00  0.00     0.009 A 
ATOM     71  C   UNL A   1      51.187  26.062  29.478  1.00  0.00     0.001 A 
ATOM     72  C   UNL A   1      51.158  26.613  27.128  1.00  0.00     0.001 A 
ATOM     73  C   UNL A   1      51.855  26.206  28.264  1.00  0.00     0.000 A 
ENDBRANCH  49  68
BRANCH  61  74
ATOM     74  C   UNL A   1      45.542  32.432  30.277  1.00  0.00    -0.014 A 
ATOM     75  C   UNL A   1      45.589  32.738  31.646  1.00  0.00     0.009 A 
ATOM     76  C   UNL A   1      45.946  33.402  29.347  1.00  0.00     0.009 A 
ATOM     77  C   UNL A   1      46.003  34.003  32.070  1.00  0.00     0.001 A 
ATOM     78  C   UNL A   1      46.386  34.655  29.776  1.00  0.00     0.001 A 
ATOM     79  C   UNL A   1      46.405  34.957  31.136  1.00  0.00     0.000 A 
ENDBRANCH  61  74
ENDBRANCH  35  36
ENDBRANCH  27  30
ENDBRANCH  25  26
ENDBRANCH  24  25
ENDBRANCH  23  24
ENDBRANCH   1  23
TORSDOF 15
ENDMDL
