MODEL 1
REMARK VINA RESULT:     -12.5      0.000      0.000
REMARK SMILES CC(C)Cc1ccc(-c2cc(Cl)cc3c2O[C@H](C(F)(F)F)C(C(=O)NCCCCNC(=O)c2ccc(-c4c5nc(c(-c6ccccc6)c6ccc([nH]6)c(-c6ccccc6)c6nc(c(-c7ccccc7)c7ccc4[nH]7)C=C6)C=C5)cc2)=C3)cc1
REMARK SMILES IDX 27 1 26 2 25 3 23 4 24 5 22 7 9 8 10 9 15 10 11 11 14 12
REMARK SMILES IDX 16 13 12 14 13 15 81 16 17 17 8 18 5 19 6 20 83 21 7 22
REMARK SMILES IDX 82 23 4 24 2 25 1 26 3 27 18 28 19 29 20 30 21 31 28 32
REMARK SMILES IDX 29 33 30 34 31 35 32 37 33 38 34 39 80 40 35 41 79 42 36 43
REMARK SMILES IDX 37 44 38 45 73 46 39 47 78 48 72 49 74 50 40 51 77 52 71 53
REMARK SMILES IDX 70 54 41 56 63 57 48 58 62 59 49 60 52 61 61 62 75 63 50 64
REMARK SMILES IDX 51 65 60 67 76 68 53 69 42 70 43 71 47 72 44 73 46 74 45 75
REMARK SMILES IDX 64 76 65 77 69 78 66 79 68 80 67 81 54 82 55 83 59 84 56 85
REMARK SMILES IDX 58 86 57 87
REMARK H PARENT 25 6 30 36 74 55 52 66
REMARK Flexibility Score: inf
ROOT
ATOM      1  C   UNL A   1      36.086  21.272  24.805  1.00  0.00     0.023 C 
ENDROOT
BRANCH   1   2
ATOM      2  C   UNL A   1      35.489  21.778  26.126  1.00  0.00     0.116 C 
BRANCH   2   3
ATOM      3  N   UNL A   1      35.317  23.212  26.058  1.00  0.00    -0.352 N 
ATOM      4  C   UNL A   1      34.539  23.956  25.243  1.00  0.00     0.251 C 
ATOM      5  O   UNL A   1      34.915  25.095  24.982  1.00  0.00    -0.270 OA
ATOM      6  H   UNL A   1      35.850  23.725  26.707  1.00  0.00     0.163 HD
BRANCH   4   7
ATOM      7  C   UNL A   1      33.219  23.409  24.805  1.00  0.00     0.067 C 
ATOM      8  C   UNL A   1      31.259  26.937  24.324  1.00  0.00     0.026 A 
ATOM      9  C   UNL A   1      31.552  27.731  25.462  1.00  0.00     0.033 A 
ATOM     10  C   UNL A   1      31.589  25.572  24.407  1.00  0.00     0.135 A 
ATOM     11  C   UNL A   1      31.964  27.177  26.670  1.00  0.00     0.042 A 
ATOM     12  C   UNL A   1      31.891  25.015  25.673  1.00  0.00     0.019 A 
ATOM     13  O   UNL A   1      31.688  24.745  23.297  1.00  0.00    -0.475 OA
ATOM     14  Cl  UNL A   1      32.324  28.201  28.002  1.00  0.00    -0.084 Cl
ATOM     15  C   UNL A   1      32.058  25.805  26.806  1.00  0.00     0.032 A 
ATOM     16  C   UNL A   1      32.249  23.580  25.727  1.00  0.00     0.025 C 
ATOM     17  C   UNL A   1      32.813  23.763  23.378  1.00  0.00     0.314 C 
BRANCH   8  18
ATOM     18  C   UNL A   1      30.403  27.604  23.312  1.00  0.00    -0.015 A 
ATOM     19  C   UNL A   1      28.666  29.582  22.213  1.00  0.00    -0.048 A 
ATOM     20  C   UNL A   1      30.042  29.624  21.965  1.00  0.00     0.004 A 
ATOM     21  C   UNL A   1      28.158  28.501  22.942  1.00  0.00     0.004 A 
ATOM     22  C   UNL A   1      30.897  28.646  22.502  1.00  0.00     0.009 A 
ATOM     23  C   UNL A   1      29.008  27.515  23.461  1.00  0.00     0.009 A 
BRANCH  19  24
ATOM     24  C   UNL A   1      27.751  30.689  21.730  1.00  0.00     0.038 C 
BRANCH  24  25
ATOM     25  C   UNL A   1      28.479  32.020  21.460  1.00  0.00    -0.013 C 
ATOM     26  C   UNL A   1      27.751  32.873  20.418  1.00  0.00     0.008 C 
ATOM     27  C   UNL A   1      28.627  32.829  22.751  1.00  0.00     0.008 C 
ENDBRANCH  24  25
ENDBRANCH  19  24
ENDBRANCH   8  18
BRANCH  17  28
ATOM     28  C   UNL A   1      32.486  22.450  22.628  1.00  0.00     0.429 C 
ATOM     29  F   UNL A   1      31.158  22.212  22.542  1.00  0.00    -0.167 F 
ATOM     30  F   UNL A   1      32.987  22.464  21.370  1.00  0.00    -0.167 F 
ATOM     31  F   UNL A   1      33.032  21.361  23.235  1.00  0.00    -0.167 F 
ENDBRANCH  17  28
ENDBRANCH   4   7
ENDBRANCH   2   3
ENDBRANCH   1   2
BRANCH   1  32
ATOM     32  C   UNL A   1      37.185  20.208  24.950  1.00  0.00     0.023 C 
BRANCH  32  33
ATOM     33  C   UNL A   1      38.509  20.727  25.496  1.00  0.00     0.116 C 
BRANCH  33  34
ATOM     34  N   UNL A   1      39.499  19.670  25.610  1.00  0.00    -0.352 N 
ATOM     35  C   UNL A   1      40.813  19.751  25.996  1.00  0.00     0.251 C 
ATOM     36  H   UNL A   1      39.183  18.767  25.376  1.00  0.00     0.163 HD
ATOM     37  O   UNL A   1      41.563  18.789  25.836  1.00  0.00    -0.269 OA
BRANCH  35  38
ATOM     38  C   UNL A   1      41.336  21.001  26.584  1.00  0.00     0.039 A 
ATOM     39  C   UNL A   1      41.940  21.942  25.747  1.00  0.00     0.014 A 
ATOM     40  C   UNL A   1      41.232  21.248  27.956  1.00  0.00     0.014 A 
ATOM     41  C   UNL A   1      42.381  23.157  26.275  1.00  0.00     0.010 A 
ATOM     42  C   UNL A   1      41.603  22.489  28.468  1.00  0.00     0.010 A 
ATOM     43  C   UNL A   1      42.184  23.456  27.634  1.00  0.00    -0.014 A 
BRANCH  43  44
ATOM     44  C   UNL A   1      42.572  24.776  28.196  1.00  0.00     0.031 A 
ATOM     45  C   UNL A   1      41.537  25.852  28.391  1.00  0.00     0.074 A 
ATOM     46  C   UNL A   1      43.867  25.028  28.476  1.00  0.00     0.049 A 
ATOM     47  N   UNL A   1      41.693  27.079  28.822  1.00  0.00    -0.248 NA
ATOM     48  C   UNL A   1      40.148  25.516  28.035  1.00  0.00     0.031 C 
ATOM     49  C   UNL A   1      44.974  24.085  28.301  1.00  0.00     0.029 A 
ATOM     50  N   UNL A   1      44.471  26.160  28.967  1.00  0.00    -0.354 N 
ATOM     51  C   UNL A   1      40.435  27.664  28.767  1.00  0.00     0.074 A 
ATOM     52  C   UNL A   1      39.532  26.674  28.222  1.00  0.00     0.031 C 
ATOM     53  C   UNL A   1      46.115  24.665  28.708  1.00  0.00     0.029 A 
ATOM     54  C   UNL A   1      45.831  26.033  29.129  1.00  0.00     0.049 A 
ATOM     55  H   UNL A   1      43.979  26.984  29.184  1.00  0.00     0.167 HD
ATOM     56  C   UNL A   1      40.059  28.907  29.150  1.00  0.00     0.031 A 
ATOM     57  C   UNL A   1      46.748  26.921  29.559  1.00  0.00     0.031 A 
ATOM     58  C   UNL A   1      40.952  29.886  29.711  1.00  0.00     0.049 A 
ATOM     59  C   UNL A   1      46.302  28.302  29.956  1.00  0.00     0.074 A 
ATOM     60  C   UNL A   1      40.649  31.146  30.198  1.00  0.00     0.029 A 
ATOM     61  N   UNL A   1      42.319  29.717  29.857  1.00  0.00    -0.354 N 
ATOM     62  N   UNL A   1      45.093  28.808  29.980  1.00  0.00    -0.248 NA
ATOM     63  C   UNL A   1      47.350  29.233  30.396  1.00  0.00     0.031 C 
ATOM     64  C   UNL A   1      41.843  31.765  30.579  1.00  0.00     0.029 A 
ATOM     65  C   UNL A   1      42.880  30.864  30.394  1.00  0.00     0.049 A 
ATOM     66  H   UNL A   1      42.818  28.903  29.616  1.00  0.00     0.167 HD
ATOM     67  C   UNL A   1      45.232  30.099  30.473  1.00  0.00     0.074 A 
ATOM     68  C   UNL A   1      46.639  30.292  30.752  1.00  0.00     0.031 C 
ATOM     69  C   UNL A   1      44.278  31.040  30.678  1.00  0.00     0.031 A 
BRANCH  56  70
ATOM     70  C   UNL A   1      38.617  29.294  28.967  1.00  0.00    -0.014 A 
ATOM     71  C   UNL A   1      38.130  29.737  27.727  1.00  0.00     0.009 A 
ATOM     72  C   UNL A   1      37.718  29.144  30.035  1.00  0.00     0.009 A 
ATOM     73  C   UNL A   1      36.777  30.045  27.569  1.00  0.00     0.001 A 
ATOM     74  C   UNL A   1      36.361  29.425  29.865  1.00  0.00     0.001 A 
ATOM     75  C   UNL A   1      35.893  29.882  28.635  1.00  0.00     0.000 A 
ENDBRANCH  56  70
BRANCH  57  76
ATOM     76  C   UNL A   1      48.185  26.545  29.646  1.00  0.00    -0.014 A 
ATOM     77  C   UNL A   1      49.045  26.763  28.557  1.00  0.00     0.009 A 
ATOM     78  C   UNL A   1      48.696  25.922  30.795  1.00  0.00     0.009 A 
ATOM     79  C   UNL A   1      50.370  26.324  28.600  1.00  0.00     0.001 A 
ATOM     80  C   UNL A   1      50.030  25.515  30.849  1.00  0.00     0.001 A 
ATOM     81  C   UNL A   1      50.862  25.702  29.746  1.00  0.00     0.000 A 
ENDBRANCH  57  76
BRANCH  69  82
ATOM     82  C   UNL A   1      44.716  32.345  31.282  1.00  0.00    -0.014 A 
ATOM     83  C   UNL A   1      45.065  33.445  30.481  1.00  0.00     0.009 A 
ATOM     84  C   UNL A   1      44.740  32.487  32.679  1.00  0.00     0.009 A 
ATOM     85  C   UNL A   1      45.465  34.647  31.070  1.00  0.00     0.001 A 
ATOM     86  C   UNL A   1      45.108  33.699  33.263  1.00  0.00     0.001 A 
ATOM     87  C   UNL A   1      45.482  34.774  32.459  1.00  0.00     0.000 A 
ENDBRANCH  69  82
ENDBRANCH  43  44
ENDBRANCH  35  38
ENDBRANCH  33  34
ENDBRANCH  32  33
ENDBRANCH   1  32
TORSDOF 15
ENDMDL
MODEL 2
REMARK VINA RESULT:     -12.3      0.801      5.706
REMARK SMILES CC(C)Cc1ccc(-c2cc(Cl)cc3c2O[C@H](C(F)(F)F)C(C(=O)NCCCCNC(=O)c2ccc(-c4c5nc(c(-c6ccccc6)c6ccc([nH]6)c(-c6ccccc6)c6nc(c(-c7ccccc7)c7ccc4[nH]7)C=C6)C=C5)cc2)=C3)cc1
REMARK SMILES IDX 27 1 26 2 25 3 23 4 24 5 22 7 9 8 10 9 15 10 11 11 14 12
REMARK SMILES IDX 16 13 12 14 13 15 81 16 17 17 8 18 5 19 6 20 83 21 7 22
REMARK SMILES IDX 82 23 4 24 2 25 1 26 3 27 18 28 19 29 20 30 21 31 28 32
REMARK SMILES IDX 29 33 30 34 31 35 32 37 33 38 34 39 80 40 35 41 79 42 36 43
REMARK SMILES IDX 37 44 38 45 73 46 39 47 78 48 72 49 74 50 40 51 77 52 71 53
REMARK SMILES IDX 70 54 41 56 63 57 48 58 62 59 49 60 52 61 61 62 75 63 50 64
REMARK SMILES IDX 51 65 60 67 76 68 53 69 42 70 43 71 47 72 44 73 46 74 45 75
REMARK SMILES IDX 64 76 65 77 69 78 66 79 68 80 67 81 54 82 55 83 59 84 56 85
REMARK SMILES IDX 58 86 57 87
REMARK H PARENT 25 6 30 36 74 55 52 66
REMARK Flexibility Score: inf
ROOT
ATOM      1  C   UNL A   1      36.292  20.344  24.978  1.00  0.00     0.023 C 
ENDROOT
BRANCH   1   2
ATOM      2  C   UNL A   1      36.123  21.635  25.793  1.00  0.00     0.116 C 
BRANCH   2   3
ATOM      3  N   UNL A   1      36.051  22.764  24.895  1.00  0.00    -0.352 N 
ATOM      4  C   UNL A   1      35.166  23.038  23.912  1.00  0.00     0.251 C 
ATOM      5  O   UNL A   1      35.558  23.714  22.966  1.00  0.00    -0.270 OA
ATOM      6  H   UNL A   1      36.756  23.439  25.019  1.00  0.00     0.163 HD
BRANCH   4   7
ATOM      7  C   UNL A   1      33.743  22.616  24.083  1.00  0.00     0.067 C 
ATOM      8  C   UNL A   1      32.014  26.288  23.852  1.00  0.00     0.026 A 
ATOM      9  C   UNL A   1      32.782  27.158  24.668  1.00  0.00     0.033 A 
ATOM     10  C   UNL A   1      32.249  24.910  24.006  1.00  0.00     0.135 A 
ATOM     11  C   UNL A   1      33.585  26.690  25.703  1.00  0.00     0.042 A 
ATOM     12  C   UNL A   1      32.973  24.459  25.136  1.00  0.00     0.019 A 
ATOM     13  O   UNL A   1      31.851  23.961  23.073  1.00  0.00    -0.475 OA
ATOM     14  Cl  UNL A   1      34.505  27.799  26.640  1.00  0.00    -0.084 Cl
ATOM     15  C   UNL A   1      33.622  25.340  25.996  1.00  0.00     0.032 A 
ATOM     16  C   UNL A   1      33.217  23.005  25.263  1.00  0.00     0.025 C 
ATOM     17  C   UNL A   1      32.845  22.861  22.873  1.00  0.00     0.314 C 
BRANCH   8  18
ATOM     18  C   UNL A   1      30.887  26.943  23.144  1.00  0.00    -0.015 A 
ATOM     19  C   UNL A   1      28.854  28.881  22.639  1.00  0.00    -0.048 A 
ATOM     20  C   UNL A   1      30.100  28.973  22.010  1.00  0.00     0.004 A 
ATOM     21  C   UNL A   1      28.607  27.771  23.455  1.00  0.00     0.004 A 
ATOM     22  C   UNL A   1      31.099  28.015  22.254  1.00  0.00     0.009 A 
ATOM     23  C   UNL A   1      29.597  26.805  23.683  1.00  0.00     0.009 A 
BRANCH  19  24
ATOM     24  C   UNL A   1      27.809  29.964  22.467  1.00  0.00     0.038 C 
BRANCH  24  25
ATOM     25  C   UNL A   1      28.398  31.337  22.090  1.00  0.00    -0.013 C 
ATOM     26  C   UNL A   1      27.921  31.811  20.715  1.00  0.00     0.008 C 
ATOM     27  C   UNL A   1      28.028  32.392  23.137  1.00  0.00     0.008 C 
ENDBRANCH  24  25
ENDBRANCH  19  24
ENDBRANCH   8  18
BRANCH  17  28
ATOM     28  C   UNL A   1      32.158  21.526  22.502  1.00  0.00     0.429 C 
ATOM     29  F   UNL A   1      32.650  20.473  23.193  1.00  0.00    -0.167 F 
ATOM     30  F   UNL A   1      30.824  21.581  22.726  1.00  0.00    -0.167 F 
ATOM     31  F   UNL A   1      32.304  21.221  21.184  1.00  0.00    -0.167 F 
ENDBRANCH  17  28
ENDBRANCH   4   7
ENDBRANCH   2   3
ENDBRANCH   1   2
BRANCH   1  32
ATOM     32  C   UNL A   1      37.743  19.968  24.642  1.00  0.00     0.023 C 
BRANCH  32  33
ATOM     33  C   UNL A   1      38.765  20.347  25.705  1.00  0.00     0.116 C 
BRANCH  33  34
ATOM     34  N   UNL A   1      39.848  19.382  25.783  1.00  0.00    -0.352 N 
ATOM     35  C   UNL A   1      41.170  19.586  26.087  1.00  0.00     0.251 C 
ATOM     36  H   UNL A   1      39.598  18.449  25.588  1.00  0.00     0.163 HD
ATOM     37  O   UNL A   1      41.990  18.687  25.903  1.00  0.00    -0.269 OA
BRANCH  35  38
ATOM     38  C   UNL A   1      41.615  20.892  26.615  1.00  0.00     0.039 A 
ATOM     39  C   UNL A   1      42.111  21.848  25.725  1.00  0.00     0.014 A 
ATOM     40  C   UNL A   1      41.546  21.175  27.982  1.00  0.00     0.014 A 
ATOM     41  C   UNL A   1      42.475  23.111  26.198  1.00  0.00     0.010 A 
ATOM     42  C   UNL A   1      41.838  22.457  28.440  1.00  0.00     0.010 A 
ATOM     43  C   UNL A   1      42.308  23.439  27.554  1.00  0.00    -0.014 A 
BRANCH  43  44
ATOM     44  C   UNL A   1      42.612  24.803  28.060  1.00  0.00     0.031 A 
ATOM     45  C   UNL A   1      44.020  25.172  28.445  1.00  0.00     0.074 A 
ATOM     46  C   UNL A   1      41.612  25.691  28.228  1.00  0.00     0.049 A 
ATOM     47  N   UNL A   1      44.470  26.295  28.949  1.00  0.00    -0.248 NA
ATOM     48  C   UNL A   1      45.056  24.142  28.263  1.00  0.00     0.031 C 
ATOM     49  C   UNL A   1      40.199  25.449  27.926  1.00  0.00     0.029 A 
ATOM     50  N   UNL A   1      41.633  26.982  28.700  1.00  0.00    -0.354 N 
ATOM     51  C   UNL A   1      45.828  26.096  29.164  1.00  0.00     0.074 A 
ATOM     52  C   UNL A   1      46.123  24.735  28.777  1.00  0.00     0.031 C 
ATOM     53  C   UNL A   1      39.496  26.562  28.189  1.00  0.00     0.029 A 
ATOM     54  C   UNL A   1      40.395  27.581  28.720  1.00  0.00     0.049 A 
ATOM     55  H   UNL A   1      42.455  27.435  28.994  1.00  0.00     0.167 HD
ATOM     56  C   UNL A   1      46.750  26.973  29.628  1.00  0.00     0.031 A 
ATOM     57  C   UNL A   1      40.025  28.810  29.130  1.00  0.00     0.031 A 
ATOM     58  C   UNL A   1      46.462  28.334  29.994  1.00  0.00     0.049 A 
ATOM     59  C   UNL A   1      41.070  29.752  29.661  1.00  0.00     0.074 A 
ATOM     60  C   UNL A   1      47.344  29.319  30.404  1.00  0.00     0.029 A 
ATOM     61  N   UNL A   1      45.197  28.899  30.001  1.00  0.00    -0.354 N 
ATOM     62  N   UNL A   1      42.364  29.576  29.774  1.00  0.00    -0.248 NA
ATOM     63  C   UNL A   1      40.602  31.070  30.112  1.00  0.00     0.031 C 
ATOM     64  C   UNL A   1      46.605  30.462  30.720  1.00  0.00     0.029 A 
ATOM     65  C   UNL A   1      45.271  30.210  30.441  1.00  0.00     0.049 A 
ATOM     66  H   UNL A   1      44.369  28.439  29.732  1.00  0.00     0.167 HD
ATOM     67  C   UNL A   1      42.867  30.772  30.271  1.00  0.00     0.074 A 
ATOM     68  C   UNL A   1      41.742  31.671  30.421  1.00  0.00     0.031 C 
ATOM     69  C   UNL A   1      44.147  31.097  30.574  1.00  0.00     0.031 A 
BRANCH  56  70
ATOM     70  C   UNL A   1      48.166  26.489  29.778  1.00  0.00    -0.014 A 
ATOM     71  C   UNL A   1      48.604  25.861  30.955  1.00  0.00     0.009 A 
ATOM     72  C   UNL A   1      49.056  26.600  28.697  1.00  0.00     0.009 A 
ATOM     73  C   UNL A   1      49.910  25.378  31.054  1.00  0.00     0.001 A 
ATOM     74  C   UNL A   1      50.352  26.090  28.789  1.00  0.00     0.001 A 
ATOM     75  C   UNL A   1      50.780  25.486  29.970  1.00  0.00     0.000 A 
ENDBRANCH  56  70
BRANCH  57  76
ATOM     76  C   UNL A   1      38.601  29.236  29.057  1.00  0.00    -0.014 A 
ATOM     77  C   UNL A   1      38.102  29.859  27.901  1.00  0.00     0.009 A 
ATOM     78  C   UNL A   1      37.745  29.069  30.156  1.00  0.00     0.009 A 
ATOM     79  C   UNL A   1      36.794  30.347  27.866  1.00  0.00     0.001 A 
ATOM     80  C   UNL A   1      36.426  29.527  30.106  1.00  0.00     0.001 A 
ATOM     81  C   UNL A   1      35.956  30.179  28.967  1.00  0.00     0.000 A 
ENDBRANCH  57  76
BRANCH  69  82
ATOM     82  C   UNL A   1      44.409  32.500  31.048  1.00  0.00    -0.014 A 
ATOM     83  C   UNL A   1      44.346  32.840  32.409  1.00  0.00     0.009 A 
ATOM     84  C   UNL A   1      44.763  33.490  30.116  1.00  0.00     0.009 A 
ATOM     85  C   UNL A   1      44.597  34.151  32.820  1.00  0.00     0.001 A 
ATOM     86  C   UNL A   1      45.046  34.790  30.534  1.00  0.00     0.001 A 
ATOM     87  C   UNL A   1      44.951  35.123  31.884  1.00  0.00     0.000 A 
ENDBRANCH  69  82
ENDBRANCH  43  44
ENDBRANCH  35  38
ENDBRANCH  33  34
ENDBRANCH  32  33
ENDBRANCH   1  32
TORSDOF 15
ENDMDL
MODEL 3
REMARK VINA RESULT:     -12.0      3.947      9.206
REMARK SMILES CC(C)Cc1ccc(-c2cc(Cl)cc3c2O[C@H](C(F)(F)F)C(C(=O)NCCCCNC(=O)c2ccc(-c4c5nc(c(-c6ccccc6)c6ccc([nH]6)c(-c6ccccc6)c6nc(c(-c7ccccc7)c7ccc4[nH]7)C=C6)C=C5)cc2)=C3)cc1
REMARK SMILES IDX 27 1 26 2 25 3 23 4 24 5 22 7 9 8 10 9 15 10 11 11 14 12
REMARK SMILES IDX 16 13 12 14 13 15 81 16 17 17 8 18 5 19 6 20 83 21 7 22
REMARK SMILES IDX 82 23 4 24 2 25 1 26 3 27 18 28 19 29 20 30 21 31 28 32
REMARK SMILES IDX 29 33 30 34 31 35 32 37 33 38 34 39 80 40 35 41 79 42 36 43
REMARK SMILES IDX 37 44 38 45 73 46 39 47 78 48 72 49 74 50 40 51 77 52 71 53
REMARK SMILES IDX 70 54 41 56 63 57 48 58 62 59 49 60 52 61 61 62 75 63 50 64
REMARK SMILES IDX 51 65 60 67 76 68 53 69 42 70 43 71 47 72 44 73 46 74 45 75
REMARK SMILES IDX 64 76 65 77 69 78 66 79 68 80 67 81 54 82 55 83 59 84 56 85
REMARK SMILES IDX 58 86 57 87
REMARK H PARENT 25 6 30 36 74 55 52 66
REMARK Flexibility Score: inf
ROOT
ATOM      1  C   UNL A   1      31.432  30.167  26.036  1.00  0.00     0.023 C 
ENDROOT
BRANCH   1   2
ATOM      2  C   UNL A   1      32.739  29.649  25.418  1.00  0.00     0.116 C 
BRANCH   2   3
ATOM      3  N   UNL A   1      33.164  28.459  26.119  1.00  0.00    -0.352 N 
ATOM      4  C   UNL A   1      32.651  27.210  26.100  1.00  0.00     0.251 C 
ATOM      5  O   UNL A   1      32.795  26.521  27.105  1.00  0.00    -0.270 OA
ATOM      6  H   UNL A   1      33.949  28.577  26.699  1.00  0.00     0.163 HD
BRANCH   4   7
ATOM      7  C   UNL A   1      32.052  26.693  24.832  1.00  0.00     0.067 C 
ATOM      8  C   UNL A   1      33.318  22.841  25.119  1.00  0.00     0.026 A 
ATOM      9  C   UNL A   1      34.684  22.882  25.499  1.00  0.00     0.033 A 
ATOM     10  C   UNL A   1      32.750  24.050  24.678  1.00  0.00     0.135 A 
ATOM     11  C   UNL A   1      35.485  23.997  25.272  1.00  0.00     0.042 A 
ATOM     12  C   UNL A   1      33.605  25.128  24.346  1.00  0.00     0.019 A 
ATOM     13  O   UNL A   1      31.381  24.264  24.601  1.00  0.00    -0.475 OA
ATOM     14  Cl  UNL A   1      37.128  23.986  25.777  1.00  0.00    -0.084 Cl
ATOM     15  C   UNL A   1      34.969  25.100  24.619  1.00  0.00     0.032 A 
ATOM     16  C   UNL A   1      32.979  26.392  23.898  1.00  0.00     0.025 C 
ATOM     17  C   UNL A   1      30.963  25.640  25.013  1.00  0.00     0.314 C 
BRANCH   8  18
ATOM     18  C   UNL A   1      32.756  21.474  24.989  1.00  0.00    -0.015 A 
ATOM     19  C   UNL A   1      32.719  18.675  24.434  1.00  0.00    -0.048 A 
ATOM     20  C   UNL A   1      32.884  19.140  25.743  1.00  0.00     0.004 A 
ATOM     21  C   UNL A   1      32.490  19.615  23.423  1.00  0.00     0.004 A 
ATOM     22  C   UNL A   1      32.897  20.519  26.017  1.00  0.00     0.009 A 
ATOM     23  C   UNL A   1      32.483  20.989  23.699  1.00  0.00     0.009 A 
BRANCH  19  24
ATOM     24  C   UNL A   1      32.811  17.197  24.113  1.00  0.00     0.038 C 
BRANCH  24  25
ATOM     25  C   UNL A   1      33.336  16.342  25.282  1.00  0.00    -0.013 C 
ATOM     26  C   UNL A   1      32.531  15.051  25.457  1.00  0.00     0.008 C 
ATOM     27  C   UNL A   1      34.811  15.986  25.075  1.00  0.00     0.008 C 
ENDBRANCH  24  25
ENDBRANCH  19  24
ENDBRANCH   8  18
BRANCH  17  28
ATOM     28  C   UNL A   1      29.703  26.111  24.250  1.00  0.00     0.429 C 
ATOM     29  F   UNL A   1      29.407  25.326  23.190  1.00  0.00    -0.167 F 
ATOM     30  F   UNL A   1      28.619  26.138  25.061  1.00  0.00    -0.167 F 
ATOM     31  F   UNL A   1      29.838  27.375  23.765  1.00  0.00    -0.167 F 
ENDBRANCH  17  28
ENDBRANCH   4   7
ENDBRANCH   2   3
ENDBRANCH   1   2
BRANCH   1  32
ATOM     32  C   UNL A   1      31.387  31.680  26.296  1.00  0.00     0.023 C 
BRANCH  32  33
ATOM     33  C   UNL A   1      32.583  32.234  27.062  1.00  0.00     0.116 C 
BRANCH  33  34
ATOM     34  N   UNL A   1      32.387  33.623  27.439  1.00  0.00    -0.352 N 
ATOM     35  C   UNL A   1      33.058  34.370  28.375  1.00  0.00     0.251 C 
ATOM     36  H   UNL A   1      31.671  34.096  26.955  1.00  0.00     0.163 HD
ATOM     37  O   UNL A   1      32.623  35.471  28.711  1.00  0.00    -0.269 OA
BRANCH  35  38
ATOM     38  C   UNL A   1      34.290  33.843  28.996  1.00  0.00     0.039 A 
ATOM     39  C   UNL A   1      34.181  32.999  30.104  1.00  0.00     0.014 A 
ATOM     40  C   UNL A   1      35.549  34.179  28.492  1.00  0.00     0.014 A 
ATOM     41  C   UNL A   1      35.332  32.441  30.665  1.00  0.00     0.010 A 
ATOM     42  C   UNL A   1      36.688  33.562  29.003  1.00  0.00     0.010 A 
ATOM     43  C   UNL A   1      36.593  32.688  30.097  1.00  0.00    -0.014 A 
BRANCH  43  44
ATOM     44  C   UNL A   1      37.818  32.037  30.629  1.00  0.00     0.031 A 
ATOM     45  C   UNL A   1      38.538  32.628  31.813  1.00  0.00     0.074 A 
ATOM     46  C   UNL A   1      38.318  30.948  30.011  1.00  0.00     0.049 A 
ATOM     47  N   UNL A   1      39.646  32.229  32.387  1.00  0.00    -0.248 NA
ATOM     48  C   UNL A   1      37.951  33.834  32.418  1.00  0.00     0.031 C 
ATOM     49  C   UNL A   1      37.738  30.297  28.834  1.00  0.00     0.029 A 
ATOM     50  N   UNL A   1      39.435  30.197  30.287  1.00  0.00    -0.354 N 
ATOM     51  C   UNL A   1      39.898  33.146  33.400  1.00  0.00     0.074 A 
ATOM     52  C   UNL A   1      38.854  34.144  33.338  1.00  0.00     0.031 C 
ATOM     53  C   UNL A   1      38.483  29.228  28.510  1.00  0.00     0.029 A 
ATOM     54  C   UNL A   1      39.618  29.142  29.424  1.00  0.00     0.049 A 
ATOM     55  H   UNL A   1      40.046  30.393  31.034  1.00  0.00     0.167 HD
ATOM     56  C   UNL A   1      40.901  33.148  34.311  1.00  0.00     0.031 A 
ATOM     57  C   UNL A   1      40.594  28.216  29.369  1.00  0.00     0.031 A 
ATOM     58  C   UNL A   1      41.928  32.145  34.387  1.00  0.00     0.049 A 
ATOM     59  C   UNL A   1      41.706  28.260  30.381  1.00  0.00     0.074 A 
ATOM     60  C   UNL A   1      42.942  32.023  35.322  1.00  0.00     0.029 A 
ATOM     61  N   UNL A   1      42.077  31.096  33.495  1.00  0.00    -0.354 N 
ATOM     62  N   UNL A   1      41.879  29.083  31.387  1.00  0.00    -0.248 NA
ATOM     63  C   UNL A   1      42.753  27.236  30.257  1.00  0.00     0.031 C 
ATOM     64  C   UNL A   1      43.743  30.937  34.958  1.00  0.00     0.029 A 
ATOM     65  C   UNL A   1      43.187  30.342  33.836  1.00  0.00     0.049 A 
ATOM     66  H   UNL A   1      41.482  30.913  32.732  1.00  0.00     0.167 HD
ATOM     67  C   UNL A   1      43.030  28.653  32.035  1.00  0.00     0.074 A 
ATOM     68  C   UNL A   1      43.503  27.486  31.319  1.00  0.00     0.031 C 
ATOM     69  C   UNL A   1      43.640  29.177  33.125  1.00  0.00     0.031 A 
BRANCH  56  70
ATOM     70  C   UNL A   1      40.947  34.280  35.301  1.00  0.00    -0.014 A 
ATOM     71  C   UNL A   1      41.635  35.471  35.019  1.00  0.00     0.009 A 
ATOM     72  C   UNL A   1      40.231  34.179  36.505  1.00  0.00     0.009 A 
ATOM     73  C   UNL A   1      41.626  36.526  35.934  1.00  0.00     0.001 A 
ATOM     74  C   UNL A   1      40.198  35.246  37.403  1.00  0.00     0.001 A 
ATOM     75  C   UNL A   1      40.902  36.415  37.121  1.00  0.00     0.000 A 
ENDBRANCH  56  70
BRANCH  57  76
ATOM     76  C   UNL A   1      40.577  27.158  28.323  1.00  0.00    -0.014 A 
ATOM     77  C   UNL A   1      41.137  27.398  27.057  1.00  0.00     0.009 A 
ATOM     78  C   UNL A   1      39.957  25.921  28.563  1.00  0.00     0.009 A 
ATOM     79  C   UNL A   1      41.036  26.443  26.043  1.00  0.00     0.001 A 
ATOM     80  C   UNL A   1      39.889  24.954  27.558  1.00  0.00     0.001 A 
ATOM     81  C   UNL A   1      40.414  25.221  26.295  1.00  0.00     0.000 A 
ENDBRANCH  57  76
BRANCH  69  82
ATOM     82  C   UNL A   1      44.856  28.462  33.646  1.00  0.00    -0.014 A 
ATOM     83  C   UNL A   1      44.751  27.414  34.575  1.00  0.00     0.009 A 
ATOM     84  C   UNL A   1      46.126  28.820  33.166  1.00  0.00     0.009 A 
ATOM     85  C   UNL A   1      45.897  26.767  35.040  1.00  0.00     0.001 A 
ATOM     86  C   UNL A   1      47.266  28.148  33.607  1.00  0.00     0.001 A 
ATOM     87  C   UNL A   1      47.153  27.130  34.552  1.00  0.00     0.000 A 
ENDBRANCH  69  82
ENDBRANCH  43  44
ENDBRANCH  35  38
ENDBRANCH  33  34
ENDBRANCH  32  33
ENDBRANCH   1  32
TORSDOF 15
ENDMDL
