MODEL 1
REMARK VINA RESULT:     -13.2      0.000      0.000
REMARK SMILES Cc1c(CC(=O)NCCCCNC(=O)c2ccc(-c3c4nc(c(-c5ccccc5)c5ccc([nH]5)c(-c5ccccc5)c5nc(c(-c6ccccc6)c6ccc3[nH]6)C=C5)C=C4)cc2)cc(-c2ccccc2)cc1-c1ccccc1
REMARK SMILES IDX 9 1 8 2 7 3 5 4 6 5 4 7 3 8 1 9 2 10 72 11 63 12 71 13 64 14
REMARK SMILES IDX 73 15 74 16 78 17 75 18 77 19 76 20 65 21 66 22 70 23 67 24
REMARK SMILES IDX 69 25 68 26 10 27 11 28 12 29 13 30 14 32 15 33 16 34 62 35
REMARK SMILES IDX 17 36 61 37 18 38 19 39 20 40 55 41 21 42 60 43 54 44 56 45
REMARK SMILES IDX 22 46 59 47 53 48 52 49 23 51 45 52 30 53 44 54 31 55 34 56
REMARK SMILES IDX 43 57 57 58 32 59 33 60 42 62 58 63 35 64 24 65 25 66 29 67
REMARK SMILES IDX 26 68 28 69 27 70 46 71 47 72 51 73 48 74 50 75 49 76 36 77
REMARK SMILES IDX 37 78 41 79 38 80 40 81 39 82
REMARK H PARENT 7 6 12 31 56 50 34 61
REMARK Flexibility Score: inf
ROOT
ATOM      1  C   UNL A   1      34.028  28.208  25.526  1.00  0.00     0.023 C 
ENDROOT
BRANCH   1   2
ATOM      2  C   UNL A   1      33.655  26.742  25.255  1.00  0.00     0.116 C 
BRANCH   2   3
ATOM      3  N   UNL A   1      33.909  26.325  23.887  1.00  0.00    -0.356 N 
ATOM      4  C   UNL A   1      33.633  25.137  23.271  1.00  0.00     0.224 C 
ATOM      5  O   UNL A   1      33.930  25.024  22.078  1.00  0.00    -0.275 OA
ATOM      6  H   UNL A   1      34.345  27.000  23.318  1.00  0.00     0.163 HD
BRANCH   4   7
ATOM      7  C   UNL A   1      32.945  24.000  24.020  1.00  0.00     0.135 C 
BRANCH   7   8
ATOM      8  C   UNL A   1      33.868  22.848  24.363  1.00  0.00    -0.035 A 
ATOM      9  C   UNL A   1      32.170  21.086  23.656  1.00  0.00     0.045 C 
ATOM     10  C   UNL A   1      33.488  21.484  24.282  1.00  0.00    -0.040 A 
ATOM     11  C   UNL A   1      34.385  20.490  24.759  1.00  0.00    -0.015 A 
ATOM     12  C   UNL A   1      35.155  23.186  24.834  1.00  0.00     0.013 A 
ATOM     13  C   UNL A   1      35.647  20.882  25.256  1.00  0.00     0.017 A 
ATOM     14  C   UNL A   1      36.056  22.220  25.290  1.00  0.00    -0.017 A 
BRANCH  11  15
ATOM     15  C   UNL A   1      34.037  19.057  24.816  1.00  0.00    -0.018 A 
ATOM     16  C   UNL A   1      34.895  18.095  24.252  1.00  0.00     0.009 A 
ATOM     17  C   UNL A   1      32.858  18.611  25.432  1.00  0.00     0.009 A 
ATOM     18  C   UNL A   1      34.592  16.734  24.314  1.00  0.00     0.001 A 
ATOM     19  C   UNL A   1      32.559  17.248  25.507  1.00  0.00     0.001 A 
ATOM     20  C   UNL A   1      33.426  16.311  24.947  1.00  0.00     0.000 A 
ENDBRANCH  11  15
BRANCH  14  21
ATOM     21  C   UNL A   1      37.380  22.606  25.800  1.00  0.00    -0.018 A 
ATOM     22  C   UNL A   1      37.642  23.920  26.224  1.00  0.00     0.009 A 
ATOM     23  C   UNL A   1      38.428  21.673  25.856  1.00  0.00     0.009 A 
ATOM     24  C   UNL A   1      38.910  24.291  26.681  1.00  0.00     0.001 A 
ATOM     25  C   UNL A   1      39.698  22.043  26.311  1.00  0.00     0.001 A 
ATOM     26  C   UNL A   1      39.938  23.351  26.720  1.00  0.00     0.000 A 
ENDBRANCH  14  21
ENDBRANCH   7   8
ENDBRANCH   4   7
ENDBRANCH   2   3
ENDBRANCH   1   2
BRANCH   1  27
ATOM     27  C   UNL A   1      33.514  28.783  26.847  1.00  0.00     0.023 C 
BRANCH  27  28
ATOM     28  C   UNL A   1      34.331  29.955  27.363  1.00  0.00     0.116 C 
BRANCH  28  29
ATOM     29  N   UNL A   1      33.655  31.251  27.340  1.00  0.00    -0.352 N 
ATOM     30  C   UNL A   1      33.903  32.396  28.070  1.00  0.00     0.251 C 
ATOM     31  H   UNL A   1      32.907  31.318  26.704  1.00  0.00     0.163 HD
ATOM     32  O   UNL A   1      33.150  33.345  27.981  1.00  0.00    -0.269 OA
BRANCH  30  33
ATOM     33  C   UNL A   1      35.173  32.536  28.853  1.00  0.00     0.039 A 
ATOM     34  C   UNL A   1      36.232  33.235  28.256  1.00  0.00     0.014 A 
ATOM     35  C   UNL A   1      35.400  31.821  30.022  1.00  0.00     0.014 A 
ATOM     36  C   UNL A   1      37.539  32.984  28.667  1.00  0.00     0.010 A 
ATOM     37  C   UNL A   1      36.692  31.460  30.340  1.00  0.00     0.010 A 
ATOM     38  C   UNL A   1      37.762  31.990  29.617  1.00  0.00    -0.014 A 
BRANCH  38  39
ATOM     39  C   UNL A   1      39.051  31.343  29.818  1.00  0.00     0.031 A 
ATOM     40  C   UNL A   1      39.333  30.025  29.217  1.00  0.00     0.074 A 
ATOM     41  C   UNL A   1      40.023  31.989  30.500  1.00  0.00     0.049 A 
ATOM     42  N   UNL A   1      40.135  29.156  29.737  1.00  0.00    -0.248 NA
ATOM     43  C   UNL A   1      38.693  29.564  27.989  1.00  0.00     0.031 C 
ATOM     44  C   UNL A   1      41.436  31.624  30.573  1.00  0.00     0.029 A 
ATOM     45  N   UNL A   1      39.889  33.004  31.450  1.00  0.00    -0.354 N 
ATOM     46  C   UNL A   1      40.346  28.185  28.787  1.00  0.00     0.074 A 
ATOM     47  C   UNL A   1      39.359  28.429  27.759  1.00  0.00     0.031 C 
ATOM     48  C   UNL A   1      41.958  32.159  31.690  1.00  0.00     0.029 A 
ATOM     49  C   UNL A   1      40.863  32.765  32.430  1.00  0.00     0.049 A 
ATOM     50  H   UNL A   1      39.238  33.742  31.434  1.00  0.00     0.167 HD
ATOM     51  C   UNL A   1      41.435  27.373  28.868  1.00  0.00     0.031 A 
ATOM     52  C   UNL A   1      40.583  32.548  33.747  1.00  0.00     0.031 A 
ATOM     53  C   UNL A   1      42.262  27.682  30.028  1.00  0.00     0.049 A 
ATOM     54  C   UNL A   1      41.131  31.234  34.256  1.00  0.00     0.074 A 
ATOM     55  C   UNL A   1      43.422  28.429  30.168  1.00  0.00     0.029 A 
ATOM     56  N   UNL A   1      41.774  27.462  31.308  1.00  0.00    -0.354 N 
ATOM     57  N   UNL A   1      41.473  30.246  33.476  1.00  0.00    -0.248 NA
ATOM     58  C   UNL A   1      41.271  30.899  35.671  1.00  0.00     0.031 C 
ATOM     59  C   UNL A   1      43.608  28.696  31.545  1.00  0.00     0.029 A 
ATOM     60  C   UNL A   1      42.574  28.095  32.239  1.00  0.00     0.049 A 
ATOM     61  H   UNL A   1      40.973  26.932  31.522  1.00  0.00     0.167 HD
ATOM     62  C   UNL A   1      41.869  29.178  34.236  1.00  0.00     0.074 A 
ATOM     63  C   UNL A   1      41.724  29.633  35.605  1.00  0.00     0.031 C 
ATOM     64  C   UNL A   1      42.271  28.008  33.660  1.00  0.00     0.031 A 
BRANCH  51  65
ATOM     65  C   UNL A   1      41.912  26.531  27.713  1.00  0.00    -0.014 A 
ATOM     66  C   UNL A   1      42.723  25.407  27.960  1.00  0.00     0.009 A 
ATOM     67  C   UNL A   1      41.631  26.810  26.366  1.00  0.00     0.009 A 
ATOM     68  C   UNL A   1      43.313  24.675  26.923  1.00  0.00     0.001 A 
ATOM     69  C   UNL A   1      42.249  26.106  25.322  1.00  0.00     0.001 A 
ATOM     70  C   UNL A   1      43.101  25.046  25.602  1.00  0.00     0.000 A 
ENDBRANCH  51  65
BRANCH  52  71
ATOM     71  C   UNL A   1      39.303  33.142  34.214  1.00  0.00    -0.014 A 
ATOM     72  C   UNL A   1      38.096  32.601  33.734  1.00  0.00     0.009 A 
ATOM     73  C   UNL A   1      39.273  33.937  35.369  1.00  0.00     0.009 A 
ATOM     74  C   UNL A   1      36.907  32.767  34.449  1.00  0.00     0.001 A 
ATOM     75  C   UNL A   1      38.078  34.103  36.080  1.00  0.00     0.001 A 
ATOM     76  C   UNL A   1      36.905  33.492  35.638  1.00  0.00     0.000 A 
ENDBRANCH  52  71
BRANCH  64  77
ATOM     77  C   UNL A   1      42.505  26.690  34.357  1.00  0.00    -0.014 A 
ATOM     78  C   UNL A   1      41.577  26.061  35.194  1.00  0.00     0.009 A 
ATOM     79  C   UNL A   1      43.676  25.959  34.050  1.00  0.00     0.009 A 
ATOM     80  C   UNL A   1      41.822  24.784  35.724  1.00  0.00     0.001 A 
ATOM     81  C   UNL A   1      43.905  24.671  34.538  1.00  0.00     0.001 A 
ATOM     82  C   UNL A   1      42.978  24.086  35.386  1.00  0.00     0.000 A 
ENDBRANCH  64  77
ENDBRANCH  38  39
ENDBRANCH  30  33
ENDBRANCH  28  29
ENDBRANCH  27  28
ENDBRANCH   1  27
TORSDOF 14
ENDMDL
MODEL 2
REMARK VINA RESULT:     -12.5      4.096      9.639
REMARK SMILES Cc1c(CC(=O)NCCCCNC(=O)c2ccc(-c3c4nc(c(-c5ccccc5)c5ccc([nH]5)c(-c5ccccc5)c5nc(c(-c6ccccc6)c6ccc3[nH]6)C=C5)C=C4)cc2)cc(-c2ccccc2)cc1-c1ccccc1
REMARK SMILES IDX 9 1 8 2 7 3 5 4 6 5 4 7 3 8 1 9 2 10 72 11 63 12 71 13 64 14
REMARK SMILES IDX 73 15 74 16 78 17 75 18 77 19 76 20 65 21 66 22 70 23 67 24
REMARK SMILES IDX 69 25 68 26 10 27 11 28 12 29 13 30 14 32 15 33 16 34 62 35
REMARK SMILES IDX 17 36 61 37 18 38 19 39 20 40 55 41 21 42 60 43 54 44 56 45
REMARK SMILES IDX 22 46 59 47 53 48 52 49 23 51 45 52 30 53 44 54 31 55 34 56
REMARK SMILES IDX 43 57 57 58 32 59 33 60 42 62 58 63 35 64 24 65 25 66 29 67
REMARK SMILES IDX 26 68 28 69 27 70 46 71 47 72 51 73 48 74 50 75 49 76 36 77
REMARK SMILES IDX 37 78 41 79 38 80 40 81 39 82
REMARK H PARENT 7 6 12 31 56 50 34 61
REMARK Flexibility Score: inf
ROOT
ATOM      1  C   UNL A   1      40.424  22.119  27.275  1.00  0.00     0.023 C 
ENDROOT
BRANCH   1   2
ATOM      2  C   UNL A   1      39.180  22.925  26.870  1.00  0.00     0.116 C 
BRANCH   2   3
ATOM      3  N   UNL A   1      38.660  22.567  25.562  1.00  0.00    -0.356 N 
ATOM      4  C   UNL A   1      37.399  22.711  25.054  1.00  0.00     0.224 C 
ATOM      5  O   UNL A   1      37.201  22.345  23.893  1.00  0.00    -0.275 OA
ATOM      6  H   UNL A   1      39.314  22.160  24.949  1.00  0.00     0.163 HD
BRANCH   4   7
ATOM      7  C   UNL A   1      36.282  23.340  25.882  1.00  0.00     0.135 C 
BRANCH   7   8
ATOM      8  C   UNL A   1      34.891  23.044  25.354  1.00  0.00    -0.035 A 
ATOM      9  C   UNL A   1      34.287  25.511  25.152  1.00  0.00     0.045 C 
ATOM     10  C   UNL A   1      33.920  24.044  25.094  1.00  0.00    -0.040 A 
ATOM     11  C   UNL A   1      32.604  23.648  24.734  1.00  0.00    -0.015 A 
ATOM     12  C   UNL A   1      34.559  21.685  25.170  1.00  0.00     0.013 A 
ATOM     13  C   UNL A   1      32.311  22.273  24.599  1.00  0.00     0.017 A 
ATOM     14  C   UNL A   1      33.275  21.278  24.799  1.00  0.00    -0.017 A 
BRANCH  11  15
ATOM     15  C   UNL A   1      31.499  24.609  24.548  1.00  0.00    -0.018 A 
ATOM     16  C   UNL A   1      30.668  24.952  25.631  1.00  0.00     0.009 A 
ATOM     17  C   UNL A   1      31.248  25.210  23.306  1.00  0.00     0.009 A 
ATOM     18  C   UNL A   1      29.631  25.874  25.478  1.00  0.00     0.001 A 
ATOM     19  C   UNL A   1      30.220  26.142  23.155  1.00  0.00     0.001 A 
ATOM     20  C   UNL A   1      29.411  26.473  24.241  1.00  0.00     0.000 A 
ENDBRANCH  11  15
BRANCH  14  21
ATOM     21  C   UNL A   1      32.951  19.853  24.641  1.00  0.00    -0.018 A 
ATOM     22  C   UNL A   1      32.948  18.981  25.744  1.00  0.00     0.009 A 
ATOM     23  C   UNL A   1      32.658  19.318  23.377  1.00  0.00     0.009 A 
ATOM     24  C   UNL A   1      32.670  17.620  25.586  1.00  0.00     0.001 A 
ATOM     25  C   UNL A   1      32.381  17.957  23.216  1.00  0.00     0.001 A 
ATOM     26  C   UNL A   1      32.389  17.109  24.321  1.00  0.00     0.000 A 
ENDBRANCH  14  21
ENDBRANCH   7   8
ENDBRANCH   4   7
ENDBRANCH   2   3
ENDBRANCH   1   2
BRANCH   1  27
ATOM     27  C   UNL A   1      41.372  21.755  26.131  1.00  0.00     0.023 C 
BRANCH  27  28
ATOM     28  C   UNL A   1      42.382  20.681  26.493  1.00  0.00     0.116 C 
BRANCH  28  29
ATOM     29  N   UNL A   1      43.179  20.167  25.380  1.00  0.00    -0.352 N 
ATOM     30  C   UNL A   1      44.140  20.794  24.611  1.00  0.00     0.251 C 
ATOM     31  H   UNL A   1      43.005  19.229  25.142  1.00  0.00     0.163 HD
ATOM     32  O   UNL A   1      44.615  20.220  23.651  1.00  0.00    -0.269 OA
BRANCH  30  33
ATOM     33  C   UNL A   1      44.712  22.112  25.036  1.00  0.00     0.039 A 
ATOM     34  C   UNL A   1      45.441  22.148  26.234  1.00  0.00     0.014 A 
ATOM     35  C   UNL A   1      44.358  23.303  24.416  1.00  0.00     0.014 A 
ATOM     36  C   UNL A   1      45.559  23.350  26.929  1.00  0.00     0.010 A 
ATOM     37  C   UNL A   1      44.346  24.463  25.161  1.00  0.00     0.010 A 
ATOM     38  C   UNL A   1      44.886  24.470  26.448  1.00  0.00    -0.014 A 
BRANCH  38  39
ATOM     39  C   UNL A   1      44.574  25.635  27.264  1.00  0.00     0.031 A 
ATOM     40  C   UNL A   1      43.206  26.184  27.298  1.00  0.00     0.074 A 
ATOM     41  C   UNL A   1      45.530  26.171  28.056  1.00  0.00     0.049 A 
ATOM     42  N   UNL A   1      42.938  27.431  27.499  1.00  0.00    -0.248 NA
ATOM     43  C   UNL A   1      42.020  25.365  27.065  1.00  0.00     0.031 C 
ATOM     44  C   UNL A   1      45.340  27.151  29.123  1.00  0.00     0.029 A 
ATOM     45  N   UNL A   1      46.918  26.094  27.915  1.00  0.00    -0.354 N 
ATOM     46  C   UNL A   1      41.584  27.521  27.721  1.00  0.00     0.074 A 
ATOM     47  C   UNL A   1      41.045  26.234  27.347  1.00  0.00     0.031 C 
ATOM     48  C   UNL A   1      46.501  27.797  29.322  1.00  0.00     0.029 A 
ATOM     49  C   UNL A   1      47.427  27.343  28.298  1.00  0.00     0.049 A 
ATOM     50  H   UNL A   1      47.435  25.316  27.607  1.00  0.00     0.167 HD
ATOM     51  C   UNL A   1      41.065  28.608  28.357  1.00  0.00     0.031 A 
ATOM     52  C   UNL A   1      48.159  28.152  27.479  1.00  0.00     0.031 A 
ATOM     53  C   UNL A   1      42.097  29.569  28.727  1.00  0.00     0.049 A 
ATOM     54  C   UNL A   1      47.553  29.527  27.317  1.00  0.00     0.074 A 
ATOM     55  C   UNL A   1      42.761  29.803  29.921  1.00  0.00     0.029 A 
ATOM     56  N   UNL A   1      42.797  30.251  27.742  1.00  0.00    -0.354 N 
ATOM     57  N   UNL A   1      46.306  29.800  27.580  1.00  0.00    -0.248 NA
ATOM     58  C   UNL A   1      48.273  30.680  26.782  1.00  0.00     0.031 C 
ATOM     59  C   UNL A   1      43.897  30.599  29.642  1.00  0.00     0.029 A 
ATOM     60  C   UNL A   1      43.909  30.863  28.284  1.00  0.00     0.049 A 
ATOM     61  H   UNL A   1      42.538  30.291  26.793  1.00  0.00     0.167 HD
ATOM     62  C   UNL A   1      46.047  31.109  27.273  1.00  0.00     0.074 A 
ATOM     63  C   UNL A   1      47.310  31.621  26.775  1.00  0.00     0.031 C 
ATOM     64  C   UNL A   1      44.806  31.648  27.450  1.00  0.00     0.031 A 
BRANCH  51  65
ATOM     65  C   UNL A   1      39.671  28.628  28.929  1.00  0.00    -0.014 A 
ATOM     66  C   UNL A   1      38.622  29.201  28.185  1.00  0.00     0.009 A 
ATOM     67  C   UNL A   1      39.334  28.139  30.202  1.00  0.00     0.009 A 
ATOM     68  C   UNL A   1      37.342  29.379  28.721  1.00  0.00     0.001 A 
ATOM     69  C   UNL A   1      38.065  28.349  30.761  1.00  0.00     0.001 A 
ATOM     70  C   UNL A   1      37.073  28.982  30.024  1.00  0.00     0.000 A 
ENDBRANCH  51  65
BRANCH  52  71
ATOM     71  C   UNL A   1      48.888  27.441  26.396  1.00  0.00    -0.014 A 
ATOM     72  C   UNL A   1      48.270  27.317  25.138  1.00  0.00     0.009 A 
ATOM     73  C   UNL A   1      50.274  27.242  26.488  1.00  0.00     0.009 A 
ATOM     74  C   UNL A   1      49.033  27.104  23.986  1.00  0.00     0.001 A 
ATOM     75  C   UNL A   1      51.033  27.025  25.332  1.00  0.00     0.001 A 
ATOM     76  C   UNL A   1      50.417  26.989  24.081  1.00  0.00     0.000 A 
ENDBRANCH  52  71
BRANCH  64  77
ATOM     77  C   UNL A   1      44.319  32.984  26.944  1.00  0.00    -0.014 A 
ATOM     78  C   UNL A   1      44.084  33.283  25.597  1.00  0.00     0.009 A 
ATOM     79  C   UNL A   1      43.938  33.968  27.886  1.00  0.00     0.009 A 
ATOM     80  C   UNL A   1      43.530  34.513  25.210  1.00  0.00     0.001 A 
ATOM     81  C   UNL A   1      43.345  35.175  27.509  1.00  0.00     0.001 A 
ATOM     82  C   UNL A   1      43.150  35.452  26.165  1.00  0.00     0.000 A 
ENDBRANCH  64  77
ENDBRANCH  38  39
ENDBRANCH  30  33
ENDBRANCH  28  29
ENDBRANCH  27  28
ENDBRANCH   1  27
TORSDOF 14
ENDMDL
MODEL 3
REMARK VINA RESULT:     -12.4      2.604      5.194
REMARK SMILES Cc1c(CC(=O)NCCCCNC(=O)c2ccc(-c3c4nc(c(-c5ccccc5)c5ccc([nH]5)c(-c5ccccc5)c5nc(c(-c6ccccc6)c6ccc3[nH]6)C=C5)C=C4)cc2)cc(-c2ccccc2)cc1-c1ccccc1
REMARK SMILES IDX 9 1 8 2 7 3 5 4 6 5 4 7 3 8 1 9 2 10 72 11 63 12 71 13 64 14
REMARK SMILES IDX 73 15 74 16 78 17 75 18 77 19 76 20 65 21 66 22 70 23 67 24
REMARK SMILES IDX 69 25 68 26 10 27 11 28 12 29 13 30 14 32 15 33 16 34 62 35
REMARK SMILES IDX 17 36 61 37 18 38 19 39 20 40 55 41 21 42 60 43 54 44 56 45
REMARK SMILES IDX 22 46 59 47 53 48 52 49 23 51 45 52 30 53 44 54 31 55 34 56
REMARK SMILES IDX 43 57 57 58 32 59 33 60 42 62 58 63 35 64 24 65 25 66 29 67
REMARK SMILES IDX 26 68 28 69 27 70 46 71 47 72 51 73 48 74 50 75 49 76 36 77
REMARK SMILES IDX 37 78 41 79 38 80 40 81 39 82
REMARK H PARENT 7 6 12 31 56 50 34 61
REMARK Flexibility Score: inf
ROOT
ATOM      1  C   UNL A   1      35.455  32.539  28.083  1.00  0.00     0.023 C 
ENDROOT
BRANCH   1   2
ATOM      2  C   UNL A   1      35.404  31.080  27.604  1.00  0.00     0.116 C 
BRANCH   2   3
ATOM      3  N   UNL A   1      34.144  30.419  27.897  1.00  0.00    -0.356 N 
ATOM      4  C   UNL A   1      33.429  29.529  27.145  1.00  0.00     0.224 C 
ATOM      5  O   UNL A   1      32.382  29.084  27.622  1.00  0.00    -0.275 OA
ATOM      6  H   UNL A   1      33.746  30.645  28.768  1.00  0.00     0.163 HD
BRANCH   4   7
ATOM      7  C   UNL A   1      33.928  29.071  25.778  1.00  0.00     0.135 C 
BRANCH   7   8
ATOM      8  C   UNL A   1      32.932  28.214  25.021  1.00  0.00    -0.035 A 
ATOM      9  C   UNL A   1      34.140  26.047  25.596  1.00  0.00     0.045 C 
ATOM     10  C   UNL A   1      33.068  26.813  24.854  1.00  0.00    -0.040 A 
ATOM     11  C   UNL A   1      32.153  26.128  24.009  1.00  0.00    -0.015 A 
ATOM     12  C   UNL A   1      31.848  28.886  24.417  1.00  0.00     0.013 A 
ATOM     13  C   UNL A   1      31.106  26.853  23.397  1.00  0.00     0.017 A 
ATOM     14  C   UNL A   1      30.928  28.226  23.598  1.00  0.00    -0.017 A 
BRANCH  11  15
ATOM     15  C   UNL A   1      32.277  24.693  23.688  1.00  0.00    -0.018 A 
ATOM     16  C   UNL A   1      33.194  24.261  22.712  1.00  0.00     0.009 A 
ATOM     17  C   UNL A   1      31.500  23.724  24.341  1.00  0.00     0.009 A 
ATOM     18  C   UNL A   1      33.338  22.905  22.410  1.00  0.00     0.001 A 
ATOM     19  C   UNL A   1      31.653  22.367  24.049  1.00  0.00     0.001 A 
ATOM     20  C   UNL A   1      32.571  21.958  23.083  1.00  0.00     0.000 A 
ENDBRANCH  11  15
BRANCH  14  21
ATOM     21  C   UNL A   1      29.823  28.958  22.962  1.00  0.00    -0.018 A 
ATOM     22  C   UNL A   1      28.484  28.687  23.293  1.00  0.00     0.009 A 
ATOM     23  C   UNL A   1      30.076  29.936  21.987  1.00  0.00     0.009 A 
ATOM     24  C   UNL A   1      27.435  29.364  22.665  1.00  0.00     0.001 A 
ATOM     25  C   UNL A   1      29.028  30.613  21.356  1.00  0.00     0.001 A 
ATOM     26  C   UNL A   1      27.709  30.325  21.694  1.00  0.00     0.000 A 
ENDBRANCH  14  21
ENDBRANCH   7   8
ENDBRANCH   4   7
ENDBRANCH   2   3
ENDBRANCH   1   2
BRANCH   1  27
ATOM     27  C   UNL A   1      34.414  32.921  29.137  1.00  0.00     0.023 C 
BRANCH  27  28
ATOM     28  C   UNL A   1      34.267  34.419  29.335  1.00  0.00     0.116 C 
BRANCH  28  29
ATOM     29  N   UNL A   1      33.337  34.826  30.387  1.00  0.00    -0.352 N 
ATOM     30  C   UNL A   1      33.400  34.634  31.753  1.00  0.00     0.251 C 
ATOM     31  H   UNL A   1      32.541  35.312  30.073  1.00  0.00     0.163 HD
ATOM     32  O   UNL A   1      32.461  34.957  32.453  1.00  0.00    -0.269 OA
BRANCH  30  33
ATOM     33  C   UNL A   1      34.673  34.176  32.397  1.00  0.00     0.039 A 
ATOM     34  C   UNL A   1      35.805  34.993  32.255  1.00  0.00     0.014 A 
ATOM     35  C   UNL A   1      34.815  32.896  32.917  1.00  0.00     0.014 A 
ATOM     36  C   UNL A   1      37.075  34.431  32.368  1.00  0.00     0.010 A 
ATOM     37  C   UNL A   1      36.059  32.302  32.891  1.00  0.00     0.010 A 
ATOM     38  C   UNL A   1      37.183  33.054  32.548  1.00  0.00    -0.014 A 
BRANCH  38  39
ATOM     39  C   UNL A   1      38.395  32.298  32.261  1.00  0.00     0.031 A 
ATOM     40  C   UNL A   1      38.330  31.035  31.502  1.00  0.00     0.074 A 
ATOM     41  C   UNL A   1      39.596  32.796  32.630  1.00  0.00     0.049 A 
ATOM     42  N   UNL A   1      39.161  30.060  31.658  1.00  0.00    -0.248 NA
ATOM     43  C   UNL A   1      37.283  30.755  30.523  1.00  0.00     0.031 C 
ATOM     44  C   UNL A   1      40.912  32.324  32.203  1.00  0.00     0.029 A 
ATOM     45  N   UNL A   1      39.882  33.711  33.646  1.00  0.00    -0.354 N 
ATOM     46  C   UNL A   1      38.953  29.183  30.620  1.00  0.00     0.074 A 
ATOM     47  C   UNL A   1      37.718  29.606  30.000  1.00  0.00     0.031 C 
ATOM     48  C   UNL A   1      41.819  32.697  33.122  1.00  0.00     0.029 A 
ATOM     49  C   UNL A   1      41.090  33.299  34.226  1.00  0.00     0.049 A 
ATOM     50  H   UNL A   1      39.341  34.492  33.903  1.00  0.00     0.167 HD
ATOM     51  C   UNL A   1      39.920  28.290  30.274  1.00  0.00     0.031 A 
ATOM     52  C   UNL A   1      41.229  32.964  35.541  1.00  0.00     0.031 A 
ATOM     53  C   UNL A   1      41.105  28.413  31.114  1.00  0.00     0.049 A 
ATOM     54  C   UNL A   1      41.773  31.567  35.737  1.00  0.00     0.074 A 
ATOM     55  C   UNL A   1      42.318  29.054  30.919  1.00  0.00     0.029 A 
ATOM     56  N   UNL A   1      41.036  28.093  32.463  1.00  0.00    -0.354 N 
ATOM     57  N   UNL A   1      41.741  30.645  34.816  1.00  0.00    -0.248 NA
ATOM     58  C   UNL A   1      42.326  31.074  36.996  1.00  0.00     0.031 C 
ATOM     59  C   UNL A   1      42.965  29.159  32.174  1.00  0.00     0.029 A 
ATOM     60  C   UNL A   1      42.154  28.564  33.123  1.00  0.00     0.049 A 
ATOM     61  H   UNL A   1      40.296  27.603  32.889  1.00  0.00     0.167 HD
ATOM     62  C   UNL A   1      42.248  29.476  35.317  1.00  0.00     0.074 A 
ATOM     63  C   UNL A   1      42.600  29.793  36.688  1.00  0.00     0.031 C 
ATOM     64  C   UNL A   1      42.319  28.348  34.552  1.00  0.00     0.031 A 
BRANCH  51  65
ATOM     65  C   UNL A   1      39.908  27.543  28.965  1.00  0.00    -0.014 A 
ATOM     66  C   UNL A   1      39.358  26.248  28.908  1.00  0.00     0.009 A 
ATOM     67  C   UNL A   1      40.454  28.038  27.770  1.00  0.00     0.009 A 
ATOM     68  C   UNL A   1      39.449  25.452  27.761  1.00  0.00     0.001 A 
ATOM     69  C   UNL A   1      40.585  27.233  26.629  1.00  0.00     0.001 A 
ATOM     70  C   UNL A   1      40.093  25.934  26.630  1.00  0.00     0.000 A 
ENDBRANCH  51  65
BRANCH  52  71
ATOM     71  C   UNL A   1      40.237  33.596  36.451  1.00  0.00    -0.014 A 
ATOM     72  C   UNL A   1      39.129  32.837  36.869  1.00  0.00     0.009 A 
ATOM     73  C   UNL A   1      40.575  34.749  37.174  1.00  0.00     0.009 A 
ATOM     74  C   UNL A   1      38.441  33.165  38.040  1.00  0.00     0.001 A 
ATOM     75  C   UNL A   1      39.881  35.076  38.344  1.00  0.00     0.001 A 
ATOM     76  C   UNL A   1      38.838  34.268  38.793  1.00  0.00     0.000 A 
ENDBRANCH  52  71
BRANCH  64  77
ATOM     77  C   UNL A   1      42.627  26.950  35.029  1.00  0.00    -0.014 A 
ATOM     78  C   UNL A   1      41.718  26.122  35.698  1.00  0.00     0.009 A 
ATOM     79  C   UNL A   1      43.864  26.367  34.666  1.00  0.00     0.009 A 
ATOM     80  C   UNL A   1      42.042  24.794  36.017  1.00  0.00     0.001 A 
ATOM     81  C   UNL A   1      44.173  25.034  34.942  1.00  0.00     0.001 A 
ATOM     82  C   UNL A   1      43.262  24.248  35.630  1.00  0.00     0.000 A 
ENDBRANCH  64  77
ENDBRANCH  38  39
ENDBRANCH  30  33
ENDBRANCH  28  29
ENDBRANCH  27  28
ENDBRANCH   1  27
TORSDOF 14
ENDMDL
