MODEL 1
REMARK VINA RESULT:     -11.3      0.000      0.000
REMARK SMILES CCOc1ccc(NC(=O)CC2(CC(=O)NCCCCNC(=O)c3ccc(-c4c5nc(c(-c6ccccc6)c6ccc([nH]6)c(-c6ccccc6)c6nc(c(-c7ccccc7)c7ccc4[nH]7)C=C6)C=C5)cc3)CCCCC2)cc1
REMARK SMILES IDX 14 1 15 2 16 3 13 5 12 6 72 7 76 8 73 9 75 10 74 11 11 12
REMARK SMILES IDX 9 13 8 14 10 16 7 17 4 18 5 19 78 20 6 21 77 22 3 23 2 24
REMARK SMILES IDX 1 25 17 26 18 27 19 28 20 29 21 30 22 31 23 33 24 34 25 35
REMARK SMILES IDX 71 36 26 37 70 38 27 39 28 40 29 41 64 42 30 43 69 44 63 45
REMARK SMILES IDX 65 46 31 47 68 48 62 49 61 50 32 52 54 53 39 54 53 55 40 56
REMARK SMILES IDX 43 57 52 58 66 59 41 60 42 61 51 63 67 64 44 65 33 66 34 67
REMARK SMILES IDX 38 68 35 69 37 70 36 71 55 72 56 73 60 74 57 75 59 76 58 77
REMARK SMILES IDX 45 78 46 79 50 80 47 81 49 82 48 83
REMARK H PARENT 16 4 8 15 21 32 65 51 43 62
REMARK Flexibility Score: inf
ROOT
ATOM      1  C   UNL A   1      33.295  28.847  23.676  1.00  0.00     0.220 C 
ATOM      2  O   UNL A   1      33.066  29.174  22.507  1.00  0.00    -0.275 OA
ATOM      3  N   UNL A   1      32.983  29.764  24.625  1.00  0.00    -0.356 N 
ATOM      4  H   UNL A   1      33.494  30.604  24.647  1.00  0.00     0.163 HD
ENDROOT
BRANCH   1   5
ATOM      5  C   UNL A   1      33.824  27.450  23.974  1.00  0.00     0.107 C 
BRANCH   5   6
ATOM      6  C   UNL A   1      33.023  26.211  24.482  1.00  0.00    -0.012 C 
ATOM      7  C   UNL A   1      33.910  24.942  24.177  1.00  0.00     0.008 C 
ATOM      8  C   UNL A   1      31.714  25.946  23.709  1.00  0.00     0.008 C 
ATOM      9  C   UNL A   1      34.142  24.664  22.689  1.00  0.00     0.001 C 
ATOM     10  C   UNL A   1      31.922  25.791  22.200  1.00  0.00     0.001 C 
ATOM     11  C   UNL A   1      32.845  24.621  21.887  1.00  0.00     0.000 C 
BRANCH   6  12
ATOM     12  C   UNL A   1      32.794  26.160  26.028  1.00  0.00     0.108 C 
BRANCH  12  13
ATOM     13  C   UNL A   1      31.450  25.757  26.613  1.00  0.00     0.224 C 
ATOM     14  N   UNL A   1      31.024  24.468  26.742  1.00  0.00    -0.326 N 
ATOM     15  H   UNL A   1      30.103  24.387  27.082  1.00  0.00     0.169 HD
ATOM     16  O   UNL A   1      30.682  26.640  27.017  1.00  0.00    -0.275 OA
BRANCH  14  17
ATOM     17  C   UNL A   1      31.640  23.233  26.483  1.00  0.00     0.041 A 
ATOM     18  C   UNL A   1      33.422  21.176  25.855  1.00  0.00     0.119 A 
ATOM     19  C   UNL A   1      32.375  21.483  24.991  1.00  0.00     0.048 A 
ATOM     20  C   UNL A   1      33.499  21.796  27.097  1.00  0.00     0.048 A 
ATOM     21  C   UNL A   1      31.468  22.491  25.319  1.00  0.00     0.030 A 
ATOM     22  C   UNL A   1      32.582  22.801  27.426  1.00  0.00     0.030 A 
BRANCH  18  23
ATOM     23  O   UNL A   1      34.442  20.431  25.339  1.00  0.00    -0.494 OA
BRANCH  23  24
ATOM     24  C   UNL A   1      35.738  21.004  25.469  1.00  0.00     0.226 C 
ATOM     25  C   UNL A   1      36.038  21.964  24.332  1.00  0.00     0.049 C 
ENDBRANCH  23  24
ENDBRANCH  18  23
ENDBRANCH  14  17
ENDBRANCH  12  13
ENDBRANCH   6  12
ENDBRANCH   5   6
ENDBRANCH   1   5
BRANCH   3  26
ATOM     26  C   UNL A   1      31.942  29.573  25.606  1.00  0.00     0.116 C 
BRANCH  26  27
ATOM     27  C   UNL A   1      32.208  30.347  26.891  1.00  0.00     0.023 C 
BRANCH  27  28
ATOM     28  C   UNL A   1      31.841  31.823  26.855  1.00  0.00     0.023 C 
BRANCH  28  29
ATOM     29  C   UNL A   1      32.921  32.765  27.358  1.00  0.00     0.116 C 
BRANCH  29  30
ATOM     30  N   UNL A   1      32.452  34.110  27.667  1.00  0.00    -0.352 N 
ATOM     31  C   UNL A   1      32.987  35.010  28.562  1.00  0.00     0.251 C 
ATOM     32  H   UNL A   1      31.652  34.412  27.178  1.00  0.00     0.163 HD
ATOM     33  O   UNL A   1      32.483  36.100  28.752  1.00  0.00    -0.269 OA
BRANCH  31  34
ATOM     34  C   UNL A   1      34.168  34.576  29.329  1.00  0.00     0.039 A 
ATOM     35  C   UNL A   1      33.968  33.920  30.544  1.00  0.00     0.014 A 
ATOM     36  C   UNL A   1      35.439  34.679  28.758  1.00  0.00     0.014 A 
ATOM     37  C   UNL A   1      35.047  33.283  31.153  1.00  0.00     0.010 A 
ATOM     38  C   UNL A   1      36.488  33.971  29.321  1.00  0.00     0.010 A 
ATOM     39  C   UNL A   1      36.300  33.264  30.521  1.00  0.00    -0.014 A 
BRANCH  39  40
ATOM     40  C   UNL A   1      37.443  32.520  31.096  1.00  0.00     0.031 A 
ATOM     41  C   UNL A   1      38.022  32.962  32.408  1.00  0.00     0.074 A 
ATOM     42  C   UNL A   1      38.008  31.514  30.402  1.00  0.00     0.049 A 
ATOM     43  N   UNL A   1      39.085  32.524  33.030  1.00  0.00    -0.248 NA
ATOM     44  C   UNL A   1      37.335  34.072  33.091  1.00  0.00     0.031 C 
ATOM     45  C   UNL A   1      37.569  31.027  29.090  1.00  0.00     0.029 A 
ATOM     46  N   UNL A   1      39.087  30.722  30.704  1.00  0.00    -0.354 N 
ATOM     47  C   UNL A   1      39.214  33.328  34.154  1.00  0.00     0.074 A 
ATOM     48  C   UNL A   1      38.152  34.308  34.106  1.00  0.00     0.031 C 
ATOM     49  C   UNL A   1      38.351  29.999  28.718  1.00  0.00     0.029 A 
ATOM     50  C   UNL A   1      39.363  29.778  29.745  1.00  0.00     0.049 A 
ATOM     51  H   UNL A   1      39.612  30.820  31.530  1.00  0.00     0.167 HD
ATOM     52  C   UNL A   1      40.123  33.245  35.153  1.00  0.00     0.031 A 
ATOM     53  C   UNL A   1      40.328  28.841  29.703  1.00  0.00     0.031 A 
ATOM     54  C   UNL A   1      41.149  32.244  35.223  1.00  0.00     0.049 A 
ATOM     55  C   UNL A   1      41.299  28.739  30.845  1.00  0.00     0.074 A 
ATOM     56  C   UNL A   1      42.079  32.028  36.223  1.00  0.00     0.029 A 
ATOM     57  N   UNL A   1      41.369  31.278  34.253  1.00  0.00    -0.354 N 
ATOM     58  N   UNL A   1      41.377  29.474  31.928  1.00  0.00    -0.248 NA
ATOM     59  C   UNL A   1      42.308  27.674  30.762  1.00  0.00     0.031 C 
ATOM     60  C   UNL A   1      42.880  30.945  35.846  1.00  0.00     0.029 A 
ATOM     61  C   UNL A   1      42.424  30.467  34.627  1.00  0.00     0.049 A 
ATOM     62  H   UNL A   1      40.852  31.186  33.420  1.00  0.00     0.167 HD
ATOM     63  C   UNL A   1      42.426  28.945  32.667  1.00  0.00     0.074 A 
ATOM     64  C   UNL A   1      42.947  27.822  31.914  1.00  0.00     0.031 C 
ATOM     65  C   UNL A   1      42.916  29.352  33.863  1.00  0.00     0.031 A 
BRANCH  52  66
ATOM     66  C   UNL A   1      40.031  34.268  36.247  1.00  0.00    -0.014 A 
ATOM     67  C   UNL A   1      39.244  34.042  37.387  1.00  0.00     0.009 A 
ATOM     68  C   UNL A   1      40.735  35.476  36.133  1.00  0.00     0.009 A 
ATOM     69  C   UNL A   1      39.131  35.022  38.374  1.00  0.00     0.001 A 
ATOM     70  C   UNL A   1      40.641  36.444  37.135  1.00  0.00     0.001 A 
ATOM     71  C   UNL A   1      39.832  36.221  38.249  1.00  0.00     0.000 A 
ENDBRANCH  52  66
BRANCH  53  72
ATOM     72  C   UNL A   1      40.402  27.897  28.559  1.00  0.00    -0.014 A 
ATOM     73  C   UNL A   1      41.137  28.235  27.412  1.00  0.00     0.009 A 
ATOM     74  C   UNL A   1      39.739  26.661  28.603  1.00  0.00     0.009 A 
ATOM     75  C   UNL A   1      41.186  27.365  26.321  1.00  0.00     0.001 A 
ATOM     76  C   UNL A   1      39.808  25.783  27.518  1.00  0.00     0.001 A 
ATOM     77  C   UNL A   1      40.525  26.138  26.377  1.00  0.00     0.000 A 
ENDBRANCH  53  72
BRANCH  65  78
ATOM     78  C   UNL A   1      44.048  28.558  34.443  1.00  0.00    -0.014 A 
ATOM     79  C   UNL A   1      45.377  28.976  34.290  1.00  0.00     0.009 A 
ATOM     80  C   UNL A   1      43.772  27.405  35.194  1.00  0.00     0.009 A 
ATOM     81  C   UNL A   1      46.416  28.238  34.862  1.00  0.00     0.001 A 
ATOM     82  C   UNL A   1      44.810  26.682  35.782  1.00  0.00     0.001 A 
ATOM     83  C   UNL A   1      46.131  27.095  35.609  1.00  0.00     0.000 A 
ENDBRANCH  65  78
ENDBRANCH  39  40
ENDBRANCH  31  34
ENDBRANCH  29  30
ENDBRANCH  28  29
ENDBRANCH  27  28
ENDBRANCH  26  27
ENDBRANCH   3  26
TORSDOF 17
ENDMDL
MODEL 2
REMARK VINA RESULT:     -11.3      2.107      3.970
REMARK SMILES CCOc1ccc(NC(=O)CC2(CC(=O)NCCCCNC(=O)c3ccc(-c4c5nc(c(-c6ccccc6)c6ccc([nH]6)c(-c6ccccc6)c6nc(c(-c7ccccc7)c7ccc4[nH]7)C=C6)C=C5)cc3)CCCCC2)cc1
REMARK SMILES IDX 14 1 15 2 16 3 13 5 12 6 72 7 76 8 73 9 75 10 74 11 11 12
REMARK SMILES IDX 9 13 8 14 10 16 7 17 4 18 5 19 78 20 6 21 77 22 3 23 2 24
REMARK SMILES IDX 1 25 17 26 18 27 19 28 20 29 21 30 22 31 23 33 24 34 25 35
REMARK SMILES IDX 71 36 26 37 70 38 27 39 28 40 29 41 64 42 30 43 69 44 63 45
REMARK SMILES IDX 65 46 31 47 68 48 62 49 61 50 32 52 54 53 39 54 53 55 40 56
REMARK SMILES IDX 43 57 52 58 66 59 41 60 42 61 51 63 67 64 44 65 33 66 34 67
REMARK SMILES IDX 38 68 35 69 37 70 36 71 55 72 56 73 60 74 57 75 59 76 58 77
REMARK SMILES IDX 45 78 46 79 50 80 47 81 49 82 48 83
REMARK H PARENT 16 4 8 15 21 32 65 51 43 62
REMARK Flexibility Score: inf
ROOT
ATOM      1  C   UNL A   1      32.311  26.607  26.179  1.00  0.00     0.220 C 
ATOM      2  O   UNL A   1      31.381  26.197  26.879  1.00  0.00    -0.275 OA
ATOM      3  N   UNL A   1      32.140  27.828  25.613  1.00  0.00    -0.356 N 
ATOM      4  H   UNL A   1      31.438  27.930  24.931  1.00  0.00     0.163 HD
ENDROOT
BRANCH   1   5
ATOM      5  C   UNL A   1      33.585  25.779  26.060  1.00  0.00     0.107 C 
BRANCH   5   6
ATOM      6  C   UNL A   1      33.972  24.776  24.930  1.00  0.00    -0.012 C 
ATOM      7  C   UNL A   1      32.887  23.630  24.951  1.00  0.00     0.008 C 
ATOM      8  C   UNL A   1      35.302  24.033  25.174  1.00  0.00     0.008 C 
ATOM      9  C   UNL A   1      32.872  22.783  26.227  1.00  0.00     0.001 C 
ATOM     10  C   UNL A   1      35.342  23.284  26.510  1.00  0.00     0.001 C 
ATOM     11  C   UNL A   1      34.248  22.229  26.584  1.00  0.00     0.000 C 
BRANCH   6  12
ATOM     12  C   UNL A   1      33.898  25.353  23.479  1.00  0.00     0.108 C 
BRANCH  12  13
ATOM     13  C   UNL A   1      33.016  24.711  22.420  1.00  0.00     0.224 C 
ATOM     14  N   UNL A   1      31.733  25.091  22.155  1.00  0.00    -0.326 N 
ATOM     15  H   UNL A   1      31.285  24.529  21.482  1.00  0.00     0.169 HD
ATOM     16  O   UNL A   1      33.478  23.791  21.732  1.00  0.00    -0.275 OA
BRANCH  14  17
ATOM     17  C   UNL A   1      30.926  26.125  22.656  1.00  0.00     0.041 A 
ATOM     18  C   UNL A   1      28.836  27.875  23.261  1.00  0.00     0.119 A 
ATOM     19  C   UNL A   1      29.915  28.312  22.500  1.00  0.00     0.048 A 
ATOM     20  C   UNL A   1      28.863  26.611  23.840  1.00  0.00     0.048 A 
ATOM     21  C   UNL A   1      30.974  27.446  22.223  1.00  0.00     0.030 A 
ATOM     22  C   UNL A   1      29.930  25.748  23.566  1.00  0.00     0.030 A 
BRANCH  18  23
ATOM     23  O   UNL A   1      27.707  28.641  23.219  1.00  0.00    -0.494 OA
BRANCH  23  24
ATOM     24  C   UNL A   1      27.856  29.906  22.583  1.00  0.00     0.226 C 
ATOM     25  C   UNL A   1      27.603  31.047  23.551  1.00  0.00     0.049 C 
ENDBRANCH  23  24
ENDBRANCH  18  23
ENDBRANCH  14  17
ENDBRANCH  12  13
ENDBRANCH   6  12
ENDBRANCH   5   6
ENDBRANCH   1   5
BRANCH   3  26
ATOM     26  C   UNL A   1      32.930  28.984  25.957  1.00  0.00     0.116 C 
BRANCH  26  27
ATOM     27  C   UNL A   1      32.370  29.733  27.160  1.00  0.00     0.023 C 
BRANCH  27  28
ATOM     28  C   UNL A   1      32.013  31.192  26.915  1.00  0.00     0.023 C 
BRANCH  28  29
ATOM     29  C   UNL A   1      33.105  32.188  27.266  1.00  0.00     0.116 C 
BRANCH  29  30
ATOM     30  N   UNL A   1      32.617  33.499  27.674  1.00  0.00    -0.352 N 
ATOM     31  C   UNL A   1      33.221  34.403  28.520  1.00  0.00     0.251 C 
ATOM     32  H   UNL A   1      31.748  33.772  27.301  1.00  0.00     0.163 HD
ATOM     33  O   UNL A   1      32.696  35.461  28.807  1.00  0.00    -0.269 OA
BRANCH  31  34
ATOM     34  C   UNL A   1      34.510  34.010  29.116  1.00  0.00     0.039 A 
ATOM     35  C   UNL A   1      34.500  33.222  30.267  1.00  0.00     0.014 A 
ATOM     36  C   UNL A   1      35.699  34.290  28.436  1.00  0.00     0.014 A 
ATOM     37  C   UNL A   1      35.688  32.634  30.695  1.00  0.00     0.010 A 
ATOM     38  C   UNL A   1      36.859  33.633  28.814  1.00  0.00     0.010 A 
ATOM     39  C   UNL A   1      36.863  32.798  29.943  1.00  0.00    -0.014 A 
BRANCH  39  40
ATOM     40  C   UNL A   1      38.120  32.113  30.319  1.00  0.00     0.031 A 
ATOM     41  C   UNL A   1      39.063  32.782  31.275  1.00  0.00     0.074 A 
ATOM     42  C   UNL A   1      38.449  30.944  29.737  1.00  0.00     0.049 A 
ATOM     43  N   UNL A   1      40.260  32.412  31.649  1.00  0.00    -0.248 NA
ATOM     44  C   UNL A   1      38.615  34.059  31.858  1.00  0.00     0.031 C 
ATOM     45  C   UNL A   1      37.639  30.221  28.752  1.00  0.00     0.029 A 
ATOM     46  N   UNL A   1      39.564  30.159  29.889  1.00  0.00    -0.354 N 
ATOM     47  C   UNL A   1      40.720  33.426  32.478  1.00  0.00     0.074 A 
ATOM     48  C   UNL A   1      39.697  34.447  32.515  1.00  0.00     0.031 C 
ATOM     49  C   UNL A   1      38.270  29.084  28.414  1.00  0.00     0.029 A 
ATOM     50  C   UNL A   1      39.539  29.015  29.129  1.00  0.00     0.049 A 
ATOM     51  H   UNL A   1      40.310  30.394  30.486  1.00  0.00     0.167 HD
ATOM     52  C   UNL A   1      41.883  33.493  33.166  1.00  0.00     0.031 A 
ATOM     53  C   UNL A   1      40.443  28.022  29.025  1.00  0.00     0.031 A 
ATOM     54  C   UNL A   1      42.878  32.459  33.162  1.00  0.00     0.049 A 
ATOM     55  C   UNL A   1      41.707  28.098  29.833  1.00  0.00     0.074 A 
ATOM     56  C   UNL A   1      44.060  32.396  33.876  1.00  0.00     0.029 A 
ATOM     57  N   UNL A   1      42.796  31.295  32.414  1.00  0.00    -0.354 N 
ATOM     58  N   UNL A   1      42.106  29.040  30.654  1.00  0.00    -0.248 NA
ATOM     59  C   UNL A   1      42.640  26.970  29.707  1.00  0.00     0.031 C 
ATOM     60  C   UNL A   1      44.708  31.202  33.540  1.00  0.00     0.029 A 
ATOM     61  C   UNL A   1      43.909  30.509  32.643  1.00  0.00     0.049 A 
ATOM     62  H   UNL A   1      42.055  31.064  31.807  1.00  0.00     0.167 HD
ATOM     63  C   UNL A   1      43.324  28.607  31.161  1.00  0.00     0.074 A 
ATOM     64  C   UNL A   1      43.592  27.314  30.564  1.00  0.00     0.031 C 
ATOM     65  C   UNL A   1      44.147  29.223  32.042  1.00  0.00     0.031 A 
BRANCH  52  66
ATOM     66  C   UNL A   1      42.124  34.731  33.980  1.00  0.00    -0.014 A 
ATOM     67  C   UNL A   1      41.735  34.799  35.327  1.00  0.00     0.009 A 
ATOM     68  C   UNL A   1      42.743  35.843  33.391  1.00  0.00     0.009 A 
ATOM     69  C   UNL A   1      41.923  35.974  36.058  1.00  0.00     0.001 A 
ATOM     70  C   UNL A   1      42.954  37.007  34.133  1.00  0.00     0.001 A 
ATOM     71  C   UNL A   1      42.535  37.075  35.462  1.00  0.00     0.000 A 
ENDBRANCH  52  66
BRANCH  53  72
ATOM     72  C   UNL A   1      40.170  26.853  28.152  1.00  0.00    -0.014 A 
ATOM     73  C   UNL A   1      39.405  25.779  28.631  1.00  0.00     0.009 A 
ATOM     74  C   UNL A   1      40.673  26.801  26.843  1.00  0.00     0.009 A 
ATOM     75  C   UNL A   1      39.170  24.662  27.825  1.00  0.00     0.001 A 
ATOM     76  C   UNL A   1      40.418  25.692  26.032  1.00  0.00     0.001 A 
ATOM     77  C   UNL A   1      39.673  24.622  26.525  1.00  0.00     0.000 A 
ENDBRANCH  53  72
BRANCH  65  78
ATOM     78  C   UNL A   1      45.395  28.492  32.437  1.00  0.00    -0.014 A 
ATOM     79  C   UNL A   1      45.396  27.590  33.510  1.00  0.00     0.009 A 
ATOM     80  C   UNL A   1      46.569  28.672  31.690  1.00  0.00     0.009 A 
ATOM     81  C   UNL A   1      46.561  26.897  33.845  1.00  0.00     0.001 A 
ATOM     82  C   UNL A   1      47.727  27.963  32.014  1.00  0.00     0.001 A 
ATOM     83  C   UNL A   1      47.723  27.082  33.095  1.00  0.00     0.000 A 
ENDBRANCH  65  78
ENDBRANCH  39  40
ENDBRANCH  31  34
ENDBRANCH  29  30
ENDBRANCH  28  29
ENDBRANCH  27  28
ENDBRANCH  26  27
ENDBRANCH   3  26
TORSDOF 17
ENDMDL
MODEL 3
REMARK VINA RESULT:     -11.2      3.531      6.153
REMARK SMILES CCOc1ccc(NC(=O)CC2(CC(=O)NCCCCNC(=O)c3ccc(-c4c5nc(c(-c6ccccc6)c6ccc([nH]6)c(-c6ccccc6)c6nc(c(-c7ccccc7)c7ccc4[nH]7)C=C6)C=C5)cc3)CCCCC2)cc1
REMARK SMILES IDX 14 1 15 2 16 3 13 5 12 6 72 7 76 8 73 9 75 10 74 11 11 12
REMARK SMILES IDX 9 13 8 14 10 16 7 17 4 18 5 19 78 20 6 21 77 22 3 23 2 24
REMARK SMILES IDX 1 25 17 26 18 27 19 28 20 29 21 30 22 31 23 33 24 34 25 35
REMARK SMILES IDX 71 36 26 37 70 38 27 39 28 40 29 41 64 42 30 43 69 44 63 45
REMARK SMILES IDX 65 46 31 47 68 48 62 49 61 50 32 52 54 53 39 54 53 55 40 56
REMARK SMILES IDX 43 57 52 58 66 59 41 60 42 61 51 63 67 64 44 65 33 66 34 67
REMARK SMILES IDX 38 68 35 69 37 70 36 71 55 72 56 73 60 74 57 75 59 76 58 77
REMARK SMILES IDX 45 78 46 79 50 80 47 81 49 82 48 83
REMARK H PARENT 16 4 8 15 21 32 65 51 43 62
REMARK Flexibility Score: inf
ROOT
ATOM      1  C   UNL A   1      31.070  24.225  26.319  1.00  0.00     0.220 C 
ATOM      2  O   UNL A   1      31.427  23.669  27.362  1.00  0.00    -0.275 OA
ATOM      3  N   UNL A   1      30.357  25.369  26.466  1.00  0.00    -0.356 N 
ATOM      4  H   UNL A   1      29.461  25.312  26.870  1.00  0.00     0.163 HD
ENDROOT
BRANCH   1   5
ATOM      5  C   UNL A   1      31.503  23.653  24.976  1.00  0.00     0.107 C 
BRANCH   5   6
ATOM      6  C   UNL A   1      32.493  24.277  23.944  1.00  0.00    -0.012 C 
ATOM      7  C   UNL A   1      33.224  23.072  23.233  1.00  0.00     0.008 C 
ATOM      8  C   UNL A   1      33.642  25.085  24.582  1.00  0.00     0.008 C 
ATOM      9  C   UNL A   1      34.111  22.227  24.152  1.00  0.00     0.001 C 
ATOM     10  C   UNL A   1      34.459  24.281  25.598  1.00  0.00     0.001 C 
ATOM     11  C   UNL A   1      35.105  23.066  24.949  1.00  0.00     0.000 C 
BRANCH   6  12
ATOM     12  C   UNL A   1      31.820  25.065  22.775  1.00  0.00     0.108 C 
BRANCH  12  13
ATOM     13  C   UNL A   1      32.569  26.157  22.026  1.00  0.00     0.224 C 
ATOM     14  N   UNL A   1      32.230  27.478  22.053  1.00  0.00    -0.326 N 
ATOM     15  H   UNL A   1      32.782  28.040  21.463  1.00  0.00     0.169 HD
ATOM     16  O   UNL A   1      33.561  25.850  21.354  1.00  0.00    -0.275 OA
BRANCH  14  17
ATOM     17  C   UNL A   1      31.248  28.193  22.758  1.00  0.00     0.041 A 
ATOM     18  C   UNL A   1      29.195  29.916  23.541  1.00  0.00     0.119 A 
ATOM     19  C   UNL A   1      30.489  30.110  24.013  1.00  0.00     0.048 A 
ATOM     20  C   UNL A   1      28.893  28.783  22.793  1.00  0.00     0.048 A 
ATOM     21  C   UNL A   1      31.509  29.231  23.645  1.00  0.00     0.030 A 
ATOM     22  C   UNL A   1      29.917  27.900  22.433  1.00  0.00     0.030 A 
BRANCH  18  23
ATOM     23  O   UNL A   1      28.335  30.969  23.662  1.00  0.00    -0.494 OA
BRANCH  23  24
ATOM     24  C   UNL A   1      28.827  32.213  23.175  1.00  0.00     0.226 C 
ATOM     25  C   UNL A   1      28.279  32.524  21.794  1.00  0.00     0.049 C 
ENDBRANCH  23  24
ENDBRANCH  18  23
ENDBRANCH  14  17
ENDBRANCH  12  13
ENDBRANCH   6  12
ENDBRANCH   5   6
ENDBRANCH   1   5
BRANCH   3  26
ATOM     26  C   UNL A   1      30.840  26.667  26.063  1.00  0.00     0.116 C 
BRANCH  26  27
ATOM     27  C   UNL A   1      31.940  27.188  26.980  1.00  0.00     0.023 C 
BRANCH  27  28
ATOM     28  C   UNL A   1      32.149  28.695  26.963  1.00  0.00     0.023 C 
BRANCH  28  29
ATOM     29  C   UNL A   1      33.552  29.153  27.320  1.00  0.00     0.116 C 
BRANCH  29  30
ATOM     30  N   UNL A   1      33.618  30.472  27.936  1.00  0.00    -0.352 N 
ATOM     31  C   UNL A   1      34.697  31.070  28.548  1.00  0.00     0.251 C 
ATOM     32  H   UNL A   1      32.787  31.002  27.914  1.00  0.00     0.163 HD
ATOM     33  O   UNL A   1      34.617  32.173  29.053  1.00  0.00    -0.269 OA
BRANCH  31  34
ATOM     34  C   UNL A   1      35.946  30.291  28.622  1.00  0.00     0.039 A 
ATOM     35  C   UNL A   1      36.810  30.313  27.527  1.00  0.00     0.014 A 
ATOM     36  C   UNL A   1      36.314  29.689  29.828  1.00  0.00     0.014 A 
ATOM     37  C   UNL A   1      38.097  29.800  27.671  1.00  0.00     0.010 A 
ATOM     38  C   UNL A   1      37.622  29.260  29.993  1.00  0.00     0.010 A 
ATOM     39  C   UNL A   1      38.524  29.315  28.918  1.00  0.00    -0.014 A 
BRANCH  39  40
ATOM     40  C   UNL A   1      39.912  28.847  29.128  1.00  0.00     0.031 A 
ATOM     41  C   UNL A   1      40.921  29.784  29.725  1.00  0.00     0.074 A 
ATOM     42  C   UNL A   1      40.280  27.623  28.705  1.00  0.00     0.049 A 
ATOM     43  N   UNL A   1      42.207  29.616  29.890  1.00  0.00    -0.248 NA
ATOM     44  C   UNL A   1      40.423  31.102  30.155  1.00  0.00     0.031 C 
ATOM     45  C   UNL A   1      39.403  26.640  28.062  1.00  0.00     0.029 A 
ATOM     46  N   UNL A   1      41.501  26.998  28.749  1.00  0.00    -0.354 N 
ATOM     47  C   UNL A   1      42.674  30.816  30.408  1.00  0.00     0.074 A 
ATOM     48  C   UNL A   1      41.547  31.719  30.484  1.00  0.00     0.031 C 
ATOM     49  C   UNL A   1      40.107  25.526  27.802  1.00  0.00     0.029 A 
ATOM     50  C   UNL A   1      41.488  25.727  28.227  1.00  0.00     0.049 A 
ATOM     51  H   UNL A   1      42.309  27.420  29.119  1.00  0.00     0.167 HD
ATOM     52  C   UNL A   1      43.928  31.134  30.806  1.00  0.00     0.031 A 
ATOM     53  C   UNL A   1      42.482  24.828  28.107  1.00  0.00     0.031 A 
ATOM     54  C   UNL A   1      45.036  30.223  30.770  1.00  0.00     0.049 A 
ATOM     55  C   UNL A   1      43.856  25.187  28.597  1.00  0.00     0.074 A 
ATOM     56  C   UNL A   1      46.332  30.421  31.211  1.00  0.00     0.029 A 
ATOM     57  N   UNL A   1      44.972  28.930  30.275  1.00  0.00    -0.354 N 
ATOM     58  N   UNL A   1      44.272  26.310  29.132  1.00  0.00    -0.248 NA
ATOM     59  C   UNL A   1      44.893  24.154  28.474  1.00  0.00     0.031 C 
ATOM     60  C   UNL A   1      47.060  29.253  30.960  1.00  0.00     0.029 A 
ATOM     61  C   UNL A   1      46.206  28.319  30.394  1.00  0.00     0.049 A 
ATOM     62  H   UNL A   1      44.167  28.510  29.893  1.00  0.00     0.167 HD
ATOM     63  C   UNL A   1      45.613  26.109  29.433  1.00  0.00     0.074 A 
ATOM     64  C   UNL A   1      45.936  24.756  29.030  1.00  0.00     0.031 C 
ATOM     65  C   UNL A   1      46.498  26.968  29.992  1.00  0.00     0.031 A 
BRANCH  52  66
ATOM     66  C   UNL A   1      44.149  32.528  31.316  1.00  0.00    -0.014 A 
ATOM     67  C   UNL A   1      44.027  32.827  32.683  1.00  0.00     0.009 A 
ATOM     68  C   UNL A   1      44.479  33.556  30.420  1.00  0.00     0.009 A 
ATOM     69  C   UNL A   1      44.190  34.137  33.137  1.00  0.00     0.001 A 
ATOM     70  C   UNL A   1      44.667  34.860  30.881  1.00  0.00     0.001 A 
ATOM     71  C   UNL A   1      44.512  35.151  32.236  1.00  0.00     0.000 A 
ENDBRANCH  52  66
BRANCH  53  72
ATOM     72  C   UNL A   1      42.209  23.486  27.534  1.00  0.00    -0.014 A 
ATOM     73  C   UNL A   1      41.712  22.458  28.351  1.00  0.00     0.009 A 
ATOM     74  C   UNL A   1      42.446  23.222  26.176  1.00  0.00     0.009 A 
ATOM     75  C   UNL A   1      41.482  21.184  27.825  1.00  0.00     0.001 A 
ATOM     76  C   UNL A   1      42.193  21.953  25.649  1.00  0.00     0.001 A 
ATOM     77  C   UNL A   1      41.719  20.935  26.474  1.00  0.00     0.000 A 
ENDBRANCH  53  72
BRANCH  65  78
ATOM     78  C   UNL A   1      47.887  26.457  30.231  1.00  0.00    -0.014 A 
ATOM     79  C   UNL A   1      48.226  25.815  31.430  1.00  0.00     0.009 A 
ATOM     80  C   UNL A   1      48.853  26.577  29.220  1.00  0.00     0.009 A 
ATOM     81  C   UNL A   1      49.517  25.321  31.623  1.00  0.00     0.001 A 
ATOM     82  C   UNL A   1      50.137  26.064  29.407  1.00  0.00     0.001 A 
ATOM     83  C   UNL A   1      50.469  25.443  30.610  1.00  0.00     0.000 A 
ENDBRANCH  65  78
ENDBRANCH  39  40
ENDBRANCH  31  34
ENDBRANCH  29  30
ENDBRANCH  28  29
ENDBRANCH  27  28
ENDBRANCH  26  27
ENDBRANCH   3  26
TORSDOF 17
ENDMDL
