MODEL 1
REMARK VINA RESULT:     -11.5      0.000      0.000
REMARK SMILES Cc1cc(Cl)cc2c1O[C@H](C(F)(F)F)C(C(=O)NCCCCNC(=O)c1ccc(-c3c4nc(c(-c5ccccc5)c5ccc([nH]5)c(-c5ccccc5)c5nc(c(-c6ccccc6)c6ccc3[nH]6)C=C5)C=C4)cc1)=C2
REMARK SMILES IDX 21 1 20 2 19 3 18 4 16 5 17 6 15 8 1 9 2 10 3 11 8 12 4 13
REMARK SMILES IDX 7 14 9 15 5 16 6 17 74 18 10 19 11 20 12 21 13 22 14 23
REMARK SMILES IDX 22 24 23 25 24 26 25 28 26 29 27 30 73 31 28 32 72 33 29 34
REMARK SMILES IDX 30 35 31 36 66 37 32 38 71 39 65 40 67 41 33 42 70 43 64 44
REMARK SMILES IDX 63 45 34 47 56 48 41 49 55 50 42 51 45 52 54 53 68 54 43 55
REMARK SMILES IDX 44 56 53 58 69 59 46 60 35 61 36 62 40 63 37 64 39 65 38 66
REMARK SMILES IDX 57 67 58 68 62 69 59 70 61 71 60 72 47 73 48 74 52 75 49 76
REMARK SMILES IDX 51 77 50 78
REMARK H PARENT 18 7 23 27 67 46 45 57
REMARK Flexibility Score: inf
ROOT
ATOM      1  C   UNL A   1      33.729  28.578  25.702  1.00  0.00     0.023 C 
ENDROOT
BRANCH   1   2
ATOM      2  C   UNL A   1      32.421  28.879  24.970  1.00  0.00     0.023 C 
BRANCH   2   3
ATOM      3  C   UNL A   1      31.762  27.651  24.348  1.00  0.00     0.116 C 
BRANCH   3   4
ATOM      4  N   UNL A   1      30.896  26.966  25.289  1.00  0.00    -0.352 N 
ATOM      5  C   UNL A   1      30.825  25.735  25.845  1.00  0.00     0.251 C 
ATOM      6  O   UNL A   1      29.877  25.565  26.620  1.00  0.00    -0.270 OA
ATOM      7  H   UNL A   1      30.170  27.551  25.605  1.00  0.00     0.163 HD
BRANCH   5   8
ATOM      8  C   UNL A   1      31.780  24.617  25.591  1.00  0.00     0.067 C 
ATOM      9  C   UNL A   1      34.132  20.100  24.774  1.00  0.00     0.048 C 
ATOM     10  C   UNL A   1      34.565  21.493  25.131  1.00  0.00    -0.007 A 
ATOM     11  C   UNL A   1      35.928  21.771  25.307  1.00  0.00     0.027 A 
ATOM     12  C   UNL A   1      33.636  22.522  25.346  1.00  0.00     0.131 A 
ATOM     13  C   UNL A   1      36.343  23.052  25.673  1.00  0.00     0.042 A 
ATOM     14  C   UNL A   1      34.053  23.806  25.718  1.00  0.00     0.019 A 
ATOM     15  O   UNL A   1      32.310  22.212  25.228  1.00  0.00    -0.475 OA
ATOM     16  Cl  UNL A   1      38.021  23.374  25.881  1.00  0.00    -0.084 Cl
ATOM     17  C   UNL A   1      35.415  24.070  25.881  1.00  0.00     0.032 A 
ATOM     18  C   UNL A   1      33.053  24.839  25.968  1.00  0.00     0.025 C 
ATOM     19  C   UNL A   1      31.419  23.320  24.923  1.00  0.00     0.314 C 
BRANCH  19  20
ATOM     20  C   UNL A   1      31.271  23.457  23.395  1.00  0.00     0.429 C 
ATOM     21  F   UNL A   1      31.616  22.298  22.781  1.00  0.00    -0.167 F 
ATOM     22  F   UNL A   1      29.997  23.723  23.022  1.00  0.00    -0.167 F 
ATOM     23  F   UNL A   1      32.045  24.437  22.879  1.00  0.00    -0.167 F 
ENDBRANCH  19  20
ENDBRANCH   5   8
ENDBRANCH   3   4
ENDBRANCH   2   3
ENDBRANCH   1   2
BRANCH   1  24
ATOM     24  C   UNL A   1      33.670  28.703  27.223  1.00  0.00     0.116 C 
BRANCH  24  25
ATOM     25  N   UNL A   1      33.651  30.079  27.702  1.00  0.00    -0.352 N 
ATOM     26  C   UNL A   1      34.673  30.780  28.297  1.00  0.00     0.251 C 
ATOM     27  H   UNL A   1      32.804  30.566  27.587  1.00  0.00     0.163 HD
ATOM     28  O   UNL A   1      34.504  31.919  28.714  1.00  0.00    -0.269 OA
BRANCH  26  29
ATOM     29  C   UNL A   1      35.971  30.104  28.469  1.00  0.00     0.039 A 
ATOM     30  C   UNL A   1      36.896  30.158  27.427  1.00  0.00     0.014 A 
ATOM     31  C   UNL A   1      36.298  29.519  29.695  1.00  0.00     0.014 A 
ATOM     32  C   UNL A   1      38.190  29.689  27.642  1.00  0.00     0.010 A 
ATOM     33  C   UNL A   1      37.606  29.111  29.928  1.00  0.00     0.010 A 
ATOM     34  C   UNL A   1      38.563  29.198  28.905  1.00  0.00    -0.014 A 
BRANCH  34  35
ATOM     35  C   UNL A   1      39.959  28.780  29.167  1.00  0.00     0.031 A 
ATOM     36  C   UNL A   1      40.421  27.413  28.756  1.00  0.00     0.074 A 
ATOM     37  C   UNL A   1      40.797  29.621  29.802  1.00  0.00     0.049 A 
ATOM     38  N   UNL A   1      41.610  26.880  28.871  1.00  0.00    -0.248 NA
ATOM     39  C   UNL A   1      39.415  26.522  28.156  1.00  0.00     0.031 C 
ATOM     40  C   UNL A   1      40.448  30.957  30.292  1.00  0.00     0.029 A 
ATOM     41  N   UNL A   1      42.121  29.480  30.132  1.00  0.00    -0.354 N 
ATOM     42  C   UNL A   1      41.494  25.596  28.363  1.00  0.00     0.074 A 
ATOM     43  C   UNL A   1      40.110  25.405  27.991  1.00  0.00     0.031 C 
ATOM     44  C   UNL A   1      41.544  31.531  30.818  1.00  0.00     0.029 A 
ATOM     45  C   UNL A   1      42.661  30.596  30.724  1.00  0.00     0.049 A 
ATOM     46  H   UNL A   1      42.634  28.658  29.962  1.00  0.00     0.167 HD
ATOM     47  C   UNL A   1      42.460  24.665  28.191  1.00  0.00     0.031 A 
ATOM     48  C   UNL A   1      43.921  30.843  31.128  1.00  0.00     0.031 A 
ATOM     49  C   UNL A   1      43.839  24.859  28.538  1.00  0.00     0.049 A 
ATOM     50  C   UNL A   1      44.974  29.788  30.941  1.00  0.00     0.074 A 
ATOM     51  C   UNL A   1      44.907  24.004  28.336  1.00  0.00     0.029 A 
ATOM     52  N   UNL A   1      44.339  25.991  29.161  1.00  0.00    -0.354 N 
ATOM     53  N   UNL A   1      44.864  28.606  30.386  1.00  0.00    -0.248 NA
ATOM     54  C   UNL A   1      46.324  30.103  31.433  1.00  0.00     0.031 C 
ATOM     55  C   UNL A   1      46.051  24.605  28.871  1.00  0.00     0.029 A 
ATOM     56  C   UNL A   1      45.698  25.848  29.374  1.00  0.00     0.049 A 
ATOM     57  H   UNL A   1      43.807  26.780  29.413  1.00  0.00     0.167 HD
ATOM     58  C   UNL A   1      46.130  28.041  30.448  1.00  0.00     0.074 A 
ATOM     59  C   UNL A   1      46.996  29.013  31.084  1.00  0.00     0.031 C 
ATOM     60  C   UNL A   1      46.538  26.824  30.015  1.00  0.00     0.031 A 
BRANCH  47  61
ATOM     61  C   UNL A   1      42.051  23.357  27.579  1.00  0.00    -0.014 A 
ATOM     62  C   UNL A   1      42.208  23.129  26.203  1.00  0.00     0.009 A 
ATOM     63  C   UNL A   1      41.529  22.337  28.386  1.00  0.00     0.009 A 
ATOM     64  C   UNL A   1      41.818  21.913  25.641  1.00  0.00     0.001 A 
ATOM     65  C   UNL A   1      41.160  21.114  27.824  1.00  0.00     0.001 A 
ATOM     66  C   UNL A   1      41.297  20.905  26.452  1.00  0.00     0.000 A 
ENDBRANCH  47  61
BRANCH  48  67
ATOM     67  C   UNL A   1      44.266  32.166  31.706  1.00  0.00    -0.014 A 
ATOM     68  C   UNL A   1      44.171  32.374  33.090  1.00  0.00     0.009 A 
ATOM     69  C   UNL A   1      44.704  33.217  30.887  1.00  0.00     0.009 A 
ATOM     70  C   UNL A   1      44.496  33.615  33.642  1.00  0.00     0.001 A 
ATOM     71  C   UNL A   1      45.045  34.451  31.445  1.00  0.00     0.001 A 
ATOM     72  C   UNL A   1      44.937  34.651  32.821  1.00  0.00     0.000 A 
ENDBRANCH  48  67
BRANCH  60  73
ATOM     73  C   UNL A   1      47.981  26.468  30.208  1.00  0.00    -0.014 A 
ATOM     74  C   UNL A   1      48.401  25.794  31.365  1.00  0.00     0.009 A 
ATOM     75  C   UNL A   1      48.908  26.724  29.187  1.00  0.00     0.009 A 
ATOM     76  C   UNL A   1      49.730  25.388  31.496  1.00  0.00     0.001 A 
ATOM     77  C   UNL A   1      50.231  26.301  29.314  1.00  0.00     0.001 A 
ATOM     78  C   UNL A   1      50.641  25.634  30.469  1.00  0.00     0.000 A 
ENDBRANCH  60  73
ENDBRANCH  34  35
ENDBRANCH  26  29
ENDBRANCH  24  25
ENDBRANCH   1  24
TORSDOF 12
ENDMDL
MODEL 2
REMARK VINA RESULT:     -11.4      2.632      7.602
REMARK SMILES Cc1cc(Cl)cc2c1O[C@H](C(F)(F)F)C(C(=O)NCCCCNC(=O)c1ccc(-c3c4nc(c(-c5ccccc5)c5ccc([nH]5)c(-c5ccccc5)c5nc(c(-c6ccccc6)c6ccc3[nH]6)C=C5)C=C4)cc1)=C2
REMARK SMILES IDX 21 1 20 2 19 3 18 4 16 5 17 6 15 8 1 9 2 10 3 11 8 12 4 13
REMARK SMILES IDX 7 14 9 15 5 16 6 17 74 18 10 19 11 20 12 21 13 22 14 23
REMARK SMILES IDX 22 24 23 25 24 26 25 28 26 29 27 30 73 31 28 32 72 33 29 34
REMARK SMILES IDX 30 35 31 36 66 37 32 38 71 39 65 40 67 41 33 42 70 43 64 44
REMARK SMILES IDX 63 45 34 47 56 48 41 49 55 50 42 51 45 52 54 53 68 54 43 55
REMARK SMILES IDX 44 56 53 58 69 59 46 60 35 61 36 62 40 63 37 64 39 65 38 66
REMARK SMILES IDX 57 67 58 68 62 69 59 70 61 71 60 72 47 73 48 74 52 75 49 76
REMARK SMILES IDX 51 77 50 78
REMARK H PARENT 18 7 23 27 67 46 45 57
REMARK Flexibility Score: inf
ROOT
ATOM      1  C   UNL A   1      35.881  23.401  26.073  1.00  0.00     0.023 C 
ENDROOT
BRANCH   1   2
ATOM      2  C   UNL A   1      35.088  22.107  25.883  1.00  0.00     0.023 C 
BRANCH   2   3
ATOM      3  C   UNL A   1      33.760  22.293  25.155  1.00  0.00     0.116 C 
BRANCH   3   4
ATOM      4  N   UNL A   1      33.952  22.612  23.753  1.00  0.00    -0.352 N 
ATOM      5  C   UNL A   1      33.713  23.669  22.942  1.00  0.00     0.251 C 
ATOM      6  O   UNL A   1      34.033  23.503  21.760  1.00  0.00    -0.270 OA
ATOM      7  H   UNL A   1      34.363  21.864  23.264  1.00  0.00     0.163 HD
BRANCH   5   8
ATOM      8  C   UNL A   1      33.111  24.966  23.369  1.00  0.00     0.067 C 
ATOM      9  C   UNL A   1      30.464  29.366  23.849  1.00  0.00     0.048 C 
ATOM     10  C   UNL A   1      31.657  28.747  24.518  1.00  0.00    -0.007 A 
ATOM     11  C   UNL A   1      32.301  29.431  25.558  1.00  0.00     0.027 A 
ATOM     12  C   UNL A   1      32.183  27.516  24.097  1.00  0.00     0.131 A 
ATOM     13  C   UNL A   1      33.431  28.885  26.166  1.00  0.00     0.042 A 
ATOM     14  C   UNL A   1      33.320  26.970  24.704  1.00  0.00     0.019 A 
ATOM     15  O   UNL A   1      31.573  26.896  23.041  1.00  0.00    -0.475 OA
ATOM     16  Cl  UNL A   1      34.206  29.740  27.443  1.00  0.00    -0.084 Cl
ATOM     17  C   UNL A   1      33.946  27.660  25.745  1.00  0.00     0.032 A 
ATOM     18  C   UNL A   1      33.856  25.705  24.213  1.00  0.00     0.025 C 
ATOM     19  C   UNL A   1      31.752  25.455  22.957  1.00  0.00     0.314 C 
BRANCH  19  20
ATOM     20  C   UNL A   1      30.610  24.749  23.714  1.00  0.00     0.429 C 
ATOM     21  F   UNL A   1      29.521  25.555  23.784  1.00  0.00    -0.167 F 
ATOM     22  F   UNL A   1      30.206  23.614  23.096  1.00  0.00    -0.167 F 
ATOM     23  F   UNL A   1      30.948  24.411  24.978  1.00  0.00    -0.167 F 
ENDBRANCH  19  20
ENDBRANCH   5   8
ENDBRANCH   3   4
ENDBRANCH   2   3
ENDBRANCH   1   2
BRANCH   1  24
ATOM     24  C   UNL A   1      37.102  23.557  25.170  1.00  0.00     0.116 C 
BRANCH  24  25
ATOM     25  N   UNL A   1      38.192  22.644  25.486  1.00  0.00    -0.352 N 
ATOM     26  C   UNL A   1      39.321  22.902  26.226  1.00  0.00     0.251 C 
ATOM     27  H   UNL A   1      38.110  21.731  25.127  1.00  0.00     0.163 HD
ATOM     28  O   UNL A   1      40.197  22.057  26.364  1.00  0.00    -0.269 OA
BRANCH  26  29
ATOM     29  C   UNL A   1      39.478  24.245  26.810  1.00  0.00     0.039 A 
ATOM     30  C   UNL A   1      39.008  24.471  28.103  1.00  0.00     0.014 A 
ATOM     31  C   UNL A   1      40.182  25.232  26.115  1.00  0.00     0.014 A 
ATOM     32  C   UNL A   1      39.313  25.674  28.736  1.00  0.00     0.010 A 
ATOM     33  C   UNL A   1      40.540  26.404  26.771  1.00  0.00     0.010 A 
ATOM     34  C   UNL A   1      40.113  26.630  28.088  1.00  0.00    -0.014 A 
BRANCH  34  35
ATOM     35  C   UNL A   1      40.515  27.872  28.787  1.00  0.00     0.031 A 
ATOM     36  C   UNL A   1      39.541  29.005  28.923  1.00  0.00     0.074 A 
ATOM     37  C   UNL A   1      41.767  27.987  29.271  1.00  0.00     0.049 A 
ATOM     38  N   UNL A   1      39.699  30.154  29.527  1.00  0.00    -0.248 NA
ATOM     39  C   UNL A   1      38.228  28.834  28.282  1.00  0.00     0.031 C 
ATOM     40  C   UNL A   1      42.818  26.972  29.158  1.00  0.00     0.029 A 
ATOM     41  N   UNL A   1      42.363  29.008  29.967  1.00  0.00    -0.354 N 
ATOM     42  C   UNL A   1      38.510  30.842  29.336  1.00  0.00     0.074 A 
ATOM     43  C   UNL A   1      37.661  30.010  28.513  1.00  0.00     0.031 C 
ATOM     44  C   UNL A   1      43.914  27.402  29.805  1.00  0.00     0.029 A 
ATOM     45  C   UNL A   1      43.652  28.728  30.355  1.00  0.00     0.049 A 
ATOM     46  H   UNL A   1      41.912  29.858  30.170  1.00  0.00     0.167 HD
ATOM     47  C   UNL A   1      38.143  32.048  29.828  1.00  0.00     0.031 A 
ATOM     48  C   UNL A   1      44.516  29.454  31.088  1.00  0.00     0.031 A 
ATOM     49  C   UNL A   1      38.975  32.866  30.663  1.00  0.00     0.049 A 
ATOM     50  C   UNL A   1      44.093  30.797  31.610  1.00  0.00     0.074 A 
ATOM     51  C   UNL A   1      38.668  34.069  31.270  1.00  0.00     0.029 A 
ATOM     52  N   UNL A   1      40.283  32.560  31.007  1.00  0.00    -0.354 N 
ATOM     53  N   UNL A   1      42.935  31.400  31.485  1.00  0.00    -0.248 NA
ATOM     54  C   UNL A   1      45.092  31.558  32.374  1.00  0.00     0.031 C 
ATOM     55  C   UNL A   1      39.804  34.512  31.955  1.00  0.00     0.029 A 
ATOM     56  C   UNL A   1      40.805  33.566  31.800  1.00  0.00     0.049 A 
ATOM     57  H   UNL A   1      40.766  31.749  30.730  1.00  0.00     0.167 HD
ATOM     58  C   UNL A   1      43.060  32.602  32.166  1.00  0.00     0.074 A 
ATOM     59  C   UNL A   1      44.402  32.640  32.712  1.00  0.00     0.031 C 
ATOM     60  C   UNL A   1      42.144  33.586  32.326  1.00  0.00     0.031 A 
BRANCH  47  61
ATOM     61  C   UNL A   1      36.768  32.538  29.483  1.00  0.00    -0.014 A 
ATOM     62  C   UNL A   1      35.682  32.286  30.336  1.00  0.00     0.009 A 
ATOM     63  C   UNL A   1      36.559  33.280  28.311  1.00  0.00     0.009 A 
ATOM     64  C   UNL A   1      34.404  32.740  30.004  1.00  0.00     0.001 A 
ATOM     65  C   UNL A   1      35.284  33.751  27.995  1.00  0.00     0.001 A 
ATOM     66  C   UNL A   1      34.207  33.474  28.836  1.00  0.00     0.000 A 
ENDBRANCH  47  61
BRANCH  48  67
ATOM     67  C   UNL A   1      45.855  28.902  31.411  1.00  0.00    -0.014 A 
ATOM     68  C   UNL A   1      46.039  28.140  32.575  1.00  0.00     0.009 A 
ATOM     69  C   UNL A   1      46.948  29.118  30.559  1.00  0.00     0.009 A 
ATOM     70  C   UNL A   1      47.296  27.615  32.884  1.00  0.00     0.001 A 
ATOM     71  C   UNL A   1      48.199  28.577  30.863  1.00  0.00     0.001 A 
ATOM     72  C   UNL A   1      48.373  27.830  32.028  1.00  0.00     0.000 A 
ENDBRANCH  48  67
BRANCH  60  73
ATOM     73  C   UNL A   1      42.551  34.789  33.122  1.00  0.00    -0.014 A 
ATOM     74  C   UNL A   1      43.159  35.888  32.495  1.00  0.00     0.009 A 
ATOM     75  C   UNL A   1      42.240  34.864  34.488  1.00  0.00     0.009 A 
ATOM     76  C   UNL A   1      43.453  37.039  33.227  1.00  0.00     0.001 A 
ATOM     77  C   UNL A   1      42.520  36.022  35.211  1.00  0.00     0.001 A 
ATOM     78  C   UNL A   1      43.127  37.109  34.582  1.00  0.00     0.000 A 
ENDBRANCH  60  73
ENDBRANCH  34  35
ENDBRANCH  26  29
ENDBRANCH  24  25
ENDBRANCH   1  24
TORSDOF 12
ENDMDL
MODEL 3
REMARK VINA RESULT:     -11.4      2.774      7.361
REMARK SMILES Cc1cc(Cl)cc2c1O[C@H](C(F)(F)F)C(C(=O)NCCCCNC(=O)c1ccc(-c3c4nc(c(-c5ccccc5)c5ccc([nH]5)c(-c5ccccc5)c5nc(c(-c6ccccc6)c6ccc3[nH]6)C=C5)C=C4)cc1)=C2
REMARK SMILES IDX 21 1 20 2 19 3 18 4 16 5 17 6 15 8 1 9 2 10 3 11 8 12 4 13
REMARK SMILES IDX 7 14 9 15 5 16 6 17 74 18 10 19 11 20 12 21 13 22 14 23
REMARK SMILES IDX 22 24 23 25 24 26 25 28 26 29 27 30 73 31 28 32 72 33 29 34
REMARK SMILES IDX 30 35 31 36 66 37 32 38 71 39 65 40 67 41 33 42 70 43 64 44
REMARK SMILES IDX 63 45 34 47 56 48 41 49 55 50 42 51 45 52 54 53 68 54 43 55
REMARK SMILES IDX 44 56 53 58 69 59 46 60 35 61 36 62 40 63 37 64 39 65 38 66
REMARK SMILES IDX 57 67 58 68 62 69 59 70 61 71 60 72 47 73 48 74 52 75 49 76
REMARK SMILES IDX 51 77 50 78
REMARK H PARENT 18 7 23 27 67 46 45 57
REMARK Flexibility Score: inf
ROOT
ATOM      1  C   UNL A   1      37.844  20.146  24.995  1.00  0.00     0.023 C 
ENDROOT
BRANCH   1   2
ATOM      2  C   UNL A   1      37.245  21.441  24.443  1.00  0.00     0.023 C 
BRANCH   2   3
ATOM      3  C   UNL A   1      37.354  22.630  25.393  1.00  0.00     0.116 C 
BRANCH   3   4
ATOM      4  N   UNL A   1      36.261  22.663  26.347  1.00  0.00    -0.352 N 
ATOM      5  C   UNL A   1      34.991  23.129  26.374  1.00  0.00     0.251 C 
ATOM      6  O   UNL A   1      34.391  22.950  27.438  1.00  0.00    -0.270 OA
ATOM      7  H   UNL A   1      36.509  22.234  27.198  1.00  0.00     0.163 HD
BRANCH   5   8
ATOM      8  C   UNL A   1      34.302  23.818  25.244  1.00  0.00     0.067 C 
ATOM      9  C   UNL A   1      32.633  25.572  20.690  1.00  0.00     0.048 C 
ATOM     10  C   UNL A   1      32.493  25.993  22.125  1.00  0.00    -0.007 A 
ATOM     11  C   UNL A   1      31.735  27.128  22.443  1.00  0.00     0.027 A 
ATOM     12  C   UNL A   1      33.145  25.308  23.161  1.00  0.00     0.131 A 
ATOM     13  C   UNL A   1      31.624  27.551  23.768  1.00  0.00     0.042 A 
ATOM     14  C   UNL A   1      33.037  25.735  24.490  1.00  0.00     0.019 A 
ATOM     15  O   UNL A   1      33.927  24.239  22.819  1.00  0.00    -0.475 OA
ATOM     16  Cl  UNL A   1      30.687  28.946  24.139  1.00  0.00    -0.084 Cl
ATOM     17  C   UNL A   1      32.271  26.863  24.793  1.00  0.00     0.032 A 
ATOM     18  C   UNL A   1      33.760  25.016  25.534  1.00  0.00     0.025 C 
ATOM     19  C   UNL A   1      34.148  23.250  23.862  1.00  0.00     0.314 C 
BRANCH  19  20
ATOM     20  C   UNL A   1      33.057  22.164  23.782  1.00  0.00     0.429 C 
ATOM     21  F   UNL A   1      33.534  20.981  24.246  1.00  0.00    -0.167 F 
ATOM     22  F   UNL A   1      31.975  22.462  24.538  1.00  0.00    -0.167 F 
ATOM     23  F   UNL A   1      32.614  21.957  22.522  1.00  0.00    -0.167 F 
ENDBRANCH  19  20
ENDBRANCH   5   8
ENDBRANCH   3   4
ENDBRANCH   2   3
ENDBRANCH   1   2
BRANCH   1  24
ATOM     24  C   UNL A   1      39.106  20.318  25.839  1.00  0.00     0.116 C 
BRANCH  24  25
ATOM     25  N   UNL A   1      40.033  19.199  25.750  1.00  0.00    -0.352 N 
ATOM     26  C   UNL A   1      41.390  19.207  25.969  1.00  0.00     0.251 C 
ATOM     27  H   UNL A   1      39.642  18.330  25.504  1.00  0.00     0.163 HD
ATOM     28  O   UNL A   1      42.068  18.202  25.799  1.00  0.00    -0.269 OA
BRANCH  26  29
ATOM     29  C   UNL A   1      42.022  20.478  26.367  1.00  0.00     0.039 A 
ATOM     30  C   UNL A   1      42.375  21.389  25.373  1.00  0.00     0.014 A 
ATOM     31  C   UNL A   1      42.159  20.796  27.721  1.00  0.00     0.014 A 
ATOM     32  C   UNL A   1      42.798  22.665  25.741  1.00  0.00     0.010 A 
ATOM     33  C   UNL A   1      42.519  22.089  28.084  1.00  0.00     0.010 A 
ATOM     34  C   UNL A   1      42.835  23.034  27.096  1.00  0.00    -0.014 A 
BRANCH  34  35
ATOM     35  C   UNL A   1      43.199  24.414  27.490  1.00  0.00     0.031 A 
ATOM     36  C   UNL A   1      44.633  24.850  27.453  1.00  0.00     0.074 A 
ATOM     37  C   UNL A   1      42.239  25.260  27.909  1.00  0.00     0.049 A 
ATOM     38  N   UNL A   1      45.141  26.024  27.729  1.00  0.00    -0.248 NA
ATOM     39  C   UNL A   1      45.629  23.835  27.076  1.00  0.00     0.031 C 
ATOM     40  C   UNL A   1      40.815  24.935  28.033  1.00  0.00     0.029 A 
ATOM     41  N   UNL A   1      42.316  26.574  28.296  1.00  0.00    -0.354 N 
ATOM     42  C   UNL A   1      46.511  25.886  27.563  1.00  0.00     0.074 A 
ATOM     43  C   UNL A   1      46.764  24.504  27.219  1.00  0.00     0.031 C 
ATOM     44  C   UNL A   1      40.147  26.035  28.421  1.00  0.00     0.029 A 
ATOM     45  C   UNL A   1      41.095  27.131  28.596  1.00  0.00     0.049 A 
ATOM     46  H   UNL A   1      43.163  27.071  28.353  1.00  0.00     0.167 HD
ATOM     47  C   UNL A   1      47.473  26.832  27.657  1.00  0.00     0.031 A 
ATOM     48  C   UNL A   1      40.777  28.388  28.953  1.00  0.00     0.031 A 
ATOM     49  C   UNL A   1      47.222  28.208  27.977  1.00  0.00     0.049 A 
ATOM     50  C   UNL A   1      41.864  29.419  29.068  1.00  0.00     0.074 A 
ATOM     51  C   UNL A   1      48.120  29.259  28.026  1.00  0.00     0.029 A 
ATOM     52  N   UNL A   1      45.978  28.724  28.302  1.00  0.00    -0.354 N 
ATOM     53  N   UNL A   1      43.147  29.290  28.831  1.00  0.00    -0.248 NA
ATOM     54  C   UNL A   1      41.460  30.766  29.495  1.00  0.00     0.031 C 
ATOM     55  C   UNL A   1      47.424  30.407  28.417  1.00  0.00     0.029 A 
ATOM     56  C   UNL A   1      46.088  30.075  28.577  1.00  0.00     0.049 A 
ATOM     57  H   UNL A   1      45.141  28.207  28.331  1.00  0.00     0.167 HD
ATOM     58  C   UNL A   1      43.701  30.540  29.065  1.00  0.00     0.074 A 
ATOM     59  C   UNL A   1      42.615  31.418  29.453  1.00  0.00     0.031 C 
ATOM     60  C   UNL A   1      44.996  30.927  28.967  1.00  0.00     0.031 A 
BRANCH  47  61
ATOM     61  C   UNL A   1      48.885  26.403  27.390  1.00  0.00    -0.014 A 
ATOM     62  C   UNL A   1      49.718  25.986  28.441  1.00  0.00     0.009 A 
ATOM     63  C   UNL A   1      49.380  26.390  26.079  1.00  0.00     0.009 A 
ATOM     64  C   UNL A   1      51.034  25.595  28.185  1.00  0.00     0.001 A 
ATOM     65  C   UNL A   1      50.689  25.977  25.824  1.00  0.00     0.001 A 
ATOM     66  C   UNL A   1      51.517  25.588  26.877  1.00  0.00     0.000 A 
ENDBRANCH  47  61
BRANCH  48  67
ATOM     67  C   UNL A   1      39.358  28.754  29.183  1.00  0.00    -0.014 A 
ATOM     68  C   UNL A   1      38.790  28.607  30.458  1.00  0.00     0.009 A 
ATOM     69  C   UNL A   1      38.568  29.264  28.141  1.00  0.00     0.009 A 
ATOM     70  C   UNL A   1      37.456  28.952  30.682  1.00  0.00     0.001 A 
ATOM     71  C   UNL A   1      37.239  29.625  28.373  1.00  0.00     0.001 A 
ATOM     72  C   UNL A   1      36.683  29.464  29.642  1.00  0.00     0.000 A 
ENDBRANCH  48  67
BRANCH  60  73
ATOM     73  C   UNL A   1      45.317  32.357  29.280  1.00  0.00    -0.014 A 
ATOM     74  C   UNL A   1      45.720  32.732  30.571  1.00  0.00     0.009 A 
ATOM     75  C   UNL A   1      45.309  33.316  28.256  1.00  0.00     0.009 A 
ATOM     76  C   UNL A   1      46.103  34.049  30.830  1.00  0.00     0.001 A 
ATOM     77  C   UNL A   1      45.710  34.626  28.516  1.00  0.00     0.001 A 
ATOM     78  C   UNL A   1      46.105  34.993  29.803  1.00  0.00     0.000 A 
ENDBRANCH  60  73
ENDBRANCH  34  35
ENDBRANCH  26  29
ENDBRANCH  24  25
ENDBRANCH   1  24
TORSDOF 12
ENDMDL
