MODEL 1
REMARK VINA RESULT:     -11.4      0.000      0.000
REMARK SMILES CC[C@@H]1CCCN(S(=O)(=O)c2cc(C(=O)NCCCCNC(=O)c3ccc(-c4c5nc(c(-c6ccccc6)c6ccc([nH]6)c(-c6ccccc6)c6nc(c(-c7ccccc7)c7ccc4[nH]7)C=C6)C=C5)cc3)ccc2F)C1
REMARK SMILES IDX 18 1 17 2 16 3 14 4 15 5 13 7 11 8 12 9 74 10 73 11 75 12
REMARK SMILES IDX 72 13 8 14 9 15 10 16 7 17 3 18 4 19 76 20 5 21 6 22 2 23
REMARK SMILES IDX 1 24 19 25 20 26 21 27 22 28 23 30 24 31 25 32 71 33 26 34
REMARK SMILES IDX 70 35 27 36 28 37 29 38 64 39 30 40 69 41 63 42 65 43 31 44
REMARK SMILES IDX 68 45 62 46 61 47 32 49 54 50 39 51 53 52 40 53 43 54 52 55
REMARK SMILES IDX 66 56 41 57 42 58 51 60 67 61 44 62 33 63 34 64 38 65 35 66
REMARK SMILES IDX 37 67 36 68 55 69 56 70 60 71 57 72 59 73 58 74 45 75 46 76
REMARK SMILES IDX 50 77 47 78 49 79 48 80
REMARK H PARENT 16 6 21 29 65 48 43 59
REMARK Flexibility Score: inf
ROOT
ATOM      1  C   UNL A   1      34.156  28.576  24.440  1.00  0.00     0.023 C 
ENDROOT
BRANCH   1   2
ATOM      2  C   UNL A   1      33.708  28.984  23.034  1.00  0.00     0.116 C 
BRANCH   2   3
ATOM      3  N   UNL A   1      33.726  27.853  22.132  1.00  0.00    -0.352 N 
ATOM      4  C   UNL A   1      32.936  26.739  22.024  1.00  0.00     0.251 C 
ATOM      5  O   UNL A   1      33.171  25.978  21.084  1.00  0.00    -0.269 OA
ATOM      6  H   UNL A   1      34.449  27.891  21.464  1.00  0.00     0.163 HD
BRANCH   4   7
ATOM      7  C   UNL A   1      31.816  26.400  22.956  1.00  0.00     0.041 A 
ATOM      8  C   UNL A   1      31.051  24.971  24.785  1.00  0.00     0.119 A 
ATOM      9  C   UNL A   1      32.013  25.303  23.818  1.00  0.00     0.038 A 
ATOM     10  C   UNL A   1      29.898  25.734  24.902  1.00  0.00     0.143 A 
ATOM     11  C   UNL A   1      29.675  26.802  24.045  1.00  0.00     0.041 A 
ATOM     12  F   UNL A   1      28.965  25.468  25.824  1.00  0.00    -0.206 F 
ATOM     13  C   UNL A   1      30.640  27.146  23.094  1.00  0.00     0.017 A 
BRANCH   8  14
ATOM     14  S   UNL A   1      31.394  23.731  25.991  1.00  0.00     0.246 S 
ATOM     15  O   UNL A   1      30.453  22.641  25.800  1.00  0.00    -0.207 OA
ATOM     16  O   UNL A   1      31.481  24.387  27.274  1.00  0.00    -0.207 OA
BRANCH  14  17
ATOM     17  N   UNL A   1      32.981  23.126  25.629  1.00  0.00    -0.197 NA
ATOM     18  C   UNL A   1      35.315  22.891  26.561  1.00  0.00     0.004 C 
ATOM     19  C   UNL A   1      35.339  21.439  26.065  1.00  0.00     0.006 C 
ATOM     20  C   UNL A   1      33.865  23.316  26.831  1.00  0.00     0.106 C 
ATOM     21  C   UNL A   1      34.431  21.250  24.859  1.00  0.00     0.017 C 
ATOM     22  C   UNL A   1      33.009  21.711  25.158  1.00  0.00     0.102 C 
BRANCH  18  23
ATOM     23  C   UNL A   1      36.022  23.883  25.616  1.00  0.00     0.001 C 
ATOM     24  C   UNL A   1      37.526  23.660  25.538  1.00  0.00     0.004 C 
ENDBRANCH  18  23
ENDBRANCH  14  17
ENDBRANCH   8  14
ENDBRANCH   4   7
ENDBRANCH   2   3
ENDBRANCH   1   2
BRANCH   1  25
ATOM     25  C   UNL A   1      33.082  28.717  25.520  1.00  0.00     0.023 C 
BRANCH  25  26
ATOM     26  C   UNL A   1      33.607  28.798  26.949  1.00  0.00     0.116 C 
BRANCH  26  27
ATOM     27  N   UNL A   1      33.560  30.140  27.512  1.00  0.00    -0.352 N 
ATOM     28  C   UNL A   1      34.541  30.809  28.204  1.00  0.00     0.251 C 
ATOM     29  H   UNL A   1      32.717  30.631  27.378  1.00  0.00     0.163 HD
ATOM     30  O   UNL A   1      34.314  31.908  28.698  1.00  0.00    -0.269 OA
BRANCH  28  31
ATOM     31  C   UNL A   1      35.856  30.166  28.386  1.00  0.00     0.039 A 
ATOM     32  C   UNL A   1      36.780  30.218  27.339  1.00  0.00     0.014 A 
ATOM     33  C   UNL A   1      36.189  29.559  29.599  1.00  0.00     0.014 A 
ATOM     34  C   UNL A   1      38.068  29.721  27.537  1.00  0.00     0.010 A 
ATOM     35  C   UNL A   1      37.494  29.133  29.818  1.00  0.00     0.010 A 
ATOM     36  C   UNL A   1      38.445  29.210  28.790  1.00  0.00    -0.014 A 
BRANCH  36  37
ATOM     37  C   UNL A   1      39.834  28.757  29.046  1.00  0.00     0.031 A 
ATOM     38  C   UNL A   1      40.820  29.678  29.704  1.00  0.00     0.074 A 
ATOM     39  C   UNL A   1      40.223  27.540  28.623  1.00  0.00     0.049 A 
ATOM     40  N   UNL A   1      42.081  29.471  29.987  1.00  0.00    -0.248 NA
ATOM     41  C   UNL A   1      40.333  31.017  30.069  1.00  0.00     0.031 C 
ATOM     42  C   UNL A   1      39.372  26.568  27.933  1.00  0.00     0.029 A 
ATOM     43  N   UNL A   1      41.438  26.911  28.717  1.00  0.00    -0.354 N 
ATOM     44  C   UNL A   1      42.541  30.657  30.544  1.00  0.00     0.074 A 
ATOM     45  C   UNL A   1      41.440  31.596  30.507  1.00  0.00     0.031 C 
ATOM     46  C   UNL A   1      40.080  25.450  27.706  1.00  0.00     0.029 A 
ATOM     47  C   UNL A   1      41.440  25.640  28.198  1.00  0.00     0.049 A 
ATOM     48  H   UNL A   1      42.233  27.331  29.119  1.00  0.00     0.167 HD
ATOM     49  C   UNL A   1      43.761  30.935  31.061  1.00  0.00     0.031 A 
ATOM     50  C   UNL A   1      42.426  24.726  28.133  1.00  0.00     0.031 A 
ATOM     51  C   UNL A   1      44.854  30.001  31.099  1.00  0.00     0.049 A 
ATOM     52  C   UNL A   1      43.778  25.063  28.692  1.00  0.00     0.074 A 
ATOM     53  C   UNL A   1      46.110  30.163  31.656  1.00  0.00     0.029 A 
ATOM     54  N   UNL A   1      44.821  28.729  30.548  1.00  0.00    -0.354 N 
ATOM     55  N   UNL A   1      44.177  26.162  29.285  1.00  0.00    -0.248 NA
ATOM     56  C   UNL A   1      44.815  24.027  28.578  1.00  0.00     0.031 C 
ATOM     57  C   UNL A   1      46.856  29.007  31.395  1.00  0.00     0.029 A 
ATOM     58  C   UNL A   1      46.046  28.105  30.725  1.00  0.00     0.049 A 
ATOM     59  H   UNL A   1      44.044  28.329  30.097  1.00  0.00     0.167 HD
ATOM     60  C   UNL A   1      45.501  25.941  29.641  1.00  0.00     0.074 A 
ATOM     61  C   UNL A   1      45.833  24.598  29.206  1.00  0.00     0.031 C 
ATOM     62  C   UNL A   1      46.363  26.773  30.275  1.00  0.00     0.031 A 
BRANCH  49  63
ATOM     63  C   UNL A   1      43.970  32.322  31.607  1.00  0.00    -0.014 A 
ATOM     64  C   UNL A   1      44.485  33.352  30.803  1.00  0.00     0.009 A 
ATOM     65  C   UNL A   1      43.661  32.599  32.947  1.00  0.00     0.009 A 
ATOM     66  C   UNL A   1      44.738  34.614  31.344  1.00  0.00     0.001 A 
ATOM     67  C   UNL A   1      43.883  33.872  33.477  1.00  0.00     0.001 A 
ATOM     68  C   UNL A   1      44.435  34.874  32.679  1.00  0.00     0.000 A 
ENDBRANCH  49  63
BRANCH  50  69
ATOM     69  C   UNL A   1      42.152  23.385  27.557  1.00  0.00    -0.014 A 
ATOM     70  C   UNL A   1      41.513  22.404  28.332  1.00  0.00     0.009 A 
ATOM     71  C   UNL A   1      42.504  23.082  26.233  1.00  0.00     0.009 A 
ATOM     72  C   UNL A   1      41.245  21.142  27.798  1.00  0.00     0.001 A 
ATOM     73  C   UNL A   1      42.214  21.826  25.694  1.00  0.00     0.001 A 
ATOM     74  C   UNL A   1      41.591  20.856  26.478  1.00  0.00     0.000 A 
ENDBRANCH  50  69
BRANCH  62  75
ATOM     75  C   UNL A   1      47.739  26.242  30.561  1.00  0.00    -0.014 A 
ATOM     76  C   UNL A   1      48.750  26.271  29.588  1.00  0.00     0.009 A 
ATOM     77  C   UNL A   1      48.037  25.734  31.836  1.00  0.00     0.009 A 
ATOM     78  C   UNL A   1      50.022  25.770  29.875  1.00  0.00     0.001 A 
ATOM     79  C   UNL A   1      49.316  25.260  32.129  1.00  0.00     0.001 A 
ATOM     80  C   UNL A   1      50.304  25.270  31.147  1.00  0.00     0.000 A 
ENDBRANCH  62  75
ENDBRANCH  36  37
ENDBRANCH  28  31
ENDBRANCH  26  27
ENDBRANCH  25  26
ENDBRANCH   1  25
TORSDOF 14
ENDMDL
MODEL 2
REMARK VINA RESULT:     -11.2      0.255      5.864
REMARK SMILES CC[C@@H]1CCCN(S(=O)(=O)c2cc(C(=O)NCCCCNC(=O)c3ccc(-c4c5nc(c(-c6ccccc6)c6ccc([nH]6)c(-c6ccccc6)c6nc(c(-c7ccccc7)c7ccc4[nH]7)C=C6)C=C5)cc3)ccc2F)C1
REMARK SMILES IDX 18 1 17 2 16 3 14 4 15 5 13 7 11 8 12 9 74 10 73 11 75 12
REMARK SMILES IDX 72 13 8 14 9 15 10 16 7 17 3 18 4 19 76 20 5 21 6 22 2 23
REMARK SMILES IDX 1 24 19 25 20 26 21 27 22 28 23 30 24 31 25 32 71 33 26 34
REMARK SMILES IDX 70 35 27 36 28 37 29 38 64 39 30 40 69 41 63 42 65 43 31 44
REMARK SMILES IDX 68 45 62 46 61 47 32 49 54 50 39 51 53 52 40 53 43 54 52 55
REMARK SMILES IDX 66 56 41 57 42 58 51 60 67 61 44 62 33 63 34 64 38 65 35 66
REMARK SMILES IDX 37 67 36 68 55 69 56 70 60 71 57 72 59 73 58 74 45 75 46 76
REMARK SMILES IDX 50 77 47 78 49 79 48 80
REMARK H PARENT 16 6 21 29 65 48 43 59
REMARK Flexibility Score: inf
ROOT
ATOM      1  C   UNL A   1      34.194  28.551  24.484  1.00  0.00     0.023 C 
ENDROOT
BRANCH   1   2
ATOM      2  C   UNL A   1      33.708  28.975  23.096  1.00  0.00     0.116 C 
BRANCH   2   3
ATOM      3  N   UNL A   1      33.727  27.860  22.173  1.00  0.00    -0.352 N 
ATOM      4  C   UNL A   1      32.937  26.747  22.044  1.00  0.00     0.251 C 
ATOM      5  O   UNL A   1      33.173  26.004  21.091  1.00  0.00    -0.269 OA
ATOM      6  H   UNL A   1      34.450  27.911  21.507  1.00  0.00     0.163 HD
BRANCH   4   7
ATOM      7  C   UNL A   1      31.817  26.391  22.969  1.00  0.00     0.041 A 
ATOM      8  C   UNL A   1      31.064  24.951  24.795  1.00  0.00     0.119 A 
ATOM      9  C   UNL A   1      32.027  25.299  23.835  1.00  0.00     0.038 A 
ATOM     10  C   UNL A   1      29.898  25.695  24.903  1.00  0.00     0.143 A 
ATOM     11  C   UNL A   1      29.663  26.758  24.044  1.00  0.00     0.041 A 
ATOM     12  F   UNL A   1      28.963  25.414  25.820  1.00  0.00    -0.206 F 
ATOM     13  C   UNL A   1      30.628  27.117  23.099  1.00  0.00     0.017 A 
BRANCH   8  14
ATOM     14  S   UNL A   1      31.421  23.719  26.005  1.00  0.00     0.246 S 
ATOM     15  O   UNL A   1      30.486  22.622  25.822  1.00  0.00    -0.207 OA
ATOM     16  O   UNL A   1      31.508  24.381  27.285  1.00  0.00    -0.207 OA
BRANCH  14  17
ATOM     17  N   UNL A   1      33.010  23.124  25.640  1.00  0.00    -0.197 NA
ATOM     18  C   UNL A   1      35.346  22.895  26.570  1.00  0.00     0.004 C 
ATOM     19  C   UNL A   1      35.376  21.446  26.067  1.00  0.00     0.006 C 
ATOM     20  C   UNL A   1      33.893  23.312  26.843  1.00  0.00     0.106 C 
ATOM     21  C   UNL A   1      34.469  21.258  24.861  1.00  0.00     0.017 C 
ATOM     22  C   UNL A   1      33.045  21.711  25.162  1.00  0.00     0.102 C 
BRANCH  18  23
ATOM     23  C   UNL A   1      36.047  23.896  25.631  1.00  0.00     0.001 C 
ATOM     24  C   UNL A   1      37.557  23.699  25.575  1.00  0.00     0.004 C 
ENDBRANCH  18  23
ENDBRANCH  14  17
ENDBRANCH   8  14
ENDBRANCH   4   7
ENDBRANCH   2   3
ENDBRANCH   1   2
BRANCH   1  25
ATOM     25  C   UNL A   1      33.129  28.607  25.581  1.00  0.00     0.023 C 
BRANCH  25  26
ATOM     26  C   UNL A   1      33.669  28.703  27.003  1.00  0.00     0.116 C 
BRANCH  26  27
ATOM     27  N   UNL A   1      33.588  30.043  27.568  1.00  0.00    -0.352 N 
ATOM     28  C   UNL A   1      34.557  30.740  28.249  1.00  0.00     0.251 C 
ATOM     29  H   UNL A   1      32.730  30.508  27.446  1.00  0.00     0.163 HD
ATOM     30  O   UNL A   1      34.304  31.831  28.747  1.00  0.00    -0.269 OA
BRANCH  28  31
ATOM     31  C   UNL A   1      35.893  30.137  28.414  1.00  0.00     0.039 A 
ATOM     32  C   UNL A   1      36.799  30.210  27.353  1.00  0.00     0.014 A 
ATOM     33  C   UNL A   1      36.262  29.546  29.625  1.00  0.00     0.014 A 
ATOM     34  C   UNL A   1      38.104  29.752  27.533  1.00  0.00     0.010 A 
ATOM     35  C   UNL A   1      37.582  29.160  29.826  1.00  0.00     0.010 A 
ATOM     36  C   UNL A   1      38.515  29.258  28.783  1.00  0.00    -0.014 A 
BRANCH  36  37
ATOM     37  C   UNL A   1      39.920  28.848  29.020  1.00  0.00     0.031 A 
ATOM     38  C   UNL A   1      40.382  27.473  28.634  1.00  0.00     0.074 A 
ATOM     39  C   UNL A   1      40.761  29.693  29.645  1.00  0.00     0.049 A 
ATOM     40  N   UNL A   1      41.561  26.925  28.783  1.00  0.00    -0.248 NA
ATOM     41  C   UNL A   1      39.380  26.586  28.022  1.00  0.00     0.031 C 
ATOM     42  C   UNL A   1      40.422  31.041  30.109  1.00  0.00     0.029 A 
ATOM     43  N   UNL A   1      42.078  29.542  29.995  1.00  0.00    -0.354 N 
ATOM     44  C   UNL A   1      41.437  25.629  28.304  1.00  0.00     0.074 A 
ATOM     45  C   UNL A   1      40.056  25.453  27.910  1.00  0.00     0.031 C 
ATOM     46  C   UNL A   1      41.516  31.608  30.641  1.00  0.00     0.029 A 
ATOM     47  C   UNL A   1      42.619  30.654  30.592  1.00  0.00     0.049 A 
ATOM     48  H   UNL A   1      42.588  28.715  29.832  1.00  0.00     0.167 HD
ATOM     49  C   UNL A   1      42.390  24.675  28.179  1.00  0.00     0.031 A 
ATOM     50  C   UNL A   1      43.866  30.882  31.043  1.00  0.00     0.031 A 
ATOM     51  C   UNL A   1      43.764  24.850  28.568  1.00  0.00     0.049 A 
ATOM     52  C   UNL A   1      44.902  29.803  30.916  1.00  0.00     0.074 A 
ATOM     53  C   UNL A   1      44.821  23.969  28.427  1.00  0.00     0.029 A 
ATOM     54  N   UNL A   1      44.268  25.985  29.186  1.00  0.00    -0.354 N 
ATOM     55  N   UNL A   1      44.791  28.607  30.390  1.00  0.00    -0.248 NA
ATOM     56  C   UNL A   1      46.241  30.110  31.439  1.00  0.00     0.031 C 
ATOM     57  C   UNL A   1      45.955  24.551  29.007  1.00  0.00     0.029 A 
ATOM     58  C   UNL A   1      45.616  25.816  29.459  1.00  0.00     0.049 A 
ATOM     59  H   UNL A   1      43.746  26.791  29.398  1.00  0.00     0.167 HD
ATOM     60  C   UNL A   1      46.049  28.029  30.492  1.00  0.00     0.074 A 
ATOM     61  C   UNL A   1      46.910  29.011  31.121  1.00  0.00     0.031 C 
ATOM     62  C   UNL A   1      46.456  26.798  30.096  1.00  0.00     0.031 A 
BRANCH  49  63
ATOM     63  C   UNL A   1      41.959  23.349  27.613  1.00  0.00    -0.014 A 
ATOM     64  C   UNL A   1      41.506  22.313  28.447  1.00  0.00     0.009 A 
ATOM     65  C   UNL A   1      42.017  23.127  26.229  1.00  0.00     0.009 A 
ATOM     66  C   UNL A   1      41.175  21.066  27.912  1.00  0.00     0.001 A 
ATOM     67  C   UNL A   1      41.653  21.891  25.694  1.00  0.00     0.001 A 
ATOM     68  C   UNL A   1      41.247  20.856  26.536  1.00  0.00     0.000 A 
ENDBRANCH  49  63
BRANCH  50  69
ATOM     69  C   UNL A   1      44.214  32.209  31.613  1.00  0.00    -0.014 A 
ATOM     70  C   UNL A   1      44.131  32.421  32.999  1.00  0.00     0.009 A 
ATOM     71  C   UNL A   1      44.648  33.258  30.789  1.00  0.00     0.009 A 
ATOM     72  C   UNL A   1      44.462  33.663  33.545  1.00  0.00     0.001 A 
ATOM     73  C   UNL A   1      45.001  34.491  31.342  1.00  0.00     0.001 A 
ATOM     74  C   UNL A   1      44.901  34.695  32.717  1.00  0.00     0.000 A 
ENDBRANCH  50  69
BRANCH  62  75
ATOM     75  C   UNL A   1      47.904  26.456  30.308  1.00  0.00    -0.014 A 
ATOM     76  C   UNL A   1      48.876  26.768  29.345  1.00  0.00     0.009 A 
ATOM     77  C   UNL A   1      48.305  25.841  31.504  1.00  0.00     0.009 A 
ATOM     78  C   UNL A   1      50.216  26.438  29.561  1.00  0.00     0.001 A 
ATOM     79  C   UNL A   1      49.648  25.539  31.731  1.00  0.00     0.001 A 
ATOM     80  C   UNL A   1      50.600  25.829  30.756  1.00  0.00     0.000 A 
ENDBRANCH  62  75
ENDBRANCH  36  37
ENDBRANCH  28  31
ENDBRANCH  26  27
ENDBRANCH  25  26
ENDBRANCH   1  25
TORSDOF 14
ENDMDL
MODEL 3
REMARK VINA RESULT:     -11.1      2.145      7.416
REMARK SMILES CC[C@@H]1CCCN(S(=O)(=O)c2cc(C(=O)NCCCCNC(=O)c3ccc(-c4c5nc(c(-c6ccccc6)c6ccc([nH]6)c(-c6ccccc6)c6nc(c(-c7ccccc7)c7ccc4[nH]7)C=C6)C=C5)cc3)ccc2F)C1
REMARK SMILES IDX 18 1 17 2 16 3 14 4 15 5 13 7 11 8 12 9 74 10 73 11 75 12
REMARK SMILES IDX 72 13 8 14 9 15 10 16 7 17 3 18 4 19 76 20 5 21 6 22 2 23
REMARK SMILES IDX 1 24 19 25 20 26 21 27 22 28 23 30 24 31 25 32 71 33 26 34
REMARK SMILES IDX 70 35 27 36 28 37 29 38 64 39 30 40 69 41 63 42 65 43 31 44
REMARK SMILES IDX 68 45 62 46 61 47 32 49 54 50 39 51 53 52 40 53 43 54 52 55
REMARK SMILES IDX 66 56 41 57 42 58 51 60 67 61 44 62 33 63 34 64 38 65 35 66
REMARK SMILES IDX 37 67 36 68 55 69 56 70 60 71 57 72 59 73 58 74 45 75 46 76
REMARK SMILES IDX 50 77 47 78 49 79 48 80
REMARK H PARENT 16 6 21 29 65 48 43 59
REMARK Flexibility Score: inf
ROOT
ATOM      1  C   UNL A   1      36.871  21.344  24.596  1.00  0.00     0.023 C 
ENDROOT
BRANCH   1   2
ATOM      2  C   UNL A   1      35.857  21.703  25.686  1.00  0.00     0.116 C 
BRANCH   2   3
ATOM      3  N   UNL A   1      34.902  20.634  25.883  1.00  0.00    -0.352 N 
ATOM      4  C   UNL A   1      33.602  20.465  25.483  1.00  0.00     0.251 C 
ATOM      5  O   UNL A   1      33.071  19.388  25.756  1.00  0.00    -0.269 OA
ATOM      6  H   UNL A   1      35.254  19.881  26.409  1.00  0.00     0.163 HD
BRANCH   4   7
ATOM      7  C   UNL A   1      32.804  21.487  24.737  1.00  0.00     0.041 A 
ATOM      8  C   UNL A   1      31.588  23.604  24.854  1.00  0.00     0.119 A 
ATOM      9  C   UNL A   1      32.274  22.555  25.487  1.00  0.00     0.038 A 
ATOM     10  C   UNL A   1      31.440  23.597  23.474  1.00  0.00     0.143 A 
ATOM     11  C   UNL A   1      31.933  22.542  22.722  1.00  0.00     0.041 A 
ATOM     12  F   UNL A   1      30.814  24.587  22.826  1.00  0.00    -0.206 F 
ATOM     13  C   UNL A   1      32.632  21.506  23.347  1.00  0.00     0.017 A 
BRANCH   8  14
ATOM     14  S   UNL A   1      31.109  25.033  25.769  1.00  0.00     0.246 S 
ATOM     15  O   UNL A   1      31.218  24.722  27.184  1.00  0.00    -0.207 OA
ATOM     16  O   UNL A   1      29.849  25.489  25.231  1.00  0.00    -0.207 OA
BRANCH  14  17
ATOM     17  N   UNL A   1      32.283  26.259  25.406  1.00  0.00    -0.197 NA
ATOM     18  C   UNL A   1      32.702  28.295  23.975  1.00  0.00     0.004 C 
ATOM     19  C   UNL A   1      33.263  29.015  25.208  1.00  0.00     0.006 C 
ATOM     20  C   UNL A   1      31.691  27.229  24.420  1.00  0.00     0.106 C 
ATOM     21  C   UNL A   1      33.845  28.028  26.209  1.00  0.00     0.017 C 
ATOM     22  C   UNL A   1      32.822  26.969  26.603  1.00  0.00     0.102 C 
BRANCH  18  23
ATOM     23  C   UNL A   1      33.785  27.691  23.059  1.00  0.00     0.001 C 
ATOM     24  C   UNL A   1      33.225  26.686  22.062  1.00  0.00     0.004 C 
ENDBRANCH  18  23
ENDBRANCH  14  17
ENDBRANCH   8  14
ENDBRANCH   4   7
ENDBRANCH   2   3
ENDBRANCH   1   2
BRANCH   1  25
ATOM     25  C   UNL A   1      37.756  20.138  24.918  1.00  0.00     0.023 C 
BRANCH  25  26
ATOM     26  C   UNL A   1      38.933  20.428  25.844  1.00  0.00     0.116 C 
BRANCH  26  27
ATOM     27  N   UNL A   1      39.989  19.429  25.773  1.00  0.00    -0.352 N 
ATOM     28  C   UNL A   1      41.322  19.576  26.074  1.00  0.00     0.251 C 
ATOM     29  H   UNL A   1      39.713  18.534  25.471  1.00  0.00     0.163 HD
ATOM     30  O   UNL A   1      42.110  18.658  25.874  1.00  0.00    -0.269 OA
BRANCH  28  31
ATOM     31  C   UNL A   1      41.801  20.868  26.599  1.00  0.00     0.039 A 
ATOM     32  C   UNL A   1      42.253  21.834  25.698  1.00  0.00     0.014 A 
ATOM     33  C   UNL A   1      41.759  21.139  27.969  1.00  0.00     0.014 A 
ATOM     34  C   UNL A   1      42.597  23.102  26.166  1.00  0.00     0.010 A 
ATOM     35  C   UNL A   1      42.030  22.424  28.424  1.00  0.00     0.010 A 
ATOM     36  C   UNL A   1      42.452  23.417  27.527  1.00  0.00    -0.014 A 
BRANCH  36  37
ATOM     37  C   UNL A   1      42.729  24.784  28.031  1.00  0.00     0.031 A 
ATOM     38  C   UNL A   1      44.128  25.185  28.401  1.00  0.00     0.074 A 
ATOM     39  C   UNL A   1      41.708  25.641  28.217  1.00  0.00     0.049 A 
ATOM     40  N   UNL A   1      44.560  26.324  28.880  1.00  0.00    -0.248 NA
ATOM     41  C   UNL A   1      45.174  24.165  28.235  1.00  0.00     0.031 C 
ATOM     42  C   UNL A   1      40.298  25.358  27.937  1.00  0.00     0.029 A 
ATOM     43  N   UNL A   1      41.701  26.930  28.686  1.00  0.00    -0.354 N 
ATOM     44  C   UNL A   1      45.921  26.149  29.090  1.00  0.00     0.074 A 
ATOM     45  C   UNL A   1      46.232  24.780  28.739  1.00  0.00     0.031 C 
ATOM     46  C   UNL A   1      39.571  26.456  28.197  1.00  0.00     0.029 A 
ATOM     47  C   UNL A   1      40.454  27.504  28.698  1.00  0.00     0.049 A 
ATOM     48  H   UNL A   1      42.514  27.400  28.985  1.00  0.00     0.167 HD
ATOM     49  C   UNL A   1      46.838  27.052  29.514  1.00  0.00     0.031 A 
ATOM     50  C   UNL A   1      40.066  28.739  29.064  1.00  0.00     0.031 A 
ATOM     51  C   UNL A   1      46.529  28.413  29.861  1.00  0.00     0.049 A 
ATOM     52  C   UNL A   1      41.094  29.718  29.553  1.00  0.00     0.074 A 
ATOM     53  C   UNL A   1      47.393  29.425  30.243  1.00  0.00     0.029 A 
ATOM     54  N   UNL A   1      45.251  28.951  29.877  1.00  0.00    -0.354 N 
ATOM     55  N   UNL A   1      42.391  29.564  29.674  1.00  0.00    -0.248 NA
ATOM     56  C   UNL A   1      40.604  31.046  29.949  1.00  0.00     0.031 C 
ATOM     57  C   UNL A   1      46.631  30.560  30.540  1.00  0.00     0.029 A 
ATOM     58  C   UNL A   1      45.299  30.273  30.290  1.00  0.00     0.049 A 
ATOM     59  H   UNL A   1      44.432  28.466  29.630  1.00  0.00     0.167 HD
ATOM     60  C   UNL A   1      42.876  30.781  30.133  1.00  0.00     0.074 A 
ATOM     61  C   UNL A   1      41.734  31.666  30.257  1.00  0.00     0.031 C 
ATOM     62  C   UNL A   1      44.152  31.136  30.420  1.00  0.00     0.031 A 
BRANCH  49  63
ATOM     63  C   UNL A   1      48.259  26.573  29.643  1.00  0.00    -0.014 A 
ATOM     64  C   UNL A   1      49.174  26.712  28.586  1.00  0.00     0.009 A 
ATOM     65  C   UNL A   1      48.685  25.963  30.832  1.00  0.00     0.009 A 
ATOM     66  C   UNL A   1      50.468  26.199  28.697  1.00  0.00     0.001 A 
ATOM     67  C   UNL A   1      49.990  25.481  30.953  1.00  0.00     0.001 A 
ATOM     68  C   UNL A   1      50.876  25.586  29.881  1.00  0.00     0.000 A 
ENDBRANCH  49  63
BRANCH  50  69
ATOM     69  C   UNL A   1      38.640  29.134  28.933  1.00  0.00    -0.014 A 
ATOM     70  C   UNL A   1      37.773  29.009  30.031  1.00  0.00     0.009 A 
ATOM     71  C   UNL A   1      38.142  29.654  27.729  1.00  0.00     0.009 A 
ATOM     72  C   UNL A   1      36.433  29.384  29.920  1.00  0.00     0.001 A 
ATOM     73  C   UNL A   1      36.806  30.050  27.629  1.00  0.00     0.001 A 
ATOM     74  C   UNL A   1      35.952  29.909  28.722  1.00  0.00     0.000 A 
ENDBRANCH  50  69
BRANCH  62  75
ATOM     75  C   UNL A   1      44.383  32.550  30.870  1.00  0.00    -0.014 A 
ATOM     76  C   UNL A   1      44.630  33.580  29.949  1.00  0.00     0.009 A 
ATOM     77  C   UNL A   1      44.321  32.863  32.238  1.00  0.00     0.009 A 
ATOM     78  C   UNL A   1      44.845  34.887  30.391  1.00  0.00     0.001 A 
ATOM     79  C   UNL A   1      44.507  34.175  32.675  1.00  0.00     0.001 A 
ATOM     80  C   UNL A   1      44.778  35.184  31.752  1.00  0.00     0.000 A 
ENDBRANCH  62  75
ENDBRANCH  36  37
ENDBRANCH  28  31
ENDBRANCH  26  27
ENDBRANCH  25  26
ENDBRANCH   1  25
TORSDOF 14
ENDMDL
