MODEL 1
REMARK VINA RESULT:     -10.7      0.000      0.000
REMARK SMILES O=C(NCCCCNC(=O)c1cc(-c2ccn(C(F)F)c(=O)c2)ccc1O)c1ccc(-c2c3nc(c(-c4ccccc4)c4ccc([nH]4)c(-c4ccccc4)c4nc(c(-c5ccccc5)c5ccc2[nH]5)C=C4)C=C3)cc1
REMARK SMILES IDX 5 1 4 2 3 3 1 4 2 5 28 7 29 8 75 9 30 10 74 11 31 12 32 13
REMARK SMILES IDX 33 14 68 15 34 16 73 17 67 18 69 19 35 20 72 21 66 22 65 23
REMARK SMILES IDX 36 25 58 26 43 27 57 28 44 29 47 30 56 31 70 32 45 33 46 34
REMARK SMILES IDX 55 36 71 37 48 38 37 39 38 40 42 41 39 42 41 43 40 44 59 45
REMARK SMILES IDX 60 46 64 47 61 48 63 49 62 50 49 51 50 52 54 53 51 54 53 55
REMARK SMILES IDX 52 56 6 57 7 58 8 59 9 60 10 62 11 63 12 64 26 65 13 66
REMARK SMILES IDX 25 67 24 68 27 69 14 71 15 72 23 73 16 74 21 75 17 76 22 77
REMARK SMILES IDX 18 78 19 79 20 80
REMARK H PARENT 3 6 69 24 47 35 8 61 27 70
REMARK Flexibility Score: inf
ROOT
ATOM      1  C   UNL A   1      33.427  27.747  26.458  1.00  0.00     0.023 C 
ENDROOT
BRANCH   1   2
ATOM      2  C   UNL A   1      34.095  28.977  25.852  1.00  0.00     0.116 C 
BRANCH   2   3
ATOM      3  N   UNL A   1      33.847  30.182  26.626  1.00  0.00    -0.352 N 
ATOM      4  O   UNL A   1      34.054  31.648  28.316  1.00  0.00    -0.269 OA
ATOM      5  C   UNL A   1      34.536  30.707  27.688  1.00  0.00     0.251 C 
ATOM      6  H   UNL A   1      33.061  30.703  26.342  1.00  0.00     0.163 HD
BRANCH   5   7
ATOM      7  C   UNL A   1      35.851  30.163  28.091  1.00  0.00     0.039 A 
ATOM      8  C   UNL A   1      35.974  29.558  29.348  1.00  0.00     0.014 A 
ATOM      9  C   UNL A   1      36.980  30.319  27.283  1.00  0.00     0.014 A 
ATOM     10  C   UNL A   1      37.219  29.100  29.787  1.00  0.00     0.010 A 
ATOM     11  C   UNL A   1      38.208  29.803  27.692  1.00  0.00     0.010 A 
ATOM     12  C   UNL A   1      38.346  29.217  28.961  1.00  0.00    -0.014 A 
BRANCH  12  13
ATOM     13  C   UNL A   1      39.704  28.845  29.433  1.00  0.00     0.031 A 
ATOM     14  C   UNL A   1      40.462  29.814  30.302  1.00  0.00     0.074 A 
ATOM     15  C   UNL A   1      40.275  27.687  29.053  1.00  0.00     0.049 A 
ATOM     16  N   UNL A   1      41.711  29.774  30.686  1.00  0.00    -0.248 NA
ATOM     17  C   UNL A   1      39.722  30.995  30.782  1.00  0.00     0.031 C 
ATOM     18  C   UNL A   1      39.643  26.658  28.230  1.00  0.00     0.029 A 
ATOM     19  N   UNL A   1      41.532  27.190  29.303  1.00  0.00    -0.354 N 
ATOM     20  C   UNL A   1      41.912  30.934  31.425  1.00  0.00     0.074 A 
ATOM     21  C   UNL A   1      40.672  31.675  31.409  1.00  0.00     0.031 C 
ATOM     22  C   UNL A   1      40.512  25.649  28.046  1.00  0.00     0.029 A 
ATOM     23  C   UNL A   1      41.778  25.982  28.695  1.00  0.00     0.049 A 
ATOM     24  H   UNL A   1      42.194  27.655  29.864  1.00  0.00     0.167 HD
ATOM     25  C   UNL A   1      43.028  31.337  32.072  1.00  0.00     0.031 A 
ATOM     26  C   UNL A   1      42.902  25.240  28.645  1.00  0.00     0.031 A 
ATOM     27  C   UNL A   1      44.247  30.580  32.124  1.00  0.00     0.049 A 
ATOM     28  C   UNL A   1      44.141  25.722  29.353  1.00  0.00     0.074 A 
ATOM     29  C   UNL A   1      45.419  30.891  32.792  1.00  0.00     0.029 A 
ATOM     30  N   UNL A   1      44.446  29.358  31.503  1.00  0.00    -0.354 N 
ATOM     31  N   UNL A   1      44.311  26.814  30.058  1.00  0.00    -0.248 NA
ATOM     32  C   UNL A   1      45.340  24.875  29.261  1.00  0.00     0.031 C 
ATOM     33  C   UNL A   1      46.343  29.879  32.536  1.00  0.00     0.029 A 
ATOM     34  C   UNL A   1      45.728  28.911  31.759  1.00  0.00     0.049 A 
ATOM     35  H   UNL A   1      43.775  28.882  30.961  1.00  0.00     0.167 HD
ATOM     36  C   UNL A   1      45.622  26.771  30.515  1.00  0.00     0.074 A 
ATOM     37  C   UNL A   1      46.204  25.543  30.018  1.00  0.00     0.031 C 
ATOM     38  C   UNL A   1      46.284  27.673  31.279  1.00  0.00     0.031 A 
BRANCH  25  39
ATOM     39  C   UNL A   1      42.998  32.651  32.797  1.00  0.00    -0.014 A 
ATOM     40  C   UNL A   1      42.587  32.697  34.139  1.00  0.00     0.009 A 
ATOM     41  C   UNL A   1      43.259  33.853  32.122  1.00  0.00     0.009 A 
ATOM     42  C   UNL A   1      42.416  33.922  34.785  1.00  0.00     0.001 A 
ATOM     43  C   UNL A   1      43.112  35.076  32.780  1.00  0.00     0.001 A 
ATOM     44  C   UNL A   1      42.680  35.110  34.106  1.00  0.00     0.000 A 
ENDBRANCH  25  39
BRANCH  26  45
ATOM     45  C   UNL A   1      42.907  23.960  27.885  1.00  0.00    -0.014 A 
ATOM     46  C   UNL A   1      42.579  22.751  28.519  1.00  0.00     0.009 A 
ATOM     47  C   UNL A   1      43.260  23.936  26.527  1.00  0.00     0.009 A 
ATOM     48  C   UNL A   1      42.619  21.545  27.816  1.00  0.00     0.001 A 
ATOM     49  C   UNL A   1      43.270  22.733  25.817  1.00  0.00     0.001 A 
ATOM     50  C   UNL A   1      42.958  21.538  26.464  1.00  0.00     0.000 A 
ENDBRANCH  26  45
BRANCH  38  51
ATOM     51  C   UNL A   1      47.703  27.380  31.670  1.00  0.00    -0.014 A 
ATOM     52  C   UNL A   1      48.748  27.764  30.813  1.00  0.00     0.009 A 
ATOM     53  C   UNL A   1      47.992  26.581  32.785  1.00  0.00     0.009 A 
ATOM     54  C   UNL A   1      50.052  27.326  31.047  1.00  0.00     0.001 A 
ATOM     55  C   UNL A   1      49.302  26.164  33.029  1.00  0.00     0.001 A 
ATOM     56  C   UNL A   1      50.327  26.525  32.154  1.00  0.00     0.000 A 
ENDBRANCH  38  51
ENDBRANCH  12  13
ENDBRANCH   5   7
ENDBRANCH   2   3
ENDBRANCH   1   2
BRANCH   1  57
ATOM     57  C   UNL A   1      31.918  27.861  26.679  1.00  0.00     0.023 C 
BRANCH  57  58
ATOM     58  C   UNL A   1      31.057  26.936  25.825  1.00  0.00     0.116 C 
BRANCH  58  59
ATOM     59  N   UNL A   1      30.527  25.812  26.575  1.00  0.00    -0.352 N 
ATOM     60  C   UNL A   1      30.797  24.476  26.406  1.00  0.00     0.255 C 
ATOM     61  H   UNL A   1      29.893  26.035  27.294  1.00  0.00     0.163 HD
ATOM     62  O   UNL A   1      30.226  23.637  27.101  1.00  0.00    -0.269 OA
BRANCH  60  63
ATOM     63  C   UNL A   1      31.706  24.033  25.332  1.00  0.00     0.082 A 
ATOM     64  C   UNL A   1      33.027  23.739  25.697  1.00  0.00     0.026 A 
ATOM     65  C   UNL A   1      31.300  23.914  23.999  1.00  0.00     0.128 A 
ATOM     66  C   UNL A   1      33.933  23.270  24.737  1.00  0.00    -0.017 A 
ATOM     67  C   UNL A   1      32.193  23.441  23.040  1.00  0.00     0.047 A 
ATOM     68  C   UNL A   1      33.500  23.112  23.411  1.00  0.00     0.012 A 
BRANCH  65  69
ATOM     69  O   UNL A   1      30.029  24.252  23.627  1.00  0.00    -0.507 OA
ATOM     70  H   UNL A   1      29.531  24.848  24.149  1.00  0.00     0.293 HD
ENDBRANCH  65  69
BRANCH  66  71
ATOM     71  C   UNL A   1      35.330  22.954  25.092  1.00  0.00    -0.011 A 
ATOM     72  C   UNL A   1      36.200  23.919  25.740  1.00  0.00     0.027 A 
ATOM     73  C   UNL A   1      35.823  21.743  24.778  1.00  0.00     0.080 A 
ATOM     74  C   UNL A   1      37.476  23.619  26.002  1.00  0.00     0.095 A 
ATOM     75  C   UNL A   1      37.241  21.392  25.072  1.00  0.00     0.255 A 
ATOM     76  N   UNL A   1      37.999  22.382  25.673  1.00  0.00    -0.258 N 
ATOM     77  O   UNL A   1      37.643  20.274  24.758  1.00  0.00    -0.269 OA
BRANCH  76  78
ATOM     78  C   UNL A   1      39.381  22.078  25.940  1.00  0.00     0.451 C 
ATOM     79  F   UNL A   1      40.084  23.199  26.230  1.00  0.00    -0.185 F 
ATOM     80  F   UNL A   1      39.496  21.226  26.988  1.00  0.00    -0.185 F 
ENDBRANCH  76  78
ENDBRANCH  66  71
ENDBRANCH  60  63
ENDBRANCH  58  59
ENDBRANCH  57  58
ENDBRANCH   1  57
TORSDOF 14
ENDMDL
MODEL 2
REMARK VINA RESULT:     -10.7      2.005      2.705
REMARK SMILES O=C(NCCCCNC(=O)c1cc(-c2ccn(C(F)F)c(=O)c2)ccc1O)c1ccc(-c2c3nc(c(-c4ccccc4)c4ccc([nH]4)c(-c4ccccc4)c4nc(c(-c5ccccc5)c5ccc2[nH]5)C=C4)C=C3)cc1
REMARK SMILES IDX 5 1 4 2 3 3 1 4 2 5 28 7 29 8 75 9 30 10 74 11 31 12 32 13
REMARK SMILES IDX 33 14 68 15 34 16 73 17 67 18 69 19 35 20 72 21 66 22 65 23
REMARK SMILES IDX 36 25 58 26 43 27 57 28 44 29 47 30 56 31 70 32 45 33 46 34
REMARK SMILES IDX 55 36 71 37 48 38 37 39 38 40 42 41 39 42 41 43 40 44 59 45
REMARK SMILES IDX 60 46 64 47 61 48 63 49 62 50 49 51 50 52 54 53 51 54 53 55
REMARK SMILES IDX 52 56 6 57 7 58 8 59 9 60 10 62 11 63 12 64 26 65 13 66
REMARK SMILES IDX 25 67 24 68 27 69 14 71 15 72 23 73 16 74 21 75 17 76 22 77
REMARK SMILES IDX 18 78 19 79 20 80
REMARK H PARENT 3 6 69 24 47 35 8 61 27 70
REMARK Flexibility Score: inf
ROOT
ATOM      1  C   UNL A   1      32.184  28.900  26.776  1.00  0.00     0.023 C 
ENDROOT
BRANCH   1   2
ATOM      2  C   UNL A   1      33.548  29.079  27.435  1.00  0.00     0.116 C 
BRANCH   2   3
ATOM      3  N   UNL A   1      33.728  30.411  27.989  1.00  0.00    -0.352 N 
ATOM      4  O   UNL A   1      34.689  32.056  29.181  1.00  0.00    -0.269 OA
ATOM      5  C   UNL A   1      34.806  30.962  28.630  1.00  0.00     0.251 C 
ATOM      6  H   UNL A   1      32.953  31.010  27.887  1.00  0.00     0.163 HD
BRANCH   5   7
ATOM      7  C   UNL A   1      36.111  30.267  28.668  1.00  0.00     0.039 A 
ATOM      8  C   UNL A   1      36.527  29.682  29.871  1.00  0.00     0.014 A 
ATOM      9  C   UNL A   1      36.964  30.261  27.562  1.00  0.00     0.014 A 
ATOM     10  C   UNL A   1      37.786  29.080  29.959  1.00  0.00     0.010 A 
ATOM     11  C   UNL A   1      38.191  29.604  27.630  1.00  0.00     0.010 A 
ATOM     12  C   UNL A   1      38.627  29.036  28.838  1.00  0.00    -0.014 A 
BRANCH  12  13
ATOM     13  C   UNL A   1      40.013  28.508  28.920  1.00  0.00     0.031 A 
ATOM     14  C   UNL A   1      41.129  29.449  29.287  1.00  0.00     0.074 A 
ATOM     15  C   UNL A   1      40.282  27.223  28.623  1.00  0.00     0.049 A 
ATOM     16  N   UNL A   1      42.421  29.250  29.255  1.00  0.00    -0.248 NA
ATOM     17  C   UNL A   1      40.740  30.802  29.725  1.00  0.00     0.031 C 
ATOM     18  C   UNL A   1      39.291  26.207  28.271  1.00  0.00     0.029 A 
ATOM     19  N   UNL A   1      41.483  26.556  28.557  1.00  0.00    -0.354 N 
ATOM     20  C   UNL A   1      42.996  30.455  29.639  1.00  0.00     0.074 A 
ATOM     21  C   UNL A   1      41.919  31.391  29.866  1.00  0.00     0.031 C 
ATOM     22  C   UNL A   1      39.922  25.045  28.030  1.00  0.00     0.029 A 
ATOM     23  C   UNL A   1      41.364  25.245  28.162  1.00  0.00     0.049 A 
ATOM     24  H   UNL A   1      42.346  26.978  28.772  1.00  0.00     0.167 HD
ATOM     25  C   UNL A   1      44.305  30.750  29.802  1.00  0.00     0.031 A 
ATOM     26  C   UNL A   1      42.309  24.317  27.910  1.00  0.00     0.031 A 
ATOM     27  C   UNL A   1      45.372  29.807  29.618  1.00  0.00     0.049 A 
ATOM     28  C   UNL A   1      43.762  24.677  28.074  1.00  0.00     0.074 A 
ATOM     29  C   UNL A   1      46.729  30.005  29.801  1.00  0.00     0.029 A 
ATOM     30  N   UNL A   1      45.203  28.488  29.228  1.00  0.00    -0.354 N 
ATOM     31  N   UNL A   1      44.289  25.817  28.451  1.00  0.00    -0.248 NA
ATOM     32  C   UNL A   1      44.751  23.628  27.782  1.00  0.00     0.031 C 
ATOM     33  C   UNL A   1      47.387  28.819  29.477  1.00  0.00     0.029 A 
ATOM     34  C   UNL A   1      46.435  27.867  29.150  1.00  0.00     0.049 A 
ATOM     35  H   UNL A   1      44.337  28.060  29.036  1.00  0.00     0.167 HD
ATOM     36  C   UNL A   1      45.663  25.614  28.468  1.00  0.00     0.074 A 
ATOM     37  C   UNL A   1      45.893  24.241  28.072  1.00  0.00     0.031 C 
ATOM     38  C   UNL A   1      46.646  26.492  28.781  1.00  0.00     0.031 A 
BRANCH  25  39
ATOM     39  C   UNL A   1      44.677  32.144  30.215  1.00  0.00    -0.014 A 
ATOM     40  C   UNL A   1      44.721  32.478  31.579  1.00  0.00     0.009 A 
ATOM     41  C   UNL A   1      44.864  33.154  29.259  1.00  0.00     0.009 A 
ATOM     42  C   UNL A   1      44.924  33.800  31.977  1.00  0.00     0.001 A 
ATOM     43  C   UNL A   1      45.094  34.471  29.663  1.00  0.00     0.001 A 
ATOM     44  C   UNL A   1      45.112  34.795  31.019  1.00  0.00     0.000 A 
ENDBRANCH  25  39
BRANCH  26  45
ATOM     45  C   UNL A   1      41.905  22.955  27.466  1.00  0.00    -0.014 A 
ATOM     46  C   UNL A   1      41.508  21.987  28.401  1.00  0.00     0.009 A 
ATOM     47  C   UNL A   1      41.935  22.610  26.106  1.00  0.00     0.009 A 
ATOM     48  C   UNL A   1      41.165  20.697  27.987  1.00  0.00     0.001 A 
ATOM     49  C   UNL A   1      41.562  21.329  25.691  1.00  0.00     0.001 A 
ATOM     50  C   UNL A   1      41.185  20.372  26.632  1.00  0.00     0.000 A 
ENDBRANCH  26  45
BRANCH  38  51
ATOM     51  C   UNL A   1      48.070  26.018  28.753  1.00  0.00    -0.014 A 
ATOM     52  C   UNL A   1      48.696  25.643  29.953  1.00  0.00     0.009 A 
ATOM     53  C   UNL A   1      48.835  26.107  27.582  1.00  0.00     0.009 A 
ATOM     54  C   UNL A   1      50.069  25.397  29.988  1.00  0.00     0.001 A 
ATOM     55  C   UNL A   1      50.205  25.838  27.616  1.00  0.00     0.001 A 
ATOM     56  C   UNL A   1      50.822  25.498  28.820  1.00  0.00     0.000 A 
ENDBRANCH  38  51
ENDBRANCH  12  13
ENDBRANCH   5   7
ENDBRANCH   2   3
ENDBRANCH   1   2
BRANCH   1  57
ATOM     57  C   UNL A   1      31.954  29.727  25.510  1.00  0.00     0.023 C 
BRANCH  57  58
ATOM     58  C   UNL A   1      32.798  29.329  24.303  1.00  0.00     0.116 C 
BRANCH  58  59
ATOM     59  N   UNL A   1      31.996  29.044  23.126  1.00  0.00    -0.352 N 
ATOM     60  C   UNL A   1      31.247  27.924  22.861  1.00  0.00     0.255 C 
ATOM     61  H   UNL A   1      31.990  29.740  22.431  1.00  0.00     0.163 HD
ATOM     62  O   UNL A   1      30.655  27.816  21.788  1.00  0.00    -0.269 OA
BRANCH  60  63
ATOM     63  C   UNL A   1      31.218  26.806  23.823  1.00  0.00     0.082 A 
ATOM     64  C   UNL A   1      32.417  26.109  24.027  1.00  0.00     0.026 A 
ATOM     65  C   UNL A   1      30.057  26.426  24.506  1.00  0.00     0.128 A 
ATOM     66  C   UNL A   1      32.473  25.065  24.959  1.00  0.00    -0.017 A 
ATOM     67  C   UNL A   1      30.108  25.394  25.440  1.00  0.00     0.047 A 
ATOM     68  C   UNL A   1      31.312  24.724  25.670  1.00  0.00     0.012 A 
BRANCH  65  69
ATOM     69  O   UNL A   1      28.872  27.065  24.271  1.00  0.00    -0.507 OA
ATOM     70  H   UNL A   1      28.857  27.994  24.151  1.00  0.00     0.293 HD
ENDBRANCH  65  69
BRANCH  66  71
ATOM     71  C   UNL A   1      33.721  24.313  25.192  1.00  0.00    -0.011 A 
ATOM     72  C   UNL A   1      34.976  24.682  24.563  1.00  0.00     0.027 A 
ATOM     73  C   UNL A   1      33.688  23.233  25.992  1.00  0.00     0.080 A 
ATOM     74  C   UNL A   1      36.078  23.949  24.756  1.00  0.00     0.095 A 
ATOM     75  C   UNL A   1      34.910  22.411  26.222  1.00  0.00     0.255 A 
ATOM     76  N   UNL A   1      36.054  22.829  25.565  1.00  0.00    -0.258 N 
ATOM     77  O   UNL A   1      34.824  21.429  26.956  1.00  0.00    -0.269 OA
BRANCH  76  78
ATOM     78  C   UNL A   1      37.242  22.034  25.747  1.00  0.00     0.451 C 
ATOM     79  F   UNL A   1      37.600  21.413  24.598  1.00  0.00    -0.185 F 
ATOM     80  F   UNL A   1      38.282  22.804  26.152  1.00  0.00    -0.185 F 
ENDBRANCH  76  78
ENDBRANCH  66  71
ENDBRANCH  60  63
ENDBRANCH  58  59
ENDBRANCH  57  58
ENDBRANCH   1  57
TORSDOF 14
ENDMDL
MODEL 3
REMARK VINA RESULT:     -10.6      2.798      7.749
REMARK SMILES O=C(NCCCCNC(=O)c1cc(-c2ccn(C(F)F)c(=O)c2)ccc1O)c1ccc(-c2c3nc(c(-c4ccccc4)c4ccc([nH]4)c(-c4ccccc4)c4nc(c(-c5ccccc5)c5ccc2[nH]5)C=C4)C=C3)cc1
REMARK SMILES IDX 5 1 4 2 3 3 1 4 2 5 28 7 29 8 75 9 30 10 74 11 31 12 32 13
REMARK SMILES IDX 33 14 68 15 34 16 73 17 67 18 69 19 35 20 72 21 66 22 65 23
REMARK SMILES IDX 36 25 58 26 43 27 57 28 44 29 47 30 56 31 70 32 45 33 46 34
REMARK SMILES IDX 55 36 71 37 48 38 37 39 38 40 42 41 39 42 41 43 40 44 59 45
REMARK SMILES IDX 60 46 64 47 61 48 63 49 62 50 49 51 50 52 54 53 51 54 53 55
REMARK SMILES IDX 52 56 6 57 7 58 8 59 9 60 10 62 11 63 12 64 26 65 13 66
REMARK SMILES IDX 25 67 24 68 27 69 14 71 15 72 23 73 16 74 21 75 17 76 22 77
REMARK SMILES IDX 18 78 19 79 20 80
REMARK H PARENT 3 6 69 24 47 35 8 61 27 70
REMARK Flexibility Score: inf
ROOT
ATOM      1  C   UNL A   1      36.213  23.125  25.697  1.00  0.00     0.023 C 
ENDROOT
BRANCH   1   2
ATOM      2  C   UNL A   1      37.493  23.258  24.877  1.00  0.00     0.116 C 
BRANCH   2   3
ATOM      3  N   UNL A   1      38.573  22.435  25.395  1.00  0.00    -0.352 N 
ATOM      4  O   UNL A   1      40.550  21.958  26.352  1.00  0.00    -0.269 OA
ATOM      5  C   UNL A   1      39.651  22.777  26.168  1.00  0.00     0.251 C 
ATOM      6  H   UNL A   1      38.522  21.482  25.152  1.00  0.00     0.163 HD
BRANCH   5   7
ATOM      7  C   UNL A   1      39.752  24.116  26.790  1.00  0.00     0.039 A 
ATOM      8  C   UNL A   1      40.372  25.147  26.073  1.00  0.00     0.014 A 
ATOM      9  C   UNL A   1      39.323  24.343  28.100  1.00  0.00     0.014 A 
ATOM     10  C   UNL A   1      40.548  26.403  26.660  1.00  0.00     0.010 A 
ATOM     11  C   UNL A   1      39.438  25.613  28.662  1.00  0.00     0.010 A 
ATOM     12  C   UNL A   1      40.080  26.646  27.960  1.00  0.00    -0.014 A 
BRANCH  12  13
ATOM     13  C   UNL A   1      40.345  27.928  28.659  1.00  0.00     0.031 A 
ATOM     14  C   UNL A   1      41.643  28.094  29.405  1.00  0.00     0.074 A 
ATOM     15  C   UNL A   1      39.425  28.911  28.675  1.00  0.00     0.049 A 
ATOM     16  N   UNL A   1      42.011  29.051  30.218  1.00  0.00    -0.248 NA
ATOM     17  C   UNL A   1      42.649  27.032  29.231  1.00  0.00     0.031 C 
ATOM     18  C   UNL A   1      38.139  28.882  27.980  1.00  0.00     0.029 A 
ATOM     19  N   UNL A   1      39.431  30.126  29.318  1.00  0.00    -0.354 N 
ATOM     20  C   UNL A   1      43.274  28.690  30.672  1.00  0.00     0.074 A 
ATOM     21  C   UNL A   1      43.598  27.415  30.075  1.00  0.00     0.031 C 
ATOM     22  C   UNL A   1      37.481  30.027  28.229  1.00  0.00     0.029 A 
ATOM     23  C   UNL A   1      38.275  30.849  29.140  1.00  0.00     0.049 A 
ATOM     24  H   UNL A   1      40.191  30.449  29.855  1.00  0.00     0.167 HD
ATOM     25  C   UNL A   1      44.097  29.371  31.501  1.00  0.00     0.031 A 
ATOM     26  C   UNL A   1      37.888  32.027  29.670  1.00  0.00     0.031 A 
ATOM     27  C   UNL A   1      43.792  30.659  32.059  1.00  0.00     0.049 A 
ATOM     28  C   UNL A   1      38.812  32.754  30.611  1.00  0.00     0.074 A 
ATOM     29  C   UNL A   1      44.585  31.444  32.877  1.00  0.00     0.029 A 
ATOM     30  N   UNL A   1      42.615  31.356  31.843  1.00  0.00    -0.354 N 
ATOM     31  N   UNL A   1      40.008  32.407  31.021  1.00  0.00    -0.248 NA
ATOM     32  C   UNL A   1      38.338  34.033  31.164  1.00  0.00     0.031 C 
ATOM     33  C   UNL A   1      43.868  32.597  33.195  1.00  0.00     0.029 A 
ATOM     34  C   UNL A   1      42.655  32.556  32.527  1.00  0.00     0.049 A 
ATOM     35  H   UNL A   1      41.865  31.043  31.286  1.00  0.00     0.167 HD
ATOM     36  C   UNL A   1      40.439  33.433  31.852  1.00  0.00     0.074 A 
ATOM     37  C   UNL A   1      39.383  34.422  31.886  1.00  0.00     0.031 C 
ATOM     38  C   UNL A   1      41.607  33.542  32.529  1.00  0.00     0.031 A 
BRANCH  25  39
ATOM     39  C   UNL A   1      45.420  28.758  31.855  1.00  0.00    -0.014 A 
ATOM     40  C   UNL A   1      46.535  28.984  31.032  1.00  0.00     0.009 A 
ATOM     41  C   UNL A   1      45.535  27.863  32.930  1.00  0.00     0.009 A 
ATOM     42  C   UNL A   1      47.735  28.310  31.265  1.00  0.00     0.001 A 
ATOM     43  C   UNL A   1      46.745  27.210  33.176  1.00  0.00     0.001 A 
ATOM     44  C   UNL A   1      47.838  27.424  32.337  1.00  0.00     0.000 A 
ENDBRANCH  25  39
BRANCH  26  45
ATOM     45  C   UNL A   1      36.554  32.587  29.326  1.00  0.00    -0.014 A 
ATOM     46  C   UNL A   1      36.394  33.416  28.204  1.00  0.00     0.009 A 
ATOM     47  C   UNL A   1      35.435  32.314  30.128  1.00  0.00     0.009 A 
ATOM     48  C   UNL A   1      35.149  33.972  27.902  1.00  0.00     0.001 A 
ATOM     49  C   UNL A   1      34.184  32.846  29.807  1.00  0.00     0.001 A 
ATOM     50  C   UNL A   1      34.044  33.681  28.699  1.00  0.00     0.000 A 
ENDBRANCH  26  45
BRANCH  38  51
ATOM     51  C   UNL A   1      41.852  34.777  33.347  1.00  0.00    -0.014 A 
ATOM     52  C   UNL A   1      42.691  35.784  32.841  1.00  0.00     0.009 A 
ATOM     53  C   UNL A   1      41.400  34.865  34.671  1.00  0.00     0.009 A 
ATOM     54  C   UNL A   1      43.100  36.840  33.657  1.00  0.00     0.001 A 
ATOM     55  C   UNL A   1      41.792  35.935  35.477  1.00  0.00     0.001 A 
ATOM     56  C   UNL A   1      42.652  36.912  34.974  1.00  0.00     0.000 A 
ENDBRANCH  38  51
ENDBRANCH  12  13
ENDBRANCH   5   7
ENDBRANCH   2   3
ENDBRANCH   1   2
BRANCH   1  57
ATOM     57  C   UNL A   1      35.848  21.699  26.116  1.00  0.00     0.023 C 
BRANCH  57  58
ATOM     58  C   UNL A   1      35.523  20.742  24.974  1.00  0.00     0.116 C 
BRANCH  58  59
ATOM     59  N   UNL A   1      34.501  19.772  25.327  1.00  0.00    -0.352 N 
ATOM     60  C   UNL A   1      33.157  19.819  25.055  1.00  0.00     0.255 C 
ATOM     61  H   UNL A   1      34.812  18.983  25.826  1.00  0.00     0.163 HD
ATOM     62  O   UNL A   1      32.411  18.931  25.465  1.00  0.00    -0.269 OA
BRANCH  60  63
ATOM     63  C   UNL A   1      32.584  20.978  24.344  1.00  0.00     0.082 A 
ATOM     64  C   UNL A   1      32.525  22.191  25.045  1.00  0.00     0.026 A 
ATOM     65  C   UNL A   1      32.100  20.898  23.033  1.00  0.00     0.128 A 
ATOM     66  C   UNL A   1      32.035  23.342  24.416  1.00  0.00    -0.017 A 
ATOM     67  C   UNL A   1      31.619  22.041  22.400  1.00  0.00     0.047 A 
ATOM     68  C   UNL A   1      31.595  23.258  23.086  1.00  0.00     0.012 A 
BRANCH  65  69
ATOM     69  O   UNL A   1      32.104  19.707  22.363  1.00  0.00    -0.507 OA
ATOM     70  H   UNL A   1      32.628  18.996  22.674  1.00  0.00     0.293 HD
ENDBRANCH  65  69
BRANCH  66  71
ATOM     71  C   UNL A   1      31.960  24.632  25.130  1.00  0.00    -0.011 A 
ATOM     72  C   UNL A   1      30.695  25.235  25.506  1.00  0.00     0.027 A 
ATOM     73  C   UNL A   1      33.101  25.283  25.418  1.00  0.00     0.080 A 
ATOM     74  C   UNL A   1      30.659  26.428  26.108  1.00  0.00     0.095 A 
ATOM     75  C   UNL A   1      33.077  26.610  26.095  1.00  0.00     0.255 A 
ATOM     76  N   UNL A   1      31.823  27.115  26.396  1.00  0.00    -0.258 N 
ATOM     77  O   UNL A   1      34.148  27.166  26.327  1.00  0.00    -0.269 OA
BRANCH  76  78
ATOM     78  C   UNL A   1      31.772  28.410  27.025  1.00  0.00     0.451 C 
ATOM     79  F   UNL A   1      31.359  29.363  26.155  1.00  0.00    -0.185 F 
ATOM     80  F   UNL A   1      30.919  28.403  28.079  1.00  0.00    -0.185 F 
ENDBRANCH  76  78
ENDBRANCH  66  71
ENDBRANCH  60  63
ENDBRANCH  58  59
ENDBRANCH  57  58
ENDBRANCH   1  57
TORSDOF 14
ENDMDL
