MODEL 1
REMARK VINA RESULT:      -9.0      0.000      0.000
REMARK SMILES COC(=O)c1ccc(Cl)c(-c2ccc(C(=O)NCCCCNC(=O)c3ccc(-c4c5nc(c(-c6ccccc6)c6ccc([nH]6)c(-c6ccccc6)c6nc(c(-c7ccccc7)c7ccc4[nH]7)C=C6)C=C5)cc3)c(F)c2)c1
REMARK SMILES IDX 19 1 18 2 17 3 15 4 16 5 14 7 11 8 12 9 75 10 13 11 73 12
REMARK SMILES IDX 74 13 10 14 5 15 6 16 76 17 7 18 8 19 9 20 3 21 4 22 2 23
REMARK SMILES IDX 1 24 20 25 21 26 22 27 23 28 24 30 25 31 26 32 72 33 27 34
REMARK SMILES IDX 71 35 28 36 29 37 30 38 65 39 31 40 70 41 64 42 66 43 32 44
REMARK SMILES IDX 69 45 63 46 62 47 33 49 55 50 40 51 54 52 41 53 44 54 53 55
REMARK SMILES IDX 67 56 42 57 43 58 52 60 68 61 45 62 34 63 35 64 39 65 36 66
REMARK SMILES IDX 38 67 37 68 56 69 57 70 61 71 58 72 60 73 59 74 46 75 47 76
REMARK SMILES IDX 51 77 48 78 50 79 49 80
REMARK H PARENT 17 6 22 29 66 48 44 59
REMARK Flexibility Score: inf
ROOT
ATOM      1  C   UNL A   1      35.247  33.698  32.289  1.00  0.00     0.023 C 
ENDROOT
BRANCH   1   2
ATOM      2  C   UNL A   1      34.877  32.324  31.719  1.00  0.00     0.116 C 
BRANCH   2   3
ATOM      3  N   UNL A   1      34.423  32.446  30.349  1.00  0.00    -0.352 N 
ATOM      4  C   UNL A   1      34.929  32.002  29.156  1.00  0.00     0.254 C 
ATOM      5  O   UNL A   1      34.269  32.286  28.152  1.00  0.00    -0.269 OA
ATOM      6  H   UNL A   1      33.582  32.949  30.257  1.00  0.00     0.163 HD
BRANCH   4   7
ATOM      7  C   UNL A   1      36.161  31.179  28.981  1.00  0.00     0.075 A 
ATOM      8  C   UNL A   1      38.651  29.809  28.772  1.00  0.00    -0.014 A 
ATOM      9  C   UNL A   1      38.602  31.117  29.260  1.00  0.00     0.010 A 
ATOM     10  C   UNL A   1      37.448  29.198  28.406  1.00  0.00     0.048 A 
ATOM     11  C   UNL A   1      37.375  31.791  29.357  1.00  0.00     0.017 A 
ATOM     12  C   UNL A   1      36.229  29.861  28.541  1.00  0.00     0.136 A 
ATOM     13  F   UNL A   1      35.149  29.121  28.278  1.00  0.00    -0.206 F 
BRANCH   8  14
ATOM     14  C   UNL A   1      39.898  29.046  28.653  1.00  0.00     0.001 A 
ATOM     15  C   UNL A   1      41.805  28.420  27.254  1.00  0.00     0.060 A 
ATOM     16  C   UNL A   1      42.147  27.412  28.159  1.00  0.00     0.017 A 
ATOM     17  C   UNL A   1      40.699  29.240  27.512  1.00  0.00     0.026 A 
ATOM     18  C   UNL A   1      41.385  27.232  29.318  1.00  0.00     0.022 A 
ATOM     19  C   UNL A   1      40.268  28.038  29.562  1.00  0.00     0.048 A 
ATOM     20  Cl  UNL A   1      39.341  27.707  30.985  1.00  0.00    -0.084 Cl
BRANCH  15  21
ATOM     21  C   UNL A   1      42.552  28.647  25.991  1.00  0.00     0.337 C 
ATOM     22  O   UNL A   1      42.021  28.985  24.951  1.00  0.00    -0.246 OA
BRANCH  21  23
ATOM     23  O   UNL A   1      43.863  28.343  26.166  1.00  0.00    -0.465 OA
ATOM     24  C   UNL A   1      44.317  27.269  25.340  1.00  0.00     0.282 C 
ENDBRANCH  21  23
ENDBRANCH  15  21
ENDBRANCH   8  14
ENDBRANCH   4   7
ENDBRANCH   2   3
ENDBRANCH   1   2
BRANCH   1  25
ATOM     25  C   UNL A   1      36.621  34.211  31.862  1.00  0.00     0.023 C 
BRANCH  25  26
ATOM     26  C   UNL A   1      37.568  34.531  33.011  1.00  0.00     0.116 C 
BRANCH  26  27
ATOM     27  N   UNL A   1      37.073  34.098  34.312  1.00  0.00    -0.352 N 
ATOM     28  C   UNL A   1      37.438  32.983  35.029  1.00  0.00     0.251 C 
ATOM     29  H   UNL A   1      36.394  34.676  34.729  1.00  0.00     0.163 HD
ATOM     30  O   UNL A   1      36.870  32.686  36.073  1.00  0.00    -0.269 OA
BRANCH  28  31
ATOM     31  C   UNL A   1      38.501  32.119  34.483  1.00  0.00     0.039 A 
ATOM     32  C   UNL A   1      38.173  31.193  33.493  1.00  0.00     0.014 A 
ATOM     33  C   UNL A   1      39.828  32.308  34.878  1.00  0.00     0.014 A 
ATOM     34  C   UNL A   1      39.195  30.516  32.827  1.00  0.00     0.010 A 
ATOM     35  C   UNL A   1      40.847  31.688  34.163  1.00  0.00     0.010 A 
ATOM     36  C   UNL A   1      40.540  30.801  33.120  1.00  0.00    -0.014 A 
BRANCH  36  37
ATOM     37  C   UNL A   1      41.639  30.222  32.312  1.00  0.00     0.031 A 
ATOM     38  C   UNL A   1      42.288  28.933  32.728  1.00  0.00     0.074 A 
ATOM     39  C   UNL A   1      42.106  30.902  31.245  1.00  0.00     0.049 A 
ATOM     40  N   UNL A   1      43.302  28.309  32.186  1.00  0.00    -0.248 NA
ATOM     41  C   UNL A   1      41.739  28.268  33.921  1.00  0.00     0.031 C 
ATOM     42  C   UNL A   1      41.589  32.186  30.764  1.00  0.00     0.029 A 
ATOM     43  N   UNL A   1      43.129  30.611  30.376  1.00  0.00    -0.354 N 
ATOM     44  C   UNL A   1      43.519  27.188  32.976  1.00  0.00     0.074 A 
ATOM     45  C   UNL A   1      42.567  27.244  34.063  1.00  0.00     0.031 C 
ATOM     46  C   UNL A   1      42.276  32.555  29.673  1.00  0.00     0.029 A 
ATOM     47  C   UNL A   1      43.313  31.565  29.405  1.00  0.00     0.049 A 
ATOM     48  H   UNL A   1      43.678  29.797  30.444  1.00  0.00     0.167 HD
ATOM     49  C   UNL A   1      44.419  26.191  32.801  1.00  0.00     0.031 A 
ATOM     50  C   UNL A   1      44.224  31.643  28.416  1.00  0.00     0.031 A 
ATOM     51  C   UNL A   1      45.367  26.140  31.721  1.00  0.00     0.049 A 
ATOM     52  C   UNL A   1      45.242  30.547  28.274  1.00  0.00     0.074 A 
ATOM     53  C   UNL A   1      46.280  25.144  31.424  1.00  0.00     0.029 A 
ATOM     54  N   UNL A   1      45.532  27.132  30.767  1.00  0.00    -0.354 N 
ATOM     55  N   UNL A   1      45.381  29.451  28.980  1.00  0.00    -0.248 NA
ATOM     56  C   UNL A   1      46.231  30.698  27.196  1.00  0.00     0.031 C 
ATOM     57  C   UNL A   1      47.043  25.564  30.330  1.00  0.00     0.029 A 
ATOM     58  C   UNL A   1      46.562  26.791  29.905  1.00  0.00     0.049 A 
ATOM     59  H   UNL A   1      44.998  27.957  30.710  1.00  0.00     0.167 HD
ATOM     60  C   UNL A   1      46.458  28.774  28.422  1.00  0.00     0.074 A 
ATOM     61  C   UNL A   1      46.920  29.571  27.304  1.00  0.00     0.031 C 
ATOM     62  C   UNL A   1      47.016  27.599  28.804  1.00  0.00     0.031 A 
BRANCH  49  63
ATOM     63  C   UNL A   1      44.427  25.079  33.813  1.00  0.00    -0.014 A 
ATOM     64  C   UNL A   1      43.682  23.906  33.611  1.00  0.00     0.009 A 
ATOM     65  C   UNL A   1      45.222  25.188  34.963  1.00  0.00     0.009 A 
ATOM     66  C   UNL A   1      43.704  22.881  34.560  1.00  0.00     0.001 A 
ATOM     67  C   UNL A   1      45.267  24.149  35.895  1.00  0.00     0.001 A 
ATOM     68  C   UNL A   1      44.502  23.001  35.697  1.00  0.00     0.000 A 
ENDBRANCH  49  63
BRANCH  50  69
ATOM     69  C   UNL A   1      44.221  32.803  27.486  1.00  0.00    -0.014 A 
ATOM     70  C   UNL A   1      43.803  32.648  26.155  1.00  0.00     0.009 A 
ATOM     71  C   UNL A   1      44.645  34.069  27.919  1.00  0.00     0.009 A 
ATOM     72  C   UNL A   1      43.835  33.730  25.271  1.00  0.00     0.001 A 
ATOM     73  C   UNL A   1      44.645  35.156  27.042  1.00  0.00     0.001 A 
ATOM     74  C   UNL A   1      44.251  34.984  25.718  1.00  0.00     0.000 A 
ENDBRANCH  50  69
BRANCH  62  75
ATOM     75  C   UNL A   1      48.183  27.097  27.999  1.00  0.00    -0.014 A 
ATOM     76  C   UNL A   1      47.988  26.304  26.858  1.00  0.00     0.009 A 
ATOM     77  C   UNL A   1      49.488  27.468  28.357  1.00  0.00     0.009 A 
ATOM     78  C   UNL A   1      49.082  25.872  26.106  1.00  0.00     0.001 A 
ATOM     79  C   UNL A   1      50.576  27.060  27.586  1.00  0.00     0.001 A 
ATOM     80  C   UNL A   1      50.373  26.255  26.466  1.00  0.00     0.000 A 
ENDBRANCH  62  75
ENDBRANCH  36  37
ENDBRANCH  28  31
ENDBRANCH  26  27
ENDBRANCH  25  26
ENDBRANCH   1  25
TORSDOF 14
ENDMDL
MODEL 2
REMARK VINA RESULT:      -9.0      2.993     10.481
REMARK SMILES COC(=O)c1ccc(Cl)c(-c2ccc(C(=O)NCCCCNC(=O)c3ccc(-c4c5nc(c(-c6ccccc6)c6ccc([nH]6)c(-c6ccccc6)c6nc(c(-c7ccccc7)c7ccc4[nH]7)C=C6)C=C5)cc3)c(F)c2)c1
REMARK SMILES IDX 19 1 18 2 17 3 15 4 16 5 14 7 11 8 12 9 75 10 13 11 73 12
REMARK SMILES IDX 74 13 10 14 5 15 6 16 76 17 7 18 8 19 9 20 3 21 4 22 2 23
REMARK SMILES IDX 1 24 20 25 21 26 22 27 23 28 24 30 25 31 26 32 72 33 27 34
REMARK SMILES IDX 71 35 28 36 29 37 30 38 65 39 31 40 70 41 64 42 66 43 32 44
REMARK SMILES IDX 69 45 63 46 62 47 33 49 55 50 40 51 54 52 41 53 44 54 53 55
REMARK SMILES IDX 67 56 42 57 43 58 52 60 68 61 45 62 34 63 35 64 39 65 36 66
REMARK SMILES IDX 38 67 37 68 56 69 57 70 61 71 58 72 60 73 59 74 46 75 47 76
REMARK SMILES IDX 51 77 48 78 50 79 49 80
REMARK H PARENT 17 6 22 29 66 48 44 59
REMARK Flexibility Score: inf
ROOT
ATOM      1  C   UNL A   1      44.306  22.850  25.790  1.00  0.00     0.023 C 
ENDROOT
BRANCH   1   2
ATOM      2  C   UNL A   1      43.001  22.955  24.994  1.00  0.00     0.116 C 
BRANCH   2   3
ATOM      3  N   UNL A   1      41.957  22.172  25.622  1.00  0.00    -0.352 N 
ATOM      4  C   UNL A   1      40.995  22.474  26.549  1.00  0.00     0.254 C 
ATOM      5  O   UNL A   1      40.245  21.546  26.869  1.00  0.00    -0.269 OA
ATOM      6  H   UNL A   1      41.934  21.235  25.322  1.00  0.00     0.163 HD
BRANCH   4   7
ATOM      7  C   UNL A   1      40.754  23.816  27.154  1.00  0.00     0.075 A 
ATOM      8  C   UNL A   1      40.549  26.365  28.412  1.00  0.00    -0.014 A 
ATOM      9  C   UNL A   1      41.669  25.558  28.626  1.00  0.00     0.010 A 
ATOM     10  C   UNL A   1      39.550  25.890  27.558  1.00  0.00     0.048 A 
ATOM     11  C   UNL A   1      41.765  24.301  28.010  1.00  0.00     0.017 A 
ATOM     12  C   UNL A   1      39.670  24.656  26.919  1.00  0.00     0.136 A 
ATOM     13  F   UNL A   1      38.710  24.380  26.034  1.00  0.00    -0.206 F 
BRANCH   8  14
ATOM     14  C   UNL A   1      40.391  27.691  29.019  1.00  0.00     0.001 A 
ATOM     15  C   UNL A   1      39.701  28.995  30.970  1.00  0.00     0.060 A 
ATOM     16  C   UNL A   1      39.748  30.168  30.212  1.00  0.00     0.017 A 
ATOM     17  C   UNL A   1      40.038  27.770  30.378  1.00  0.00     0.026 A 
ATOM     18  C   UNL A   1      40.135  30.111  28.870  1.00  0.00     0.022 A 
ATOM     19  C   UNL A   1      40.451  28.884  28.276  1.00  0.00     0.048 A 
ATOM     20  Cl  UNL A   1      40.856  28.893  26.594  1.00  0.00    -0.084 Cl
BRANCH  15  21
ATOM     21  C   UNL A   1      39.269  28.979  32.391  1.00  0.00     0.337 C 
ATOM     22  O   UNL A   1      39.233  27.970  33.068  1.00  0.00    -0.246 OA
BRANCH  21  23
ATOM     23  O   UNL A   1      38.858  30.217  32.765  1.00  0.00    -0.465 OA
ATOM     24  C   UNL A   1      38.153  30.234  34.007  1.00  0.00     0.282 C 
ENDBRANCH  21  23
ENDBRANCH  15  21
ENDBRANCH   8  14
ENDBRANCH   4   7
ENDBRANCH   2   3
ENDBRANCH   1   2
BRANCH   1  25
ATOM     25  C   UNL A   1      45.572  23.060  24.959  1.00  0.00     0.023 C 
BRANCH  25  26
ATOM     26  C   UNL A   1      46.555  24.069  25.539  1.00  0.00     0.116 C 
BRANCH  26  27
ATOM     27  N   UNL A   1      46.849  25.178  24.641  1.00  0.00    -0.352 N 
ATOM     28  C   UNL A   1      46.555  26.511  24.815  1.00  0.00     0.251 C 
ATOM     29  H   UNL A   1      47.316  24.946  23.807  1.00  0.00     0.163 HD
ATOM     30  O   UNL A   1      46.776  27.330  23.932  1.00  0.00    -0.269 OA
BRANCH  28  31
ATOM     31  C   UNL A   1      45.918  26.925  26.078  1.00  0.00     0.039 A 
ATOM     32  C   UNL A   1      46.721  27.420  27.107  1.00  0.00     0.014 A 
ATOM     33  C   UNL A   1      44.525  26.923  26.194  1.00  0.00     0.014 A 
ATOM     34  C   UNL A   1      46.118  28.003  28.221  1.00  0.00     0.010 A 
ATOM     35  C   UNL A   1      43.929  27.570  27.270  1.00  0.00     0.010 A 
ATOM     36  C   UNL A   1      44.720  28.131  28.284  1.00  0.00    -0.014 A 
BRANCH  36  37
ATOM     37  C   UNL A   1      44.069  28.894  29.375  1.00  0.00     0.031 A 
ATOM     38  C   UNL A   1      43.789  30.360  29.213  1.00  0.00     0.074 A 
ATOM     39  C   UNL A   1      43.803  28.279  30.545  1.00  0.00     0.049 A 
ATOM     40  N   UNL A   1      43.287  31.204  30.078  1.00  0.00    -0.248 NA
ATOM     41  C   UNL A   1      44.137  30.963  27.916  1.00  0.00     0.031 C 
ATOM     42  C   UNL A   1      44.068  26.869  30.843  1.00  0.00     0.029 A 
ATOM     43  N   UNL A   1      43.257  28.765  31.708  1.00  0.00    -0.354 N 
ATOM     44  C   UNL A   1      43.271  32.435  29.436  1.00  0.00     0.074 A 
ATOM     45  C   UNL A   1      43.859  32.240  28.129  1.00  0.00     0.031 C 
ATOM     46  C   UNL A   1      43.657  26.598  32.091  1.00  0.00     0.029 A 
ATOM     47  C   UNL A   1      43.149  27.822  32.701  1.00  0.00     0.049 A 
ATOM     48  H   UNL A   1      42.972  29.700  31.819  1.00  0.00     0.167 HD
ATOM     49  C   UNL A   1      42.790  33.618  29.887  1.00  0.00     0.031 A 
ATOM     50  C   UNL A   1      42.703  27.931  33.967  1.00  0.00     0.031 A 
ATOM     51  C   UNL A   1      42.208  33.809  31.190  1.00  0.00     0.049 A 
ATOM     52  C   UNL A   1      42.220  29.267  34.459  1.00  0.00     0.074 A 
ATOM     53  C   UNL A   1      41.640  34.954  31.718  1.00  0.00     0.029 A 
ATOM     54  N   UNL A   1      42.131  32.833  32.171  1.00  0.00    -0.354 N 
ATOM     55  N   UNL A   1      42.134  30.403  33.811  1.00  0.00    -0.248 NA
ATOM     56  C   UNL A   1      41.773  29.335  35.858  1.00  0.00     0.031 C 
ATOM     57  C   UNL A   1      41.279  34.690  33.043  1.00  0.00     0.029 A 
ATOM     58  C   UNL A   1      41.563  33.363  33.318  1.00  0.00     0.049 A 
ATOM     59  H   UNL A   1      42.435  31.903  32.068  1.00  0.00     0.167 HD
ATOM     60  C   UNL A   1      41.606  31.316  34.715  1.00  0.00     0.074 A 
ATOM     61  C   UNL A   1      41.370  30.595  35.949  1.00  0.00     0.031 C 
ATOM     62  C   UNL A   1      41.344  32.634  34.540  1.00  0.00     0.031 A 
BRANCH  49  63
ATOM     63  C   UNL A   1      42.887  34.802  28.967  1.00  0.00    -0.014 A 
ATOM     64  C   UNL A   1      41.797  35.202  28.178  1.00  0.00     0.009 A 
ATOM     65  C   UNL A   1      44.071  35.553  28.919  1.00  0.00     0.009 A 
ATOM     66  C   UNL A   1      41.903  36.308  27.331  1.00  0.00     0.001 A 
ATOM     67  C   UNL A   1      44.164  36.677  28.095  1.00  0.00     0.001 A 
ATOM     68  C   UNL A   1      43.085  37.047  27.295  1.00  0.00     0.000 A 
ENDBRANCH  49  63
BRANCH  50  69
ATOM     69  C   UNL A   1      42.697  26.744  34.863  1.00  0.00    -0.014 A 
ATOM     70  C   UNL A   1      43.863  26.356  35.540  1.00  0.00     0.009 A 
ATOM     71  C   UNL A   1      41.528  25.986  35.038  1.00  0.00     0.009 A 
ATOM     72  C   UNL A   1      43.865  25.219  36.353  1.00  0.00     0.001 A 
ATOM     73  C   UNL A   1      41.525  24.869  35.876  1.00  0.00     0.001 A 
ATOM     74  C   UNL A   1      42.696  24.481  36.524  1.00  0.00     0.000 A 
ENDBRANCH  50  69
BRANCH  62  75
ATOM     75  C   UNL A   1      40.759  33.381  35.707  1.00  0.00    -0.014 A 
ATOM     76  C   UNL A   1      41.581  34.067  36.614  1.00  0.00     0.009 A 
ATOM     77  C   UNL A   1      39.366  33.444  35.868  1.00  0.00     0.009 A 
ATOM     78  C   UNL A   1      41.019  34.780  37.675  1.00  0.00     0.001 A 
ATOM     79  C   UNL A   1      38.807  34.183  36.910  1.00  0.00     0.001 A 
ATOM     80  C   UNL A   1      39.634  34.843  37.818  1.00  0.00     0.000 A 
ENDBRANCH  62  75
ENDBRANCH  36  37
ENDBRANCH  28  31
ENDBRANCH  26  27
ENDBRANCH  25  26
ENDBRANCH   1  25
TORSDOF 14
ENDMDL
MODEL 3
REMARK VINA RESULT:      -8.9      4.773      8.361
REMARK SMILES COC(=O)c1ccc(Cl)c(-c2ccc(C(=O)NCCCCNC(=O)c3ccc(-c4c5nc(c(-c6ccccc6)c6ccc([nH]6)c(-c6ccccc6)c6nc(c(-c7ccccc7)c7ccc4[nH]7)C=C6)C=C5)cc3)c(F)c2)c1
REMARK SMILES IDX 19 1 18 2 17 3 15 4 16 5 14 7 11 8 12 9 75 10 13 11 73 12
REMARK SMILES IDX 74 13 10 14 5 15 6 16 76 17 7 18 8 19 9 20 3 21 4 22 2 23
REMARK SMILES IDX 1 24 20 25 21 26 22 27 23 28 24 30 25 31 26 32 72 33 27 34
REMARK SMILES IDX 71 35 28 36 29 37 30 38 65 39 31 40 70 41 64 42 66 43 32 44
REMARK SMILES IDX 69 45 63 46 62 47 33 49 55 50 40 51 54 52 41 53 44 54 53 55
REMARK SMILES IDX 67 56 42 57 43 58 52 60 68 61 45 62 34 63 35 64 39 65 36 66
REMARK SMILES IDX 38 67 37 68 56 69 57 70 61 71 58 72 60 73 59 74 46 75 47 76
REMARK SMILES IDX 51 77 48 78 50 79 49 80
REMARK H PARENT 17 6 22 29 66 48 44 59
REMARK Flexibility Score: inf
ROOT
ATOM      1  C   UNL A   1      32.164  29.998  26.955  1.00  0.00     0.023 C 
ENDROOT
BRANCH   1   2
ATOM      2  C   UNL A   1      31.729  29.110  25.784  1.00  0.00     0.116 C 
BRANCH   2   3
ATOM      3  N   UNL A   1      32.503  29.414  24.599  1.00  0.00    -0.352 N 
ATOM      4  C   UNL A   1      33.315  28.657  23.796  1.00  0.00     0.254 C 
ATOM      5  O   UNL A   1      33.829  29.247  22.841  1.00  0.00    -0.269 OA
ATOM      6  H   UNL A   1      32.432  30.353  24.312  1.00  0.00     0.163 HD
BRANCH   4   7
ATOM      7  C   UNL A   1      33.581  27.197  23.950  1.00  0.00     0.075 A 
ATOM      8  C   UNL A   1      34.091  24.451  24.517  1.00  0.00    -0.014 A 
ATOM      9  C   UNL A   1      34.074  25.395  25.547  1.00  0.00     0.010 A 
ATOM     10  C   UNL A   1      33.838  24.894  23.215  1.00  0.00     0.048 A 
ATOM     11  C   UNL A   1      33.829  26.748  25.264  1.00  0.00     0.017 A 
ATOM     12  C   UNL A   1      33.558  26.233  22.948  1.00  0.00     0.136 A 
ATOM     13  F   UNL A   1      33.210  26.498  21.686  1.00  0.00    -0.206 F 
BRANCH   8  14
ATOM     14  C   UNL A   1      34.333  23.023  24.746  1.00  0.00     0.001 A 
ATOM     15  C   UNL A   1      35.965  21.206  24.882  1.00  0.00     0.060 A 
ATOM     16  C   UNL A   1      34.931  20.266  24.865  1.00  0.00     0.017 A 
ATOM     17  C   UNL A   1      35.662  22.573  24.841  1.00  0.00     0.026 A 
ATOM     18  C   UNL A   1      33.602  20.697  24.811  1.00  0.00     0.022 A 
ATOM     19  C   UNL A   1      33.304  22.063  24.748  1.00  0.00     0.048 A 
ATOM     20  Cl  UNL A   1      31.638  22.511  24.616  1.00  0.00    -0.084 Cl
BRANCH  15  21
ATOM     21  C   UNL A   1      37.397  20.817  24.909  1.00  0.00     0.337 C 
ATOM     22  O   UNL A   1      37.778  19.662  24.886  1.00  0.00    -0.246 OA
BRANCH  21  23
ATOM     23  O   UNL A   1      38.176  21.920  25.041  1.00  0.00    -0.465 OA
ATOM     24  C   UNL A   1      39.119  21.830  26.111  1.00  0.00     0.282 C 
ENDBRANCH  21  23
ENDBRANCH  15  21
ENDBRANCH   8  14
ENDBRANCH   4   7
ENDBRANCH   2   3
ENDBRANCH   1   2
BRANCH   1  25
ATOM     25  C   UNL A   1      32.078  31.499  26.676  1.00  0.00     0.023 C 
BRANCH  25  26
ATOM     26  C   UNL A   1      32.965  32.364  27.562  1.00  0.00     0.116 C 
BRANCH  26  27
ATOM     27  N   UNL A   1      32.506  33.742  27.678  1.00  0.00    -0.352 N 
ATOM     28  C   UNL A   1      33.010  34.738  28.482  1.00  0.00     0.251 C 
ATOM     29  H   UNL A   1      31.742  33.992  27.110  1.00  0.00     0.163 HD
ATOM     30  O   UNL A   1      32.465  35.833  28.552  1.00  0.00    -0.269 OA
BRANCH  28  31
ATOM     31  C   UNL A   1      34.198  34.440  29.302  1.00  0.00     0.039 A 
ATOM     32  C   UNL A   1      34.017  33.913  30.581  1.00  0.00     0.014 A 
ATOM     33  C   UNL A   1      35.477  34.581  28.758  1.00  0.00     0.014 A 
ATOM     34  C   UNL A   1      35.124  33.439  31.285  1.00  0.00     0.010 A 
ATOM     35  C   UNL A   1      36.567  34.040  29.430  1.00  0.00     0.010 A 
ATOM     36  C   UNL A   1      36.397  33.448  30.691  1.00  0.00    -0.014 A 
BRANCH  36  37
ATOM     37  C   UNL A   1      37.555  32.798  31.350  1.00  0.00     0.031 A 
ATOM     38  C   UNL A   1      38.210  31.601  30.724  1.00  0.00     0.074 A 
ATOM     39  C   UNL A   1      37.964  33.240  32.557  1.00  0.00     0.049 A 
ATOM     40  N   UNL A   1      39.188  30.863  31.182  1.00  0.00    -0.248 NA
ATOM     41  C   UNL A   1      37.684  31.163  29.421  1.00  0.00     0.031 C 
ATOM     42  C   UNL A   1      37.382  34.367  33.290  1.00  0.00     0.029 A 
ATOM     43  N   UNL A   1      38.963  32.789  33.384  1.00  0.00    -0.354 N 
ATOM     44  C   UNL A   1      39.386  29.869  30.233  1.00  0.00     0.074 A 
ATOM     45  C   UNL A   1      38.395  30.067  29.199  1.00  0.00     0.031 C 
ATOM     46  C   UNL A   1      38.051  34.536  34.440  1.00  0.00     0.029 A 
ATOM     47  C   UNL A   1      39.075  33.503  34.553  1.00  0.00     0.049 A 
ATOM     48  H   UNL A   1      39.543  32.025  33.161  1.00  0.00     0.167 HD
ATOM     49  C   UNL A   1      40.323  28.892  30.214  1.00  0.00     0.031 A 
ATOM     50  C   UNL A   1      39.899  33.336  35.604  1.00  0.00     0.031 A 
ATOM     51  C   UNL A   1      41.306  28.696  31.246  1.00  0.00     0.049 A 
ATOM     52  C   UNL A   1      40.897  32.213  35.580  1.00  0.00     0.074 A 
ATOM     53  C   UNL A   1      42.333  27.770  31.291  1.00  0.00     0.029 A 
ATOM     54  N   UNL A   1      41.376  29.430  32.420  1.00  0.00    -0.354 N 
ATOM     55  N   UNL A   1      41.127  31.333  34.635  1.00  0.00    -0.248 NA
ATOM     56  C   UNL A   1      41.751  32.060  36.767  1.00  0.00     0.031 C 
ATOM     57  C   UNL A   1      42.984  27.901  32.522  1.00  0.00     0.029 A 
ATOM     58  C   UNL A   1      42.404  28.950  33.215  1.00  0.00     0.049 A 
ATOM     59  H   UNL A   1      40.784  30.180  32.654  1.00  0.00     0.167 HD
ATOM     60  C   UNL A   1      42.162  30.535  35.105  1.00  0.00     0.074 A 
ATOM     61  C   UNL A   1      42.531  31.051  36.408  1.00  0.00     0.031 C 
ATOM     62  C   UNL A   1      42.752  29.468  34.513  1.00  0.00     0.031 A 
BRANCH  49  63
ATOM     63  C   UNL A   1      40.319  27.949  29.043  1.00  0.00    -0.014 A 
ATOM     64  C   UNL A   1      41.033  28.242  27.870  1.00  0.00     0.009 A 
ATOM     65  C   UNL A   1      39.624  26.733  29.129  1.00  0.00     0.009 A 
ATOM     66  C   UNL A   1      41.021  27.353  26.793  1.00  0.00     0.001 A 
ATOM     67  C   UNL A   1      39.639  25.832  28.062  1.00  0.00     0.001 A 
ATOM     68  C   UNL A   1      40.329  26.146  26.893  1.00  0.00     0.000 A 
ENDBRANCH  49  63
BRANCH  50  69
ATOM     69  C   UNL A   1      39.813  34.251  36.773  1.00  0.00    -0.014 A 
ATOM     70  C   UNL A   1      39.192  33.836  37.960  1.00  0.00     0.009 A 
ATOM     71  C   UNL A   1      40.342  35.551  36.705  1.00  0.00     0.009 A 
ATOM     72  C   UNL A   1      39.080  34.709  39.046  1.00  0.00     0.001 A 
ATOM     73  C   UNL A   1      40.257  36.410  37.802  1.00  0.00     0.001 A 
ATOM     74  C   UNL A   1      39.617  35.992  38.967  1.00  0.00     0.000 A 
ENDBRANCH  50  69
BRANCH  62  75
ATOM     75  C   UNL A   1      43.867  28.793  35.262  1.00  0.00    -0.014 A 
ATOM     76  C   UNL A   1      43.605  27.774  36.189  1.00  0.00     0.009 A 
ATOM     77  C   UNL A   1      45.200  29.145  34.994  1.00  0.00     0.009 A 
ATOM     78  C   UNL A   1      44.656  27.137  36.853  1.00  0.00     0.001 A 
ATOM     79  C   UNL A   1      46.248  28.486  35.637  1.00  0.00     0.001 A 
ATOM     80  C   UNL A   1      45.975  27.489  36.571  1.00  0.00     0.000 A 
ENDBRANCH  62  75
ENDBRANCH  36  37
ENDBRANCH  28  31
ENDBRANCH  26  27
ENDBRANCH  25  26
ENDBRANCH   1  25
TORSDOF 14
ENDMDL
