MODEL 1
REMARK VINA RESULT:     -11.0      0.000      0.000
REMARK SMILES CC(=O)c1c[nH]c(C(=O)N[C@H]2C=C[C@H](C(=O)NCCCCNC(=O)c3ccc(-c4c5nc(c(-c6ccccc6)c6ccc([nH]6)c(-c6ccccc6)c6nc(c(-c7ccccc7)c7ccc4[nH]7)C=C6)C=C5)cc3)C2)c1
REMARK SMILES IDX 19 1 18 2 17 3 15 4 16 5 14 7 11 8 12 9 73 10 13 11 10 12
REMARK SMILES IDX 8 13 9 14 7 16 4 17 5 18 74 19 6 20 2 22 1 23 3 24 20 25
REMARK SMILES IDX 21 26 22 27 23 28 24 30 25 31 26 32 72 33 27 34 71 35 28 36
REMARK SMILES IDX 29 37 30 38 65 39 31 40 70 41 64 42 66 43 32 44 69 45 63 46
REMARK SMILES IDX 62 47 33 49 55 50 40 51 54 52 41 53 44 54 53 55 67 56 42 57
REMARK SMILES IDX 43 58 52 60 68 61 45 62 34 63 35 64 39 65 36 66 38 67 37 68
REMARK SMILES IDX 56 69 57 70 61 71 58 72 60 73 59 74 46 75 47 76 51 77 48 78
REMARK SMILES IDX 50 79 49 80
REMARK H PARENT 17 6 10 15 6 21 22 29 66 48 44 59
REMARK Flexibility Score: inf
ROOT
ATOM      1  C   UNL A   1      33.025  29.661  25.074  1.00  0.00     0.023 C 
ENDROOT
BRANCH   1   2
ATOM      2  C   UNL A   1      31.590  29.166  24.904  1.00  0.00     0.116 C 
BRANCH   2   3
ATOM      3  N   UNL A   1      31.282  28.087  25.822  1.00  0.00    -0.356 N 
ATOM      4  C   UNL A   1      30.828  26.827  25.542  1.00  0.00     0.227 C 
ATOM      5  O   UNL A   1      30.610  26.061  26.479  1.00  0.00    -0.274 OA
ATOM      6  H   UNL A   1      31.419  28.287  26.776  1.00  0.00     0.163 HD
BRANCH   4   7
ATOM      7  C   UNL A   1      30.657  26.416  24.076  1.00  0.00     0.103 C 
ATOM      8  C   UNL A   1      31.415  24.111  23.875  1.00  0.00     0.106 C 
ATOM      9  C   UNL A   1      32.444  25.070  23.366  1.00  0.00    -0.006 C 
ATOM     10  C   UNL A   1      30.148  24.975  23.902  1.00  0.00     0.047 C 
ATOM     11  C   UNL A   1      32.023  26.336  23.453  1.00  0.00    -0.016 C 
BRANCH   8  12
ATOM     12  N   UNL A   1      31.364  22.996  22.963  1.00  0.00    -0.345 N 
ATOM     13  C   UNL A   1      32.185  21.905  22.876  1.00  0.00     0.268 C 
ATOM     14  O   UNL A   1      31.952  21.098  21.961  1.00  0.00    -0.268 OA
ATOM     15  H   UNL A   1      30.631  23.024  22.306  1.00  0.00     0.164 HD
BRANCH  13  16
ATOM     16  C   UNL A   1      33.274  21.674  23.805  1.00  0.00     0.105 A 
ATOM     17  C   UNL A   1      35.195  21.593  25.055  1.00  0.00     0.035 A 
ATOM     18  C   UNL A   1      34.226  20.855  25.699  1.00  0.00     0.094 A 
ATOM     19  C   UNL A   1      34.605  22.053  23.847  1.00  0.00     0.045 A 
ATOM     20  N   UNL A   1      33.081  20.910  24.943  1.00  0.00    -0.356 N 
ATOM     21  H   UNL A   1      32.236  20.465  25.179  1.00  0.00     0.166 HD
BRANCH  17  22
ATOM     22  C   UNL A   1      36.561  21.882  25.475  1.00  0.00     0.161 C 
ATOM     23  C   UNL A   1      37.658  20.968  25.009  1.00  0.00     0.093 C 
ATOM     24  O   UNL A   1      36.821  22.898  26.116  1.00  0.00    -0.294 OA
ENDBRANCH  17  22
ENDBRANCH  13  16
ENDBRANCH   8  12
ENDBRANCH   4   7
ENDBRANCH   2   3
ENDBRANCH   1   2
BRANCH   1  25
ATOM     25  C   UNL A   1      34.000  28.631  25.664  1.00  0.00     0.023 C 
BRANCH  25  26
ATOM     26  C   UNL A   1      34.408  28.903  27.111  1.00  0.00     0.116 C 
BRANCH  26  27
ATOM     27  N   UNL A   1      34.783  30.294  27.306  1.00  0.00    -0.352 N 
ATOM     28  C   UNL A   1      35.849  30.825  27.986  1.00  0.00     0.251 C 
ATOM     29  H   UNL A   1      34.182  30.953  26.887  1.00  0.00     0.163 HD
ATOM     30  O   UNL A   1      35.771  31.975  28.408  1.00  0.00    -0.269 OA
BRANCH  28  31
ATOM     31  C   UNL A   1      37.099  30.063  28.199  1.00  0.00     0.039 A 
ATOM     32  C   UNL A   1      38.049  30.039  27.166  1.00  0.00     0.014 A 
ATOM     33  C   UNL A   1      37.284  29.271  29.338  1.00  0.00     0.014 A 
ATOM     34  C   UNL A   1      39.193  29.251  27.289  1.00  0.00     0.010 A 
ATOM     35  C   UNL A   1      38.432  28.507  29.478  1.00  0.00     0.010 A 
ATOM     36  C   UNL A   1      39.385  28.499  28.455  1.00  0.00    -0.014 A 
BRANCH  36  37
ATOM     37  C   UNL A   1      40.697  27.873  28.723  1.00  0.00     0.031 A 
ATOM     38  C   UNL A   1      40.647  26.359  28.309  1.00  0.00     0.074 A 
ATOM     39  C   UNL A   1      41.657  28.714  29.241  1.00  0.00     0.049 A 
ATOM     40  N   UNL A   1      41.387  25.353  28.668  1.00  0.00    -0.248 NA
ATOM     41  C   UNL A   1      39.565  25.888  27.379  1.00  0.00     0.031 C 
ATOM     42  C   UNL A   1      41.474  30.165  29.522  1.00  0.00     0.029 A 
ATOM     43  N   UNL A   1      42.969  28.564  29.633  1.00  0.00    -0.354 N 
ATOM     44  C   UNL A   1      40.976  24.210  27.926  1.00  0.00     0.074 A 
ATOM     45  C   UNL A   1      39.808  24.588  27.198  1.00  0.00     0.031 C 
ATOM     46  C   UNL A   1      42.560  30.700  30.134  1.00  0.00     0.029 A 
ATOM     47  C   UNL A   1      43.565  29.676  30.310  1.00  0.00     0.049 A 
ATOM     48  H   UNL A   1      43.471  27.737  29.456  1.00  0.00     0.167 HD
ATOM     49  C   UNL A   1      41.705  23.057  27.867  1.00  0.00     0.031 A 
ATOM     50  C   UNL A   1      44.737  29.716  31.037  1.00  0.00     0.031 A 
ATOM     51  C   UNL A   1      42.824  23.160  28.725  1.00  0.00     0.049 A 
ATOM     52  C   UNL A   1      45.261  28.349  30.932  1.00  0.00     0.074 A 
ATOM     53  C   UNL A   1      43.084  22.884  30.039  1.00  0.00     0.029 A 
ATOM     54  N   UNL A   1      43.906  23.795  28.180  1.00  0.00    -0.354 N 
ATOM     55  N   UNL A   1      45.741  27.804  29.861  1.00  0.00    -0.248 NA
ATOM     56  C   UNL A   1      44.861  27.465  32.019  1.00  0.00     0.031 C 
ATOM     57  C   UNL A   1      44.272  23.594  30.323  1.00  0.00     0.029 A 
ATOM     58  C   UNL A   1      44.549  24.402  29.218  1.00  0.00     0.049 A 
ATOM     59  H   UNL A   1      44.167  23.809  27.230  1.00  0.00     0.167 HD
ATOM     60  C   UNL A   1      45.397  26.481  30.001  1.00  0.00     0.074 A 
ATOM     61  C   UNL A   1      44.873  26.323  31.351  1.00  0.00     0.031 C 
ATOM     62  C   UNL A   1      45.181  25.660  28.946  1.00  0.00     0.031 A 
BRANCH  49  63
ATOM     63  C   UNL A   1      41.742  21.878  26.914  1.00  0.00    -0.014 A 
ATOM     64  C   UNL A   1      40.857  20.801  27.199  1.00  0.00     0.009 A 
ATOM     65  C   UNL A   1      42.823  21.596  26.075  1.00  0.00     0.009 A 
ATOM     66  C   UNL A   1      41.125  19.487  26.815  1.00  0.00     0.001 A 
ATOM     67  C   UNL A   1      43.067  20.277  25.643  1.00  0.00     0.001 A 
ATOM     68  C   UNL A   1      42.248  19.220  26.051  1.00  0.00     0.000 A 
ENDBRANCH  49  63
BRANCH  50  69
ATOM     69  C   UNL A   1      45.418  30.597  32.067  1.00  0.00    -0.014 A 
ATOM     70  C   UNL A   1      46.733  31.057  32.025  1.00  0.00     0.009 A 
ATOM     71  C   UNL A   1      44.654  31.059  33.184  1.00  0.00     0.009 A 
ATOM     72  C   UNL A   1      47.210  31.990  32.980  1.00  0.00     0.001 A 
ATOM     73  C   UNL A   1      45.100  32.019  34.099  1.00  0.00     0.001 A 
ATOM     74  C   UNL A   1      46.387  32.499  33.988  1.00  0.00     0.000 A 
ENDBRANCH  50  69
BRANCH  62  75
ATOM     75  C   UNL A   1      45.271  26.323  27.573  1.00  0.00    -0.014 A 
ATOM     76  C   UNL A   1      46.484  26.360  26.878  1.00  0.00     0.009 A 
ATOM     77  C   UNL A   1      44.182  27.017  26.993  1.00  0.00     0.009 A 
ATOM     78  C   UNL A   1      46.605  27.043  25.656  1.00  0.00     0.001 A 
ATOM     79  C   UNL A   1      44.297  27.700  25.770  1.00  0.00     0.001 A 
ATOM     80  C   UNL A   1      45.514  27.710  25.100  1.00  0.00     0.000 A 
ENDBRANCH  62  75
ENDBRANCH  36  37
ENDBRANCH  28  31
ENDBRANCH  26  27
ENDBRANCH  25  26
ENDBRANCH   1  25
TORSDOF 14
ENDMDL
MODEL 2
REMARK VINA RESULT:     -11.0      2.368      6.813
REMARK SMILES CC(=O)c1c[nH]c(C(=O)N[C@H]2C=C[C@H](C(=O)NCCCCNC(=O)c3ccc(-c4c5nc(c(-c6ccccc6)c6ccc([nH]6)c(-c6ccccc6)c6nc(c(-c7ccccc7)c7ccc4[nH]7)C=C6)C=C5)cc3)C2)c1
REMARK SMILES IDX 19 1 18 2 17 3 15 4 16 5 14 7 11 8 12 9 73 10 13 11 10 12
REMARK SMILES IDX 8 13 9 14 7 16 4 17 5 18 74 19 6 20 2 22 1 23 3 24 20 25
REMARK SMILES IDX 21 26 22 27 23 28 24 30 25 31 26 32 72 33 27 34 71 35 28 36
REMARK SMILES IDX 29 37 30 38 65 39 31 40 70 41 64 42 66 43 32 44 69 45 63 46
REMARK SMILES IDX 62 47 33 49 55 50 40 51 54 52 41 53 44 54 53 55 67 56 42 57
REMARK SMILES IDX 43 58 52 60 68 61 45 62 34 63 35 64 39 65 36 66 38 67 37 68
REMARK SMILES IDX 56 69 57 70 61 71 58 72 60 73 59 74 46 75 47 76 51 77 48 78
REMARK SMILES IDX 50 79 49 80
REMARK H PARENT 17 6 10 15 6 21 22 29 66 48 44 59
REMARK Flexibility Score: inf
ROOT
ATOM      1  C   UNL A   1      32.908  29.567  27.306  1.00  0.00     0.023 C 
ENDROOT
BRANCH   1   2
ATOM      2  C   UNL A   1      31.856  29.630  26.201  1.00  0.00     0.116 C 
BRANCH   2   3
ATOM      3  N   UNL A   1      32.387  29.180  24.928  1.00  0.00    -0.356 N 
ATOM      4  C   UNL A   1      31.882  28.239  24.073  1.00  0.00     0.227 C 
ATOM      5  O   UNL A   1      32.504  27.990  23.042  1.00  0.00    -0.274 OA
ATOM      6  H   UNL A   1      33.225  29.610  24.640  1.00  0.00     0.163 HD
BRANCH   4   7
ATOM      7  C   UNL A   1      30.544  27.576  24.418  1.00  0.00     0.103 C 
ATOM      8  C   UNL A   1      31.009  25.248  24.961  1.00  0.00     0.106 C 
ATOM      9  C   UNL A   1      30.452  25.386  23.579  1.00  0.00    -0.006 C 
ATOM     10  C   UNL A   1      30.639  26.593  25.597  1.00  0.00     0.047 C 
ATOM     11  C   UNL A   1      30.174  26.660  23.285  1.00  0.00    -0.016 C 
BRANCH   8  12
ATOM     12  N   UNL A   1      30.388  24.100  25.572  1.00  0.00    -0.345 N 
ATOM     13  C   UNL A   1      30.864  22.825  25.714  1.00  0.00     0.268 C 
ATOM     14  O   UNL A   1      30.105  21.999  26.245  1.00  0.00    -0.268 OA
ATOM     15  H   UNL A   1      29.489  24.257  25.942  1.00  0.00     0.164 HD
BRANCH  13  16
ATOM     16  C   UNL A   1      32.192  22.438  25.284  1.00  0.00     0.105 A 
ATOM     17  C   UNL A   1      34.421  22.144  24.828  1.00  0.00     0.035 A 
ATOM     18  C   UNL A   1      33.732  21.052  24.348  1.00  0.00     0.094 A 
ATOM     19  C   UNL A   1      33.443  23.027  25.361  1.00  0.00     0.045 A 
ATOM     20  N   UNL A   1      32.400  21.238  24.626  1.00  0.00    -0.356 N 
ATOM     21  H   UNL A   1      31.687  20.602  24.387  1.00  0.00     0.166 HD
BRANCH  17  22
ATOM     22  C   UNL A   1      35.856  22.399  24.824  1.00  0.00     0.161 C 
ATOM     23  C   UNL A   1      36.521  22.713  23.515  1.00  0.00     0.093 C 
ATOM     24  O   UNL A   1      36.491  22.449  25.877  1.00  0.00    -0.294 OA
ENDBRANCH  17  22
ENDBRANCH  13  16
ENDBRANCH   8  12
ENDBRANCH   4   7
ENDBRANCH   2   3
ENDBRANCH   1   2
BRANCH   1  25
ATOM     25  C   UNL A   1      34.304  30.066  26.901  1.00  0.00     0.023 C 
BRANCH  25  26
ATOM     26  C   UNL A   1      35.459  29.323  27.572  1.00  0.00     0.116 C 
BRANCH  26  27
ATOM     27  N   UNL A   1      35.687  29.805  28.924  1.00  0.00    -0.352 N 
ATOM     28  C   UNL A   1      36.702  29.508  29.798  1.00  0.00     0.251 C 
ATOM     29  H   UNL A   1      35.014  30.439  29.263  1.00  0.00     0.163 HD
ATOM     30  O   UNL A   1      36.508  29.650  31.003  1.00  0.00    -0.269 OA
BRANCH  28  31
ATOM     31  C   UNL A   1      38.028  29.050  29.331  1.00  0.00     0.039 A 
ATOM     32  C   UNL A   1      38.933  28.549  30.280  1.00  0.00     0.014 A 
ATOM     33  C   UNL A   1      38.435  29.231  28.005  1.00  0.00     0.014 A 
ATOM     34  C   UNL A   1      40.227  28.202  29.896  1.00  0.00     0.010 A 
ATOM     35  C   UNL A   1      39.713  28.862  27.611  1.00  0.00     0.010 A 
ATOM     36  C   UNL A   1      40.605  28.348  28.555  1.00  0.00    -0.014 A 
BRANCH  36  37
ATOM     37  C   UNL A   1      41.867  27.745  28.073  1.00  0.00     0.031 A 
ATOM     38  C   UNL A   1      42.906  28.883  27.771  1.00  0.00     0.074 A 
ATOM     39  C   UNL A   1      41.876  26.370  28.009  1.00  0.00     0.049 A 
ATOM     40  N   UNL A   1      43.968  28.889  27.024  1.00  0.00    -0.248 NA
ATOM     41  C   UNL A   1      42.694  30.246  28.365  1.00  0.00     0.031 C 
ATOM     42  C   UNL A   1      40.748  25.478  28.397  1.00  0.00     0.029 A 
ATOM     43  N   UNL A   1      42.801  25.422  27.629  1.00  0.00    -0.354 N 
ATOM     44  C   UNL A   1      44.609  30.152  27.169  1.00  0.00     0.074 A 
ATOM     45  C   UNL A   1      43.742  30.966  27.956  1.00  0.00     0.031 C 
ATOM     46  C   UNL A   1      41.014  24.178  28.116  1.00  0.00     0.029 A 
ATOM     47  C   UNL A   1      42.332  24.073  27.532  1.00  0.00     0.049 A 
ATOM     48  H   UNL A   1      43.736  25.660  27.433  1.00  0.00     0.167 HD
ATOM     49  C   UNL A   1      45.878  30.400  26.730  1.00  0.00     0.031 A 
ATOM     50  C   UNL A   1      42.940  22.989  26.931  1.00  0.00     0.031 A 
ATOM     51  C   UNL A   1      46.369  29.268  26.038  1.00  0.00     0.049 A 
ATOM     52  C   UNL A   1      44.209  23.531  26.433  1.00  0.00     0.074 A 
ATOM     53  C   UNL A   1      46.348  28.821  24.746  1.00  0.00     0.029 A 
ATOM     54  N   UNL A   1      46.906  28.297  26.838  1.00  0.00    -0.354 N 
ATOM     55  N   UNL A   1      45.209  23.906  27.163  1.00  0.00    -0.248 NA
ATOM     56  C   UNL A   1      44.163  24.005  25.055  1.00  0.00     0.031 C 
ATOM     57  C   UNL A   1      46.673  27.449  24.840  1.00  0.00     0.029 A 
ATOM     58  C   UNL A   1      46.684  27.114  26.196  1.00  0.00     0.049 A 
ATOM     59  H   UNL A   1      47.360  28.427  27.702  1.00  0.00     0.167 HD
ATOM     60  C   UNL A   1      45.755  24.940  26.441  1.00  0.00     0.074 A 
ATOM     61  C   UNL A   1      45.085  24.949  25.147  1.00  0.00     0.031 C 
ATOM     62  C   UNL A   1      46.424  25.967  27.016  1.00  0.00     0.031 A 
BRANCH  49  63
ATOM     63  C   UNL A   1      46.926  31.445  27.061  1.00  0.00    -0.014 A 
ATOM     64  C   UNL A   1      46.613  32.790  26.717  1.00  0.00     0.009 A 
ATOM     65  C   UNL A   1      48.275  31.149  27.271  1.00  0.00     0.009 A 
ATOM     66  C   UNL A   1      47.595  33.739  26.431  1.00  0.00     0.001 A 
ATOM     67  C   UNL A   1      49.265  32.122  27.032  1.00  0.00     0.001 A 
ATOM     68  C   UNL A   1      48.929  33.397  26.569  1.00  0.00     0.000 A 
ENDBRANCH  49  63
BRANCH  50  69
ATOM     69  C   UNL A   1      42.574  21.610  26.418  1.00  0.00    -0.014 A 
ATOM     70  C   UNL A   1      43.439  20.688  25.828  1.00  0.00     0.009 A 
ATOM     71  C   UNL A   1      41.228  21.154  26.579  1.00  0.00     0.009 A 
ATOM     72  C   UNL A   1      43.004  19.376  25.517  1.00  0.00     0.001 A 
ATOM     73  C   UNL A   1      40.806  19.844  26.324  1.00  0.00     0.001 A 
ATOM     74  C   UNL A   1      41.706  18.943  25.798  1.00  0.00     0.000 A 
ENDBRANCH  50  69
BRANCH  62  75
ATOM     75  C   UNL A   1      46.469  25.946  28.542  1.00  0.00    -0.014 A 
ATOM     76  C   UNL A   1      45.364  26.357  29.294  1.00  0.00     0.009 A 
ATOM     77  C   UNL A   1      47.645  25.621  29.261  1.00  0.00     0.009 A 
ATOM     78  C   UNL A   1      45.420  26.429  30.695  1.00  0.00     0.001 A 
ATOM     79  C   UNL A   1      47.705  25.689  30.664  1.00  0.00     0.001 A 
ATOM     80  C   UNL A   1      46.586  26.093  31.381  1.00  0.00     0.000 A 
ENDBRANCH  62  75
ENDBRANCH  36  37
ENDBRANCH  28  31
ENDBRANCH  26  27
ENDBRANCH  25  26
ENDBRANCH   1  25
TORSDOF 14
ENDMDL
MODEL 3
REMARK VINA RESULT:     -11.0      3.798      5.931
REMARK SMILES CC(=O)c1c[nH]c(C(=O)N[C@H]2C=C[C@H](C(=O)NCCCCNC(=O)c3ccc(-c4c5nc(c(-c6ccccc6)c6ccc([nH]6)c(-c6ccccc6)c6nc(c(-c7ccccc7)c7ccc4[nH]7)C=C6)C=C5)cc3)C2)c1
REMARK SMILES IDX 19 1 18 2 17 3 15 4 16 5 14 7 11 8 12 9 73 10 13 11 10 12
REMARK SMILES IDX 8 13 9 14 7 16 4 17 5 18 74 19 6 20 2 22 1 23 3 24 20 25
REMARK SMILES IDX 21 26 22 27 23 28 24 30 25 31 26 32 72 33 27 34 71 35 28 36
REMARK SMILES IDX 29 37 30 38 65 39 31 40 70 41 64 42 66 43 32 44 69 45 63 46
REMARK SMILES IDX 62 47 33 49 55 50 40 51 54 52 41 53 44 54 53 55 67 56 42 57
REMARK SMILES IDX 43 58 52 60 68 61 45 62 34 63 35 64 39 65 36 66 38 67 37 68
REMARK SMILES IDX 56 69 57 70 61 71 58 72 60 73 59 74 46 75 47 76 51 77 48 78
REMARK SMILES IDX 50 79 49 80
REMARK H PARENT 17 6 10 15 6 21 22 29 66 48 44 59
REMARK Flexibility Score: inf
ROOT
ATOM      1  C   UNL A   1      31.517  30.774  25.731  1.00  0.00     0.023 C 
ENDROOT
BRANCH   1   2
ATOM      2  C   UNL A   1      32.720  29.903  26.085  1.00  0.00     0.116 C 
BRANCH   2   3
ATOM      3  N   UNL A   1      33.106  29.046  24.980  1.00  0.00    -0.356 N 
ATOM      4  C   UNL A   1      32.402  28.025  24.402  1.00  0.00     0.227 C 
ATOM      5  O   UNL A   1      32.925  27.405  23.477  1.00  0.00    -0.274 OA
ATOM      6  H   UNL A   1      33.994  29.223  24.594  1.00  0.00     0.163 HD
BRANCH   4   7
ATOM      7  C   UNL A   1      30.984  27.734  24.902  1.00  0.00     0.103 C 
ATOM      8  C   UNL A   1      30.944  25.421  25.662  1.00  0.00     0.106 C 
ATOM      9  C   UNL A   1      30.314  25.563  24.313  1.00  0.00    -0.006 C 
ATOM     10  C   UNL A   1      30.952  26.867  26.172  1.00  0.00     0.047 C 
ATOM     11  C   UNL A   1      30.313  26.835  23.901  1.00  0.00    -0.016 C 
BRANCH   8  12
ATOM     12  N   UNL A   1      30.131  24.515  26.433  1.00  0.00    -0.345 N 
ATOM     13  C   UNL A   1      30.413  23.249  26.870  1.00  0.00     0.268 C 
ATOM     14  O   UNL A   1      29.513  22.655  27.486  1.00  0.00    -0.268 OA
ATOM     15  H   UNL A   1      29.241  24.857  26.682  1.00  0.00     0.164 HD
BRANCH  13  16
ATOM     16  C   UNL A   1      31.697  22.617  26.647  1.00  0.00     0.105 A 
ATOM     17  C   UNL A   1      33.680  21.734  25.904  1.00  0.00     0.035 A 
ATOM     18  C   UNL A   1      33.663  21.666  27.280  1.00  0.00     0.094 A 
ATOM     19  C   UNL A   1      32.426  22.279  25.518  1.00  0.00     0.045 A 
ATOM     20  N   UNL A   1      32.472  22.197  27.714  1.00  0.00    -0.356 N 
ATOM     21  H   UNL A   1      32.206  22.268  28.659  1.00  0.00     0.166 HD
BRANCH  17  22
ATOM     22  C   UNL A   1      34.737  21.347  24.978  1.00  0.00     0.161 C 
ATOM     23  C   UNL A   1      35.265  22.382  24.026  1.00  0.00     0.093 C 
ATOM     24  O   UNL A   1      35.250  20.231  25.038  1.00  0.00    -0.294 OA
ENDBRANCH  17  22
ENDBRANCH  13  16
ENDBRANCH   8  12
ENDBRANCH   4   7
ENDBRANCH   2   3
ENDBRANCH   1   2
BRANCH   1  25
ATOM     25  C   UNL A   1      31.362  32.043  26.583  1.00  0.00     0.023 C 
BRANCH  25  26
ATOM     26  C   UNL A   1      32.633  32.472  27.315  1.00  0.00     0.116 C 
BRANCH  26  27
ATOM     27  N   UNL A   1      32.635  33.900  27.585  1.00  0.00    -0.352 N 
ATOM     28  C   UNL A   1      33.228  34.596  28.608  1.00  0.00     0.251 C 
ATOM     29  H   UNL A   1      32.136  34.450  26.938  1.00  0.00     0.163 HD
ATOM     30  O   UNL A   1      32.776  35.694  28.919  1.00  0.00    -0.269 OA
BRANCH  28  31
ATOM     31  C   UNL A   1      34.411  34.074  29.325  1.00  0.00     0.039 A 
ATOM     32  C   UNL A   1      34.219  33.470  30.578  1.00  0.00     0.014 A 
ATOM     33  C   UNL A   1      35.708  34.290  28.846  1.00  0.00     0.014 A 
ATOM     34  C   UNL A   1      35.318  33.057  31.330  1.00  0.00     0.010 A 
ATOM     35  C   UNL A   1      36.804  33.856  29.576  1.00  0.00     0.010 A 
ATOM     36  C   UNL A   1      36.607  33.240  30.815  1.00  0.00    -0.014 A 
BRANCH  36  37
ATOM     37  C   UNL A   1      37.762  32.579  31.461  1.00  0.00     0.031 A 
ATOM     38  C   UNL A   1      38.050  31.212  30.742  1.00  0.00     0.074 A 
ATOM     39  C   UNL A   1      38.334  33.276  32.502  1.00  0.00     0.049 A 
ATOM     40  N   UNL A   1      38.689  30.157  31.147  1.00  0.00    -0.248 NA
ATOM     41  C   UNL A   1      37.492  30.975  29.368  1.00  0.00     0.031 C 
ATOM     42  C   UNL A   1      37.895  34.612  32.992  1.00  0.00     0.029 A 
ATOM     43  N   UNL A   1      39.386  33.048  33.361  1.00  0.00    -0.354 N 
ATOM     44  C   UNL A   1      38.739  29.227  30.070  1.00  0.00     0.074 A 
ATOM     45  C   UNL A   1      37.929  29.761  29.025  1.00  0.00     0.031 C 
ATOM     46  C   UNL A   1      38.577  34.991  34.101  1.00  0.00     0.029 A 
ATOM     47  C   UNL A   1      39.533  33.964  34.451  1.00  0.00     0.049 A 
ATOM     48  H   UNL A   1      40.005  32.293  33.233  1.00  0.00     0.167 HD
ATOM     49  C   UNL A   1      39.553  28.130  30.069  1.00  0.00     0.031 A 
ATOM     50  C   UNL A   1      40.303  33.836  35.588  1.00  0.00     0.031 A 
ATOM     51  C   UNL A   1      40.215  28.030  31.315  1.00  0.00     0.049 A 
ATOM     52  C   UNL A   1      40.972  32.541  35.414  1.00  0.00     0.074 A 
ATOM     53  C   UNL A   1      39.953  27.442  32.522  1.00  0.00     0.029 A 
ATOM     54  N   UNL A   1      41.347  28.789  31.424  1.00  0.00    -0.354 N 
ATOM     55  N   UNL A   1      41.898  32.280  34.550  1.00  0.00    -0.248 NA
ATOM     56  C   UNL A   1      40.269  31.414  36.014  1.00  0.00     0.031 C 
ATOM     57  C   UNL A   1      40.841  28.072  33.423  1.00  0.00     0.029 A 
ATOM     58  C   UNL A   1      41.448  29.129  32.740  1.00  0.00     0.049 A 
ATOM     59  H   UNL A   1      41.964  29.038  30.698  1.00  0.00     0.167 HD
ATOM     60  C   UNL A   1      41.675  30.959  34.240  1.00  0.00     0.074 A 
ATOM     61  C   UNL A   1      40.673  30.471  35.179  1.00  0.00     0.031 C 
ATOM     62  C   UNL A   1      41.993  30.421  33.039  1.00  0.00     0.031 A 
BRANCH  49  63
ATOM     63  C   UNL A   1      40.100  27.221  28.985  1.00  0.00    -0.014 A 
ATOM     64  C   UNL A   1      40.845  27.846  27.947  1.00  0.00     0.009 A 
ATOM     65  C   UNL A   1      39.592  25.948  28.714  1.00  0.00     0.009 A 
ATOM     66  C   UNL A   1      40.932  27.312  26.660  1.00  0.00     0.001 A 
ATOM     67  C   UNL A   1      39.723  25.385  27.429  1.00  0.00     0.001 A 
ATOM     68  C   UNL A   1      40.349  26.086  26.394  1.00  0.00     0.000 A 
ENDBRANCH  49  63
BRANCH  50  69
ATOM     69  C   UNL A   1      40.410  34.443  36.974  1.00  0.00    -0.014 A 
ATOM     70  C   UNL A   1      39.351  34.776  37.818  1.00  0.00     0.009 A 
ATOM     71  C   UNL A   1      41.712  34.671  37.522  1.00  0.00     0.009 A 
ATOM     72  C   UNL A   1      39.587  35.209  39.148  1.00  0.00     0.001 A 
ATOM     73  C   UNL A   1      41.951  35.047  38.849  1.00  0.00     0.001 A 
ATOM     74  C   UNL A   1      40.878  35.307  39.673  1.00  0.00     0.000 A 
ENDBRANCH  50  69
BRANCH  62  75
ATOM     75  C   UNL A   1      42.553  31.401  32.010  1.00  0.00    -0.014 A 
ATOM     76  C   UNL A   1      41.698  32.096  31.149  1.00  0.00     0.009 A 
ATOM     77  C   UNL A   1      43.943  31.571  31.803  1.00  0.00     0.009 A 
ATOM     78  C   UNL A   1      42.201  32.931  30.138  1.00  0.00     0.001 A 
ATOM     79  C   UNL A   1      44.451  32.408  30.795  1.00  0.00     0.001 A 
ATOM     80  C   UNL A   1      43.574  33.091  29.962  1.00  0.00     0.000 A 
ENDBRANCH  62  75
ENDBRANCH  36  37
ENDBRANCH  28  31
ENDBRANCH  26  27
ENDBRANCH  25  26
ENDBRANCH   1  25
TORSDOF 14
ENDMDL
