MODEL 1
REMARK VINA RESULT:     -11.3      0.000      0.000
REMARK SMILES C/C(=N/OCc1ccccc1Nc1c(Cl)cccc1Cl)C(=O)NCCCCNC(=O)c1ccc(-c2c3nc(c(-c4ccccc4)c4ccc([nH]4)c(-c4ccccc4)c4nc(c(-c5ccccc5)c5ccc2[nH]5)C=C4)C=C3)cc1
REMARK SMILES IDX 24 1 23 2 21 3 22 4 2 6 1 7 3 8 4 9 5 10 6 11 7 12 11 13
REMARK SMILES IDX 8 14 10 15 9 16 12 17 13 19 14 20 19 21 15 22 16 23 18 24
REMARK SMILES IDX 20 25 17 26 25 27 26 28 27 29 28 30 29 31 30 33 31 34 32 35
REMARK SMILES IDX 78 36 33 37 77 38 34 39 35 40 36 41 71 42 37 43 76 44 70 45
REMARK SMILES IDX 72 46 38 47 75 48 69 49 68 50 39 52 61 53 46 54 60 55 47 56
REMARK SMILES IDX 50 57 59 58 73 59 48 60 49 61 58 63 74 64 51 65 40 66 41 67
REMARK SMILES IDX 45 68 42 69 44 70 43 71 62 72 63 73 67 74 64 75 66 76 65 77
REMARK SMILES IDX 52 78 53 79 57 80 54 81 56 82 55 83
REMARK H PARENT 23 5 12 18 28 32 72 51 50 62
REMARK Flexibility Score: inf
ROOT
ATOM      1  C   UNL A   1      35.549  22.865  24.272  1.00  0.00     0.116 C 
ENDROOT
BRANCH   1   2
ATOM      2  N   UNL A   1      34.959  23.096  22.975  1.00  0.00    -0.351 N 
ATOM      3  C   UNL A   1      33.702  23.519  22.627  1.00  0.00     0.268 C 
ATOM      4  O   UNL A   1      33.361  23.367  21.452  1.00  0.00    -0.268 OA
ATOM      5  H   UNL A   1      35.559  22.921  22.214  1.00  0.00     0.163 HD
BRANCH   3   6
ATOM      6  C   UNL A   1      32.738  24.285  23.519  1.00  0.00     0.141 C 
ATOM      7  C   UNL A   1      31.484  23.500  23.850  1.00  0.00     0.077 C 
ATOM      8  N   UNL A   1      32.821  25.452  24.087  1.00  0.00    -0.086 NA
BRANCH   8   9
ATOM      9  O   UNL A   1      33.941  26.215  23.793  1.00  0.00    -0.390 OA
BRANCH   9  10
ATOM     10  C   UNL A   1      33.572  27.597  23.597  1.00  0.00     0.302 C 
BRANCH  10  11
ATOM     11  C   UNL A   1      33.068  28.288  24.853  1.00  0.00     0.016 A 
ATOM     12  C   UNL A   1      33.710  27.958  26.068  1.00  0.00     0.009 A 
ATOM     13  C   UNL A   1      32.039  29.252  24.870  1.00  0.00     0.045 A 
ATOM     14  C   UNL A   1      33.336  28.540  27.276  1.00  0.00     0.001 A 
ATOM     15  C   UNL A   1      31.691  29.842  26.103  1.00  0.00     0.026 A 
ATOM     16  C   UNL A   1      32.324  29.485  27.293  1.00  0.00     0.002 A 
BRANCH  13  17
ATOM     17  N   UNL A   1      31.383  29.665  23.686  1.00  0.00    -0.353 N 
ATOM     18  H   UNL A   1      31.963  29.991  22.960  1.00  0.00     0.167 HD
BRANCH  17  19
ATOM     19  C   UNL A   1      29.987  29.664  23.421  1.00  0.00     0.076 A 
ATOM     20  C   UNL A   1      29.354  28.485  22.971  1.00  0.00     0.066 A 
ATOM     21  C   UNL A   1      29.159  30.774  23.697  1.00  0.00     0.066 A 
ATOM     22  Cl  UNL A   1      30.273  27.042  22.694  1.00  0.00    -0.082 Cl
ATOM     23  C   UNL A   1      27.968  28.422  22.789  1.00  0.00     0.023 A 
ATOM     24  C   UNL A   1      27.770  30.706  23.524  1.00  0.00     0.023 A 
ATOM     25  Cl  UNL A   1      29.808  32.298  24.206  1.00  0.00    -0.082 Cl
ATOM     26  C   UNL A   1      27.174  29.531  23.070  1.00  0.00     0.003 A 
ENDBRANCH  17  19
ENDBRANCH  13  17
ENDBRANCH  10  11
ENDBRANCH   9  10
ENDBRANCH   8   9
ENDBRANCH   3   6
ENDBRANCH   1   2
BRANCH   1  27
ATOM     27  C   UNL A   1      36.983  22.349  24.094  1.00  0.00     0.023 C 
BRANCH  27  28
ATOM     28  C   UNL A   1      37.299  21.059  24.852  1.00  0.00     0.023 C 
BRANCH  28  29
ATOM     29  C   UNL A   1      38.521  21.157  25.752  1.00  0.00     0.116 C 
BRANCH  29  30
ATOM     30  N   UNL A   1      39.400  20.000  25.657  1.00  0.00    -0.352 N 
ATOM     31  C   UNL A   1      40.710  19.882  26.059  1.00  0.00     0.251 C 
ATOM     32  H   UNL A   1      39.003  19.195  25.253  1.00  0.00     0.163 HD
ATOM     33  O   UNL A   1      41.326  18.845  25.888  1.00  0.00    -0.269 OA
BRANCH  31  34
ATOM     34  C   UNL A   1      41.380  21.066  26.632  1.00  0.00     0.039 A 
ATOM     35  C   UNL A   1      41.925  22.002  25.749  1.00  0.00     0.014 A 
ATOM     36  C   UNL A   1      41.396  21.291  28.009  1.00  0.00     0.014 A 
ATOM     37  C   UNL A   1      42.411  23.209  26.246  1.00  0.00     0.010 A 
ATOM     38  C   UNL A   1      41.813  22.524  28.496  1.00  0.00     0.010 A 
ATOM     39  C   UNL A   1      42.315  23.497  27.617  1.00  0.00    -0.014 A 
BRANCH  39  40
ATOM     40  C   UNL A   1      42.719  24.820  28.145  1.00  0.00     0.031 A 
ATOM     41  C   UNL A   1      41.689  25.887  28.372  1.00  0.00     0.074 A 
ATOM     42  C   UNL A   1      44.024  25.077  28.359  1.00  0.00     0.049 A 
ATOM     43  N   UNL A   1      41.855  27.116  28.788  1.00  0.00    -0.248 NA
ATOM     44  C   UNL A   1      40.293  25.538  28.064  1.00  0.00     0.031 C 
ATOM     45  C   UNL A   1      45.125  24.137  28.127  1.00  0.00     0.029 A 
ATOM     46  N   UNL A   1      44.647  26.210  28.817  1.00  0.00    -0.354 N 
ATOM     47  C   UNL A   1      40.591  27.689  28.777  1.00  0.00     0.074 A 
ATOM     48  C   UNL A   1      39.676  26.692  28.269  1.00  0.00     0.031 C 
ATOM     49  C   UNL A   1      46.283  24.723  28.474  1.00  0.00     0.029 A 
ATOM     50  C   UNL A   1      46.010  26.085  28.920  1.00  0.00     0.049 A 
ATOM     51  H   UNL A   1      44.161  27.034  29.051  1.00  0.00     0.167 HD
ATOM     52  C   UNL A   1      40.221  28.929  29.175  1.00  0.00     0.031 A 
ATOM     53  C   UNL A   1      46.937  26.971  29.328  1.00  0.00     0.031 A 
ATOM     54  C   UNL A   1      41.128  29.915  29.696  1.00  0.00     0.049 A 
ATOM     55  C   UNL A   1      46.500  28.339  29.769  1.00  0.00     0.074 A 
ATOM     56  C   UNL A   1      40.841  31.176  30.186  1.00  0.00     0.029 A 
ATOM     57  N   UNL A   1      42.499  29.746  29.796  1.00  0.00    -0.354 N 
ATOM     58  N   UNL A   1      45.290  28.841  29.822  1.00  0.00    -0.248 NA
ATOM     59  C   UNL A   1      47.557  29.258  30.216  1.00  0.00     0.031 C 
ATOM     60  C   UNL A   1      42.047  31.788  30.546  1.00  0.00     0.029 A 
ATOM     61  C   UNL A   1      43.078  30.888  30.321  1.00  0.00     0.049 A 
ATOM     62  H   UNL A   1      42.990  28.934  29.534  1.00  0.00     0.167 HD
ATOM     63  C   UNL A   1      45.436  30.126  30.328  1.00  0.00     0.074 A 
ATOM     64  C   UNL A   1      46.850  30.319  30.581  1.00  0.00     0.031 C 
ATOM     65  C   UNL A   1      44.485  31.062  30.562  1.00  0.00     0.031 A 
BRANCH  52  66
ATOM     66  C   UNL A   1      38.766  29.283  29.055  1.00  0.00    -0.014 A 
ATOM     67  C   UNL A   1      38.239  29.785  27.855  1.00  0.00     0.009 A 
ATOM     68  C   UNL A   1      37.908  29.094  30.149  1.00  0.00     0.009 A 
ATOM     69  C   UNL A   1      36.888  30.126  27.764  1.00  0.00     0.001 A 
ATOM     70  C   UNL A   1      36.553  29.411  30.047  1.00  0.00     0.001 A 
ATOM     71  C   UNL A   1      36.046  29.935  28.858  1.00  0.00     0.000 A 
ENDBRANCH  52  66
BRANCH  53  72
ATOM     72  C   UNL A   1      48.372  26.586  29.361  1.00  0.00    -0.014 A 
ATOM     73  C   UNL A   1      49.198  26.835  28.254  1.00  0.00     0.009 A 
ATOM     74  C   UNL A   1      48.920  25.964  30.493  1.00  0.00     0.009 A 
ATOM     75  C   UNL A   1      50.539  26.447  28.272  1.00  0.00     0.001 A 
ATOM     76  C   UNL A   1      50.267  25.599  30.516  1.00  0.00     0.001 A 
ATOM     77  C   UNL A   1      51.074  25.832  29.403  1.00  0.00     0.000 A 
ENDBRANCH  53  72
BRANCH  65  78
ATOM     78  C   UNL A   1      44.943  32.369  31.141  1.00  0.00    -0.014 A 
ATOM     79  C   UNL A   1      45.121  32.525  32.523  1.00  0.00     0.009 A 
ATOM     80  C   UNL A   1      45.239  33.442  30.286  1.00  0.00     0.009 A 
ATOM     81  C   UNL A   1      45.559  33.745  33.043  1.00  0.00     0.001 A 
ATOM     82  C   UNL A   1      45.701  34.651  30.807  1.00  0.00     0.001 A 
ATOM     83  C   UNL A   1      45.854  34.803  32.184  1.00  0.00     0.000 A 
ENDBRANCH  65  78
ENDBRANCH  39  40
ENDBRANCH  31  34
ENDBRANCH  29  30
ENDBRANCH  28  29
ENDBRANCH  27  28
ENDBRANCH   1  27
TORSDOF 16
ENDMDL
MODEL 2
REMARK VINA RESULT:     -11.2      3.641      9.178
REMARK SMILES C/C(=N/OCc1ccccc1Nc1c(Cl)cccc1Cl)C(=O)NCCCCNC(=O)c1ccc(-c2c3nc(c(-c4ccccc4)c4ccc([nH]4)c(-c4ccccc4)c4nc(c(-c5ccccc5)c5ccc2[nH]5)C=C4)C=C3)cc1
REMARK SMILES IDX 24 1 23 2 21 3 22 4 2 6 1 7 3 8 4 9 5 10 6 11 7 12 11 13
REMARK SMILES IDX 8 14 10 15 9 16 12 17 13 19 14 20 19 21 15 22 16 23 18 24
REMARK SMILES IDX 20 25 17 26 25 27 26 28 27 29 28 30 29 31 30 33 31 34 32 35
REMARK SMILES IDX 78 36 33 37 77 38 34 39 35 40 36 41 71 42 37 43 76 44 70 45
REMARK SMILES IDX 72 46 38 47 75 48 69 49 68 50 39 52 61 53 46 54 60 55 47 56
REMARK SMILES IDX 50 57 59 58 73 59 48 60 49 61 58 63 74 64 51 65 40 66 41 67
REMARK SMILES IDX 45 68 42 69 44 70 43 71 62 72 63 73 67 74 64 75 66 76 65 77
REMARK SMILES IDX 52 78 53 79 57 80 54 81 56 82 55 83
REMARK H PARENT 23 5 12 18 28 32 72 51 50 62
REMARK Flexibility Score: inf
ROOT
ATOM      1  C   UNL A   1      31.258  27.809  26.098  1.00  0.00     0.116 C 
ENDROOT
BRANCH   1   2
ATOM      2  N   UNL A   1      31.186  26.568  26.831  1.00  0.00    -0.351 N 
ATOM      3  C   UNL A   1      31.359  25.273  26.414  1.00  0.00     0.268 C 
ATOM      4  O   UNL A   1      30.970  24.380  27.170  1.00  0.00    -0.268 OA
ATOM      5  H   UNL A   1      30.978  26.667  27.788  1.00  0.00     0.163 HD
BRANCH   3   6
ATOM      6  C   UNL A   1      32.113  24.828  25.171  1.00  0.00     0.141 C 
ATOM      7  C   UNL A   1      31.305  24.990  23.897  1.00  0.00     0.077 C 
ATOM      8  N   UNL A   1      33.326  24.393  24.999  1.00  0.00    -0.086 NA
BRANCH   8   9
ATOM      9  O   UNL A   1      34.094  24.207  26.139  1.00  0.00    -0.390 OA
BRANCH   9  10
ATOM     10  C   UNL A   1      34.213  22.801  26.442  1.00  0.00     0.302 C 
BRANCH  10  11
ATOM     11  C   UNL A   1      35.471  22.153  25.888  1.00  0.00     0.016 A 
ATOM     12  C   UNL A   1      36.635  22.952  25.836  1.00  0.00     0.009 A 
ATOM     13  C   UNL A   1      35.550  20.810  25.463  1.00  0.00     0.045 A 
ATOM     14  C   UNL A   1      37.844  22.456  25.357  1.00  0.00     0.001 A 
ATOM     15  C   UNL A   1      36.791  20.325  25.000  1.00  0.00     0.026 A 
ATOM     16  C   UNL A   1      37.922  21.138  24.938  1.00  0.00     0.002 A 
BRANCH  13  17
ATOM     17  N   UNL A   1      34.438  19.939  25.528  1.00  0.00    -0.353 N 
ATOM     18  H   UNL A   1      34.046  19.802  26.421  1.00  0.00     0.167 HD
BRANCH  17  19
ATOM     19  C   UNL A   1      33.819  19.238  24.457  1.00  0.00     0.076 A 
ATOM     20  C   UNL A   1      34.189  17.905  24.180  1.00  0.00     0.066 A 
ATOM     21  C   UNL A   1      32.749  19.779  23.711  1.00  0.00     0.066 A 
ATOM     22  Cl  UNL A   1      35.428  17.122  25.104  1.00  0.00    -0.082 Cl
ATOM     23  C   UNL A   1      33.537  17.154  23.194  1.00  0.00     0.023 A 
ATOM     24  C   UNL A   1      32.090  19.022  22.733  1.00  0.00     0.023 A 
ATOM     25  Cl  UNL A   1      32.225  21.418  23.914  1.00  0.00    -0.082 Cl
ATOM     26  C   UNL A   1      32.483  17.710  22.474  1.00  0.00     0.003 A 
ENDBRANCH  17  19
ENDBRANCH  13  17
ENDBRANCH  10  11
ENDBRANCH   9  10
ENDBRANCH   8   9
ENDBRANCH   3   6
ENDBRANCH   1   2
BRANCH   1  27
ATOM     27  C   UNL A   1      32.190  28.782  26.835  1.00  0.00     0.023 C 
BRANCH  27  28
ATOM     28  C   UNL A   1      31.879  30.262  26.611  1.00  0.00     0.023 C 
BRANCH  28  29
ATOM     29  C   UNL A   1      32.932  31.204  27.173  1.00  0.00     0.116 C 
BRANCH  29  30
ATOM     30  N   UNL A   1      32.432  32.550  27.410  1.00  0.00    -0.352 N 
ATOM     31  C   UNL A   1      33.042  33.589  28.075  1.00  0.00     0.251 C 
ATOM     32  H   UNL A   1      31.537  32.744  27.046  1.00  0.00     0.163 HD
ATOM     33  O   UNL A   1      32.479  34.660  28.214  1.00  0.00    -0.269 OA
BRANCH  31  34
ATOM     34  C   UNL A   1      34.365  33.352  28.685  1.00  0.00     0.039 A 
ATOM     35  C   UNL A   1      34.409  32.725  29.933  1.00  0.00     0.014 A 
ATOM     36  C   UNL A   1      35.542  33.667  28.003  1.00  0.00     0.014 A 
ATOM     37  C   UNL A   1      35.637  32.334  30.460  1.00  0.00     0.010 A 
ATOM     38  C   UNL A   1      36.759  33.211  28.494  1.00  0.00     0.010 A 
ATOM     39  C   UNL A   1      36.816  32.532  29.722  1.00  0.00    -0.014 A 
BRANCH  39  40
ATOM     40  C   UNL A   1      38.114  32.017  30.214  1.00  0.00     0.031 A 
ATOM     41  C   UNL A   1      38.673  30.737  29.666  1.00  0.00     0.074 A 
ATOM     42  C   UNL A   1      38.757  32.675  31.198  1.00  0.00     0.049 A 
ATOM     43  N   UNL A   1      39.771  30.109  30.000  1.00  0.00    -0.248 NA
ATOM     44  C   UNL A   1      37.881  30.057  28.628  1.00  0.00     0.031 C 
ATOM     45  C   UNL A   1      38.288  33.903  31.847  1.00  0.00     0.029 A 
ATOM     46  N   UNL A   1      39.942  32.398  31.830  1.00  0.00    -0.354 N 
ATOM     47  C   UNL A   1      39.794  28.957  29.227  1.00  0.00     0.074 A 
ATOM     48  C   UNL A   1      38.579  28.947  28.443  1.00  0.00     0.031 C 
ATOM     49  C   UNL A   1      39.193  34.289  32.762  1.00  0.00     0.029 A 
ATOM     50  C   UNL A   1      40.285  33.321  32.787  1.00  0.00     0.049 A 
ATOM     51  H   UNL A   1      40.496  31.612  31.616  1.00  0.00     0.167 HD
ATOM     52  C   UNL A   1      40.751  28.002  29.160  1.00  0.00     0.031 A 
ATOM     53  C   UNL A   1      41.359  33.380  33.595  1.00  0.00     0.031 A 
ATOM     54  C   UNL A   1      41.966  28.021  29.927  1.00  0.00     0.049 A 
ATOM     55  C   UNL A   1      42.409  32.311  33.497  1.00  0.00     0.074 A 
ATOM     56  C   UNL A   1      43.027  27.134  29.883  1.00  0.00     0.029 A 
ATOM     57  N   UNL A   1      42.282  28.979  30.876  1.00  0.00    -0.354 N 
ATOM     58  N   UNL A   1      42.451  31.266  32.707  1.00  0.00    -0.248 NA
ATOM     59  C   UNL A   1      43.565  32.437  34.396  1.00  0.00     0.031 C 
ATOM     60  C   UNL A   1      43.969  27.535  30.837  1.00  0.00     0.029 A 
ATOM     61  C   UNL A   1      43.512  28.695  31.441  1.00  0.00     0.049 A 
ATOM     62  H   UNL A   1      41.716  29.749  31.113  1.00  0.00     0.167 HD
ATOM     63  C   UNL A   1      43.646  30.620  32.998  1.00  0.00     0.074 A 
ATOM     64  C   UNL A   1      44.306  31.401  34.024  1.00  0.00     0.031 C 
ATOM     65  C   UNL A   1      44.151  29.482  32.463  1.00  0.00     0.031 A 
BRANCH  52  66
ATOM     66  C   UNL A   1      40.511  26.855  28.221  1.00  0.00    -0.014 A 
ATOM     67  C   UNL A   1      39.791  25.721  28.631  1.00  0.00     0.009 A 
ATOM     68  C   UNL A   1      40.994  26.915  26.905  1.00  0.00     0.009 A 
ATOM     69  C   UNL A   1      39.591  24.655  27.752  1.00  0.00     0.001 A 
ATOM     70  C   UNL A   1      40.769  25.859  26.020  1.00  0.00     0.001 A 
ATOM     71  C   UNL A   1      40.077  24.726  26.447  1.00  0.00     0.000 A 
ENDBRANCH  52  66
BRANCH  53  72
ATOM     72  C   UNL A   1      41.509  34.506  34.553  1.00  0.00    -0.014 A 
ATOM     73  C   UNL A   1      42.088  35.716  34.139  1.00  0.00     0.009 A 
ATOM     74  C   UNL A   1      41.082  34.376  35.883  1.00  0.00     0.009 A 
ATOM     75  C   UNL A   1      42.256  36.764  35.046  1.00  0.00     0.001 A 
ATOM     76  C   UNL A   1      41.231  35.435  36.780  1.00  0.00     0.001 A 
ATOM     77  C   UNL A   1      41.825  36.624  36.364  1.00  0.00     0.000 A 
ENDBRANCH  53  72
BRANCH  65  78
ATOM     78  C   UNL A   1      45.492  29.031  32.963  1.00  0.00    -0.014 A 
ATOM     79  C   UNL A   1      46.677  29.474  32.358  1.00  0.00     0.009 A 
ATOM     80  C   UNL A   1      45.568  28.183  34.079  1.00  0.00     0.009 A 
ATOM     81  C   UNL A   1      47.916  29.053  32.846  1.00  0.00     0.001 A 
ATOM     82  C   UNL A   1      46.808  27.785  34.579  1.00  0.00     0.001 A 
ATOM     83  C   UNL A   1      47.980  28.215  33.957  1.00  0.00     0.000 A 
ENDBRANCH  65  78
ENDBRANCH  39  40
ENDBRANCH  31  34
ENDBRANCH  29  30
ENDBRANCH  28  29
ENDBRANCH  27  28
ENDBRANCH   1  27
TORSDOF 16
ENDMDL
MODEL 3
REMARK VINA RESULT:     -11.2      0.360      5.847
REMARK SMILES C/C(=N/OCc1ccccc1Nc1c(Cl)cccc1Cl)C(=O)NCCCCNC(=O)c1ccc(-c2c3nc(c(-c4ccccc4)c4ccc([nH]4)c(-c4ccccc4)c4nc(c(-c5ccccc5)c5ccc2[nH]5)C=C4)C=C3)cc1
REMARK SMILES IDX 24 1 23 2 21 3 22 4 2 6 1 7 3 8 4 9 5 10 6 11 7 12 11 13
REMARK SMILES IDX 8 14 10 15 9 16 12 17 13 19 14 20 19 21 15 22 16 23 18 24
REMARK SMILES IDX 20 25 17 26 25 27 26 28 27 29 28 30 29 31 30 33 31 34 32 35
REMARK SMILES IDX 78 36 33 37 77 38 34 39 35 40 36 41 71 42 37 43 76 44 70 45
REMARK SMILES IDX 72 46 38 47 75 48 69 49 68 50 39 52 61 53 46 54 60 55 47 56
REMARK SMILES IDX 50 57 59 58 73 59 48 60 49 61 58 63 74 64 51 65 40 66 41 67
REMARK SMILES IDX 45 68 42 69 44 70 43 71 62 72 63 73 67 74 64 75 66 76 65 77
REMARK SMILES IDX 52 78 53 79 57 80 54 81 56 82 55 83
REMARK H PARENT 23 5 12 18 28 32 72 51 50 62
REMARK Flexibility Score: inf
ROOT
ATOM      1  C   UNL A   1      35.775  22.671  24.321  1.00  0.00     0.116 C 
ENDROOT
BRANCH   1   2
ATOM      2  N   UNL A   1      35.165  23.155  23.106  1.00  0.00    -0.351 N 
ATOM      3  C   UNL A   1      33.898  23.620  22.866  1.00  0.00     0.268 C 
ATOM      4  O   UNL A   1      33.542  23.708  21.689  1.00  0.00    -0.268 OA
ATOM      5  H   UNL A   1      35.757  23.150  22.319  1.00  0.00     0.163 HD
BRANCH   3   6
ATOM      6  C   UNL A   1      32.936  24.172  23.908  1.00  0.00     0.141 C 
ATOM      7  C   UNL A   1      31.798  23.221  24.227  1.00  0.00     0.077 C 
ATOM      8  N   UNL A   1      32.946  25.269  24.604  1.00  0.00    -0.086 NA
BRANCH   8   9
ATOM      9  O   UNL A   1      33.956  26.179  24.328  1.00  0.00    -0.390 OA
BRANCH   9  10
ATOM     10  C   UNL A   1      33.397  27.430  23.875  1.00  0.00     0.302 C 
BRANCH  10  11
ATOM     11  C   UNL A   1      32.978  28.364  24.998  1.00  0.00     0.016 A 
ATOM     12  C   UNL A   1      33.647  28.222  26.234  1.00  0.00     0.009 A 
ATOM     13  C   UNL A   1      32.002  29.374  24.868  1.00  0.00     0.045 A 
ATOM     14  C   UNL A   1      33.351  29.032  27.327  1.00  0.00     0.001 A 
ATOM     15  C   UNL A   1      31.732  30.195  25.982  1.00  0.00     0.026 A 
ATOM     16  C   UNL A   1      32.391  30.022  27.200  1.00  0.00     0.002 A 
BRANCH  13  17
ATOM     17  N   UNL A   1      31.324  29.605  23.648  1.00  0.00    -0.353 N 
ATOM     18  H   UNL A   1      31.888  29.845  22.877  1.00  0.00     0.167 HD
BRANCH  17  19
ATOM     19  C   UNL A   1      29.926  29.531  23.403  1.00  0.00     0.076 A 
ATOM     20  C   UNL A   1      29.322  28.285  23.128  1.00  0.00     0.066 A 
ATOM     21  C   UNL A   1      29.070  30.646  23.534  1.00  0.00     0.066 A 
ATOM     22  Cl  UNL A   1      30.277  26.842  23.039  1.00  0.00    -0.082 Cl
ATOM     23  C   UNL A   1      27.936  28.161  22.973  1.00  0.00     0.023 A 
ATOM     24  C   UNL A   1      27.682  30.518  23.390  1.00  0.00     0.023 A 
ATOM     25  Cl  UNL A   1      29.681  32.242  23.820  1.00  0.00    -0.082 Cl
ATOM     26  C   UNL A   1      27.115  29.277  23.110  1.00  0.00     0.003 A 
ENDBRANCH  17  19
ENDBRANCH  13  17
ENDBRANCH  10  11
ENDBRANCH   9  10
ENDBRANCH   8   9
ENDBRANCH   3   6
ENDBRANCH   1   2
BRANCH   1  27
ATOM     27  C   UNL A   1      37.073  21.927  23.978  1.00  0.00     0.023 C 
BRANCH  27  28
ATOM     28  C   UNL A   1      37.410  20.763  24.910  1.00  0.00     0.023 C 
BRANCH  28  29
ATOM     29  C   UNL A   1      38.665  20.981  25.739  1.00  0.00     0.116 C 
BRANCH  29  30
ATOM     30  N   UNL A   1      39.622  19.889  25.635  1.00  0.00    -0.352 N 
ATOM     31  C   UNL A   1      40.941  19.861  26.027  1.00  0.00     0.251 C 
ATOM     32  H   UNL A   1      39.279  19.059  25.231  1.00  0.00     0.163 HD
ATOM     33  O   UNL A   1      41.626  18.870  25.849  1.00  0.00    -0.269 OA
BRANCH  31  34
ATOM     34  C   UNL A   1      41.531  21.088  26.598  1.00  0.00     0.039 A 
ATOM     35  C   UNL A   1      42.061  22.033  25.716  1.00  0.00     0.014 A 
ATOM     36  C   UNL A   1      41.485  21.340  27.970  1.00  0.00     0.014 A 
ATOM     37  C   UNL A   1      42.470  23.271  26.204  1.00  0.00     0.010 A 
ATOM     38  C   UNL A   1      41.824  22.602  28.446  1.00  0.00     0.010 A 
ATOM     39  C   UNL A   1      42.309  23.581  27.565  1.00  0.00    -0.014 A 
BRANCH  39  40
ATOM     40  C   UNL A   1      42.629  24.932  28.078  1.00  0.00     0.031 A 
ATOM     41  C   UNL A   1      44.042  25.286  28.438  1.00  0.00     0.074 A 
ATOM     42  C   UNL A   1      41.634  25.817  28.278  1.00  0.00     0.049 A 
ATOM     43  N   UNL A   1      44.510  26.401  28.938  1.00  0.00    -0.248 NA
ATOM     44  C   UNL A   1      45.060  24.242  28.234  1.00  0.00     0.031 C 
ATOM     45  C   UNL A   1      40.212  25.572  28.015  1.00  0.00     0.029 A 
ATOM     46  N   UNL A   1      41.666  27.103  28.754  1.00  0.00    -0.354 N 
ATOM     47  C   UNL A   1      45.869  26.187  29.124  1.00  0.00     0.074 A 
ATOM     48  C   UNL A   1      46.143  24.824  28.728  1.00  0.00     0.031 C 
ATOM     49  C   UNL A   1      39.515  26.683  28.303  1.00  0.00     0.029 A 
ATOM     50  C   UNL A   1      40.431  27.703  28.802  1.00  0.00     0.049 A 
ATOM     51  H   UNL A   1      42.496  27.553  29.034  1.00  0.00     0.167 HD
ATOM     52  C   UNL A   1      46.808  27.056  29.565  1.00  0.00     0.031 A 
ATOM     53  C   UNL A   1      40.079  28.938  29.203  1.00  0.00     0.031 A 
ATOM     54  C   UNL A   1      46.539  28.416  29.942  1.00  0.00     0.049 A 
ATOM     55  C   UNL A   1      41.142  29.884  29.683  1.00  0.00     0.074 A 
ATOM     56  C   UNL A   1      47.433  29.394  30.340  1.00  0.00     0.029 A 
ATOM     57  N   UNL A   1      45.278  28.990  29.965  1.00  0.00    -0.354 N 
ATOM     58  N   UNL A   1      42.434  29.690  29.784  1.00  0.00    -0.248 NA
ATOM     59  C   UNL A   1      40.697  31.223  30.096  1.00  0.00     0.031 C 
ATOM     60  C   UNL A   1      46.706  30.550  30.643  1.00  0.00     0.029 A 
ATOM     61  C   UNL A   1      45.366  30.304  30.390  1.00  0.00     0.049 A 
ATOM     62  H   UNL A   1      44.443  28.532  29.714  1.00  0.00     0.167 HD
ATOM     63  C   UNL A   1      42.961  30.888  30.250  1.00  0.00     0.074 A 
ATOM     64  C   UNL A   1      41.849  31.806  30.397  1.00  0.00     0.031 C 
ATOM     65  C   UNL A   1      44.249  31.199  30.532  1.00  0.00     0.031 A 
BRANCH  52  66
ATOM     66  C   UNL A   1      48.219  26.549  29.663  1.00  0.00    -0.014 A 
ATOM     67  C   UNL A   1      48.648  25.814  30.780  1.00  0.00     0.009 A 
ATOM     68  C   UNL A   1      49.124  26.792  28.619  1.00  0.00     0.009 A 
ATOM     69  C   UNL A   1      49.967  25.364  30.865  1.00  0.00     0.001 A 
ATOM     70  C   UNL A   1      50.435  26.319  28.696  1.00  0.00     0.001 A 
ATOM     71  C   UNL A   1      50.858  25.613  29.822  1.00  0.00     0.000 A 
ENDBRANCH  52  66
BRANCH  53  72
ATOM     72  C   UNL A   1      38.655  29.362  29.146  1.00  0.00    -0.014 A 
ATOM     73  C   UNL A   1      37.815  29.171  30.254  1.00  0.00     0.009 A 
ATOM     74  C   UNL A   1      38.130  29.951  27.987  1.00  0.00     0.009 A 
ATOM     75  C   UNL A   1      36.471  29.541  30.193  1.00  0.00     0.001 A 
ATOM     76  C   UNL A   1      36.790  30.341  27.938  1.00  0.00     0.001 A 
ATOM     77  C   UNL A   1      35.960  30.128  29.037  1.00  0.00     0.000 A 
ENDBRANCH  53  72
BRANCH  65  78
ATOM     78  C   UNL A   1      44.525  32.597  31.004  1.00  0.00    -0.014 A 
ATOM     79  C   UNL A   1      44.782  33.631  30.093  1.00  0.00     0.009 A 
ATOM     80  C   UNL A   1      44.485  32.888  32.377  1.00  0.00     0.009 A 
ATOM     81  C   UNL A   1      45.024  34.928  30.550  1.00  0.00     0.001 A 
ATOM     82  C   UNL A   1      44.702  34.190  32.828  1.00  0.00     0.001 A 
ATOM     83  C   UNL A   1      44.978  35.207  31.915  1.00  0.00     0.000 A 
ENDBRANCH  65  78
ENDBRANCH  39  40
ENDBRANCH  31  34
ENDBRANCH  29  30
ENDBRANCH  28  29
ENDBRANCH  27  28
ENDBRANCH   1  27
TORSDOF 16
ENDMDL
