MODEL 1
REMARK VINA RESULT:     -11.6      0.000      0.000
REMARK SMILES N#Cc1ccccc1Cn1cccc1C(=O)NCCCCNC(=O)c1ccc(-c2c3nc(c(-c4ccccc4)c4ccc([nH]4)c(-c4ccccc4)c4nc(c(-c5ccccc5)c5ccc2[nH]5)C=C4)C=C3)cc1
REMARK SMILES IDX 19 1 18 2 17 3 15 4 16 5 14 7 10 8 11 9 12 10 13 11 9 12
REMARK SMILES IDX 8 13 3 14 4 15 5 16 7 17 6 18 2 19 1 20 20 21 21 22 22 23
REMARK SMILES IDX 23 24 24 26 25 27 26 28 72 29 27 30 71 31 28 32 29 33 30 34
REMARK SMILES IDX 65 35 31 36 70 37 64 38 66 39 32 40 69 41 63 42 62 43 33 45
REMARK SMILES IDX 55 46 40 47 54 48 41 49 44 50 53 51 67 52 42 53 43 54 52 56
REMARK SMILES IDX 68 57 45 58 34 59 35 60 39 61 36 62 38 63 37 64 56 65 57 66
REMARK SMILES IDX 61 67 58 68 60 69 59 70 46 71 47 72 51 73 48 74 50 75 49 76
REMARK H PARENT 17 6 22 25 66 44 44 55
REMARK Flexibility Score: inf
ROOT
ATOM      1  C   UNL A   1      37.160  21.117  24.674  1.00  0.00     0.023 C 
ENDROOT
BRANCH   1   2
ATOM      2  C   UNL A   1      36.736  22.072  25.794  1.00  0.00     0.116 C 
BRANCH   2   3
ATOM      3  N   UNL A   1      35.547  21.559  26.447  1.00  0.00    -0.351 N 
ATOM      4  C   UNL A   1      34.200  21.547  26.182  1.00  0.00     0.267 C 
ATOM      5  O   UNL A   1      33.538  21.032  27.091  1.00  0.00    -0.268 OA
ATOM      6  H   UNL A   1      35.759  21.104  27.294  1.00  0.00     0.163 HD
BRANCH   4   7
ATOM      7  C   UNL A   1      33.546  21.959  24.939  1.00  0.00     0.107 A 
ATOM      8  N   UNL A   1      33.420  23.163  24.239  1.00  0.00    -0.339 N 
ATOM      9  C   UNL A   1      32.815  22.921  23.024  1.00  0.00     0.086 A 
ATOM     10  C   UNL A   1      32.302  21.652  23.034  1.00  0.00     0.020 A 
ATOM     11  C   UNL A   1      32.733  21.063  24.234  1.00  0.00     0.033 A 
BRANCH   8  12
ATOM     12  C   UNL A   1      33.944  24.473  24.620  1.00  0.00     0.159 C 
BRANCH  12  13
ATOM     13  C   UNL A   1      32.997  25.654  24.760  1.00  0.00    -0.010 A 
ATOM     14  C   UNL A   1      31.991  25.726  25.757  1.00  0.00     0.057 A 
ATOM     15  C   UNL A   1      31.308  26.928  26.001  1.00  0.00     0.020 A 
ATOM     16  C   UNL A   1      31.563  28.057  25.236  1.00  0.00     0.001 A 
ATOM     17  C   UNL A   1      33.233  26.814  24.002  1.00  0.00     0.007 A 
ATOM     18  C   UNL A   1      32.511  27.992  24.223  1.00  0.00     0.000 A 
BRANCH  14  19
ATOM     19  C   UNL A   1      31.593  24.634  26.614  1.00  0.00     0.099 C 
ATOM     20  N   UNL A   1      31.369  23.741  27.303  1.00  0.00    -0.192 NA
ENDBRANCH  14  19
ENDBRANCH  12  13
ENDBRANCH   8  12
ENDBRANCH   4   7
ENDBRANCH   2   3
ENDBRANCH   1   2
BRANCH   1  21
ATOM     21  C   UNL A   1      38.114  19.970  24.973  1.00  0.00     0.023 C 
BRANCH  21  22
ATOM     22  C   UNL A   1      39.332  20.373  25.772  1.00  0.00     0.116 C 
BRANCH  22  23
ATOM     23  N   UNL A   1      40.271  19.273  25.943  1.00  0.00    -0.352 N 
ATOM     24  C   UNL A   1      41.639  19.369  26.034  1.00  0.00     0.251 C 
ATOM     25  H   UNL A   1      39.887  18.368  26.000  1.00  0.00     0.163 HD
ATOM     26  O   UNL A   1      42.358  18.418  25.756  1.00  0.00    -0.269 OA
BRANCH  24  27
ATOM     27  C   UNL A   1      42.232  20.649  26.469  1.00  0.00     0.039 A 
ATOM     28  C   UNL A   1      42.725  21.539  25.515  1.00  0.00     0.014 A 
ATOM     29  C   UNL A   1      42.285  20.956  27.835  1.00  0.00     0.014 A 
ATOM     30  C   UNL A   1      43.213  22.771  25.939  1.00  0.00     0.010 A 
ATOM     31  C   UNL A   1      42.708  22.206  28.254  1.00  0.00     0.010 A 
ATOM     32  C   UNL A   1      43.176  23.114  27.306  1.00  0.00    -0.014 A 
BRANCH  32  33
ATOM     33  C   UNL A   1      43.401  24.529  27.684  1.00  0.00     0.031 A 
ATOM     34  C   UNL A   1      42.022  25.236  27.736  1.00  0.00     0.074 A 
ATOM     35  C   UNL A   1      44.704  24.954  27.820  1.00  0.00     0.049 A 
ATOM     36  N   UNL A   1      41.653  26.359  27.217  1.00  0.00    -0.248 NA
ATOM     37  C   UNL A   1      40.842  24.520  28.312  1.00  0.00     0.031 C 
ATOM     38  C   UNL A   1      45.884  24.054  27.914  1.00  0.00     0.029 A 
ATOM     39  N   UNL A   1      45.332  26.184  27.928  1.00  0.00    -0.354 N 
ATOM     40  C   UNL A   1      40.307  26.595  27.585  1.00  0.00     0.074 A 
ATOM     41  C   UNL A   1      39.819  25.360  28.114  1.00  0.00     0.031 C 
ATOM     42  C   UNL A   1      47.046  24.751  27.940  1.00  0.00     0.029 A 
ATOM     43  C   UNL A   1      46.764  26.167  27.839  1.00  0.00     0.049 A 
ATOM     44  H   UNL A   1      44.826  27.018  28.057  1.00  0.00     0.167 HD
ATOM     45  C   UNL A   1      39.779  27.858  27.617  1.00  0.00     0.031 A 
ATOM     46  C   UNL A   1      47.638  27.211  27.620  1.00  0.00     0.031 A 
ATOM     47  C   UNL A   1      40.770  28.779  27.166  1.00  0.00     0.049 A 
ATOM     48  C   UNL A   1      46.781  28.400  27.615  1.00  0.00     0.074 A 
ATOM     49  C   UNL A   1      41.375  28.970  25.951  1.00  0.00     0.029 A 
ATOM     50  N   UNL A   1      41.570  29.285  28.165  1.00  0.00    -0.354 N 
ATOM     51  N   UNL A   1      46.245  28.937  28.666  1.00  0.00    -0.248 NA
ATOM     52  C   UNL A   1      46.375  28.951  26.316  1.00  0.00     0.031 C 
ATOM     53  C   UNL A   1      42.737  29.041  26.314  1.00  0.00     0.029 A 
ATOM     54  C   UNL A   1      42.850  29.280  27.688  1.00  0.00     0.049 A 
ATOM     55  H   UNL A   1      41.276  29.590  29.053  1.00  0.00     0.167 HD
ATOM     56  C   UNL A   1      45.158  29.572  28.125  1.00  0.00     0.074 A 
ATOM     57  C   UNL A   1      45.467  29.827  26.732  1.00  0.00     0.031 C 
ATOM     58  C   UNL A   1      43.924  29.338  28.638  1.00  0.00     0.031 A 
BRANCH  45  59
ATOM     59  C   UNL A   1      38.616  28.460  28.367  1.00  0.00    -0.014 A 
ATOM     60  C   UNL A   1      37.996  29.591  27.769  1.00  0.00     0.009 A 
ATOM     61  C   UNL A   1      38.367  28.245  29.724  1.00  0.00     0.009 A 
ATOM     62  C   UNL A   1      37.321  30.553  28.520  1.00  0.00     0.001 A 
ATOM     63  C   UNL A   1      37.639  29.187  30.471  1.00  0.00     0.001 A 
ATOM     64  C   UNL A   1      37.161  30.359  29.882  1.00  0.00     0.000 A 
ENDBRANCH  45  59
BRANCH  46  65
ATOM     65  C   UNL A   1      49.095  27.489  27.261  1.00  0.00    -0.014 A 
ATOM     66  C   UNL A   1      49.964  28.395  27.873  1.00  0.00     0.009 A 
ATOM     67  C   UNL A   1      49.686  26.734  26.199  1.00  0.00     0.009 A 
ATOM     68  C   UNL A   1      51.339  28.447  27.516  1.00  0.00     0.001 A 
ATOM     69  C   UNL A   1      51.049  26.739  25.879  1.00  0.00     0.001 A 
ATOM     70  C   UNL A   1      51.889  27.591  26.557  1.00  0.00     0.000 A 
ENDBRANCH  46  65
BRANCH  58  71
ATOM     71  C   UNL A   1      43.873  28.851  30.077  1.00  0.00    -0.014 A 
ATOM     72  C   UNL A   1      44.177  29.759  31.105  1.00  0.00     0.009 A 
ATOM     73  C   UNL A   1      43.624  27.517  30.454  1.00  0.00     0.009 A 
ATOM     74  C   UNL A   1      44.236  29.361  32.446  1.00  0.00     0.001 A 
ATOM     75  C   UNL A   1      43.690  27.112  31.801  1.00  0.00     0.001 A 
ATOM     76  C   UNL A   1      43.993  28.037  32.796  1.00  0.00     0.000 A 
ENDBRANCH  58  71
ENDBRANCH  32  33
ENDBRANCH  24  27
ENDBRANCH  22  23
ENDBRANCH  21  22
ENDBRANCH   1  21
TORSDOF 14
ENDMDL
MODEL 2
REMARK VINA RESULT:     -11.5      4.489      9.720
REMARK SMILES N#Cc1ccccc1Cn1cccc1C(=O)NCCCCNC(=O)c1ccc(-c2c3nc(c(-c4ccccc4)c4ccc([nH]4)c(-c4ccccc4)c4nc(c(-c5ccccc5)c5ccc2[nH]5)C=C4)C=C3)cc1
REMARK SMILES IDX 19 1 18 2 17 3 15 4 16 5 14 7 10 8 11 9 12 10 13 11 9 12
REMARK SMILES IDX 8 13 3 14 4 15 5 16 7 17 6 18 2 19 1 20 20 21 21 22 22 23
REMARK SMILES IDX 23 24 24 26 25 27 26 28 72 29 27 30 71 31 28 32 29 33 30 34
REMARK SMILES IDX 65 35 31 36 70 37 64 38 66 39 32 40 69 41 63 42 62 43 33 45
REMARK SMILES IDX 55 46 40 47 54 48 41 49 44 50 53 51 67 52 42 53 43 54 52 56
REMARK SMILES IDX 68 57 45 58 34 59 35 60 39 61 36 62 38 63 37 64 56 65 57 66
REMARK SMILES IDX 61 67 58 68 60 69 59 70 46 71 47 72 51 73 48 74 50 75 49 76
REMARK H PARENT 17 6 22 25 66 44 44 55
REMARK Flexibility Score: inf
ROOT
ATOM      1  C   UNL A   1      31.795  30.481  26.779  1.00  0.00     0.023 C 
ENDROOT
BRANCH   1   2
ATOM      2  C   UNL A   1      33.146  29.821  26.487  1.00  0.00     0.116 C 
BRANCH   2   3
ATOM      3  N   UNL A   1      33.315  29.673  25.055  1.00  0.00    -0.351 N 
ATOM      4  C   UNL A   1      32.806  28.854  24.077  1.00  0.00     0.267 C 
ATOM      5  O   UNL A   1      33.311  29.061  22.967  1.00  0.00    -0.268 OA
ATOM      6  H   UNL A   1      33.958  30.324  24.690  1.00  0.00     0.163 HD
BRANCH   4   7
ATOM      7  C   UNL A   1      31.699  27.905  24.215  1.00  0.00     0.107 A 
ATOM      8  N   UNL A   1      31.401  26.855  25.090  1.00  0.00    -0.339 N 
ATOM      9  C   UNL A   1      30.122  26.403  24.837  1.00  0.00     0.086 A 
ATOM     10  C   UNL A   1      29.692  26.943  23.655  1.00  0.00     0.020 A 
ATOM     11  C   UNL A   1      30.682  27.855  23.255  1.00  0.00     0.033 A 
BRANCH   8  12
ATOM     12  C   UNL A   1      32.215  26.360  26.197  1.00  0.00     0.159 C 
BRANCH  12  13
ATOM     13  C   UNL A   1      33.098  25.138  25.998  1.00  0.00    -0.010 A 
ATOM     14  C   UNL A   1      32.640  23.811  26.204  1.00  0.00     0.057 A 
ATOM     15  C   UNL A   1      33.406  22.714  25.777  1.00  0.00     0.020 A 
ATOM     16  C   UNL A   1      34.651  22.903  25.193  1.00  0.00     0.001 A 
ATOM     17  C   UNL A   1      34.362  25.295  25.403  1.00  0.00     0.007 A 
ATOM     18  C   UNL A   1      35.136  24.193  25.027  1.00  0.00     0.000 A 
BRANCH  14  19
ATOM     19  C   UNL A   1      31.384  23.453  26.820  1.00  0.00     0.099 C 
ATOM     20  N   UNL A   1      30.356  23.260  27.297  1.00  0.00    -0.192 NA
ENDBRANCH  14  19
ENDBRANCH  12  13
ENDBRANCH   8  12
ENDBRANCH   4   7
ENDBRANCH   2   3
ENDBRANCH   1   2
BRANCH   1  21
ATOM     21  C   UNL A   1      31.687  31.998  26.840  1.00  0.00     0.023 C 
BRANCH  21  22
ATOM     22  C   UNL A   1      32.881  32.677  27.470  1.00  0.00     0.116 C 
BRANCH  22  23
ATOM     23  N   UNL A   1      32.637  34.086  27.743  1.00  0.00    -0.352 N 
ATOM     24  C   UNL A   1      33.155  34.823  28.782  1.00  0.00     0.251 C 
ATOM     25  H   UNL A   1      32.039  34.561  27.120  1.00  0.00     0.163 HD
ATOM     26  O   UNL A   1      32.594  35.836  29.178  1.00  0.00    -0.269 OA
BRANCH  24  27
ATOM     27  C   UNL A   1      34.404  34.365  29.420  1.00  0.00     0.039 A 
ATOM     28  C   UNL A   1      34.347  33.689  30.639  1.00  0.00     0.014 A 
ATOM     29  C   UNL A   1      35.631  34.608  28.790  1.00  0.00     0.014 A 
ATOM     30  C   UNL A   1      35.528  33.201  31.189  1.00  0.00     0.010 A 
ATOM     31  C   UNL A   1      36.799  34.068  29.301  1.00  0.00     0.010 A 
ATOM     32  C   UNL A   1      36.749  33.365  30.503  1.00  0.00    -0.014 A 
BRANCH  32  33
ATOM     33  C   UNL A   1      37.919  32.572  30.948  1.00  0.00     0.031 A 
ATOM     34  C   UNL A   1      37.976  31.283  30.089  1.00  0.00     0.074 A 
ATOM     35  C   UNL A   1      38.637  33.042  32.024  1.00  0.00     0.049 A 
ATOM     36  N   UNL A   1      38.123  30.054  30.457  1.00  0.00    -0.248 NA
ATOM     37  C   UNL A   1      37.671  31.351  28.626  1.00  0.00     0.031 C 
ATOM     38  C   UNL A   1      38.524  34.413  32.586  1.00  0.00     0.029 A 
ATOM     39  N   UNL A   1      39.608  32.519  32.863  1.00  0.00    -0.354 N 
ATOM     40  C   UNL A   1      38.160  29.245  29.297  1.00  0.00     0.074 A 
ATOM     41  C   UNL A   1      37.714  30.075  28.221  1.00  0.00     0.031 C 
ATOM     42  C   UNL A   1      39.275  34.562  33.705  1.00  0.00     0.029 A 
ATOM     43  C   UNL A   1      39.935  33.311  34.014  1.00  0.00     0.049 A 
ATOM     44  H   UNL A   1      40.045  31.657  32.682  1.00  0.00     0.167 HD
ATOM     45  C   UNL A   1      38.765  28.016  29.293  1.00  0.00     0.031 A 
ATOM     46  C   UNL A   1      40.618  32.952  35.158  1.00  0.00     0.031 A 
ATOM     47  C   UNL A   1      39.232  27.733  30.610  1.00  0.00     0.049 A 
ATOM     48  C   UNL A   1      41.058  31.579  34.894  1.00  0.00     0.074 A 
ATOM     49  C   UNL A   1      38.582  27.506  31.795  1.00  0.00     0.029 A 
ATOM     50  N   UNL A   1      40.515  28.161  30.860  1.00  0.00    -0.354 N 
ATOM     51  N   UNL A   1      42.021  31.245  34.093  1.00  0.00    -0.248 NA
ATOM     52  C   UNL A   1      40.266  30.481  35.463  1.00  0.00     0.031 C 
ATOM     53  C   UNL A   1      39.287  28.352  32.678  1.00  0.00     0.029 A 
ATOM     54  C   UNL A   1      40.509  28.722  32.106  1.00  0.00     0.049 A 
ATOM     55  H   UNL A   1      41.288  28.080  30.257  1.00  0.00     0.167 HD
ATOM     56  C   UNL A   1      41.666  29.966  33.755  1.00  0.00     0.074 A 
ATOM     57  C   UNL A   1      40.834  29.460  34.829  1.00  0.00     0.031 C 
ATOM     58  C   UNL A   1      41.574  29.622  32.445  1.00  0.00     0.031 A 
BRANCH  45  59
ATOM     59  C   UNL A   1      39.358  27.174  28.190  1.00  0.00    -0.014 A 
ATOM     60  C   UNL A   1      39.314  25.765  28.379  1.00  0.00     0.009 A 
ATOM     61  C   UNL A   1      40.253  27.656  27.233  1.00  0.00     0.009 A 
ATOM     62  C   UNL A   1      40.238  24.906  27.785  1.00  0.00     0.001 A 
ATOM     63  C   UNL A   1      41.148  26.783  26.592  1.00  0.00     0.001 A 
ATOM     64  C   UNL A   1      41.173  25.422  26.903  1.00  0.00     0.000 A 
ENDBRANCH  45  59
BRANCH  46  65
ATOM     65  C   UNL A   1      40.916  33.444  36.570  1.00  0.00    -0.014 A 
ATOM     66  C   UNL A   1      40.122  33.293  37.709  1.00  0.00     0.009 A 
ATOM     67  C   UNL A   1      42.156  34.119  36.804  1.00  0.00     0.009 A 
ATOM     68  C   UNL A   1      40.595  33.688  38.991  1.00  0.00     0.001 A 
ATOM     69  C   UNL A   1      42.653  34.461  38.067  1.00  0.00     0.001 A 
ATOM     70  C   UNL A   1      41.872  34.226  39.175  1.00  0.00     0.000 A 
ENDBRANCH  46  65
BRANCH  58  71
ATOM     71  C   UNL A   1      42.381  30.463  31.469  1.00  0.00    -0.014 A 
ATOM     72  C   UNL A   1      41.704  31.391  30.662  1.00  0.00     0.009 A 
ATOM     73  C   UNL A   1      43.766  30.315  31.253  1.00  0.00     0.009 A 
ATOM     74  C   UNL A   1      42.367  32.136  29.679  1.00  0.00     0.001 A 
ATOM     75  C   UNL A   1      44.434  31.057  30.260  1.00  0.00     0.001 A 
ATOM     76  C   UNL A   1      43.733  31.970  29.477  1.00  0.00     0.000 A 
ENDBRANCH  58  71
ENDBRANCH  32  33
ENDBRANCH  24  27
ENDBRANCH  22  23
ENDBRANCH  21  22
ENDBRANCH   1  21
TORSDOF 14
ENDMDL
MODEL 3
REMARK VINA RESULT:     -11.3      1.089      1.679
REMARK SMILES N#Cc1ccccc1Cn1cccc1C(=O)NCCCCNC(=O)c1ccc(-c2c3nc(c(-c4ccccc4)c4ccc([nH]4)c(-c4ccccc4)c4nc(c(-c5ccccc5)c5ccc2[nH]5)C=C4)C=C3)cc1
REMARK SMILES IDX 19 1 18 2 17 3 15 4 16 5 14 7 10 8 11 9 12 10 13 11 9 12
REMARK SMILES IDX 8 13 3 14 4 15 5 16 7 17 6 18 2 19 1 20 20 21 21 22 22 23
REMARK SMILES IDX 23 24 24 26 25 27 26 28 72 29 27 30 71 31 28 32 29 33 30 34
REMARK SMILES IDX 65 35 31 36 70 37 64 38 66 39 32 40 69 41 63 42 62 43 33 45
REMARK SMILES IDX 55 46 40 47 54 48 41 49 44 50 53 51 67 52 42 53 43 54 52 56
REMARK SMILES IDX 68 57 45 58 34 59 35 60 39 61 36 62 38 63 37 64 56 65 57 66
REMARK SMILES IDX 61 67 58 68 60 69 59 70 46 71 47 72 51 73 48 74 50 75 49 76
REMARK H PARENT 17 6 22 25 66 44 44 55
REMARK Flexibility Score: inf
ROOT
ATOM      1  C   UNL A   1      36.767  21.212  24.998  1.00  0.00     0.023 C 
ENDROOT
BRANCH   1   2
ATOM      2  C   UNL A   1      37.017  22.638  24.497  1.00  0.00     0.116 C 
BRANCH   2   3
ATOM      3  N   UNL A   1      36.097  22.942  23.417  1.00  0.00    -0.351 N 
ATOM      4  C   UNL A   1      34.747  23.158  23.299  1.00  0.00     0.267 C 
ATOM      5  O   UNL A   1      34.389  23.324  22.126  1.00  0.00    -0.268 OA
ATOM      6  H   UNL A   1      36.558  23.012  22.550  1.00  0.00     0.163 HD
BRANCH   4   7
ATOM      7  C   UNL A   1      33.784  23.318  24.390  1.00  0.00     0.107 A 
ATOM      8  N   UNL A   1      33.478  24.338  25.298  1.00  0.00    -0.339 N 
ATOM      9  C   UNL A   1      32.351  23.987  26.011  1.00  0.00     0.086 A 
ATOM     10  C   UNL A   1      32.082  22.664  25.785  1.00  0.00     0.020 A 
ATOM     11  C   UNL A   1      32.989  22.241  24.799  1.00  0.00     0.033 A 
BRANCH   8  12
ATOM     12  C   UNL A   1      34.128  25.640  25.425  1.00  0.00     0.159 C 
BRANCH  12  13
ATOM     13  C   UNL A   1      33.317  26.911  25.225  1.00  0.00    -0.010 A 
ATOM     14  C   UNL A   1      32.873  27.354  23.953  1.00  0.00     0.057 A 
ATOM     15  C   UNL A   1      31.929  28.389  23.844  1.00  0.00     0.020 A 
ATOM     16  C   UNL A   1      31.453  29.036  24.974  1.00  0.00     0.001 A 
ATOM     17  C   UNL A   1      32.814  27.586  26.351  1.00  0.00     0.007 A 
ATOM     18  C   UNL A   1      31.912  28.647  26.226  1.00  0.00     0.000 A 
BRANCH  14  19
ATOM     19  C   UNL A   1      33.296  26.802  22.689  1.00  0.00     0.099 C 
ATOM     20  N   UNL A   1      33.668  26.449  21.659  1.00  0.00    -0.192 NA
ENDBRANCH  14  19
ENDBRANCH  12  13
ENDBRANCH   8  12
ENDBRANCH   4   7
ENDBRANCH   2   3
ENDBRANCH   1   2
BRANCH   1  21
ATOM     21  C   UNL A   1      37.887  20.184  24.956  1.00  0.00     0.023 C 
BRANCH  21  22
ATOM     22  C   UNL A   1      39.051  20.503  25.865  1.00  0.00     0.116 C 
BRANCH  22  23
ATOM     23  N   UNL A   1      39.975  19.385  25.996  1.00  0.00    -0.352 N 
ATOM     24  C   UNL A   1      41.348  19.456  26.036  1.00  0.00     0.251 C 
ATOM     25  H   UNL A   1      39.577  18.487  26.063  1.00  0.00     0.163 HD
ATOM     26  O   UNL A   1      42.038  18.493  25.727  1.00  0.00    -0.269 OA
BRANCH  24  27
ATOM     27  C   UNL A   1      41.980  20.721  26.455  1.00  0.00     0.039 A 
ATOM     28  C   UNL A   1      42.399  21.635  25.488  1.00  0.00     0.014 A 
ATOM     29  C   UNL A   1      42.146  20.993  27.820  1.00  0.00     0.014 A 
ATOM     30  C   UNL A   1      42.925  22.854  25.903  1.00  0.00     0.010 A 
ATOM     31  C   UNL A   1      42.608  22.230  28.235  1.00  0.00     0.010 A 
ATOM     32  C   UNL A   1      43.001  23.161  27.277  1.00  0.00    -0.014 A 
BRANCH  32  33
ATOM     33  C   UNL A   1      43.263  24.566  27.672  1.00  0.00     0.031 A 
ATOM     34  C   UNL A   1      41.903  25.305  27.742  1.00  0.00     0.074 A 
ATOM     35  C   UNL A   1      44.577  24.956  27.806  1.00  0.00     0.049 A 
ATOM     36  N   UNL A   1      41.558  26.444  27.240  1.00  0.00    -0.248 NA
ATOM     37  C   UNL A   1      40.709  24.610  28.316  1.00  0.00     0.031 C 
ATOM     38  C   UNL A   1      45.735  24.027  27.880  1.00  0.00     0.029 A 
ATOM     39  N   UNL A   1      45.235  26.169  27.926  1.00  0.00    -0.354 N 
ATOM     40  C   UNL A   1      40.220  26.708  27.619  1.00  0.00     0.074 A 
ATOM     41  C   UNL A   1      39.705  25.477  28.135  1.00  0.00     0.031 C 
ATOM     42  C   UNL A   1      46.914  24.694  27.909  1.00  0.00     0.029 A 
ATOM     43  C   UNL A   1      46.666  26.119  27.828  1.00  0.00     0.049 A 
ATOM     44  H   UNL A   1      44.751  27.014  28.069  1.00  0.00     0.167 HD
ATOM     45  C   UNL A   1      39.724  27.983  27.672  1.00  0.00     0.031 A 
ATOM     46  C   UNL A   1      47.565  27.144  27.617  1.00  0.00     0.031 A 
ATOM     47  C   UNL A   1      40.734  28.885  27.227  1.00  0.00     0.049 A 
ATOM     48  C   UNL A   1      46.737  28.353  27.633  1.00  0.00     0.074 A 
ATOM     49  C   UNL A   1      41.336  29.077  26.011  1.00  0.00     0.029 A 
ATOM     50  N   UNL A   1      41.552  29.357  28.227  1.00  0.00    -0.354 N 
ATOM     51  N   UNL A   1      46.220  28.889  28.695  1.00  0.00    -0.248 NA
ATOM     52  C   UNL A   1      46.337  28.931  26.344  1.00  0.00     0.031 C 
ATOM     53  C   UNL A   1      42.702  29.110  26.366  1.00  0.00     0.029 A 
ATOM     54  C   UNL A   1      42.829  29.328  27.742  1.00  0.00     0.049 A 
ATOM     55  H   UNL A   1      41.271  29.658  29.122  1.00  0.00     0.167 HD
ATOM     56  C   UNL A   1      45.146  29.557  28.169  1.00  0.00     0.074 A 
ATOM     57  C   UNL A   1      45.453  29.824  26.778  1.00  0.00     0.031 C 
ATOM     58  C   UNL A   1      43.909  29.346  28.687  1.00  0.00     0.031 A 
BRANCH  45  59
ATOM     59  C   UNL A   1      38.580  28.602  28.437  1.00  0.00    -0.014 A 
ATOM     60  C   UNL A   1      37.944  29.719  27.828  1.00  0.00     0.009 A 
ATOM     61  C   UNL A   1      38.367  28.421  29.805  1.00  0.00     0.009 A 
ATOM     62  C   UNL A   1      37.289  30.698  28.573  1.00  0.00     0.001 A 
ATOM     63  C   UNL A   1      37.658  29.381  30.547  1.00  0.00     0.001 A 
ATOM     64  C   UNL A   1      37.164  30.538  29.942  1.00  0.00     0.000 A 
ENDBRANCH  45  59
BRANCH  46  65
ATOM     65  C   UNL A   1      49.025  27.390  27.254  1.00  0.00    -0.014 A 
ATOM     66  C   UNL A   1      49.840  26.613  26.427  1.00  0.00     0.009 A 
ATOM     67  C   UNL A   1      49.665  28.559  27.777  1.00  0.00     0.009 A 
ATOM     68  C   UNL A   1      51.147  27.044  26.071  1.00  0.00     0.001 A 
ATOM     69  C   UNL A   1      50.929  29.018  27.389  1.00  0.00     0.001 A 
ATOM     70  C   UNL A   1      51.672  28.262  26.512  1.00  0.00     0.000 A 
ENDBRANCH  46  65
BRANCH  58  71
ATOM     71  C   UNL A   1      43.855  28.842  30.120  1.00  0.00    -0.014 A 
ATOM     72  C   UNL A   1      44.150  29.739  31.159  1.00  0.00     0.009 A 
ATOM     73  C   UNL A   1      43.611  27.502  30.479  1.00  0.00     0.009 A 
ATOM     74  C   UNL A   1      44.206  29.325  32.496  1.00  0.00     0.001 A 
ATOM     75  C   UNL A   1      43.674  27.081  31.821  1.00  0.00     0.001 A 
ATOM     76  C   UNL A   1      43.968  27.995  32.829  1.00  0.00     0.000 A 
ENDBRANCH  58  71
ENDBRANCH  32  33
ENDBRANCH  24  27
ENDBRANCH  22  23
ENDBRANCH  21  22
ENDBRANCH   1  21
TORSDOF 14
ENDMDL
