MODEL 1
REMARK VINA RESULT:      -8.9      0.000      0.000
REMARK SMILES C=CCN(CC(=O)NCCCCNC(=O)c1ccc(-c2c3nc(c(-c4ccccc4)c4ccc([nH]4)c(-c4ccccc4)c4nc(c(-c5ccccc5)c5ccc2[nH]5)C=C4)C=C3)cc1)C(=O)C[NH3+]
REMARK SMILES IDX 9 1 8 2 6 3 7 4 5 6 4 7 3 8 2 9 1 10 64 11 65 12 66 13 67 14
REMARK SMILES IDX 10 18 11 19 12 20 13 21 14 22 15 24 16 25 17 26 63 27 18 28
REMARK SMILES IDX 62 29 19 30 20 31 21 32 56 33 22 34 61 35 55 36 57 37 23 38
REMARK SMILES IDX 60 39 54 40 53 41 24 43 46 44 31 45 45 46 32 47 35 48 44 49
REMARK SMILES IDX 58 50 33 51 34 52 43 54 59 55 36 56 25 57 26 58 30 59 27 60
REMARK SMILES IDX 29 61 28 62 47 63 48 64 52 65 49 66 51 67 50 68 37 69 38 70
REMARK SMILES IDX 42 71 39 72 41 73 40 74
REMARK H PARENT 8 5 67 15 67 16 67 17 13 23 57 42 35 53
REMARK Flexibility Score: inf
ROOT
ATOM      1  C   UNL A   1      32.729  29.854  25.798  1.00  0.00     0.116 C 
ENDROOT
BRANCH   1   2
ATOM      2  N   UNL A   1      33.320  29.651  24.494  1.00  0.00    -0.355 N 
ATOM      3  C   UNL A   1      33.416  28.509  23.754  1.00  0.00     0.239 C 
ATOM      4  O   UNL A   1      33.781  28.632  22.581  1.00  0.00    -0.273 OA
ATOM      5  H   UNL A   1      33.709  30.455  24.080  1.00  0.00     0.163 HD
BRANCH   3   6
ATOM      6  C   UNL A   1      32.984  27.141  24.316  1.00  0.00     0.220 C 
BRANCH   6   7
ATOM      7  N   UNL A   1      31.700  26.636  23.806  1.00  0.00    -0.325 N 
BRANCH   7   8
ATOM      8  C   UNL A   1      30.486  27.376  24.130  1.00  0.00     0.147 C 
BRANCH   8   9
ATOM      9  C   UNL A   1      29.845  27.934  22.895  1.00  0.00    -0.014 C 
ATOM     10  C   UNL A   1      29.155  29.083  22.889  1.00  0.00     0.006 C 
ENDBRANCH   8   9
ENDBRANCH   7   8
BRANCH   7  11
ATOM     11  C   UNL A   1      31.590  25.495  23.009  1.00  0.00     0.278 C 
ATOM     12  O   UNL A   1      30.757  24.614  23.246  1.00  0.00    -0.268 OA
BRANCH  11  13
ATOM     13  C   UNL A   1      32.565  25.302  21.837  1.00  0.00     0.360 C 
BRANCH  13  14
ATOM     14  N   UNL A   1      32.437  26.379  20.845  1.00  0.00    -0.350 N 
ATOM     15  H   UNL A   1      33.198  26.311  20.170  1.00  0.00     0.344 HD
ATOM     16  H   UNL A   1      32.483  27.282  21.318  1.00  0.00     0.344 HD
ATOM     17  H   UNL A   1      31.543  26.292  20.363  1.00  0.00     0.344 HD
ENDBRANCH  13  14
ENDBRANCH  11  13
ENDBRANCH   7  11
ENDBRANCH   6   7
ENDBRANCH   3   6
ENDBRANCH   1   2
BRANCH   1  18
ATOM     18  C   UNL A   1      31.467  30.713  25.743  1.00  0.00     0.023 C 
BRANCH  18  19
ATOM     19  C   UNL A   1      31.351  31.759  26.853  1.00  0.00     0.023 C 
BRANCH  19  20
ATOM     20  C   UNL A   1      32.622  32.549  27.142  1.00  0.00     0.116 C 
BRANCH  20  21
ATOM     21  N   UNL A   1      32.369  33.909  27.590  1.00  0.00    -0.352 N 
ATOM     22  C   UNL A   1      33.090  34.668  28.481  1.00  0.00     0.251 C 
ATOM     23  H   UNL A   1      31.576  34.346  27.202  1.00  0.00     0.163 HD
ATOM     24  O   UNL A   1      32.680  35.771  28.830  1.00  0.00    -0.269 OA
BRANCH  22  25
ATOM     25  C   UNL A   1      34.343  34.129  29.051  1.00  0.00     0.039 A 
ATOM     26  C   UNL A   1      34.282  33.402  30.243  1.00  0.00     0.014 A 
ATOM     27  C   UNL A   1      35.565  34.314  28.400  1.00  0.00     0.014 A 
ATOM     28  C   UNL A   1      35.439  32.803  30.746  1.00  0.00     0.010 A 
ATOM     29  C   UNL A   1      36.700  33.656  28.862  1.00  0.00     0.010 A 
ATOM     30  C   UNL A   1      36.650  32.893  30.038  1.00  0.00    -0.014 A 
BRANCH  30  31
ATOM     31  C   UNL A   1      37.873  32.200  30.514  1.00  0.00     0.031 A 
ATOM     32  C   UNL A   1      38.699  32.801  31.619  1.00  0.00     0.074 A 
ATOM     33  C   UNL A   1      38.274  31.060  29.917  1.00  0.00     0.049 A 
ATOM     34  N   UNL A   1      39.830  32.381  32.126  1.00  0.00    -0.248 NA
ATOM     35  C   UNL A   1      38.197  34.048  32.219  1.00  0.00     0.031 C 
ATOM     36  C   UNL A   1      37.579  30.387  28.816  1.00  0.00     0.029 A 
ATOM     37  N   UNL A   1      39.368  30.266  30.152  1.00  0.00    -0.354 N 
ATOM     38  C   UNL A   1      40.177  33.313  33.094  1.00  0.00     0.074 A 
ATOM     39  C   UNL A   1      39.169  34.351  33.066  1.00  0.00     0.031 C 
ATOM     40  C   UNL A   1      38.248  29.268  28.494  1.00  0.00     0.029 A 
ATOM     41  C   UNL A   1      39.438  29.166  29.332  1.00  0.00     0.049 A 
ATOM     42  H   UNL A   1      40.040  30.467  30.843  1.00  0.00     0.167 HD
ATOM     43  C   UNL A   1      41.227  33.298  33.951  1.00  0.00     0.031 A 
ATOM     44  C   UNL A   1      40.360  28.187  29.260  1.00  0.00     0.031 A 
ATOM     45  C   UNL A   1      42.230  32.269  33.985  1.00  0.00     0.049 A 
ATOM     46  C   UNL A   1      41.538  28.218  30.195  1.00  0.00     0.074 A 
ATOM     47  C   UNL A   1      43.317  32.151  34.834  1.00  0.00     0.029 A 
ATOM     48  N   UNL A   1      42.266  31.176  33.135  1.00  0.00    -0.354 N 
ATOM     49  N   UNL A   1      41.825  29.082  31.138  1.00  0.00    -0.248 NA
ATOM     50  C   UNL A   1      42.517  27.128  30.059  1.00  0.00     0.031 C 
ATOM     51  C   UNL A   1      44.036  31.009  34.468  1.00  0.00     0.029 A 
ATOM     52  C   UNL A   1      43.365  30.387  33.428  1.00  0.00     0.049 A 
ATOM     53  H   UNL A   1      41.609  30.988  32.426  1.00  0.00     0.167 HD
ATOM     54  C   UNL A   1      42.993  28.621  31.731  1.00  0.00     0.074 A 
ATOM     55  C   UNL A   1      43.354  27.395  31.050  1.00  0.00     0.031 C 
ATOM     56  C   UNL A   1      43.704  29.163  32.749  1.00  0.00     0.031 A 
BRANCH  43  57
ATOM     57  C   UNL A   1      41.336  34.437  34.927  1.00  0.00    -0.014 A 
ATOM     58  C   UNL A   1      42.065  35.594  34.607  1.00  0.00     0.009 A 
ATOM     59  C   UNL A   1      40.674  34.371  36.162  1.00  0.00     0.009 A 
ATOM     60  C   UNL A   1      42.157  36.648  35.519  1.00  0.00     0.001 A 
ATOM     61  C   UNL A   1      40.744  35.438  37.060  1.00  0.00     0.001 A 
ATOM     62  C   UNL A   1      41.492  36.570  36.742  1.00  0.00     0.000 A 
ENDBRANCH  43  57
BRANCH  44  63
ATOM     63  C   UNL A   1      40.209  27.080  28.280  1.00  0.00    -0.014 A 
ATOM     64  C   UNL A   1      39.530  25.905  28.634  1.00  0.00     0.009 A 
ATOM     65  C   UNL A   1      40.773  27.176  26.998  1.00  0.00     0.009 A 
ATOM     66  C   UNL A   1      39.449  24.835  27.741  1.00  0.00     0.001 A 
ATOM     67  C   UNL A   1      40.664  26.116  26.094  1.00  0.00     0.001 A 
ATOM     68  C   UNL A   1      40.014  24.942  26.472  1.00  0.00     0.000 A 
ENDBRANCH  44  63
BRANCH  56  69
ATOM     69  C   UNL A   1      44.913  28.408  33.222  1.00  0.00    -0.014 A 
ATOM     70  C   UNL A   1      44.816  27.414  34.208  1.00  0.00     0.009 A 
ATOM     71  C   UNL A   1      46.165  28.675  32.644  1.00  0.00     0.009 A 
ATOM     72  C   UNL A   1      45.956  26.727  34.630  1.00  0.00     0.001 A 
ATOM     73  C   UNL A   1      47.297  27.965  33.047  1.00  0.00     0.001 A 
ATOM     74  C   UNL A   1      47.193  27.000  34.047  1.00  0.00     0.000 A 
ENDBRANCH  56  69
ENDBRANCH  30  31
ENDBRANCH  22  25
ENDBRANCH  20  21
ENDBRANCH  19  20
ENDBRANCH  18  19
ENDBRANCH   1  18
TORSDOF 17
ENDMDL
MODEL 2
REMARK VINA RESULT:      -8.8      4.155      9.288
REMARK SMILES C=CCN(CC(=O)NCCCCNC(=O)c1ccc(-c2c3nc(c(-c4ccccc4)c4ccc([nH]4)c(-c4ccccc4)c4nc(c(-c5ccccc5)c5ccc2[nH]5)C=C4)C=C3)cc1)C(=O)C[NH3+]
REMARK SMILES IDX 9 1 8 2 6 3 7 4 5 6 4 7 3 8 2 9 1 10 64 11 65 12 66 13 67 14
REMARK SMILES IDX 10 18 11 19 12 20 13 21 14 22 15 24 16 25 17 26 63 27 18 28
REMARK SMILES IDX 62 29 19 30 20 31 21 32 56 33 22 34 61 35 55 36 57 37 23 38
REMARK SMILES IDX 60 39 54 40 53 41 24 43 46 44 31 45 45 46 32 47 35 48 44 49
REMARK SMILES IDX 58 50 33 51 34 52 43 54 59 55 36 56 25 57 26 58 30 59 27 60
REMARK SMILES IDX 29 61 28 62 47 63 48 64 52 65 49 66 51 67 50 68 37 69 38 70
REMARK SMILES IDX 42 71 39 72 41 73 40 74
REMARK H PARENT 8 5 67 15 67 16 67 17 13 23 57 42 35 53
REMARK Flexibility Score: inf
ROOT
ATOM      1  C   UNL A   1      36.557  22.135  25.806  1.00  0.00     0.116 C 
ENDROOT
BRANCH   1   2
ATOM      2  N   UNL A   1      35.545  21.879  26.806  1.00  0.00    -0.355 N 
ATOM      3  C   UNL A   1      34.375  22.538  27.044  1.00  0.00     0.239 C 
ATOM      4  O   UNL A   1      33.579  22.002  27.822  1.00  0.00    -0.273 OA
ATOM      5  H   UNL A   1      35.728  21.117  27.402  1.00  0.00     0.163 HD
BRANCH   3   6
ATOM      6  C   UNL A   1      34.008  23.834  26.296  1.00  0.00     0.220 C 
BRANCH   6   7
ATOM      7  N   UNL A   1      32.806  23.747  25.453  1.00  0.00    -0.325 N 
BRANCH   7   8
ATOM      8  C   UNL A   1      32.867  22.939  24.240  1.00  0.00     0.147 C 
BRANCH   8   9
ATOM      9  C   UNL A   1      32.241  21.594  24.452  1.00  0.00    -0.014 C 
ATOM     10  C   UNL A   1      32.909  20.444  24.283  1.00  0.00     0.006 C 
ENDBRANCH   8   9
ENDBRANCH   7   8
BRANCH   7  11
ATOM     11  C   UNL A   1      31.604  24.382  25.768  1.00  0.00     0.278 C 
ATOM     12  O   UNL A   1      31.270  24.599  26.937  1.00  0.00    -0.268 OA
BRANCH  11  13
ATOM     13  C   UNL A   1      30.642  24.772  24.634  1.00  0.00     0.360 C 
BRANCH  13  14
ATOM     14  N   UNL A   1      29.555  25.632  25.120  1.00  0.00    -0.350 N 
ATOM     15  H   UNL A   1      28.846  25.727  24.393  1.00  0.00     0.344 HD
ATOM     16  H   UNL A   1      29.929  26.552  25.354  1.00  0.00     0.344 HD
ATOM     17  H   UNL A   1      29.136  25.214  25.951  1.00  0.00     0.344 HD
ENDBRANCH  13  14
ENDBRANCH  11  13
ENDBRANCH   7  11
ENDBRANCH   6   7
ENDBRANCH   3   6
ENDBRANCH   1   2
BRANCH   1  18
ATOM     18  C   UNL A   1      36.581  21.073  24.710  1.00  0.00     0.023 C 
BRANCH  18  19
ATOM     19  C   UNL A   1      37.636  19.981  24.893  1.00  0.00     0.023 C 
BRANCH  19  20
ATOM     20  C   UNL A   1      38.828  20.365  25.761  1.00  0.00     0.116 C 
BRANCH  20  21
ATOM     21  N   UNL A   1      39.907  19.390  25.727  1.00  0.00    -0.352 N 
ATOM     22  C   UNL A   1      41.230  19.561  26.057  1.00  0.00     0.251 C 
ATOM     23  H   UNL A   1      39.656  18.486  25.429  1.00  0.00     0.163 HD
ATOM     24  O   UNL A   1      42.038  18.655  25.874  1.00  0.00    -0.269 OA
BRANCH  22  25
ATOM     25  C   UNL A   1      41.685  20.861  26.596  1.00  0.00     0.039 A 
ATOM     26  C   UNL A   1      42.131  21.840  25.704  1.00  0.00     0.014 A 
ATOM     27  C   UNL A   1      41.645  21.122  27.967  1.00  0.00     0.014 A 
ATOM     28  C   UNL A   1      42.472  23.107  26.184  1.00  0.00     0.010 A 
ATOM     29  C   UNL A   1      41.915  22.405  28.434  1.00  0.00     0.010 A 
ATOM     30  C   UNL A   1      42.330  23.411  27.548  1.00  0.00    -0.014 A 
BRANCH  30  31
ATOM     31  C   UNL A   1      42.613  24.772  28.068  1.00  0.00     0.031 A 
ATOM     32  C   UNL A   1      44.011  25.146  28.480  1.00  0.00     0.074 A 
ATOM     33  C   UNL A   1      41.606  25.654  28.222  1.00  0.00     0.049 A 
ATOM     34  N   UNL A   1      44.444  26.259  29.015  1.00  0.00    -0.248 NA
ATOM     35  C   UNL A   1      45.055  24.127  28.284  1.00  0.00     0.031 C 
ATOM     36  C   UNL A   1      40.201  25.408  27.887  1.00  0.00     0.029 A 
ATOM     37  N   UNL A   1      41.611  26.939  28.705  1.00  0.00    -0.354 N 
ATOM     38  C   UNL A   1      45.803  26.072  29.226  1.00  0.00     0.074 A 
ATOM     39  C   UNL A   1      46.114  24.719  28.815  1.00  0.00     0.031 C 
ATOM     40  C   UNL A   1      39.488  26.517  28.145  1.00  0.00     0.029 A 
ATOM     41  C   UNL A   1      40.373  27.534  28.703  1.00  0.00     0.049 A 
ATOM     42  H   UNL A   1      42.426  27.391  29.022  1.00  0.00     0.167 HD
ATOM     43  C   UNL A   1      46.720  26.952  29.695  1.00  0.00     0.031 A 
ATOM     44  C   UNL A   1      39.992  28.759  29.110  1.00  0.00     0.031 A 
ATOM     45  C   UNL A   1      46.417  28.298  30.102  1.00  0.00     0.049 A 
ATOM     46  C   UNL A   1      41.024  29.703  29.666  1.00  0.00     0.074 A 
ATOM     47  C   UNL A   1      47.282  29.274  30.566  1.00  0.00     0.029 A 
ATOM     48  N   UNL A   1      45.150  28.857  30.090  1.00  0.00    -0.354 N 
ATOM     49  N   UNL A   1      42.314  29.525  29.813  1.00  0.00    -0.248 NA
ATOM     50  C   UNL A   1      40.543  31.021  30.106  1.00  0.00     0.031 C 
ATOM     51  C   UNL A   1      46.530  30.412  30.875  1.00  0.00     0.029 A 
ATOM     52  C   UNL A   1      45.206  30.161  30.552  1.00  0.00     0.049 A 
ATOM     53  H   UNL A   1      44.330  28.397  29.796  1.00  0.00     0.167 HD
ATOM     54  C   UNL A   1      42.804  30.720  30.325  1.00  0.00     0.074 A 
ATOM     55  C   UNL A   1      41.675  31.617  30.451  1.00  0.00     0.031 C 
ATOM     56  C   UNL A   1      44.075  31.045  30.660  1.00  0.00     0.031 A 
BRANCH  43  57
ATOM     57  C   UNL A   1      48.144  26.480  29.788  1.00  0.00    -0.014 A 
ATOM     58  C   UNL A   1      48.613  25.822  30.936  1.00  0.00     0.009 A 
ATOM     59  C   UNL A   1      49.016  26.658  28.703  1.00  0.00     0.009 A 
ATOM     60  C   UNL A   1      49.938  25.385  31.011  1.00  0.00     0.001 A 
ATOM     61  C   UNL A   1      50.332  26.193  28.769  1.00  0.00     0.001 A 
ATOM     62  C   UNL A   1      50.793  25.566  29.925  1.00  0.00     0.000 A 
ENDBRANCH  43  57
BRANCH  44  63
ATOM     63  C   UNL A   1      38.571  29.184  28.998  1.00  0.00    -0.014 A 
ATOM     64  C   UNL A   1      38.069  29.668  27.781  1.00  0.00     0.009 A 
ATOM     65  C   UNL A   1      37.720  29.140  30.113  1.00  0.00     0.009 A 
ATOM     66  C   UNL A   1      36.756  30.135  27.691  1.00  0.00     0.001 A 
ATOM     67  C   UNL A   1      36.397  29.579  30.013  1.00  0.00     0.001 A 
ATOM     68  C   UNL A   1      35.921  30.088  28.806  1.00  0.00     0.000 A 
ENDBRANCH  44  63
BRANCH  56  69
ATOM     69  C   UNL A   1      44.322  32.446  31.145  1.00  0.00    -0.014 A 
ATOM     70  C   UNL A   1      44.272  32.767  32.510  1.00  0.00     0.009 A 
ATOM     71  C   UNL A   1      44.643  33.452  30.219  1.00  0.00     0.009 A 
ATOM     72  C   UNL A   1      44.506  34.077  32.934  1.00  0.00     0.001 A 
ATOM     73  C   UNL A   1      44.905  34.753  30.649  1.00  0.00     0.001 A 
ATOM     74  C   UNL A   1      44.826  35.066  32.005  1.00  0.00     0.000 A 
ENDBRANCH  56  69
ENDBRANCH  30  31
ENDBRANCH  22  25
ENDBRANCH  20  21
ENDBRANCH  19  20
ENDBRANCH  18  19
ENDBRANCH   1  18
TORSDOF 17
ENDMDL
MODEL 3
REMARK VINA RESULT:      -8.7      3.161      4.767
REMARK SMILES C=CCN(CC(=O)NCCCCNC(=O)c1ccc(-c2c3nc(c(-c4ccccc4)c4ccc([nH]4)c(-c4ccccc4)c4nc(c(-c5ccccc5)c5ccc2[nH]5)C=C4)C=C3)cc1)C(=O)C[NH3+]
REMARK SMILES IDX 9 1 8 2 6 3 7 4 5 6 4 7 3 8 2 9 1 10 64 11 65 12 66 13 67 14
REMARK SMILES IDX 10 18 11 19 12 20 13 21 14 22 15 24 16 25 17 26 63 27 18 28
REMARK SMILES IDX 62 29 19 30 20 31 21 32 56 33 22 34 61 35 55 36 57 37 23 38
REMARK SMILES IDX 60 39 54 40 53 41 24 43 46 44 31 45 45 46 32 47 35 48 44 49
REMARK SMILES IDX 58 50 33 51 34 52 43 54 59 55 36 56 25 57 26 58 30 59 27 60
REMARK SMILES IDX 29 61 28 62 47 63 48 64 52 65 49 66 51 67 50 68 37 69 38 70
REMARK SMILES IDX 42 71 39 72 41 73 40 74
REMARK H PARENT 8 5 67 15 67 16 67 17 13 23 57 42 35 53
REMARK Flexibility Score: inf
ROOT
ATOM      1  C   UNL A   1      30.931  26.395  25.875  1.00  0.00     0.116 C 
ENDROOT
BRANCH   1   2
ATOM      2  N   UNL A   1      30.805  25.274  26.780  1.00  0.00    -0.355 N 
ATOM      3  C   UNL A   1      30.887  23.937  26.520  1.00  0.00     0.239 C 
ATOM      4  O   UNL A   1      30.950  23.182  27.494  1.00  0.00    -0.273 OA
ATOM      5  H   UNL A   1      30.635  25.511  27.720  1.00  0.00     0.163 HD
BRANCH   3   6
ATOM      6  C   UNL A   1      31.007  23.397  25.082  1.00  0.00     0.220 C 
BRANCH   6   7
ATOM      7  N   UNL A   1      32.321  22.833  24.738  1.00  0.00    -0.325 N 
BRANCH   7   8
ATOM      8  C   UNL A   1      33.366  23.740  24.276  1.00  0.00     0.147 C 
BRANCH   8   9
ATOM      9  C   UNL A   1      33.030  24.320  22.936  1.00  0.00    -0.014 C 
ATOM     10  C   UNL A   1      33.334  25.579  22.591  1.00  0.00     0.006 C 
ENDBRANCH   8   9
ENDBRANCH   7   8
BRANCH   7  11
ATOM     11  C   UNL A   1      32.624  21.475  24.852  1.00  0.00     0.278 C 
ATOM     12  O   UNL A   1      31.767  20.642  25.163  1.00  0.00    -0.268 OA
BRANCH  11  13
ATOM     13  C   UNL A   1      34.073  21.009  24.639  1.00  0.00     0.360 C 
BRANCH  13  14
ATOM     14  N   UNL A   1      34.607  20.342  25.834  1.00  0.00    -0.350 N 
ATOM     15  H   UNL A   1      34.119  19.458  25.977  1.00  0.00     0.344 HD
ATOM     16  H   UNL A   1      34.468  20.942  26.648  1.00  0.00     0.344 HD
ATOM     17  H   UNL A   1      35.604  20.165  25.708  1.00  0.00     0.344 HD
ENDBRANCH  13  14
ENDBRANCH  11  13
ENDBRANCH   7  11
ENDBRANCH   6   7
ENDBRANCH   3   6
ENDBRANCH   1   2
BRANCH   1  18
ATOM     18  C   UNL A   1      32.324  27.021  25.908  1.00  0.00     0.023 C 
BRANCH  18  19
ATOM     19  C   UNL A   1      32.372  28.458  26.430  1.00  0.00     0.023 C 
BRANCH  19  20
ATOM     20  C   UNL A   1      33.627  28.828  27.211  1.00  0.00     0.116 C 
BRANCH  20  21
ATOM     21  N   UNL A   1      33.626  30.200  27.694  1.00  0.00    -0.352 N 
ATOM     22  C   UNL A   1      34.636  30.891  28.319  1.00  0.00     0.251 C 
ATOM     23  H   UNL A   1      32.790  30.701  27.552  1.00  0.00     0.163 HD
ATOM     24  O   UNL A   1      34.436  32.020  28.757  1.00  0.00    -0.269 OA
BRANCH  22  25
ATOM     25  C   UNL A   1      35.955  30.250  28.499  1.00  0.00     0.039 A 
ATOM     26  C   UNL A   1      36.870  30.283  27.443  1.00  0.00     0.014 A 
ATOM     27  C   UNL A   1      36.299  29.643  29.710  1.00  0.00     0.014 A 
ATOM     28  C   UNL A   1      38.155  29.769  27.626  1.00  0.00     0.010 A 
ATOM     29  C   UNL A   1      37.602  29.198  29.914  1.00  0.00     0.010 A 
ATOM     30  C   UNL A   1      38.543  29.257  28.876  1.00  0.00    -0.014 A 
BRANCH  30  31
ATOM     31  C   UNL A   1      39.927  28.776  29.114  1.00  0.00     0.031 A 
ATOM     32  C   UNL A   1      40.944  29.687  29.744  1.00  0.00     0.074 A 
ATOM     33  C   UNL A   1      40.285  27.539  28.714  1.00  0.00     0.049 A 
ATOM     34  N   UNL A   1      42.215  29.472  29.975  1.00  0.00    -0.248 NA
ATOM     35  C   UNL A   1      40.477  31.022  30.152  1.00  0.00     0.031 C 
ATOM     36  C   UNL A   1      39.403  26.566  28.066  1.00  0.00     0.029 A 
ATOM     37  N   UNL A   1      41.492  26.890  28.794  1.00  0.00    -0.354 N 
ATOM     38  C   UNL A   1      42.698  30.643  30.543  1.00  0.00     0.074 A 
ATOM     39  C   UNL A   1      41.600  31.586  30.571  1.00  0.00     0.031 C 
ATOM     40  C   UNL A   1      40.091  25.435  27.835  1.00  0.00     0.029 A 
ATOM     41  C   UNL A   1      41.469  25.617  28.278  1.00  0.00     0.049 A 
ATOM     42  H   UNL A   1      42.298  27.300  29.183  1.00  0.00     0.167 HD
ATOM     43  C   UNL A   1      43.937  30.907  31.023  1.00  0.00     0.031 A 
ATOM     44  C   UNL A   1      42.449  24.701  28.170  1.00  0.00     0.031 A 
ATOM     45  C   UNL A   1      45.030  29.974  31.000  1.00  0.00     0.049 A 
ATOM     46  C   UNL A   1      43.827  25.035  28.673  1.00  0.00     0.074 A 
ATOM     47  C   UNL A   1      46.315  30.139  31.487  1.00  0.00     0.029 A 
ATOM     48  N   UNL A   1      44.965  28.698  30.465  1.00  0.00    -0.354 N 
ATOM     49  N   UNL A   1      44.253  26.131  29.252  1.00  0.00    -0.248 NA
ATOM     50  C   UNL A   1      44.857  23.998  28.515  1.00  0.00     0.031 C 
ATOM     51  C   UNL A   1      47.041  28.977  31.207  1.00  0.00     0.029 A 
ATOM     52  C   UNL A   1      46.192  28.069  30.595  1.00  0.00     0.049 A 
ATOM     53  H   UNL A   1      44.166  28.297  30.052  1.00  0.00     0.167 HD
ATOM     54  C   UNL A   1      45.588  25.902  29.560  1.00  0.00     0.074 A 
ATOM     55  C   UNL A   1      45.896  24.558  29.116  1.00  0.00     0.031 C 
ATOM     56  C   UNL A   1      46.479  26.728  30.158  1.00  0.00     0.031 A 
BRANCH  43  57
ATOM     57  C   UNL A   1      44.169  32.268  31.620  1.00  0.00    -0.014 A 
ATOM     58  C   UNL A   1      44.600  33.341  30.824  1.00  0.00     0.009 A 
ATOM     59  C   UNL A   1      43.918  32.490  32.983  1.00  0.00     0.009 A 
ATOM     60  C   UNL A   1      44.810  34.601  31.389  1.00  0.00     0.001 A 
ATOM     61  C   UNL A   1      44.100  33.758  33.538  1.00  0.00     0.001 A 
ATOM     62  C   UNL A   1      44.554  34.809  32.743  1.00  0.00     0.000 A 
ENDBRANCH  43  57
BRANCH  44  63
ATOM     63  C   UNL A   1      42.173  23.367  27.573  1.00  0.00    -0.014 A 
ATOM     64  C   UNL A   1      42.483  23.112  26.229  1.00  0.00     0.009 A 
ATOM     65  C   UNL A   1      41.566  22.354  28.332  1.00  0.00     0.009 A 
ATOM     66  C   UNL A   1      42.159  21.886  25.646  1.00  0.00     0.001 A 
ATOM     67  C   UNL A   1      41.270  21.117  27.755  1.00  0.00     0.001 A 
ATOM     68  C   UNL A   1      41.555  20.889  26.409  1.00  0.00     0.000 A 
ENDBRANCH  44  63
BRANCH  56  69
ATOM     69  C   UNL A   1      47.856  26.185  30.414  1.00  0.00    -0.014 A 
ATOM     70  C   UNL A   1      48.838  26.175  29.411  1.00  0.00     0.009 A 
ATOM     71  C   UNL A   1      48.185  25.707  31.694  1.00  0.00     0.009 A 
ATOM     72  C   UNL A   1      50.111  25.665  29.676  1.00  0.00     0.001 A 
ATOM     73  C   UNL A   1      49.466  25.226  31.963  1.00  0.00     0.001 A 
ATOM     74  C   UNL A   1      50.424  25.196  30.951  1.00  0.00     0.000 A 
ENDBRANCH  56  69
ENDBRANCH  30  31
ENDBRANCH  22  25
ENDBRANCH  20  21
ENDBRANCH  19  20
ENDBRANCH  18  19
ENDBRANCH   1  18
TORSDOF 17
ENDMDL
