MODEL 1
REMARK VINA RESULT:      -8.8      0.000      0.000
REMARK SMILES C=CCOc1ccccc1/C=C/c1cc(C(=O)NCCCCNC(=O)c2ccc(-c3c4nc(c(-c5ccccc5)c5ccc([nH]5)c(-c5ccccc5)c5nc(c(-c6ccccc6)c6ccc3[nH]6)C=C5)C=C4)cc2)ncn1
REMARK SMILES IDX 19 1 18 2 16 3 17 4 15 6 13 7 14 8 76 9 75 10 74 11 12 12
REMARK SMILES IDX 11 13 10 14 5 15 6 16 7 17 9 18 8 19 4 20 3 21 2 22 1 23
REMARK SMILES IDX 20 24 21 25 22 26 23 27 24 28 25 30 26 31 27 32 73 33 28 34
REMARK SMILES IDX 72 35 29 36 30 37 31 38 66 39 32 40 71 41 65 42 67 43 33 44
REMARK SMILES IDX 70 45 64 46 63 47 34 49 56 50 41 51 55 52 42 53 45 54 54 55
REMARK SMILES IDX 68 56 43 57 44 58 53 60 69 61 46 62 35 63 36 64 40 65 37 66
REMARK SMILES IDX 39 67 38 68 57 69 58 70 62 71 59 72 61 73 60 74 47 75 48 76
REMARK SMILES IDX 52 77 49 78 51 79 50 80
REMARK H PARENT 18 5 23 29 67 48 45 59
REMARK Flexibility Score: inf
ROOT
ATOM      1  C   UNL A   1      35.367  34.762  33.275  1.00  0.00     0.116 C 
ENDROOT
BRANCH   1   2
ATOM      2  N   UNL A   1      35.452  34.521  34.705  1.00  0.00    -0.351 N 
ATOM      3  C   UNL A   1      36.232  33.664  35.455  1.00  0.00     0.270 C 
ATOM      4  O   UNL A   1      36.104  33.720  36.679  1.00  0.00    -0.268 OA
ATOM      5  H   UNL A   1      34.836  35.073  35.241  1.00  0.00     0.163 HD
BRANCH   3   6
ATOM      6  C   UNL A   1      37.240  32.729  34.847  1.00  0.00     0.132 A 
ATOM      7  C   UNL A   1      39.337  31.702  34.741  1.00  0.00     0.067 A 
ATOM      8  C   UNL A   1      38.574  32.763  35.178  1.00  0.00     0.062 A 
ATOM      9  N   UNL A   1      38.875  30.794  33.865  1.00  0.00    -0.237 NA
ATOM     10  C   UNL A   1      37.592  30.923  33.504  1.00  0.00     0.223 A 
ATOM     11  N   UNL A   1      36.732  31.824  33.982  1.00  0.00    -0.231 NA
BRANCH   7  12
ATOM     12  C   UNL A   1      40.660  31.397  35.313  1.00  0.00     0.029 C 
ATOM     13  C   UNL A   1      40.979  30.166  35.752  1.00  0.00     0.014 C 
BRANCH  13  14
ATOM     14  C   UNL A   1      42.329  29.670  36.063  1.00  0.00     0.017 A 
ATOM     15  C   UNL A   1      42.537  28.284  36.214  1.00  0.00     0.126 A 
ATOM     16  C   UNL A   1      43.791  27.771  36.554  1.00  0.00     0.047 A 
ATOM     17  C   UNL A   1      44.866  28.640  36.715  1.00  0.00     0.004 A 
ATOM     18  C   UNL A   1      43.420  30.528  36.238  1.00  0.00     0.012 A 
ATOM     19  C   UNL A   1      44.683  30.014  36.555  1.00  0.00     0.001 A 
BRANCH  15  20
ATOM     20  O   UNL A   1      41.488  27.400  36.078  1.00  0.00    -0.489 OA
BRANCH  20  21
ATOM     21  C   UNL A   1      41.730  26.474  35.009  1.00  0.00     0.257 C 
BRANCH  21  22
ATOM     22  C   UNL A   1      41.666  25.081  35.566  1.00  0.00     0.006 C 
ATOM     23  C   UNL A   1      41.131  24.763  36.753  1.00  0.00     0.007 C 
ENDBRANCH  21  22
ENDBRANCH  20  21
ENDBRANCH  15  20
ENDBRANCH  13  14
ENDBRANCH   7  12
ENDBRANCH   3   6
ENDBRANCH   1   2
BRANCH   1  24
ATOM     24  C   UNL A   1      33.975  34.410  32.744  1.00  0.00     0.023 C 
BRANCH  24  25
ATOM     25  C   UNL A   1      33.178  35.610  32.226  1.00  0.00     0.023 C 
BRANCH  25  26
ATOM     26  C   UNL A   1      33.606  36.123  30.855  1.00  0.00     0.116 C 
BRANCH  26  27
ATOM     27  N   UNL A   1      32.830  35.561  29.760  1.00  0.00    -0.352 N 
ATOM     28  C   UNL A   1      33.162  34.530  28.914  1.00  0.00     0.251 C 
ATOM     29  H   UNL A   1      31.949  35.975  29.604  1.00  0.00     0.163 HD
ATOM     30  O   UNL A   1      32.434  34.239  27.970  1.00  0.00    -0.269 OA
BRANCH  28  31
ATOM     31  C   UNL A   1      34.426  33.797  29.125  1.00  0.00     0.039 A 
ATOM     32  C   UNL A   1      35.583  34.256  28.491  1.00  0.00     0.014 A 
ATOM     33  C   UNL A   1      34.476  32.684  29.970  1.00  0.00     0.014 A 
ATOM     34  C   UNL A   1      36.807  33.644  28.763  1.00  0.00     0.010 A 
ATOM     35  C   UNL A   1      35.704  32.117  30.288  1.00  0.00     0.010 A 
ATOM     36  C   UNL A   1      36.882  32.596  29.694  1.00  0.00    -0.014 A 
BRANCH  36  37
ATOM     37  C   UNL A   1      38.184  31.998  30.077  1.00  0.00     0.031 A 
ATOM     38  C   UNL A   1      39.135  32.757  30.956  1.00  0.00     0.074 A 
ATOM     39  C   UNL A   1      38.544  30.805  29.565  1.00  0.00     0.049 A 
ATOM     40  N   UNL A   1      40.348  32.436  31.332  1.00  0.00    -0.248 NA
ATOM     41  C   UNL A   1      38.675  34.061  31.459  1.00  0.00     0.031 C 
ATOM     42  C   UNL A   1      37.728  29.987  28.663  1.00  0.00     0.029 A 
ATOM     43  N   UNL A   1      39.698  30.079  29.720  1.00  0.00    -0.354 N 
ATOM     44  C   UNL A   1      40.801  33.504  32.094  1.00  0.00     0.074 A 
ATOM     45  C   UNL A   1      39.752  34.500  32.095  1.00  0.00     0.031 C 
ATOM     46  C   UNL A   1      38.400  28.864  28.363  1.00  0.00     0.029 A 
ATOM     47  C   UNL A   1      39.704  28.900  29.015  1.00  0.00     0.049 A 
ATOM     48  H   UNL A   1      40.449  30.375  30.283  1.00  0.00     0.167 HD
ATOM     49  C   UNL A   1      41.979  33.638  32.749  1.00  0.00     0.031 A 
ATOM     50  C   UNL A   1      40.657  27.957  28.899  1.00  0.00     0.031 A 
ATOM     51  C   UNL A   1      43.017  32.642  32.761  1.00  0.00     0.049 A 
ATOM     52  C   UNL A   1      41.959  28.132  29.629  1.00  0.00     0.074 A 
ATOM     53  C   UNL A   1      44.216  32.655  33.453  1.00  0.00     0.029 A 
ATOM     54  N   UNL A   1      42.981  31.457  32.043  1.00  0.00    -0.354 N 
ATOM     55  N   UNL A   1      42.343  29.114  30.407  1.00  0.00    -0.248 NA
ATOM     56  C   UNL A   1      42.955  27.062  29.470  1.00  0.00     0.031 C 
ATOM     57  C   UNL A   1      44.927  31.499  33.115  1.00  0.00     0.029 A 
ATOM     58  C   UNL A   1      44.149  30.743  32.252  1.00  0.00     0.049 A 
ATOM     59  H   UNL A   1      42.235  31.166  31.470  1.00  0.00     0.167 HD
ATOM     60  C   UNL A   1      43.616  28.774  30.843  1.00  0.00     0.074 A 
ATOM     61  C   UNL A   1      43.931  27.487  30.260  1.00  0.00     0.031 C 
ATOM     62  C   UNL A   1      44.451  29.469  31.655  1.00  0.00     0.031 A 
BRANCH  49  63
ATOM     63  C   UNL A   1      42.208  34.919  33.500  1.00  0.00    -0.014 A 
ATOM     64  C   UNL A   1      41.732  35.088  34.811  1.00  0.00     0.009 A 
ATOM     65  C   UNL A   1      42.931  35.961  32.900  1.00  0.00     0.009 A 
ATOM     66  C   UNL A   1      41.943  36.291  35.488  1.00  0.00     0.001 A 
ATOM     67  C   UNL A   1      43.163  37.152  33.590  1.00  0.00     0.001 A 
ATOM     68  C   UNL A   1      42.661  37.319  34.880  1.00  0.00     0.000 A 
ENDBRANCH  49  63
BRANCH  50  69
ATOM     69  C   UNL A   1      40.413  26.754  28.062  1.00  0.00    -0.014 A 
ATOM     70  C   UNL A   1      40.912  26.687  26.753  1.00  0.00     0.009 A 
ATOM     71  C   UNL A   1      39.682  25.667  28.569  1.00  0.00     0.009 A 
ATOM     72  C   UNL A   1      40.664  25.564  25.960  1.00  0.00     0.001 A 
ATOM     73  C   UNL A   1      39.459  24.536  27.782  1.00  0.00     0.001 A 
ATOM     74  C   UNL A   1      39.943  24.488  26.476  1.00  0.00     0.000 A 
ENDBRANCH  50  69
BRANCH  62  75
ATOM     75  C   UNL A   1      45.777  28.839  31.973  1.00  0.00    -0.014 A 
ATOM     76  C   UNL A   1      46.900  29.068  31.163  1.00  0.00     0.009 A 
ATOM     77  C   UNL A   1      45.912  28.039  33.118  1.00  0.00     0.009 A 
ATOM     78  C   UNL A   1      48.127  28.483  31.479  1.00  0.00     0.001 A 
ATOM     79  C   UNL A   1      47.148  27.477  33.445  1.00  0.00     0.001 A 
ATOM     80  C   UNL A   1      48.251  27.693  32.622  1.00  0.00     0.000 A 
ENDBRANCH  62  75
ENDBRANCH  36  37
ENDBRANCH  28  31
ENDBRANCH  26  27
ENDBRANCH  25  26
ENDBRANCH  24  25
ENDBRANCH   1  24
TORSDOF 16
ENDMDL
MODEL 2
REMARK VINA RESULT:      -8.7      0.362      5.918
REMARK SMILES C=CCOc1ccccc1/C=C/c1cc(C(=O)NCCCCNC(=O)c2ccc(-c3c4nc(c(-c5ccccc5)c5ccc([nH]5)c(-c5ccccc5)c5nc(c(-c6ccccc6)c6ccc3[nH]6)C=C5)C=C4)cc2)ncn1
REMARK SMILES IDX 19 1 18 2 16 3 17 4 15 6 13 7 14 8 76 9 75 10 74 11 12 12
REMARK SMILES IDX 11 13 10 14 5 15 6 16 7 17 9 18 8 19 4 20 3 21 2 22 1 23
REMARK SMILES IDX 20 24 21 25 22 26 23 27 24 28 25 30 26 31 27 32 73 33 28 34
REMARK SMILES IDX 72 35 29 36 30 37 31 38 66 39 32 40 71 41 65 42 67 43 33 44
REMARK SMILES IDX 70 45 64 46 63 47 34 49 56 50 41 51 55 52 42 53 45 54 54 55
REMARK SMILES IDX 68 56 43 57 44 58 53 60 69 61 46 62 35 63 36 64 40 65 37 66
REMARK SMILES IDX 39 67 38 68 57 69 58 70 62 71 59 72 61 73 60 74 47 75 48 76
REMARK SMILES IDX 52 77 49 78 51 79 50 80
REMARK H PARENT 18 5 23 29 67 48 45 59
REMARK Flexibility Score: inf
ROOT
ATOM      1  C   UNL A   1      35.233  34.551  33.451  1.00  0.00     0.116 C 
ENDROOT
BRANCH   1   2
ATOM      2  N   UNL A   1      35.372  34.326  34.879  1.00  0.00    -0.351 N 
ATOM      3  C   UNL A   1      36.235  33.537  35.613  1.00  0.00     0.270 C 
ATOM      4  O   UNL A   1      36.133  33.591  36.840  1.00  0.00    -0.268 OA
ATOM      5  H   UNL A   1      34.728  34.832  35.428  1.00  0.00     0.163 HD
BRANCH   3   6
ATOM      6  C   UNL A   1      37.297  32.680  34.985  1.00  0.00     0.132 A 
ATOM      7  C   UNL A   1      39.429  31.725  34.898  1.00  0.00     0.067 A 
ATOM      8  C   UNL A   1      38.614  32.727  35.377  1.00  0.00     0.062 A 
ATOM      9  N   UNL A   1      39.034  30.872  33.938  1.00  0.00    -0.237 NA
ATOM     10  C   UNL A   1      37.763  30.990  33.530  1.00  0.00     0.223 A 
ATOM     11  N   UNL A   1      36.855  31.828  34.034  1.00  0.00    -0.231 NA
BRANCH   7  12
ATOM     12  C   UNL A   1      40.735  31.415  35.505  1.00  0.00     0.029 C 
ATOM     13  C   UNL A   1      41.065  30.170  35.889  1.00  0.00     0.014 C 
BRANCH  13  14
ATOM     14  C   UNL A   1      42.412  29.685  36.226  1.00  0.00     0.017 A 
ATOM     15  C   UNL A   1      42.650  28.297  36.294  1.00  0.00     0.126 A 
ATOM     16  C   UNL A   1      43.901  27.792  36.655  1.00  0.00     0.047 A 
ATOM     17  C   UNL A   1      44.946  28.673  36.921  1.00  0.00     0.004 A 
ATOM     18  C   UNL A   1      43.472  30.554  36.507  1.00  0.00     0.012 A 
ATOM     19  C   UNL A   1      44.733  30.050  36.845  1.00  0.00     0.001 A 
BRANCH  15  20
ATOM     20  O   UNL A   1      41.632  27.400  36.053  1.00  0.00    -0.489 OA
BRANCH  20  21
ATOM     21  C   UNL A   1      41.947  26.548  34.942  1.00  0.00     0.257 C 
BRANCH  21  22
ATOM     22  C   UNL A   1      42.350  25.204  35.475  1.00  0.00     0.006 C 
ATOM     23  C   UNL A   1      41.531  24.146  35.560  1.00  0.00     0.007 C 
ENDBRANCH  21  22
ENDBRANCH  20  21
ENDBRANCH  15  20
ENDBRANCH  13  14
ENDBRANCH   7  12
ENDBRANCH   3   6
ENDBRANCH   1   2
BRANCH   1  24
ATOM     24  C   UNL A   1      33.826  34.181  32.975  1.00  0.00     0.023 C 
BRANCH  24  25
ATOM     25  C   UNL A   1      33.017  35.360  32.430  1.00  0.00     0.023 C 
BRANCH  25  26
ATOM     26  C   UNL A   1      33.501  35.911  31.093  1.00  0.00     0.116 C 
BRANCH  26  27
ATOM     27  N   UNL A   1      32.779  35.371  29.950  1.00  0.00    -0.352 N 
ATOM     28  C   UNL A   1      33.193  34.426  29.043  1.00  0.00     0.251 C 
ATOM     29  H   UNL A   1      31.874  35.732  29.808  1.00  0.00     0.163 HD
ATOM     30  O   UNL A   1      32.500  34.149  28.070  1.00  0.00    -0.269 OA
BRANCH  28  31
ATOM     31  C   UNL A   1      34.504  33.770  29.225  1.00  0.00     0.039 A 
ATOM     32  C   UNL A   1      35.608  34.271  28.530  1.00  0.00     0.014 A 
ATOM     33  C   UNL A   1      34.649  32.691  30.101  1.00  0.00     0.014 A 
ATOM     34  C   UNL A   1      36.875  33.737  28.770  1.00  0.00     0.010 A 
ATOM     35  C   UNL A   1      35.919  32.203  30.387  1.00  0.00     0.010 A 
ATOM     36  C   UNL A   1      37.044  32.725  29.731  1.00  0.00    -0.014 A 
BRANCH  36  37
ATOM     37  C   UNL A   1      38.392  32.213  30.079  1.00  0.00     0.031 A 
ATOM     38  C   UNL A   1      38.857  30.887  29.551  1.00  0.00     0.074 A 
ATOM     39  C   UNL A   1      39.164  32.907  30.937  1.00  0.00     0.049 A 
ATOM     40  N   UNL A   1      39.964  30.238  29.808  1.00  0.00    -0.248 NA
ATOM     41  C   UNL A   1      37.946  30.183  28.634  1.00  0.00     0.031 C 
ATOM     42  C   UNL A   1      38.809  34.187  31.555  1.00  0.00     0.029 A 
ATOM     43  N   UNL A   1      40.405  32.624  31.450  1.00  0.00    -0.354 N 
ATOM     44  C   UNL A   1      39.874  29.045  29.105  1.00  0.00     0.074 A 
ATOM     45  C   UNL A   1      38.588  29.039  28.443  1.00  0.00     0.031 C 
ATOM     46  C   UNL A   1      39.818  34.587  32.346  1.00  0.00     0.029 A 
ATOM     47  C   UNL A   1      40.870  33.577  32.323  1.00  0.00     0.049 A 
ATOM     48  H   UNL A   1      40.914  31.814  31.213  1.00  0.00     0.167 HD
ATOM     49  C   UNL A   1      40.787  28.049  29.005  1.00  0.00     0.031 A 
ATOM     50  C   UNL A   1      42.012  33.627  33.034  1.00  0.00     0.031 A 
ATOM     51  C   UNL A   1      42.072  28.060  29.651  1.00  0.00     0.049 A 
ATOM     52  C   UNL A   1      43.005  32.506  32.912  1.00  0.00     0.074 A 
ATOM     53  C   UNL A   1      43.094  27.132  29.553  1.00  0.00     0.029 A 
ATOM     54  N   UNL A   1      42.509  29.048  30.519  1.00  0.00    -0.354 N 
ATOM     55  N   UNL A   1      42.937  31.419  32.183  1.00  0.00    -0.248 NA
ATOM     56  C   UNL A   1      44.237  32.625  33.706  1.00  0.00     0.031 C 
ATOM     57  C   UNL A   1      44.131  27.533  30.401  1.00  0.00     0.029 A 
ATOM     58  C   UNL A   1      43.775  28.738  30.987  1.00  0.00     0.049 A 
ATOM     59  H   UNL A   1      41.996  29.851  30.765  1.00  0.00     0.167 HD
ATOM     60  C   UNL A   1      44.121  30.733  32.417  1.00  0.00     0.074 A 
ATOM     61  C   UNL A   1      44.897  31.535  33.340  1.00  0.00     0.031 C 
ATOM     62  C   UNL A   1      44.529  29.542  31.913  1.00  0.00     0.031 A 
BRANCH  49  63
ATOM     63  C   UNL A   1      40.416  26.857  28.170  1.00  0.00    -0.014 A 
ATOM     64  C   UNL A   1      40.909  26.702  26.863  1.00  0.00     0.009 A 
ATOM     65  C   UNL A   1      39.584  25.861  28.704  1.00  0.00     0.009 A 
ATOM     66  C   UNL A   1      40.542  25.593  26.097  1.00  0.00     0.001 A 
ATOM     67  C   UNL A   1      39.242  24.740  27.945  1.00  0.00     0.001 A 
ATOM     68  C   UNL A   1      39.714  24.612  26.639  1.00  0.00     0.000 A 
ENDBRANCH  49  63
BRANCH  50  69
ATOM     69  C   UNL A   1      42.283  34.787  33.921  1.00  0.00    -0.014 A 
ATOM     70  C   UNL A   1      41.920  34.745  35.275  1.00  0.00     0.009 A 
ATOM     71  C   UNL A   1      42.907  35.940  33.419  1.00  0.00     0.009 A 
ATOM     72  C   UNL A   1      42.157  35.844  36.104  1.00  0.00     0.001 A 
ATOM     73  C   UNL A   1      43.165  37.026  34.257  1.00  0.00     0.001 A 
ATOM     74  C   UNL A   1      42.783  36.981  35.596  1.00  0.00     0.000 A 
ENDBRANCH  50  69
BRANCH  62  75
ATOM     75  C   UNL A   1      45.882  29.048  32.336  1.00  0.00    -0.014 A 
ATOM     76  C   UNL A   1      46.034  28.231  33.466  1.00  0.00     0.009 A 
ATOM     77  C   UNL A   1      47.013  29.371  31.570  1.00  0.00     0.009 A 
ATOM     78  C   UNL A   1      47.299  27.772  33.839  1.00  0.00     0.001 A 
ATOM     79  C   UNL A   1      48.272  28.888  31.930  1.00  0.00     0.001 A 
ATOM     80  C   UNL A   1      48.415  28.095  33.068  1.00  0.00     0.000 A 
ENDBRANCH  62  75
ENDBRANCH  36  37
ENDBRANCH  28  31
ENDBRANCH  26  27
ENDBRANCH  25  26
ENDBRANCH  24  25
ENDBRANCH   1  24
TORSDOF 16
ENDMDL
MODEL 3
REMARK VINA RESULT:      -8.6      4.765     10.318
REMARK SMILES C=CCOc1ccccc1/C=C/c1cc(C(=O)NCCCCNC(=O)c2ccc(-c3c4nc(c(-c5ccccc5)c5ccc([nH]5)c(-c5ccccc5)c5nc(c(-c6ccccc6)c6ccc3[nH]6)C=C5)C=C4)cc2)ncn1
REMARK SMILES IDX 19 1 18 2 16 3 17 4 15 6 13 7 14 8 76 9 75 10 74 11 12 12
REMARK SMILES IDX 11 13 10 14 5 15 6 16 7 17 9 18 8 19 4 20 3 21 2 22 1 23
REMARK SMILES IDX 20 24 21 25 22 26 23 27 24 28 25 30 26 31 27 32 73 33 28 34
REMARK SMILES IDX 72 35 29 36 30 37 31 38 66 39 32 40 71 41 65 42 67 43 33 44
REMARK SMILES IDX 70 45 64 46 63 47 34 49 56 50 41 51 55 52 42 53 45 54 54 55
REMARK SMILES IDX 68 56 43 57 44 58 53 60 69 61 46 62 35 63 36 64 40 65 37 66
REMARK SMILES IDX 39 67 38 68 57 69 58 70 62 71 59 72 61 73 60 74 47 75 48 76
REMARK SMILES IDX 52 77 49 78 51 79 50 80
REMARK H PARENT 18 5 23 29 67 48 45 59
REMARK Flexibility Score: inf
ROOT
ATOM      1  C   UNL A   1      32.267  28.130  26.280  1.00  0.00     0.116 C 
ENDROOT
BRANCH   1   2
ATOM      2  N   UNL A   1      32.676  28.609  24.972  1.00  0.00    -0.351 N 
ATOM      3  C   UNL A   1      32.561  28.064  23.709  1.00  0.00     0.270 C 
ATOM      4  O   UNL A   1      32.974  28.744  22.768  1.00  0.00    -0.268 OA
ATOM      5  H   UNL A   1      33.119  29.489  24.989  1.00  0.00     0.163 HD
BRANCH   3   6
ATOM      6  C   UNL A   1      31.922  26.730  23.446  1.00  0.00     0.132 A 
ATOM      7  C   UNL A   1      31.977  24.419  23.098  1.00  0.00     0.067 A 
ATOM      8  C   UNL A   1      32.644  25.624  23.065  1.00  0.00     0.062 A 
ATOM      9  N   UNL A   1      30.648  24.335  23.280  1.00  0.00    -0.237 NA
ATOM     10  C   UNL A   1      30.012  25.489  23.520  1.00  0.00     0.223 A 
ATOM     11  N   UNL A   1      30.587  26.685  23.653  1.00  0.00    -0.231 NA
BRANCH   7  12
ATOM     12  C   UNL A   1      32.686  23.127  23.090  1.00  0.00     0.029 C 
ATOM     13  C   UNL A   1      32.597  22.259  24.112  1.00  0.00     0.014 C 
BRANCH  13  14
ATOM     14  C   UNL A   1      33.005  20.846  24.100  1.00  0.00     0.017 A 
ATOM     15  C   UNL A   1      34.162  20.455  24.806  1.00  0.00     0.126 A 
ATOM     16  C   UNL A   1      34.612  19.133  24.784  1.00  0.00     0.047 A 
ATOM     17  C   UNL A   1      33.890  18.173  24.081  1.00  0.00     0.004 A 
ATOM     18  C   UNL A   1      32.299  19.869  23.391  1.00  0.00     0.012 A 
ATOM     19  C   UNL A   1      32.735  18.539  23.388  1.00  0.00     0.001 A 
BRANCH  15  20
ATOM     20  O   UNL A   1      34.907  21.385  25.497  1.00  0.00    -0.489 OA
BRANCH  20  21
ATOM     21  C   UNL A   1      36.300  21.274  25.172  1.00  0.00     0.257 C 
BRANCH  21  22
ATOM     22  C   UNL A   1      36.730  22.540  24.488  1.00  0.00     0.006 C 
ATOM     23  C   UNL A   1      36.451  22.844  23.213  1.00  0.00     0.007 C 
ENDBRANCH  21  22
ENDBRANCH  20  21
ENDBRANCH  15  20
ENDBRANCH  13  14
ENDBRANCH   7  12
ENDBRANCH   3   6
ENDBRANCH   1   2
BRANCH   1  24
ATOM     24  C   UNL A   1      32.346  29.250  27.321  1.00  0.00     0.023 C 
BRANCH  24  25
ATOM     25  C   UNL A   1      31.864  30.612  26.816  1.00  0.00     0.023 C 
BRANCH  25  26
ATOM     26  C   UNL A   1      32.929  31.704  26.792  1.00  0.00     0.116 C 
BRANCH  26  27
ATOM     27  N   UNL A   1      32.454  32.985  27.291  1.00  0.00    -0.352 N 
ATOM     28  C   UNL A   1      33.053  33.827  28.196  1.00  0.00     0.251 C 
ATOM     29  H   UNL A   1      31.589  33.290  26.932  1.00  0.00     0.163 HD
ATOM     30  O   UNL A   1      32.472  34.833  28.592  1.00  0.00    -0.269 OA
BRANCH  28  31
ATOM     31  C   UNL A   1      34.391  33.492  28.726  1.00  0.00     0.039 A 
ATOM     32  C   UNL A   1      34.479  32.742  29.900  1.00  0.00     0.014 A 
ATOM     33  C   UNL A   1      35.547  33.887  28.049  1.00  0.00     0.014 A 
ATOM     34  C   UNL A   1      35.729  32.321  30.358  1.00  0.00     0.010 A 
ATOM     35  C   UNL A   1      36.786  33.415  28.469  1.00  0.00     0.010 A 
ATOM     36  C   UNL A   1      36.888  32.622  29.622  1.00  0.00    -0.014 A 
BRANCH  36  37
ATOM     37  C   UNL A   1      38.215  32.100  30.030  1.00  0.00     0.031 A 
ATOM     38  C   UNL A   1      38.702  30.780  29.508  1.00  0.00     0.074 A 
ATOM     39  C   UNL A   1      38.944  32.778  30.937  1.00  0.00     0.049 A 
ATOM     40  N   UNL A   1      39.793  30.123  29.811  1.00  0.00    -0.248 NA
ATOM     41  C   UNL A   1      37.837  30.092  28.536  1.00  0.00     0.031 C 
ATOM     42  C   UNL A   1      38.563  34.051  31.555  1.00  0.00     0.029 A 
ATOM     43  N   UNL A   1      40.157  32.483  31.508  1.00  0.00    -0.354 N 
ATOM     44  C   UNL A   1      39.735  28.940  29.086  1.00  0.00     0.074 A 
ATOM     45  C   UNL A   1      38.484  28.949  28.360  1.00  0.00     0.031 C 
ATOM     46  C   UNL A   1      39.531  34.435  32.402  1.00  0.00     0.029 A 
ATOM     47  C   UNL A   1      40.580  33.422  32.417  1.00  0.00     0.049 A 
ATOM     48  H   UNL A   1      40.675  31.675  31.285  1.00  0.00     0.167 HD
ATOM     49  C   UNL A   1      40.649  27.943  29.018  1.00  0.00     0.031 A 
ATOM     50  C   UNL A   1      41.685  33.457  33.185  1.00  0.00     0.031 A 
ATOM     51  C   UNL A   1      41.900  27.940  29.728  1.00  0.00     0.049 A 
ATOM     52  C   UNL A   1      42.679  32.334  33.097  1.00  0.00     0.074 A 
ATOM     53  C   UNL A   1      42.922  27.010  29.669  1.00  0.00     0.029 A 
ATOM     54  N   UNL A   1      42.295  28.914  30.632  1.00  0.00    -0.354 N 
ATOM     55  N   UNL A   1      42.645  31.258  32.351  1.00  0.00    -0.248 NA
ATOM     56  C   UNL A   1      43.869  32.437  33.955  1.00  0.00     0.031 C 
ATOM     57  C   UNL A   1      43.917  27.395  30.574  1.00  0.00     0.029 A 
ATOM     58  C   UNL A   1      43.535  28.592  31.159  1.00  0.00     0.049 A 
ATOM     59  H   UNL A   1      41.773  29.715  30.864  1.00  0.00     0.167 HD
ATOM     60  C   UNL A   1      43.814  30.565  32.634  1.00  0.00     0.074 A 
ATOM     61  C   UNL A   1      44.545  31.351  33.606  1.00  0.00     0.031 C 
ATOM     62  C   UNL A   1      44.243  29.380  32.133  1.00  0.00     0.031 A 
BRANCH  49  63
ATOM     63  C   UNL A   1      40.318  26.764  28.148  1.00  0.00    -0.014 A 
ATOM     64  C   UNL A   1      40.782  26.684  26.824  1.00  0.00     0.009 A 
ATOM     65  C   UNL A   1      39.553  25.707  28.665  1.00  0.00     0.009 A 
ATOM     66  C   UNL A   1      40.452  25.586  26.026  1.00  0.00     0.001 A 
ATOM     67  C   UNL A   1      39.249  24.599  27.873  1.00  0.00     0.001 A 
ATOM     68  C   UNL A   1      39.691  24.544  26.551  1.00  0.00     0.000 A 
ENDBRANCH  49  63
BRANCH  50  69
ATOM     69  C   UNL A   1      41.914  34.603  34.102  1.00  0.00    -0.014 A 
ATOM     70  C   UNL A   1      41.471  34.548  35.432  1.00  0.00     0.009 A 
ATOM     71  C   UNL A   1      42.577  35.756  33.653  1.00  0.00     0.009 A 
ATOM     72  C   UNL A   1      41.669  35.634  36.288  1.00  0.00     0.001 A 
ATOM     73  C   UNL A   1      42.796  36.829  34.518  1.00  0.00     0.001 A 
ATOM     74  C   UNL A   1      42.334  36.771  35.832  1.00  0.00     0.000 A 
ENDBRANCH  50  69
BRANCH  62  75
ATOM     75  C   UNL A   1      45.572  28.875  32.617  1.00  0.00    -0.014 A 
ATOM     76  C   UNL A   1      46.766  29.260  31.988  1.00  0.00     0.009 A 
ATOM     77  C   UNL A   1      45.632  28.035  33.740  1.00  0.00     0.009 A 
ATOM     78  C   UNL A   1      47.993  28.788  32.458  1.00  0.00     0.001 A 
ATOM     79  C   UNL A   1      46.863  27.587  34.223  1.00  0.00     0.001 A 
ATOM     80  C   UNL A   1      48.041  27.958  33.577  1.00  0.00     0.000 A 
ENDBRANCH  62  75
ENDBRANCH  36  37
ENDBRANCH  28  31
ENDBRANCH  26  27
ENDBRANCH  25  26
ENDBRANCH  24  25
ENDBRANCH   1  24
TORSDOF 16
ENDMDL
