MODEL 1
REMARK VINA RESULT:     -12.7      0.000      0.000
REMARK SMILES O=C(NCCCCNC(=O)[C@H]1[C@H]2CC[C@H](C2)[C@@H]1C(=O)N1CC[NH+](C2CCCCC2)CC1)c1ccc(-c2c3nc(c(-c4ccccc4)c4ccc([nH]4)c(-c4ccccc4)c4nc(c(-c5ccccc5)c5ccc2[nH]5)C=C4)C=C3)cc1
REMARK SMILES IDX 5 1 4 2 3 3 1 4 2 5 32 7 33 8 79 9 34 10 78 11 35 12 36 13
REMARK SMILES IDX 37 14 72 15 38 16 77 17 71 18 73 19 39 20 76 21 70 22 69 23
REMARK SMILES IDX 40 25 62 26 47 27 61 28 48 29 51 30 60 31 74 32 49 33 50 34
REMARK SMILES IDX 59 36 75 37 52 38 41 39 42 40 46 41 43 42 45 43 44 44 63 45
REMARK SMILES IDX 64 46 68 47 65 48 67 49 66 50 53 51 54 52 58 53 55 54 57 55
REMARK SMILES IDX 56 56 6 57 7 58 8 59 9 60 10 62 11 63 12 64 17 65 13 66
REMARK SMILES IDX 16 67 15 68 14 69 18 70 19 71 20 72 21 73 31 74 22 75 30 76
REMARK SMILES IDX 23 77 24 79 25 80 29 81 26 82 28 83 27 84
REMARK H PARENT 3 6 73 24 51 35 8 61 23 78
REMARK Flexibility Score: inf
ROOT
ATOM      1  C   UNL A   1      31.452  31.958  26.916  1.00  0.00     0.023 C 
ENDROOT
BRANCH   1   2
ATOM      2  C   UNL A   1      32.704  32.795  27.143  1.00  0.00     0.116 C 
BRANCH   2   3
ATOM      3  N   UNL A   1      32.402  34.139  27.610  1.00  0.00    -0.352 N 
ATOM      4  O   UNL A   1      32.547  35.937  28.964  1.00  0.00    -0.269 OA
ATOM      5  C   UNL A   1      33.023  34.875  28.592  1.00  0.00     0.251 C 
ATOM      6  H   UNL A   1      31.650  34.584  27.159  1.00  0.00     0.163 HD
BRANCH   5   7
ATOM      7  C   UNL A   1      34.258  34.356  29.218  1.00  0.00     0.039 A 
ATOM      8  C   UNL A   1      35.508  34.580  28.634  1.00  0.00     0.014 A 
ATOM      9  C   UNL A   1      34.155  33.628  30.405  1.00  0.00     0.014 A 
ATOM     10  C   UNL A   1      36.639  33.965  29.163  1.00  0.00     0.010 A 
ATOM     11  C   UNL A   1      35.302  33.075  30.977  1.00  0.00     0.010 A 
ATOM     12  C   UNL A   1      36.548  33.213  30.344  1.00  0.00    -0.014 A 
BRANCH  12  13
ATOM     13  C   UNL A   1      37.764  32.607  30.938  1.00  0.00     0.031 A 
ATOM     14  C   UNL A   1      38.410  31.405  30.310  1.00  0.00     0.074 A 
ATOM     15  C   UNL A   1      38.272  33.132  32.068  1.00  0.00     0.049 A 
ATOM     16  N   UNL A   1      39.429  30.700  30.734  1.00  0.00    -0.248 NA
ATOM     17  C   UNL A   1      37.831  30.925  29.045  1.00  0.00     0.031 C 
ATOM     18  C   UNL A   1      37.740  34.304  32.767  1.00  0.00     0.029 A 
ATOM     19  N   UNL A   1      39.344  32.746  32.830  1.00  0.00    -0.354 N 
ATOM     20  C   UNL A   1      39.598  29.680  29.807  1.00  0.00     0.074 A 
ATOM     21  C   UNL A   1      38.563  29.845  28.808  1.00  0.00     0.031 C 
ATOM     22  C   UNL A   1      38.497  34.551  33.846  1.00  0.00     0.029 A 
ATOM     23  C   UNL A   1      39.523  33.520  33.950  1.00  0.00     0.049 A 
ATOM     24  H   UNL A   1      39.927  31.988  32.598  1.00  0.00     0.167 HD
ATOM     25  C   UNL A   1      40.531  28.697  29.789  1.00  0.00     0.031 A 
ATOM     26  C   UNL A   1      40.393  33.397  34.969  1.00  0.00     0.031 A 
ATOM     27  C   UNL A   1      41.552  28.533  30.791  1.00  0.00     0.049 A 
ATOM     28  C   UNL A   1      41.383  32.270  34.957  1.00  0.00     0.074 A 
ATOM     29  C   UNL A   1      42.563  27.588  30.847  1.00  0.00     0.029 A 
ATOM     30  N   UNL A   1      41.688  29.329  31.919  1.00  0.00    -0.354 N 
ATOM     31  N   UNL A   1      41.549  31.331  34.058  1.00  0.00    -0.248 NA
ATOM     32  C   UNL A   1      42.306  32.189  36.096  1.00  0.00     0.031 C 
ATOM     33  C   UNL A   1      43.271  27.775  32.038  1.00  0.00     0.029 A 
ATOM     34  C   UNL A   1      42.745  28.878  32.692  1.00  0.00     0.049 A 
ATOM     35  H   UNL A   1      41.117  30.099  32.139  1.00  0.00     0.167 HD
ATOM     36  C   UNL A   1      42.615  30.563  34.507  1.00  0.00     0.074 A 
ATOM     37  C   UNL A   1      43.059  31.151  35.755  1.00  0.00     0.031 C 
ATOM     38  C   UNL A   1      43.178  29.473  33.931  1.00  0.00     0.031 A 
BRANCH  25  39
ATOM     39  C   UNL A   1      40.458  27.694  28.670  1.00  0.00    -0.014 A 
ATOM     40  C   UNL A   1      41.127  27.900  27.452  1.00  0.00     0.009 A 
ATOM     41  C   UNL A   1      39.724  26.510  28.846  1.00  0.00     0.009 A 
ATOM     42  C   UNL A   1      41.021  26.965  26.419  1.00  0.00     0.001 A 
ATOM     43  C   UNL A   1      39.646  25.563  27.824  1.00  0.00     0.001 A 
ATOM     44  C   UNL A   1      40.285  25.797  26.607  1.00  0.00     0.000 A 
ENDBRANCH  25  39
BRANCH  26  45
ATOM     45  C   UNL A   1      40.344  34.372  36.088  1.00  0.00    -0.014 A 
ATOM     46  C   UNL A   1      41.088  35.559  36.035  1.00  0.00     0.009 A 
ATOM     47  C   UNL A   1      39.517  34.136  37.199  1.00  0.00     0.009 A 
ATOM     48  C   UNL A   1      41.014  36.484  37.078  1.00  0.00     0.001 A 
ATOM     49  C   UNL A   1      39.423  35.076  38.226  1.00  0.00     0.001 A 
ATOM     50  C   UNL A   1      40.176  36.247  38.167  1.00  0.00     0.000 A 
ENDBRANCH  26  45
BRANCH  38  51
ATOM     51  C   UNL A   1      44.372  28.869  34.617  1.00  0.00    -0.014 A 
ATOM     52  C   UNL A   1      45.673  29.330  34.367  1.00  0.00     0.009 A 
ATOM     53  C   UNL A   1      44.178  27.858  35.572  1.00  0.00     0.009 A 
ATOM     54  C   UNL A   1      46.760  28.771  35.044  1.00  0.00     0.001 A 
ATOM     55  C   UNL A   1      45.263  27.322  36.266  1.00  0.00     0.001 A 
ATOM     56  C   UNL A   1      46.553  27.773  35.998  1.00  0.00     0.000 A 
ENDBRANCH  38  51
ENDBRANCH  12  13
ENDBRANCH   5   7
ENDBRANCH   2   3
ENDBRANCH   1   2
BRANCH   1  57
ATOM     57  C   UNL A   1      31.659  30.705  26.068  1.00  0.00     0.023 C 
BRANCH  57  58
ATOM     58  C   UNL A   1      32.923  29.913  26.396  1.00  0.00     0.116 C 
BRANCH  58  59
ATOM     59  N   UNL A   1      33.665  29.554  25.209  1.00  0.00    -0.356 N 
ATOM     60  C   UNL A   1      33.547  28.473  24.390  1.00  0.00     0.224 C 
ATOM     61  H   UNL A   1      34.368  30.192  24.951  1.00  0.00     0.163 HD
ATOM     62  O   UNL A   1      34.228  28.486  23.366  1.00  0.00    -0.275 OA
BRANCH  60  63
ATOM     63  C   UNL A   1      32.581  27.344  24.739  1.00  0.00     0.094 C 
ATOM     64  C   UNL A   1      31.082  27.756  24.635  1.00  0.00     0.002 C 
ATOM     65  C   UNL A   1      32.651  26.115  23.796  1.00  0.00     0.094 C 
ATOM     66  C   UNL A   1      30.634  28.166  23.218  1.00  0.00     0.005 C 
ATOM     67  C   UNL A   1      30.422  26.385  24.723  1.00  0.00     0.009 C 
ATOM     68  C   UNL A   1      31.160  25.841  23.489  1.00  0.00     0.002 C 
ATOM     69  C   UNL A   1      30.698  26.854  22.425  1.00  0.00     0.005 C 
BRANCH  65  70
ATOM     70  C   UNL A   1      33.487  24.952  24.351  1.00  0.00     0.227 C 
ATOM     71  O   UNL A   1      34.411  25.201  25.131  1.00  0.00    -0.275 OA
ATOM     72  N   UNL A   1      33.088  23.646  24.151  1.00  0.00    -0.331 N 
ATOM     73  C   UNL A   1      33.322  22.682  25.230  1.00  0.00     0.181 C 
ATOM     74  C   UNL A   1      33.047  23.011  22.837  1.00  0.00     0.181 C 
ATOM     75  C   UNL A   1      32.307  21.516  25.179  1.00  0.00     0.284 C 
ATOM     76  C   UNL A   1      32.001  21.886  22.809  1.00  0.00     0.284 C 
ATOM     77  N   UNL A   1      32.149  20.865  23.861  1.00  0.00    -0.330 N 
ATOM     78  H   UNL A   1      31.270  20.350  23.848  1.00  0.00     0.348 HD
BRANCH  77  79
ATOM     79  C   UNL A   1      33.069  19.733  23.613  1.00  0.00     0.184 C 
ATOM     80  C   UNL A   1      33.937  19.407  24.849  1.00  0.00     0.065 C 
ATOM     81  C   UNL A   1      32.434  18.465  23.005  1.00  0.00     0.065 C 
ATOM     82  C   UNL A   1      34.901  18.250  24.608  1.00  0.00     0.006 C 
ATOM     83  C   UNL A   1      33.404  17.297  22.856  1.00  0.00     0.006 C 
ATOM     84  C   UNL A   1      34.139  17.011  24.156  1.00  0.00     0.000 C 
ENDBRANCH  77  79
ENDBRANCH  65  70
ENDBRANCH  60  63
ENDBRANCH  58  59
ENDBRANCH  57  58
ENDBRANCH   1  57
TORSDOF 13
ENDMDL
MODEL 2
REMARK VINA RESULT:     -12.6      4.747     10.238
REMARK SMILES O=C(NCCCCNC(=O)[C@H]1[C@H]2CC[C@H](C2)[C@@H]1C(=O)N1CC[NH+](C2CCCCC2)CC1)c1ccc(-c2c3nc(c(-c4ccccc4)c4ccc([nH]4)c(-c4ccccc4)c4nc(c(-c5ccccc5)c5ccc2[nH]5)C=C4)C=C3)cc1
REMARK SMILES IDX 5 1 4 2 3 3 1 4 2 5 32 7 33 8 79 9 34 10 78 11 35 12 36 13
REMARK SMILES IDX 37 14 72 15 38 16 77 17 71 18 73 19 39 20 76 21 70 22 69 23
REMARK SMILES IDX 40 25 62 26 47 27 61 28 48 29 51 30 60 31 74 32 49 33 50 34
REMARK SMILES IDX 59 36 75 37 52 38 41 39 42 40 46 41 43 42 45 43 44 44 63 45
REMARK SMILES IDX 64 46 68 47 65 48 67 49 66 50 53 51 54 52 58 53 55 54 57 55
REMARK SMILES IDX 56 56 6 57 7 58 8 59 9 60 10 62 11 63 12 64 17 65 13 66
REMARK SMILES IDX 16 67 15 68 14 69 18 70 19 71 20 72 21 73 31 74 22 75 30 76
REMARK SMILES IDX 23 77 24 79 25 80 29 81 26 82 28 83 27 84
REMARK H PARENT 3 6 73 24 51 35 8 61 23 78
REMARK Flexibility Score: inf
ROOT
ATOM      1  C   UNL A   1      38.158  19.979  24.733  1.00  0.00     0.023 C 
ENDROOT
BRANCH   1   2
ATOM      2  C   UNL A   1      39.097  20.100  25.925  1.00  0.00     0.116 C 
BRANCH   2   3
ATOM      3  N   UNL A   1      40.159  19.107  25.906  1.00  0.00    -0.352 N 
ATOM      4  O   UNL A   1      42.285  18.355  25.908  1.00  0.00    -0.269 OA
ATOM      5  C   UNL A   1      41.509  19.277  26.108  1.00  0.00     0.251 C 
ATOM      6  H   UNL A   1      39.871  18.184  25.724  1.00  0.00     0.163 HD
BRANCH   5   7
ATOM      7  C   UNL A   1      42.018  20.596  26.540  1.00  0.00     0.039 A 
ATOM      8  C   UNL A   1      42.135  20.912  27.897  1.00  0.00     0.014 A 
ATOM      9  C   UNL A   1      42.378  21.530  25.566  1.00  0.00     0.014 A 
ATOM     10  C   UNL A   1      42.481  22.204  28.279  1.00  0.00     0.010 A 
ATOM     11  C   UNL A   1      42.800  22.803  25.953  1.00  0.00     0.010 A 
ATOM     12  C   UNL A   1      42.826  23.160  27.311  1.00  0.00    -0.014 A 
BRANCH  12  13
ATOM     13  C   UNL A   1      43.252  24.518  27.724  1.00  0.00     0.031 A 
ATOM     14  C   UNL A   1      42.239  25.561  28.102  1.00  0.00     0.074 A 
ATOM     15  C   UNL A   1      44.564  24.818  27.731  1.00  0.00     0.049 A 
ATOM     16  N   UNL A   1      42.427  26.820  28.412  1.00  0.00    -0.248 NA
ATOM     17  C   UNL A   1      40.830  25.140  28.125  1.00  0.00     0.031 C 
ATOM     18  C   UNL A   1      45.644  23.889  27.394  1.00  0.00     0.029 A 
ATOM     19  N   UNL A   1      45.211  25.990  28.027  1.00  0.00    -0.354 N 
ATOM     20  C   UNL A   1      41.163  27.348  28.641  1.00  0.00     0.074 A 
ATOM     21  C   UNL A   1      40.214  26.278  28.413  1.00  0.00     0.031 C 
ATOM     22  C   UNL A   1      46.820  24.521  27.517  1.00  0.00     0.029 A 
ATOM     23  C   UNL A   1      46.574  25.913  27.877  1.00  0.00     0.049 A 
ATOM     24  H   UNL A   1      44.745  26.807  28.318  1.00  0.00     0.167 HD
ATOM     25  C   UNL A   1      40.825  28.608  29.009  1.00  0.00     0.031 A 
ATOM     26  C   UNL A   1      47.522  26.862  27.982  1.00  0.00     0.031 A 
ATOM     27  C   UNL A   1      41.774  29.669  29.225  1.00  0.00     0.049 A 
ATOM     28  C   UNL A   1      47.120  28.263  28.337  1.00  0.00     0.074 A 
ATOM     29  C   UNL A   1      41.534  30.972  29.628  1.00  0.00     0.029 A 
ATOM     30  N   UNL A   1      43.145  29.553  29.044  1.00  0.00    -0.354 N 
ATOM     31  N   UNL A   1      45.924  28.740  28.580  1.00  0.00    -0.248 NA
ATOM     32  C   UNL A   1      48.199  29.254  28.437  1.00  0.00     0.031 C 
ATOM     33  C   UNL A   1      42.753  31.659  29.634  1.00  0.00     0.029 A 
ATOM     34  C   UNL A   1      43.760  30.768  29.300  1.00  0.00     0.049 A 
ATOM     35  H   UNL A   1      43.611  28.730  28.775  1.00  0.00     0.167 HD
ATOM     36  C   UNL A   1      46.108  30.081  28.890  1.00  0.00     0.074 A 
ATOM     37  C   UNL A   1      47.531  30.338  28.811  1.00  0.00     0.031 C 
ATOM     38  C   UNL A   1      45.178  31.011  29.219  1.00  0.00     0.031 A 
BRANCH  25  39
ATOM     39  C   UNL A   1      39.360  28.916  29.156  1.00  0.00    -0.014 A 
ATOM     40  C   UNL A   1      38.696  28.765  30.384  1.00  0.00     0.009 A 
ATOM     41  C   UNL A   1      38.636  29.387  28.049  1.00  0.00     0.009 A 
ATOM     42  C   UNL A   1      37.328  29.033  30.487  1.00  0.00     0.001 A 
ATOM     43  C   UNL A   1      37.277  29.685  28.163  1.00  0.00     0.001 A 
ATOM     44  C   UNL A   1      36.621  29.496  29.378  1.00  0.00     0.000 A 
ENDBRANCH  25  39
BRANCH  26  45
ATOM     45  C   UNL A   1      48.940  26.504  27.730  1.00  0.00    -0.014 A 
ATOM     46  C   UNL A   1      49.776  26.109  28.785  1.00  0.00     0.009 A 
ATOM     47  C   UNL A   1      49.454  26.516  26.423  1.00  0.00     0.009 A 
ATOM     48  C   UNL A   1      51.100  25.745  28.537  1.00  0.00     0.001 A 
ATOM     49  C   UNL A   1      50.770  26.124  26.174  1.00  0.00     0.001 A 
ATOM     50  C   UNL A   1      51.594  25.744  27.232  1.00  0.00     0.000 A 
ENDBRANCH  26  45
BRANCH  38  51
ATOM     51  C   UNL A   1      45.673  32.387  29.568  1.00  0.00    -0.014 A 
ATOM     52  C   UNL A   1      46.062  32.719  30.874  1.00  0.00     0.009 A 
ATOM     53  C   UNL A   1      45.802  33.349  28.553  1.00  0.00     0.009 A 
ATOM     54  C   UNL A   1      46.548  33.996  31.161  1.00  0.00     0.001 A 
ATOM     55  C   UNL A   1      46.314  34.615  28.838  1.00  0.00     0.001 A 
ATOM     56  C   UNL A   1      46.680  34.940  30.141  1.00  0.00     0.000 A 
ENDBRANCH  38  51
ENDBRANCH  12  13
ENDBRANCH   5   7
ENDBRANCH   2   3
ENDBRANCH   1   2
BRANCH   1  57
ATOM     57  C   UNL A   1      36.727  20.451  24.987  1.00  0.00     0.023 C 
BRANCH  57  58
ATOM     58  C   UNL A   1      36.555  21.968  25.031  1.00  0.00     0.116 C 
BRANCH  58  59
ATOM     59  N   UNL A   1      35.871  22.404  26.229  1.00  0.00    -0.356 N 
ATOM     60  C   UNL A   1      34.623  22.923  26.390  1.00  0.00     0.224 C 
ATOM     61  H   UNL A   1      36.391  22.312  27.059  1.00  0.00     0.163 HD
ATOM     62  O   UNL A   1      34.245  23.087  27.549  1.00  0.00    -0.275 OA
BRANCH  60  63
ATOM     63  C   UNL A   1      33.755  23.234  25.174  1.00  0.00     0.094 C 
ATOM     64  C   UNL A   1      33.162  21.964  24.494  1.00  0.00     0.002 C 
ATOM     65  C   UNL A   1      32.483  24.067  25.481  1.00  0.00     0.094 C 
ATOM     66  C   UNL A   1      32.214  21.146  25.393  1.00  0.00     0.005 C 
ATOM     67  C   UNL A   1      32.139  22.611  23.567  1.00  0.00     0.009 C 
ATOM     68  C   UNL A   1      31.382  23.294  24.718  1.00  0.00     0.002 C 
ATOM     69  C   UNL A   1      30.995  22.063  25.558  1.00  0.00     0.005 C 
BRANCH  65  70
ATOM     70  C   UNL A   1      32.634  25.567  25.181  1.00  0.00     0.227 C 
ATOM     71  O   UNL A   1      33.713  26.117  25.425  1.00  0.00    -0.275 OA
ATOM     72  N   UNL A   1      31.664  26.238  24.465  1.00  0.00    -0.331 N 
ATOM     73  C   UNL A   1      32.095  27.287  23.538  1.00  0.00     0.181 C 
ATOM     74  C   UNL A   1      30.308  26.456  24.961  1.00  0.00     0.181 C 
ATOM     75  C   UNL A   1      31.080  27.479  22.387  1.00  0.00     0.284 C 
ATOM     76  C   UNL A   1      29.320  26.602  23.794  1.00  0.00     0.284 C 
ATOM     77  N   UNL A   1      29.670  27.633  22.800  1.00  0.00    -0.330 N 
ATOM     78  H   UNL A   1      29.066  27.439  22.002  1.00  0.00     0.348 HD
BRANCH  77  79
ATOM     79  C   UNL A   1      29.246  29.027  23.059  1.00  0.00     0.184 C 
ATOM     80  C   UNL A   1      29.788  30.007  21.995  1.00  0.00     0.065 C 
ATOM     81  C   UNL A   1      27.741  29.240  23.324  1.00  0.00     0.065 C 
ATOM     82  C   UNL A   1      29.372  31.452  22.252  1.00  0.00     0.006 C 
ATOM     83  C   UNL A   1      27.342  30.702  23.492  1.00  0.00     0.006 C 
ATOM     84  C   UNL A   1      27.856  31.558  22.345  1.00  0.00     0.000 C 
ENDBRANCH  77  79
ENDBRANCH  65  70
ENDBRANCH  60  63
ENDBRANCH  58  59
ENDBRANCH  57  58
ENDBRANCH   1  57
TORSDOF 13
ENDMDL
MODEL 3
REMARK VINA RESULT:     -12.5      0.822      5.792
REMARK SMILES O=C(NCCCCNC(=O)[C@H]1[C@H]2CC[C@H](C2)[C@@H]1C(=O)N1CC[NH+](C2CCCCC2)CC1)c1ccc(-c2c3nc(c(-c4ccccc4)c4ccc([nH]4)c(-c4ccccc4)c4nc(c(-c5ccccc5)c5ccc2[nH]5)C=C4)C=C3)cc1
REMARK SMILES IDX 5 1 4 2 3 3 1 4 2 5 32 7 33 8 79 9 34 10 78 11 35 12 36 13
REMARK SMILES IDX 37 14 72 15 38 16 77 17 71 18 73 19 39 20 76 21 70 22 69 23
REMARK SMILES IDX 40 25 62 26 47 27 61 28 48 29 51 30 60 31 74 32 49 33 50 34
REMARK SMILES IDX 59 36 75 37 52 38 41 39 42 40 46 41 43 42 45 43 44 44 63 45
REMARK SMILES IDX 64 46 68 47 65 48 67 49 66 50 53 51 54 52 58 53 55 54 57 55
REMARK SMILES IDX 56 56 6 57 7 58 8 59 9 60 10 62 11 63 12 64 17 65 13 66
REMARK SMILES IDX 16 67 15 68 14 69 18 70 19 71 20 72 21 73 31 74 22 75 30 76
REMARK SMILES IDX 23 77 24 79 25 80 29 81 26 82 28 83 27 84
REMARK H PARENT 3 6 73 24 51 35 8 61 23 78
REMARK Flexibility Score: inf
ROOT
ATOM      1  C   UNL A   1      31.398  32.004  26.740  1.00  0.00     0.023 C 
ENDROOT
BRANCH   1   2
ATOM      2  C   UNL A   1      32.695  32.714  27.103  1.00  0.00     0.116 C 
BRANCH   2   3
ATOM      3  N   UNL A   1      32.474  34.050  27.633  1.00  0.00    -0.352 N 
ATOM      4  O   UNL A   1      32.755  35.786  29.045  1.00  0.00    -0.269 OA
ATOM      5  C   UNL A   1      33.167  34.720  28.614  1.00  0.00     0.251 C 
ATOM      6  H   UNL A   1      31.723  34.545  27.232  1.00  0.00     0.163 HD
BRANCH   5   7
ATOM      7  C   UNL A   1      34.403  34.124  29.165  1.00  0.00     0.039 A 
ATOM      8  C   UNL A   1      35.629  34.280  28.513  1.00  0.00     0.014 A 
ATOM      9  C   UNL A   1      34.325  33.393  30.353  1.00  0.00     0.014 A 
ATOM     10  C   UNL A   1      36.749  33.596  28.972  1.00  0.00     0.010 A 
ATOM     11  C   UNL A   1      35.467  32.769  30.855  1.00  0.00     0.010 A 
ATOM     12  C   UNL A   1      36.682  32.840  30.153  1.00  0.00    -0.014 A 
BRANCH  12  13
ATOM     13  C   UNL A   1      37.892  32.159  30.673  1.00  0.00     0.031 A 
ATOM     14  C   UNL A   1      38.681  32.751  31.806  1.00  0.00     0.074 A 
ATOM     15  C   UNL A   1      38.295  31.011  30.097  1.00  0.00     0.049 A 
ATOM     16  N   UNL A   1      39.804  32.334  32.335  1.00  0.00    -0.248 NA
ATOM     17  C   UNL A   1      38.145  33.976  32.420  1.00  0.00     0.031 C 
ATOM     18  C   UNL A   1      37.608  30.333  28.996  1.00  0.00     0.029 A 
ATOM     19  N   UNL A   1      39.382  30.217  30.354  1.00  0.00    -0.354 N 
ATOM     20  C   UNL A   1      40.124  33.256  33.324  1.00  0.00     0.074 A 
ATOM     21  C   UNL A   1      39.087  34.266  33.306  1.00  0.00     0.031 C 
ATOM     22  C   UNL A   1      38.281  29.216  28.683  1.00  0.00     0.029 A 
ATOM     23  C   UNL A   1      39.477  29.135  29.513  1.00  0.00     0.049 A 
ATOM     24  H   UNL A   1      40.031  30.403  31.070  1.00  0.00     0.167 HD
ATOM     25  C   UNL A   1      41.184  33.259  34.168  1.00  0.00     0.031 A 
ATOM     26  C   UNL A   1      40.435  28.198  29.396  1.00  0.00     0.031 A 
ATOM     27  C   UNL A   1      42.217  32.257  34.173  1.00  0.00     0.049 A 
ATOM     28  C   UNL A   1      41.628  28.252  30.306  1.00  0.00     0.074 A 
ATOM     29  C   UNL A   1      43.317  32.154  35.009  1.00  0.00     0.029 A 
ATOM     30  N   UNL A   1      42.285  31.186  33.292  1.00  0.00    -0.354 N 
ATOM     31  N   UNL A   1      41.901  29.113  31.255  1.00  0.00    -0.248 NA
ATOM     32  C   UNL A   1      42.639  27.202  30.130  1.00  0.00     0.031 C 
ATOM     33  C   UNL A   1      44.079  31.057  34.596  1.00  0.00     0.029 A 
ATOM     34  C   UNL A   1      43.422  30.436  33.546  1.00  0.00     0.049 A 
ATOM     35  H   UNL A   1      41.623  30.990  32.591  1.00  0.00     0.167 HD
ATOM     36  C   UNL A   1      43.102  28.693  31.811  1.00  0.00     0.074 A 
ATOM     37  C   UNL A   1      43.500  27.497  31.096  1.00  0.00     0.031 C 
ATOM     38  C   UNL A   1      43.806  29.248  32.828  1.00  0.00     0.031 A 
BRANCH  25  39
ATOM     39  C   UNL A   1      41.300  34.413  35.127  1.00  0.00    -0.014 A 
ATOM     40  C   UNL A   1      41.994  35.586  34.788  1.00  0.00     0.009 A 
ATOM     41  C   UNL A   1      40.684  34.332  36.387  1.00  0.00     0.009 A 
ATOM     42  C   UNL A   1      42.108  36.632  35.707  1.00  0.00     0.001 A 
ATOM     43  C   UNL A   1      40.773  35.392  37.291  1.00  0.00     0.001 A 
ATOM     44  C   UNL A   1      41.495  36.535  36.955  1.00  0.00     0.000 A 
ENDBRANCH  25  39
BRANCH  26  45
ATOM     45  C   UNL A   1      40.298  27.143  28.361  1.00  0.00    -0.014 A 
ATOM     46  C   UNL A   1      40.883  27.301  27.097  1.00  0.00     0.009 A 
ATOM     47  C   UNL A   1      39.615  25.950  28.651  1.00  0.00     0.009 A 
ATOM     48  C   UNL A   1      40.775  26.292  26.139  1.00  0.00     0.001 A 
ATOM     49  C   UNL A   1      39.534  24.930  27.701  1.00  0.00     0.001 A 
ATOM     50  C   UNL A   1      40.109  25.105  26.444  1.00  0.00     0.000 A 
ENDBRANCH  26  45
BRANCH  38  51
ATOM     51  C   UNL A   1      45.058  28.540  33.266  1.00  0.00    -0.014 A 
ATOM     52  C   UNL A   1      45.026  27.517  34.226  1.00  0.00     0.009 A 
ATOM     53  C   UNL A   1      46.282  28.870  32.663  1.00  0.00     0.009 A 
ATOM     54  C   UNL A   1      46.202  26.856  34.590  1.00  0.00     0.001 A 
ATOM     55  C   UNL A   1      47.449  28.189  33.008  1.00  0.00     0.001 A 
ATOM     56  C   UNL A   1      47.410  27.188  33.975  1.00  0.00     0.000 A 
ENDBRANCH  38  51
ENDBRANCH  12  13
ENDBRANCH   5   7
ENDBRANCH   2   3
ENDBRANCH   1   2
BRANCH   1  57
ATOM     57  C   UNL A   1      31.565  30.762  25.866  1.00  0.00     0.023 C 
BRANCH  57  58
ATOM     58  C   UNL A   1      32.746  29.870  26.243  1.00  0.00     0.116 C 
BRANCH  58  59
ATOM     59  N   UNL A   1      33.575  29.552  25.102  1.00  0.00    -0.356 N 
ATOM     60  C   UNL A   1      33.571  28.460  24.290  1.00  0.00     0.224 C 
ATOM     61  H   UNL A   1      34.249  30.232  24.878  1.00  0.00     0.163 HD
ATOM     62  O   UNL A   1      34.306  28.510  23.304  1.00  0.00    -0.275 OA
BRANCH  60  63
ATOM     63  C   UNL A   1      32.660  27.274  24.596  1.00  0.00     0.094 C 
ATOM     64  C   UNL A   1      31.145  27.630  24.557  1.00  0.00     0.002 C 
ATOM     65  C   UNL A   1      32.751  26.107  23.579  1.00  0.00     0.094 C 
ATOM     66  C   UNL A   1      30.639  28.104  23.179  1.00  0.00     0.005 C 
ATOM     67  C   UNL A   1      30.541  26.230  24.580  1.00  0.00     0.009 C 
ATOM     68  C   UNL A   1      31.264  25.790  23.296  1.00  0.00     0.002 C 
ATOM     69  C   UNL A   1      30.732  26.845  22.308  1.00  0.00     0.005 C 
BRANCH  65  70
ATOM     70  C   UNL A   1      33.648  24.948  24.041  1.00  0.00     0.227 C 
ATOM     71  O   UNL A   1      34.700  25.208  24.632  1.00  0.00    -0.275 OA
ATOM     72  N   UNL A   1      33.192  23.646  23.985  1.00  0.00    -0.331 N 
ATOM     73  C   UNL A   1      33.593  22.730  25.056  1.00  0.00     0.181 C 
ATOM     74  C   UNL A   1      32.906  22.949  22.735  1.00  0.00     0.181 C 
ATOM     75  C   UNL A   1      32.562  21.594  25.247  1.00  0.00     0.284 C 
ATOM     76  C   UNL A   1      31.849  21.856  22.951  1.00  0.00     0.284 C 
ATOM     77  N   UNL A   1      32.160  20.884  24.015  1.00  0.00    -0.330 N 
ATOM     78  H   UNL A   1      31.281  20.395  24.184  1.00  0.00     0.348 HD
BRANCH  77  79
ATOM     79  C   UNL A   1      32.997  19.714  23.671  1.00  0.00     0.184 C 
ATOM     80  C   UNL A   1      33.691  19.110  24.912  1.00  0.00     0.065 C 
ATOM     81  C   UNL A   1      32.323  18.629  22.804  1.00  0.00     0.065 C 
ATOM     82  C   UNL A   1      34.570  17.909  24.575  1.00  0.00     0.006 C 
ATOM     83  C   UNL A   1      33.196  17.403  22.556  1.00  0.00     0.006 C 
ATOM     84  C   UNL A   1      33.756  16.843  23.854  1.00  0.00     0.000 C 
ENDBRANCH  77  79
ENDBRANCH  65  70
ENDBRANCH  60  63
ENDBRANCH  58  59
ENDBRANCH  57  58
ENDBRANCH   1  57
TORSDOF 13
ENDMDL
