MODEL 1
REMARK VINA RESULT:     -11.5      0.000      0.000
REMARK SMILES CCOc1ccc(-c2nc(C(=O)NCCCCNC(=O)c3ccc(-c4c5nc(c(-c6ccccc6)c6ccc([nH]6)c(-c6ccccc6)c6nc(c(-c7ccccc7)c7ccc4[nH]7)C=C6)C=C5)cc3)cc(=O)[nH]2)cc1
REMARK SMILES IDX 15 1 14 2 13 3 11 4 12 5 10 7 8 8 9 9 72 10 70 11 69 13
REMARK SMILES IDX 71 14 7 15 4 16 5 17 74 18 6 19 73 20 3 21 2 22 1 23 16 24
REMARK SMILES IDX 17 25 18 26 19 27 20 29 21 30 22 31 68 32 23 33 67 34 24 35
REMARK SMILES IDX 25 36 26 37 61 38 27 39 66 40 60 41 62 42 28 43 65 44 59 45
REMARK SMILES IDX 58 46 29 48 51 49 36 50 50 51 37 52 40 53 49 54 63 55 38 56
REMARK SMILES IDX 39 57 48 59 64 60 41 61 30 62 31 63 35 64 32 65 34 66 33 67
REMARK SMILES IDX 52 68 53 69 57 70 54 71 56 72 55 73 42 74 43 75 47 76 44 77
REMARK SMILES IDX 46 78 45 79
REMARK H PARENT 13 6 72 12 18 28 62 47 40 58
REMARK Flexibility Score: inf
ROOT
ATOM      1  C   UNL A   1      36.380  22.417  25.018  1.00  0.00     0.023 C 
ENDROOT
BRANCH   1   2
ATOM      2  C   UNL A   1      34.941  22.238  25.480  1.00  0.00     0.116 C 
BRANCH   2   3
ATOM      3  N   UNL A   1      34.149  21.384  24.614  1.00  0.00    -0.351 N 
ATOM      4  C   UNL A   1      32.827  21.382  24.268  1.00  0.00     0.270 C 
ATOM      5  O   UNL A   1      32.462  20.490  23.499  1.00  0.00    -0.268 OA
ATOM      6  H   UNL A   1      34.667  20.662  24.192  1.00  0.00     0.163 HD
BRANCH   4   7
ATOM      7  C   UNL A   1      31.822  22.376  24.822  1.00  0.00     0.136 A 
ATOM      8  C   UNL A   1      30.715  24.357  24.487  1.00  0.00     0.141 A 
ATOM      9  N   UNL A   1      31.471  23.430  23.994  1.00  0.00    -0.225 NA
ATOM     10  N   UNL A   1      30.124  24.256  25.718  1.00  0.00    -0.306 N 
ATOM     11  C   UNL A   1      30.393  23.228  26.558  1.00  0.00     0.251 A 
ATOM     12  H   UNL A   1      29.485  24.951  26.000  1.00  0.00     0.171 HD
ATOM     13  C   UNL A   1      31.442  22.314  26.105  1.00  0.00     0.105 A 
ATOM     14  O   UNL A   1      29.816  23.060  27.621  1.00  0.00    -0.269 OA
BRANCH   8  15
ATOM     15  C   UNL A   1      30.456  25.618  23.759  1.00  0.00     0.018 A 
ATOM     16  C   UNL A   1      29.996  28.048  22.483  1.00  0.00     0.119 A 
ATOM     17  C   UNL A   1      29.065  27.573  23.403  1.00  0.00     0.047 A 
ATOM     18  C   UNL A   1      31.176  27.346  22.239  1.00  0.00     0.047 A 
ATOM     19  C   UNL A   1      29.294  26.354  24.040  1.00  0.00     0.016 A 
ATOM     20  C   UNL A   1      31.408  26.124  22.873  1.00  0.00     0.016 A 
BRANCH  16  21
ATOM     21  O   UNL A   1      29.781  29.276  21.925  1.00  0.00    -0.494 OA
BRANCH  21  22
ATOM     22  C   UNL A   1      28.409  29.682  21.997  1.00  0.00     0.226 C 
ATOM     23  C   UNL A   1      28.216  31.082  21.438  1.00  0.00     0.049 C 
ENDBRANCH  21  22
ENDBRANCH  16  21
ENDBRANCH   8  15
ENDBRANCH   4   7
ENDBRANCH   2   3
ENDBRANCH   1   2
BRANCH   1  24
ATOM     24  C   UNL A   1      37.244  21.164  25.025  1.00  0.00     0.023 C 
BRANCH  24  25
ATOM     25  C   UNL A   1      38.597  21.303  25.709  1.00  0.00     0.116 C 
BRANCH  25  26
ATOM     26  N   UNL A   1      39.434  20.113  25.612  1.00  0.00    -0.352 N 
ATOM     27  C   UNL A   1      40.760  19.970  25.955  1.00  0.00     0.251 C 
ATOM     28  H   UNL A   1      38.995  19.306  25.256  1.00  0.00     0.163 HD
ATOM     29  O   UNL A   1      41.363  18.925  25.747  1.00  0.00    -0.269 OA
BRANCH  27  30
ATOM     30  C   UNL A   1      41.455  21.127  26.548  1.00  0.00     0.039 A 
ATOM     31  C   UNL A   1      41.975  22.116  25.709  1.00  0.00     0.014 A 
ATOM     32  C   UNL A   1      41.475  21.281  27.935  1.00  0.00     0.014 A 
ATOM     33  C   UNL A   1      42.435  23.311  26.265  1.00  0.00     0.010 A 
ATOM     34  C   UNL A   1      41.845  22.502  28.475  1.00  0.00     0.010 A 
ATOM     35  C   UNL A   1      42.326  23.531  27.647  1.00  0.00    -0.014 A 
BRANCH  35  36
ATOM     36  C   UNL A   1      42.726  24.812  28.281  1.00  0.00     0.031 A 
ATOM     37  C   UNL A   1      41.687  25.876  28.491  1.00  0.00     0.074 A 
ATOM     38  C   UNL A   1      44.020  25.063  28.556  1.00  0.00     0.049 A 
ATOM     39  N   UNL A   1      41.840  27.127  28.842  1.00  0.00    -0.248 NA
ATOM     40  C   UNL A   1      40.290  25.488  28.230  1.00  0.00     0.031 C 
ATOM     41  C   UNL A   1      45.129  24.125  28.377  1.00  0.00     0.029 A 
ATOM     42  N   UNL A   1      44.623  26.206  29.023  1.00  0.00    -0.354 N 
ATOM     43  C   UNL A   1      40.566  27.679  28.811  1.00  0.00     0.074 A 
ATOM     44  C   UNL A   1      39.664  26.647  28.352  1.00  0.00     0.031 C 
ATOM     45  C   UNL A   1      46.275  24.726  28.736  1.00  0.00     0.029 A 
ATOM     46  C   UNL A   1      45.990  26.106  29.117  1.00  0.00     0.049 A 
ATOM     47  H   UNL A   1      44.124  27.019  29.265  1.00  0.00     0.167 HD
ATOM     48  C   UNL A   1      40.178  28.929  29.154  1.00  0.00     0.031 A 
ATOM     49  C   UNL A   1      46.915  27.031  29.447  1.00  0.00     0.031 A 
ATOM     50  C   UNL A   1      41.077  29.951  29.614  1.00  0.00     0.049 A 
ATOM     51  C   UNL A   1      46.468  28.425  29.794  1.00  0.00     0.074 A 
ATOM     52  C   UNL A   1      40.782  31.238  30.026  1.00  0.00     0.029 A 
ATOM     53  N   UNL A   1      42.451  29.799  29.722  1.00  0.00    -0.354 N 
ATOM     54  N   UNL A   1      45.255  28.923  29.806  1.00  0.00    -0.248 NA
ATOM     55  C   UNL A   1      47.514  29.382  30.181  1.00  0.00     0.031 C 
ATOM     56  C   UNL A   1      41.984  31.884  30.330  1.00  0.00     0.029 A 
ATOM     57  C   UNL A   1      43.020  30.975  30.176  1.00  0.00     0.049 A 
ATOM     58  H   UNL A   1      42.948  28.976  29.508  1.00  0.00     0.167 HD
ATOM     59  C   UNL A   1      45.387  30.237  30.239  1.00  0.00     0.074 A 
ATOM     60  C   UNL A   1      46.798  30.458  30.479  1.00  0.00     0.031 C 
ATOM     61  C   UNL A   1      44.425  31.172  30.427  1.00  0.00     0.031 A 
BRANCH  48  62
ATOM     62  C   UNL A   1      38.715  29.253  29.023  1.00  0.00    -0.014 A 
ATOM     63  C   UNL A   1      38.177  29.731  27.816  1.00  0.00     0.009 A 
ATOM     64  C   UNL A   1      37.859  29.079  30.122  1.00  0.00     0.009 A 
ATOM     65  C   UNL A   1      36.829  30.080  27.729  1.00  0.00     0.001 A 
ATOM     66  C   UNL A   1      36.503  29.393  30.021  1.00  0.00     0.001 A 
ATOM     67  C   UNL A   1      35.992  29.907  28.831  1.00  0.00     0.000 A 
ENDBRANCH  48  62
BRANCH  49  68
ATOM     68  C   UNL A   1      48.356  26.664  29.464  1.00  0.00    -0.014 A 
ATOM     69  C   UNL A   1      48.938  26.112  30.617  1.00  0.00     0.009 A 
ATOM     70  C   UNL A   1      49.156  26.853  28.327  1.00  0.00     0.009 A 
ATOM     71  C   UNL A   1      50.295  25.780  30.635  1.00  0.00     0.001 A 
ATOM     72  C   UNL A   1      50.506  26.491  28.339  1.00  0.00     0.001 A 
ATOM     73  C   UNL A   1      51.076  25.963  29.495  1.00  0.00     0.000 A 
ENDBRANCH  49  68
BRANCH  61  74
ATOM     74  C   UNL A   1      44.842  32.506  30.981  1.00  0.00    -0.014 A 
ATOM     75  C   UNL A   1      45.153  33.586  30.142  1.00  0.00     0.009 A 
ATOM     76  C   UNL A   1      44.829  32.704  32.371  1.00  0.00     0.009 A 
ATOM     77  C   UNL A   1      45.459  34.835  30.688  1.00  0.00     0.001 A 
ATOM     78  C   UNL A   1      45.105  33.959  32.912  1.00  0.00     0.001 A 
ATOM     79  C   UNL A   1      45.425  35.023  32.071  1.00  0.00     0.000 A 
ENDBRANCH  61  74
ENDBRANCH  35  36
ENDBRANCH  27  30
ENDBRANCH  25  26
ENDBRANCH  24  25
ENDBRANCH   1  24
TORSDOF 14
ENDMDL
MODEL 2
REMARK VINA RESULT:     -11.4      2.116      7.826
REMARK SMILES CCOc1ccc(-c2nc(C(=O)NCCCCNC(=O)c3ccc(-c4c5nc(c(-c6ccccc6)c6ccc([nH]6)c(-c6ccccc6)c6nc(c(-c7ccccc7)c7ccc4[nH]7)C=C6)C=C5)cc3)cc(=O)[nH]2)cc1
REMARK SMILES IDX 15 1 14 2 13 3 11 4 12 5 10 7 8 8 9 9 72 10 70 11 69 13
REMARK SMILES IDX 71 14 7 15 4 16 5 17 74 18 6 19 73 20 3 21 2 22 1 23 16 24
REMARK SMILES IDX 17 25 18 26 19 27 20 29 21 30 22 31 68 32 23 33 67 34 24 35
REMARK SMILES IDX 25 36 26 37 61 38 27 39 66 40 60 41 62 42 28 43 65 44 59 45
REMARK SMILES IDX 58 46 29 48 51 49 36 50 50 51 37 52 40 53 49 54 63 55 38 56
REMARK SMILES IDX 39 57 48 59 64 60 41 61 30 62 31 63 35 64 32 65 34 66 33 67
REMARK SMILES IDX 52 68 53 69 57 70 54 71 56 72 55 73 42 74 43 75 47 76 44 77
REMARK SMILES IDX 46 78 45 79
REMARK H PARENT 13 6 72 12 18 28 62 47 40 58
REMARK Flexibility Score: inf
ROOT
ATOM      1  C   UNL A   1      33.334  27.579  25.352  1.00  0.00     0.023 C 
ENDROOT
BRANCH   1   2
ATOM      2  C   UNL A   1      32.072  26.893  25.854  1.00  0.00     0.116 C 
BRANCH   2   3
ATOM      3  N   UNL A   1      30.900  27.148  25.037  1.00  0.00    -0.351 N 
ATOM      4  C   UNL A   1      30.496  26.681  23.818  1.00  0.00     0.270 C 
ATOM      5  O   UNL A   1      29.426  27.118  23.389  1.00  0.00    -0.268 OA
ATOM      6  H   UNL A   1      30.270  27.787  25.442  1.00  0.00     0.163 HD
BRANCH   4   7
ATOM      7  C   UNL A   1      31.320  25.716  22.985  1.00  0.00     0.136 A 
ATOM      8  C   UNL A   1      32.273  23.632  22.865  1.00  0.00     0.141 A 
ATOM      9  N   UNL A   1      31.473  24.435  23.491  1.00  0.00    -0.225 NA
ATOM     10  N   UNL A   1      32.833  23.938  21.654  1.00  0.00    -0.306 N 
ATOM     11  C   UNL A   1      32.686  25.160  21.085  1.00  0.00     0.251 A 
ATOM     12  H   UNL A   1      33.359  23.251  21.183  1.00  0.00     0.171 HD
ATOM     13  C   UNL A   1      31.995  26.150  21.913  1.00  0.00     0.105 A 
ATOM     14  O   UNL A   1      33.094  25.435  19.968  1.00  0.00    -0.269 OA
BRANCH   8  15
ATOM     15  C   UNL A   1      32.664  22.325  23.435  1.00  0.00     0.018 A 
ATOM     16  C   UNL A   1      33.455  19.842  24.411  1.00  0.00     0.119 A 
ATOM     17  C   UNL A   1      32.445  19.909  23.456  1.00  0.00     0.047 A 
ATOM     18  C   UNL A   1      34.107  20.998  24.839  1.00  0.00     0.047 A 
ATOM     19  C   UNL A   1      32.046  21.153  22.968  1.00  0.00     0.016 A 
ATOM     20  C   UNL A   1      33.710  22.246  24.356  1.00  0.00     0.016 A 
BRANCH  16  21
ATOM     21  O   UNL A   1      33.873  18.607  24.820  1.00  0.00    -0.494 OA
BRANCH  21  22
ATOM     22  C   UNL A   1      32.852  17.882  25.515  1.00  0.00     0.226 C 
ATOM     23  C   UNL A   1      32.806  16.429  25.071  1.00  0.00     0.049 C 
ENDBRANCH  21  22
ENDBRANCH  16  21
ENDBRANCH   8  15
ENDBRANCH   4   7
ENDBRANCH   2   3
ENDBRANCH   1   2
BRANCH   1  24
ATOM     24  C   UNL A   1      33.599  28.972  25.904  1.00  0.00     0.023 C 
BRANCH  24  25
ATOM     25  C   UNL A   1      33.520  29.104  27.418  1.00  0.00     0.116 C 
BRANCH  25  26
ATOM     26  N   UNL A   1      33.641  30.476  27.901  1.00  0.00    -0.352 N 
ATOM     27  C   UNL A   1      34.733  31.086  28.474  1.00  0.00     0.251 C 
ATOM     28  H   UNL A   1      32.838  31.037  27.803  1.00  0.00     0.163 HD
ATOM     29  O   UNL A   1      34.669  32.230  28.907  1.00  0.00    -0.269 OA
BRANCH  27  30
ATOM     30  C   UNL A   1      35.983  30.313  28.594  1.00  0.00     0.039 A 
ATOM     31  C   UNL A   1      36.894  30.316  27.535  1.00  0.00     0.014 A 
ATOM     32  C   UNL A   1      36.293  29.693  29.806  1.00  0.00     0.014 A 
ATOM     33  C   UNL A   1      38.165  29.771  27.726  1.00  0.00     0.010 A 
ATOM     34  C   UNL A   1      37.585  29.238  30.021  1.00  0.00     0.010 A 
ATOM     35  C   UNL A   1      38.535  29.275  28.986  1.00  0.00    -0.014 A 
BRANCH  35  36
ATOM     36  C   UNL A   1      39.897  28.758  29.266  1.00  0.00     0.031 A 
ATOM     37  C   UNL A   1      40.922  29.685  29.855  1.00  0.00     0.074 A 
ATOM     38  C   UNL A   1      40.246  27.513  28.891  1.00  0.00     0.049 A 
ATOM     39  N   UNL A   1      42.210  29.513  30.002  1.00  0.00    -0.248 NA
ATOM     40  C   UNL A   1      40.433  31.002  30.300  1.00  0.00     0.031 C 
ATOM     41  C   UNL A   1      39.354  26.521  28.287  1.00  0.00     0.029 A 
ATOM     42  N   UNL A   1      41.464  26.878  28.939  1.00  0.00    -0.354 N 
ATOM     43  C   UNL A   1      42.687  30.708  30.524  1.00  0.00     0.074 A 
ATOM     44  C   UNL A   1      41.564  31.614  30.613  1.00  0.00     0.031 C 
ATOM     45  C   UNL A   1      40.051  25.403  28.029  1.00  0.00     0.029 A 
ATOM     46  C   UNL A   1      41.448  25.617  28.395  1.00  0.00     0.049 A 
ATOM     47  H   UNL A   1      42.271  27.289  29.325  1.00  0.00     0.167 HD
ATOM     48  C   UNL A   1      43.945  31.018  30.916  1.00  0.00     0.031 A 
ATOM     49  C   UNL A   1      42.451  24.739  28.191  1.00  0.00     0.031 A 
ATOM     50  C   UNL A   1      45.057  30.113  30.830  1.00  0.00     0.049 A 
ATOM     51  C   UNL A   1      43.849  25.113  28.602  1.00  0.00     0.074 A 
ATOM     52  C   UNL A   1      46.365  30.312  31.235  1.00  0.00     0.029 A 
ATOM     53  N   UNL A   1      44.991  28.833  30.299  1.00  0.00    -0.354 N 
ATOM     54  N   UNL A   1      44.281  26.229  29.138  1.00  0.00    -0.248 NA
ATOM     55  C   UNL A   1      44.897  24.105  28.388  1.00  0.00     0.031 C 
ATOM     56  C   UNL A   1      47.103  29.174  30.899  1.00  0.00     0.029 A 
ATOM     57  C   UNL A   1      46.239  28.239  30.350  1.00  0.00     0.049 A 
ATOM     58  H   UNL A   1      44.177  28.410  29.940  1.00  0.00     0.167 HD
ATOM     59  C   UNL A   1      45.639  26.043  29.362  1.00  0.00     0.074 A 
ATOM     60  C   UNL A   1      45.960  24.707  28.904  1.00  0.00     0.031 C 
ATOM     61  C   UNL A   1      46.537  26.901  29.906  1.00  0.00     0.031 A 
BRANCH  48  62
ATOM     62  C   UNL A   1      44.174  32.403  31.454  1.00  0.00    -0.014 A 
ATOM     63  C   UNL A   1      44.529  33.467  30.607  1.00  0.00     0.009 A 
ATOM     64  C   UNL A   1      44.034  32.650  32.828  1.00  0.00     0.009 A 
ATOM     65  C   UNL A   1      44.793  34.733  31.132  1.00  0.00     0.001 A 
ATOM     66  C   UNL A   1      44.262  33.927  33.346  1.00  0.00     0.001 A 
ATOM     67  C   UNL A   1      44.656  34.963  32.500  1.00  0.00     0.000 A 
ENDBRANCH  48  62
BRANCH  49  68
ATOM     68  C   UNL A   1      42.166  23.420  27.565  1.00  0.00    -0.014 A 
ATOM     69  C   UNL A   1      42.433  23.204  26.204  1.00  0.00     0.009 A 
ATOM     70  C   UNL A   1      41.636  22.366  28.326  1.00  0.00     0.009 A 
ATOM     71  C   UNL A   1      42.152  21.969  25.614  1.00  0.00     0.001 A 
ATOM     72  C   UNL A   1      41.385  21.122  27.740  1.00  0.00     0.001 A 
ATOM     73  C   UNL A   1      41.636  20.928  26.384  1.00  0.00     0.000 A 
ENDBRANCH  49  68
BRANCH  61  74
ATOM     74  C   UNL A   1      47.944  26.410  30.103  1.00  0.00    -0.014 A 
ATOM     75  C   UNL A   1      48.355  25.820  31.307  1.00  0.00     0.009 A 
ATOM     76  C   UNL A   1      48.844  26.458  29.026  1.00  0.00     0.009 A 
ATOM     77  C   UNL A   1      49.646  25.302  31.432  1.00  0.00     0.001 A 
ATOM     78  C   UNL A   1      50.122  25.913  29.143  1.00  0.00     0.001 A 
ATOM     79  C   UNL A   1      50.524  25.339  30.348  1.00  0.00     0.000 A 
ENDBRANCH  61  74
ENDBRANCH  35  36
ENDBRANCH  27  30
ENDBRANCH  25  26
ENDBRANCH  24  25
ENDBRANCH   1  24
TORSDOF 14
ENDMDL
MODEL 3
REMARK VINA RESULT:     -11.4      2.378      6.882
REMARK SMILES CCOc1ccc(-c2nc(C(=O)NCCCCNC(=O)c3ccc(-c4c5nc(c(-c6ccccc6)c6ccc([nH]6)c(-c6ccccc6)c6nc(c(-c7ccccc7)c7ccc4[nH]7)C=C6)C=C5)cc3)cc(=O)[nH]2)cc1
REMARK SMILES IDX 15 1 14 2 13 3 11 4 12 5 10 7 8 8 9 9 72 10 70 11 69 13
REMARK SMILES IDX 71 14 7 15 4 16 5 17 74 18 6 19 73 20 3 21 2 22 1 23 16 24
REMARK SMILES IDX 17 25 18 26 19 27 20 29 21 30 22 31 68 32 23 33 67 34 24 35
REMARK SMILES IDX 25 36 26 37 61 38 27 39 66 40 60 41 62 42 28 43 65 44 59 45
REMARK SMILES IDX 58 46 29 48 51 49 36 50 50 51 37 52 40 53 49 54 63 55 38 56
REMARK SMILES IDX 39 57 48 59 64 60 41 61 30 62 31 63 35 64 32 65 34 66 33 67
REMARK SMILES IDX 52 68 53 69 57 70 54 71 56 72 55 73 42 74 43 75 47 76 44 77
REMARK SMILES IDX 46 78 45 79
REMARK H PARENT 13 6 72 12 18 28 62 47 40 58
REMARK Flexibility Score: inf
ROOT
ATOM      1  C   UNL A   1      34.926  23.770  25.674  1.00  0.00     0.023 C 
ENDROOT
BRANCH   1   2
ATOM      2  C   UNL A   1      34.770  24.040  24.184  1.00  0.00     0.116 C 
BRANCH   2   3
ATOM      3  N   UNL A   1      33.963  23.054  23.490  1.00  0.00    -0.351 N 
ATOM      4  C   UNL A   1      32.621  22.794  23.476  1.00  0.00     0.270 C 
ATOM      5  O   UNL A   1      32.251  21.853  22.770  1.00  0.00    -0.268 OA
ATOM      6  H   UNL A   1      34.486  22.451  22.914  1.00  0.00     0.163 HD
BRANCH   4   7
ATOM      7  C   UNL A   1      31.617  23.566  24.314  1.00  0.00     0.136 A 
ATOM      8  C   UNL A   1      30.365  25.479  24.507  1.00  0.00     0.141 A 
ATOM      9  N   UNL A   1      31.124  24.739  23.765  1.00  0.00    -0.225 NA
ATOM     10  N   UNL A   1      29.905  25.075  25.732  1.00  0.00    -0.306 N 
ATOM     11  C   UNL A   1      30.316  23.918  26.305  1.00  0.00     0.251 A 
ATOM     12  H   UNL A   1      29.256  25.642  26.209  1.00  0.00     0.171 HD
ATOM     13  C   UNL A   1      31.369  23.206  25.579  1.00  0.00     0.105 A 
ATOM     14  O   UNL A   1      29.857  23.485  27.350  1.00  0.00    -0.269 OA
BRANCH   8  15
ATOM     15  C   UNL A   1      29.961  26.840  24.093  1.00  0.00     0.018 A 
ATOM     16  C   UNL A   1      29.259  29.386  23.219  1.00  0.00     0.119 A 
ATOM     17  C   UNL A   1      30.558  29.151  23.660  1.00  0.00     0.047 A 
ATOM     18  C   UNL A   1      28.329  28.348  23.160  1.00  0.00     0.047 A 
ATOM     19  C   UNL A   1      30.910  27.875  24.102  1.00  0.00     0.016 A 
ATOM     20  C   UNL A   1      28.675  27.072  23.603  1.00  0.00     0.016 A 
BRANCH  16  21
ATOM     21  O   UNL A   1      28.960  30.626  22.727  1.00  0.00    -0.494 OA
BRANCH  21  22
ATOM     22  C   UNL A   1      27.991  30.581  21.674  1.00  0.00     0.226 C 
ATOM     23  C   UNL A   1      28.215  31.700  20.669  1.00  0.00     0.049 C 
ENDBRANCH  21  22
ENDBRANCH  16  21
ENDBRANCH   8  15
ENDBRANCH   4   7
ENDBRANCH   2   3
ENDBRANCH   1   2
BRANCH   1  24
ATOM     24  C   UNL A   1      36.220  23.088  26.095  1.00  0.00     0.023 C 
BRANCH  24  25
ATOM     25  C   UNL A   1      37.431  23.381  25.222  1.00  0.00     0.116 C 
BRANCH  25  26
ATOM     26  N   UNL A   1      38.613  22.598  25.566  1.00  0.00    -0.352 N 
ATOM     27  C   UNL A   1      39.712  22.987  26.297  1.00  0.00     0.251 C 
ATOM     28  H   UNL A   1      38.626  21.672  25.232  1.00  0.00     0.163 HD
ATOM     29  O   UNL A   1      40.675  22.245  26.444  1.00  0.00    -0.269 OA
BRANCH  27  30
ATOM     30  C   UNL A   1      39.723  24.345  26.872  1.00  0.00     0.039 A 
ATOM     31  C   UNL A   1      39.194  24.552  28.148  1.00  0.00     0.014 A 
ATOM     32  C   UNL A   1      40.372  25.375  26.188  1.00  0.00     0.014 A 
ATOM     33  C   UNL A   1      39.399  25.779  28.781  1.00  0.00     0.010 A 
ATOM     34  C   UNL A   1      40.654  26.557  26.856  1.00  0.00     0.010 A 
ATOM     35  C   UNL A   1      40.173  26.771  28.159  1.00  0.00    -0.014 A 
BRANCH  35  36
ATOM     36  C   UNL A   1      40.489  28.062  28.819  1.00  0.00     0.031 A 
ATOM     37  C   UNL A   1      41.793  28.207  29.551  1.00  0.00     0.074 A 
ATOM     38  C   UNL A   1      39.573  29.048  28.863  1.00  0.00     0.049 A 
ATOM     39  N   UNL A   1      42.193  29.159  30.353  1.00  0.00    -0.248 NA
ATOM     40  C   UNL A   1      42.760  27.108  29.387  1.00  0.00     0.031 C 
ATOM     41  C   UNL A   1      38.261  29.025  28.215  1.00  0.00     0.029 A 
ATOM     42  N   UNL A   1      39.602  30.260  29.512  1.00  0.00    -0.354 N 
ATOM     43  C   UNL A   1      43.440  28.758  30.813  1.00  0.00     0.074 A 
ATOM     44  C   UNL A   1      43.703  27.453  30.249  1.00  0.00     0.031 C 
ATOM     45  C   UNL A   1      37.614  30.169  28.492  1.00  0.00     0.029 A 
ATOM     46  C   UNL A   1      38.441  30.981  29.380  1.00  0.00     0.049 A 
ATOM     47  H   UNL A   1      40.381  30.579  30.023  1.00  0.00     0.167 HD
ATOM     48  C   UNL A   1      44.300  29.425  31.618  1.00  0.00     0.031 A 
ATOM     49  C   UNL A   1      38.072  32.154  29.933  1.00  0.00     0.031 A 
ATOM     50  C   UNL A   1      44.035  30.723  32.173  1.00  0.00     0.049 A 
ATOM     51  C   UNL A   1      39.027  32.866  30.851  1.00  0.00     0.074 A 
ATOM     52  C   UNL A   1      44.855  31.504  32.967  1.00  0.00     0.029 A 
ATOM     53  N   UNL A   1      42.857  31.432  31.991  1.00  0.00    -0.354 N 
ATOM     54  N   UNL A   1      40.224  32.499  31.243  1.00  0.00    -0.248 NA
ATOM     55  C   UNL A   1      38.587  34.158  31.398  1.00  0.00     0.031 C 
ATOM     56  C   UNL A   1      44.151  32.662  33.312  1.00  0.00     0.029 A 
ATOM     57  C   UNL A   1      42.921  32.633  32.673  1.00  0.00     0.049 A 
ATOM     58  H   UNL A   1      42.090  31.125  31.454  1.00  0.00     0.167 HD
ATOM     59  C   UNL A   1      40.694  33.529  32.047  1.00  0.00     0.074 A 
ATOM     60  C   UNL A   1      39.655  34.537  32.088  1.00  0.00     0.031 C 
ATOM     61  C   UNL A   1      41.884  33.632  32.688  1.00  0.00     0.031 A 
BRANCH  48  62
ATOM     62  C   UNL A   1      45.596  28.740  31.952  1.00  0.00    -0.014 A 
ATOM     63  C   UNL A   1      45.701  27.866  33.047  1.00  0.00     0.009 A 
ATOM     64  C   UNL A   1      46.733  28.973  31.162  1.00  0.00     0.009 A 
ATOM     65  C   UNL A   1      46.926  27.284  33.377  1.00  0.00     0.001 A 
ATOM     66  C   UNL A   1      47.949  28.360  31.471  1.00  0.00     0.001 A 
ATOM     67  C   UNL A   1      48.048  27.529  32.586  1.00  0.00     0.000 A 
ENDBRANCH  48  62
BRANCH  49  68
ATOM     68  C   UNL A   1      36.732  32.727  29.631  1.00  0.00    -0.014 A 
ATOM     69  C   UNL A   1      35.673  32.582  30.541  1.00  0.00     0.009 A 
ATOM     70  C   UNL A   1      36.507  33.432  28.438  1.00  0.00     0.009 A 
ATOM     71  C   UNL A   1      34.412  33.109  30.250  1.00  0.00     0.001 A 
ATOM     72  C   UNL A   1      35.254  33.985  28.165  1.00  0.00     0.001 A 
ATOM     73  C   UNL A   1      34.206  33.816  29.067  1.00  0.00     0.000 A 
ENDBRANCH  49  68
BRANCH  61  74
ATOM     74  C   UNL A   1      42.168  34.904  33.438  1.00  0.00    -0.014 A 
ATOM     75  C   UNL A   1      41.792  35.067  34.779  1.00  0.00     0.009 A 
ATOM     76  C   UNL A   1      42.909  35.918  32.810  1.00  0.00     0.009 A 
ATOM     77  C   UNL A   1      42.142  36.228  35.472  1.00  0.00     0.001 A 
ATOM     78  C   UNL A   1      43.283  37.063  33.512  1.00  0.00     0.001 A 
ATOM     79  C   UNL A   1      42.895  37.220  34.842  1.00  0.00     0.000 A 
ENDBRANCH  61  74
ENDBRANCH  35  36
ENDBRANCH  27  30
ENDBRANCH  25  26
ENDBRANCH  24  25
ENDBRANCH   1  24
TORSDOF 14
ENDMDL
