MODEL 1
REMARK VINA RESULT:     -11.2      0.000      0.000
REMARK SMILES CCC(CC)(NC(=O)Nc1cc(Cl)cc(Cl)c1)C(=O)NCCCCNC(=O)c1ccc(-c2c3nc(c(-c4ccccc4)c4ccc([nH]4)c(-c4ccccc4)c4nc(c(-c5ccccc5)c5ccc2[nH]5)C=C4)C=C3)cc1
REMARK SMILES IDX 22 1 21 2 20 3 18 4 19 5 3 7 2 8 1 9 4 10 5 11 6 12 7 13
REMARK SMILES IDX 8 15 9 16 10 18 11 19 17 20 12 21 15 22 13 23 14 24 16 25
REMARK SMILES IDX 23 26 24 27 25 28 26 29 27 31 28 32 29 33 75 34 30 35 74 36
REMARK SMILES IDX 31 37 32 38 33 39 68 40 34 41 73 42 67 43 69 44 35 45 72 46
REMARK SMILES IDX 66 47 65 48 36 50 58 51 43 52 57 53 44 54 47 55 56 56 70 57
REMARK SMILES IDX 45 58 46 59 55 61 71 62 48 63 37 64 38 65 42 66 39 67 41 68
REMARK SMILES IDX 40 69 59 70 60 71 64 72 61 73 63 74 62 75 49 76 50 77 54 78
REMARK SMILES IDX 51 79 53 80 52 81
REMARK H PARENT 20 6 6 14 9 17 25 30 69 49 47 60
REMARK Flexibility Score: inf
ROOT
ATOM      1  C   UNL A   1      36.097  20.314  25.011  1.00  0.00     0.023 C 
ENDROOT
BRANCH   1   2
ATOM      2  C   UNL A   1      36.066  21.850  25.114  1.00  0.00     0.116 C 
BRANCH   2   3
ATOM      3  N   UNL A   1      35.490  22.284  26.379  1.00  0.00    -0.354 N 
ATOM      4  C   UNL A   1      34.183  22.133  26.834  1.00  0.00     0.245 C 
ATOM      5  O   UNL A   1      33.908  21.372  27.758  1.00  0.00    -0.272 OA
ATOM      6  H   UNL A   1      36.106  22.744  26.993  1.00  0.00     0.163 HD
BRANCH   4   7
ATOM      7  C   UNL A   1      33.112  22.908  26.015  1.00  0.00     0.120 C 
BRANCH   7   8
ATOM      8  C   UNL A   1      32.861  22.638  24.518  1.00  0.00     0.035 C 
ATOM      9  C   UNL A   1      32.394  21.263  24.097  1.00  0.00     0.007 C 
ENDBRANCH   7   8
BRANCH   7  10
ATOM     10  C   UNL A   1      33.703  24.360  26.225  1.00  0.00     0.035 C 
ATOM     11  C   UNL A   1      34.355  25.130  25.097  1.00  0.00     0.007 C 
ENDBRANCH   7  10
BRANCH   7  12
ATOM     12  N   UNL A   1      31.814  22.631  26.685  1.00  0.00    -0.323 N 
ATOM     13  C   UNL A   1      30.649  23.307  26.785  1.00  0.00     0.320 C 
ATOM     14  H   UNL A   1      31.800  21.768  27.158  1.00  0.00     0.166 HD
ATOM     15  O   UNL A   1      29.832  22.857  27.598  1.00  0.00    -0.248 OA
ATOM     16  N   UNL A   1      30.234  24.379  26.063  1.00  0.00    -0.308 N 
ATOM     17  H   UNL A   1      29.265  24.513  26.169  1.00  0.00     0.171 HD
BRANCH  16  18
ATOM     18  C   UNL A   1      30.780  25.362  25.201  1.00  0.00     0.045 A 
ATOM     19  C   UNL A   1      30.888  25.233  23.812  1.00  0.00     0.046 A 
ATOM     20  C   UNL A   1      30.931  26.652  25.717  1.00  0.00     0.046 A 
ATOM     21  C   UNL A   1      31.408  26.261  23.015  1.00  0.00     0.044 A 
ATOM     22  C   UNL A   1      31.383  27.703  24.905  1.00  0.00     0.044 A 
ATOM     23  Cl  UNL A   1      31.664  25.992  21.332  1.00  0.00    -0.084 Cl
ATOM     24  C   UNL A   1      31.681  27.500  23.564  1.00  0.00     0.041 A 
ATOM     25  Cl  UNL A   1      31.539  29.283  25.571  1.00  0.00    -0.084 Cl
ENDBRANCH  16  18
ENDBRANCH   7  12
ENDBRANCH   4   7
ENDBRANCH   2   3
ENDBRANCH   1   2
BRANCH   1  26
ATOM     26  C   UNL A   1      37.471  19.681  24.761  1.00  0.00     0.023 C 
BRANCH  26  27
ATOM     27  C   UNL A   1      38.612  20.312  25.545  1.00  0.00     0.116 C 
BRANCH  27  28
ATOM     28  N   UNL A   1      39.719  19.386  25.699  1.00  0.00    -0.352 N 
ATOM     29  C   UNL A   1      41.022  19.616  26.052  1.00  0.00     0.251 C 
ATOM     30  H   UNL A   1      39.497  18.443  25.524  1.00  0.00     0.163 HD
ATOM     31  O   UNL A   1      41.855  18.731  25.888  1.00  0.00    -0.269 OA
BRANCH  29  32
ATOM     32  C   UNL A   1      41.433  20.920  26.616  1.00  0.00     0.039 A 
ATOM     33  C   UNL A   1      41.922  21.896  25.742  1.00  0.00     0.014 A 
ATOM     34  C   UNL A   1      41.400  21.169  27.991  1.00  0.00     0.014 A 
ATOM     35  C   UNL A   1      42.338  23.131  26.241  1.00  0.00     0.010 A 
ATOM     36  C   UNL A   1      41.744  22.428  28.480  1.00  0.00     0.010 A 
ATOM     37  C   UNL A   1      42.229  23.417  27.612  1.00  0.00    -0.014 A 
BRANCH  37  38
ATOM     38  C   UNL A   1      42.624  24.744  28.148  1.00  0.00     0.031 A 
ATOM     39  C   UNL A   1      41.592  25.816  28.368  1.00  0.00     0.074 A 
ATOM     40  C   UNL A   1      43.924  25.000  28.396  1.00  0.00     0.049 A 
ATOM     41  N   UNL A   1      41.757  27.045  28.789  1.00  0.00    -0.248 NA
ATOM     42  C   UNL A   1      40.197  25.470  28.055  1.00  0.00     0.031 C 
ATOM     43  C   UNL A   1      45.027  24.056  28.201  1.00  0.00     0.029 A 
ATOM     44  N   UNL A   1      44.537  26.135  28.863  1.00  0.00    -0.354 N 
ATOM     45  C   UNL A   1      40.492  27.622  28.775  1.00  0.00     0.074 A 
ATOM     46  C   UNL A   1      39.579  26.624  28.262  1.00  0.00     0.031 C 
ATOM     47  C   UNL A   1      46.176  24.641  28.574  1.00  0.00     0.029 A 
ATOM     48  C   UNL A   1      45.899  26.012  28.990  1.00  0.00     0.049 A 
ATOM     49  H   UNL A   1      44.047  26.959  29.087  1.00  0.00     0.167 HD
ATOM     50  C   UNL A   1      40.122  28.863  29.168  1.00  0.00     0.031 A 
ATOM     51  C   UNL A   1      46.826  26.906  29.386  1.00  0.00     0.031 A 
ATOM     52  C   UNL A   1      41.027  29.856  29.685  1.00  0.00     0.049 A 
ATOM     53  C   UNL A   1      46.391  28.288  29.788  1.00  0.00     0.074 A 
ATOM     54  C   UNL A   1      40.738  31.123  30.161  1.00  0.00     0.029 A 
ATOM     55  N   UNL A   1      42.401  29.693  29.786  1.00  0.00    -0.354 N 
ATOM     56  N   UNL A   1      45.182  28.794  29.832  1.00  0.00    -0.248 NA
ATOM     57  C   UNL A   1      47.450  29.218  30.204  1.00  0.00     0.031 C 
ATOM     58  C   UNL A   1      41.942  31.750  30.496  1.00  0.00     0.029 A 
ATOM     59  C   UNL A   1      42.976  30.849  30.289  1.00  0.00     0.049 A 
ATOM     60  H   UNL A   1      42.893  28.879  29.539  1.00  0.00     0.167 HD
ATOM     61  C   UNL A   1      45.333  30.089  30.310  1.00  0.00     0.074 A 
ATOM     62  C   UNL A   1      46.746  30.284  30.556  1.00  0.00     0.031 C 
ATOM     63  C   UNL A   1      44.384  31.032  30.528  1.00  0.00     0.031 A 
BRANCH  50  64
ATOM     64  C   UNL A   1      38.667  29.228  29.039  1.00  0.00    -0.014 A 
ATOM     65  C   UNL A   1      37.780  29.089  30.118  1.00  0.00     0.009 A 
ATOM     66  C   UNL A   1      38.187  29.760  27.831  1.00  0.00     0.009 A 
ATOM     67  C   UNL A   1      36.435  29.439  29.980  1.00  0.00     0.001 A 
ATOM     68  C   UNL A   1      36.848  30.139  27.705  1.00  0.00     0.001 A 
ATOM     69  C   UNL A   1      35.972  29.969  28.776  1.00  0.00     0.000 A 
ENDBRANCH  50  64
BRANCH  51  70
ATOM     70  C   UNL A   1      48.261  26.521  29.433  1.00  0.00    -0.014 A 
ATOM     71  C   UNL A   1      48.799  25.919  30.580  1.00  0.00     0.009 A 
ATOM     72  C   UNL A   1      49.103  26.766  28.337  1.00  0.00     0.009 A 
ATOM     73  C   UNL A   1      50.157  25.596  30.640  1.00  0.00     0.001 A 
ATOM     74  C   UNL A   1      50.454  26.412  28.388  1.00  0.00     0.001 A 
ATOM     75  C   UNL A   1      50.981  25.839  29.543  1.00  0.00     0.000 A 
ENDBRANCH  51  70
BRANCH  63  76
ATOM     76  C   UNL A   1      44.838  32.347  31.097  1.00  0.00    -0.014 A 
ATOM     77  C   UNL A   1      45.182  33.424  30.266  1.00  0.00     0.009 A 
ATOM     78  C   UNL A   1      44.885  32.521  32.490  1.00  0.00     0.009 A 
ATOM     79  C   UNL A   1      45.598  34.637  30.819  1.00  0.00     0.001 A 
ATOM     80  C   UNL A   1      45.271  33.743  33.040  1.00  0.00     0.001 A 
ATOM     81  C   UNL A   1      45.636  34.798  32.205  1.00  0.00     0.000 A 
ENDBRANCH  63  76
ENDBRANCH  37  38
ENDBRANCH  29  32
ENDBRANCH  27  28
ENDBRANCH  26  27
ENDBRANCH   1  26
TORSDOF 15
ENDMDL
MODEL 2
REMARK VINA RESULT:     -11.2      0.344      5.904
REMARK SMILES CCC(CC)(NC(=O)Nc1cc(Cl)cc(Cl)c1)C(=O)NCCCCNC(=O)c1ccc(-c2c3nc(c(-c4ccccc4)c4ccc([nH]4)c(-c4ccccc4)c4nc(c(-c5ccccc5)c5ccc2[nH]5)C=C4)C=C3)cc1
REMARK SMILES IDX 22 1 21 2 20 3 18 4 19 5 3 7 2 8 1 9 4 10 5 11 6 12 7 13
REMARK SMILES IDX 8 15 9 16 10 18 11 19 17 20 12 21 15 22 13 23 14 24 16 25
REMARK SMILES IDX 23 26 24 27 25 28 26 29 27 31 28 32 29 33 75 34 30 35 74 36
REMARK SMILES IDX 31 37 32 38 33 39 68 40 34 41 73 42 67 43 69 44 35 45 72 46
REMARK SMILES IDX 66 47 65 48 36 50 58 51 43 52 57 53 44 54 47 55 56 56 70 57
REMARK SMILES IDX 45 58 46 59 55 61 71 62 48 63 37 64 38 65 42 66 39 67 41 68
REMARK SMILES IDX 40 69 59 70 60 71 64 72 61 73 63 74 62 75 49 76 50 77 54 78
REMARK SMILES IDX 51 79 53 80 52 81
REMARK H PARENT 20 6 6 14 9 17 25 30 69 49 47 60
REMARK Flexibility Score: inf
ROOT
ATOM      1  C   UNL A   1      36.021  20.107  25.014  1.00  0.00     0.023 C 
ENDROOT
BRANCH   1   2
ATOM      2  C   UNL A   1      35.982  21.646  25.030  1.00  0.00     0.116 C 
BRANCH   2   3
ATOM      3  N   UNL A   1      35.478  22.148  26.300  1.00  0.00    -0.354 N 
ATOM      4  C   UNL A   1      34.183  22.080  26.808  1.00  0.00     0.245 C 
ATOM      5  O   UNL A   1      33.906  21.364  27.766  1.00  0.00    -0.272 OA
ATOM      6  H   UNL A   1      36.139  22.594  26.876  1.00  0.00     0.163 HD
BRANCH   4   7
ATOM      7  C   UNL A   1      33.123  22.883  26.004  1.00  0.00     0.120 C 
BRANCH   7   8
ATOM      8  C   UNL A   1      32.873  22.650  24.501  1.00  0.00     0.035 C 
ATOM      9  C   UNL A   1      32.479  21.266  24.037  1.00  0.00     0.007 C 
ENDBRANCH   7   8
BRANCH   7  10
ATOM     10  C   UNL A   1      33.727  24.325  26.248  1.00  0.00     0.035 C 
ATOM     11  C   UNL A   1      34.367  25.124  25.133  1.00  0.00     0.007 C 
ENDBRANCH   7  10
BRANCH   7  12
ATOM     12  N   UNL A   1      31.820  22.605  26.664  1.00  0.00    -0.323 N 
ATOM     13  C   UNL A   1      30.657  23.284  26.765  1.00  0.00     0.320 C 
ATOM     14  H   UNL A   1      31.800  21.736  27.127  1.00  0.00     0.166 HD
ATOM     15  O   UNL A   1      29.834  22.828  27.569  1.00  0.00    -0.248 OA
ATOM     16  N   UNL A   1      30.250  24.366  26.053  1.00  0.00    -0.308 N 
ATOM     17  H   UNL A   1      29.281  24.502  26.156  1.00  0.00     0.171 HD
BRANCH  16  18
ATOM     18  C   UNL A   1      30.804  25.357  25.206  1.00  0.00     0.045 A 
ATOM     19  C   UNL A   1      30.936  25.235  23.818  1.00  0.00     0.046 A 
ATOM     20  C   UNL A   1      30.940  26.644  25.730  1.00  0.00     0.046 A 
ATOM     21  C   UNL A   1      31.462  26.270  23.034  1.00  0.00     0.044 A 
ATOM     22  C   UNL A   1      31.400  27.702  24.931  1.00  0.00     0.044 A 
ATOM     23  Cl  UNL A   1      31.748  26.012  21.355  1.00  0.00    -0.084 Cl
ATOM     24  C   UNL A   1      31.720  27.508  23.595  1.00  0.00     0.041 A 
ATOM     25  Cl  UNL A   1      31.536  29.279  25.608  1.00  0.00    -0.084 Cl
ENDBRANCH  16  18
ENDBRANCH   7  12
ENDBRANCH   4   7
ENDBRANCH   2   3
ENDBRANCH   1   2
BRANCH   1  26
ATOM     26  C   UNL A   1      37.401  19.469  24.812  1.00  0.00     0.023 C 
BRANCH  26  27
ATOM     27  C   UNL A   1      38.537  20.172  25.540  1.00  0.00     0.116 C 
BRANCH  27  28
ATOM     28  N   UNL A   1      39.686  19.299  25.689  1.00  0.00    -0.352 N 
ATOM     29  C   UNL A   1      40.980  19.589  26.031  1.00  0.00     0.251 C 
ATOM     30  H   UNL A   1      39.507  18.346  25.520  1.00  0.00     0.163 HD
ATOM     31  O   UNL A   1      41.851  18.743  25.865  1.00  0.00    -0.269 OA
BRANCH  29  32
ATOM     32  C   UNL A   1      41.336  20.913  26.586  1.00  0.00     0.039 A 
ATOM     33  C   UNL A   1      41.869  21.873  25.720  1.00  0.00     0.014 A 
ATOM     34  C   UNL A   1      41.207  21.198  27.948  1.00  0.00     0.014 A 
ATOM     35  C   UNL A   1      42.235  23.126  26.213  1.00  0.00     0.010 A 
ATOM     36  C   UNL A   1      41.502  22.474  28.425  1.00  0.00     0.010 A 
ATOM     37  C   UNL A   1      42.031  23.447  27.564  1.00  0.00    -0.014 A 
BRANCH  37  38
ATOM     38  C   UNL A   1      42.372  24.793  28.090  1.00  0.00     0.031 A 
ATOM     39  C   UNL A   1      43.783  25.115  28.501  1.00  0.00     0.074 A 
ATOM     40  C   UNL A   1      41.400  25.713  28.241  1.00  0.00     0.049 A 
ATOM     41  N   UNL A   1      44.260  26.221  29.018  1.00  0.00    -0.248 NA
ATOM     42  C   UNL A   1      44.786  24.054  28.326  1.00  0.00     0.031 C 
ATOM     43  C   UNL A   1      39.988  25.519  27.906  1.00  0.00     0.029 A 
ATOM     44  N   UNL A   1      41.454  26.998  28.721  1.00  0.00    -0.354 N 
ATOM     45  C   UNL A   1      45.609  25.980  29.246  1.00  0.00     0.074 A 
ATOM     46  C   UNL A   1      45.867  24.612  28.853  1.00  0.00     0.031 C 
ATOM     47  C   UNL A   1      39.316  26.652  28.162  1.00  0.00     0.029 A 
ATOM     48  C   UNL A   1      40.237  27.637  28.721  1.00  0.00     0.049 A 
ATOM     49  H   UNL A   1      42.285  27.422  29.034  1.00  0.00     0.167 HD
ATOM     50  C   UNL A   1      46.552  26.825  29.724  1.00  0.00     0.031 A 
ATOM     51  C   UNL A   1      39.898  28.873  29.134  1.00  0.00     0.031 A 
ATOM     52  C   UNL A   1      46.300  28.189  30.110  1.00  0.00     0.049 A 
ATOM     53  C   UNL A   1      40.960  29.781  29.689  1.00  0.00     0.074 A 
ATOM     54  C   UNL A   1      47.202  29.141  30.554  1.00  0.00     0.029 A 
ATOM     55  N   UNL A   1      45.052  28.792  30.104  1.00  0.00    -0.354 N 
ATOM     56  N   UNL A   1      42.243  29.560  29.834  1.00  0.00    -0.248 NA
ATOM     57  C   UNL A   1      40.523  31.114  30.128  1.00  0.00     0.031 C 
ATOM     58  C   UNL A   1      46.491  30.302  30.872  1.00  0.00     0.029 A 
ATOM     59  C   UNL A   1      45.156  30.095  30.566  1.00  0.00     0.049 A 
ATOM     60  H   UNL A   1      44.217  28.361  29.815  1.00  0.00     0.167 HD
ATOM     61  C   UNL A   1      42.772  30.735  30.352  1.00  0.00     0.074 A 
ATOM     62  C   UNL A   1      41.675  31.669  30.479  1.00  0.00     0.031 C 
ATOM     63  C   UNL A   1      44.055  31.015  30.689  1.00  0.00     0.031 A 
BRANCH  50  64
ATOM     64  C   UNL A   1      47.952  26.293  29.874  1.00  0.00    -0.014 A 
ATOM     65  C   UNL A   1      48.403  25.753  31.089  1.00  0.00     0.009 A 
ATOM     66  C   UNL A   1      48.820  26.293  28.769  1.00  0.00     0.009 A 
ATOM     67  C   UNL A   1      49.704  25.258  31.206  1.00  0.00     0.001 A 
ATOM     68  C   UNL A   1      50.110  25.770  28.880  1.00  0.00     0.001 A 
ATOM     69  C   UNL A   1      50.554  25.262  30.100  1.00  0.00     0.000 A 
ENDBRANCH  50  64
BRANCH  51  70
ATOM     70  C   UNL A   1      38.487  29.332  29.029  1.00  0.00    -0.014 A 
ATOM     71  C   UNL A   1      37.630  29.252  30.136  1.00  0.00     0.009 A 
ATOM     72  C   UNL A   1      37.989  29.840  27.819  1.00  0.00     0.009 A 
ATOM     73  C   UNL A   1      36.293  29.643  30.026  1.00  0.00     0.001 A 
ATOM     74  C   UNL A   1      36.660  30.260  27.722  1.00  0.00     0.001 A 
ATOM     75  C   UNL A   1      35.812  30.151  28.821  1.00  0.00     0.000 A 
ENDBRANCH  51  70
BRANCH  63  76
ATOM     76  C   UNL A   1      44.348  32.401  31.191  1.00  0.00    -0.014 A 
ATOM     77  C   UNL A   1      44.164  32.746  32.539  1.00  0.00     0.009 A 
ATOM     78  C   UNL A   1      44.852  33.367  30.305  1.00  0.00     0.009 A 
ATOM     79  C   UNL A   1      44.446  34.040  32.982  1.00  0.00     0.001 A 
ATOM     80  C   UNL A   1      45.163  34.650  30.756  1.00  0.00     0.001 A 
ATOM     81  C   UNL A   1      44.951  34.989  32.091  1.00  0.00     0.000 A 
ENDBRANCH  63  76
ENDBRANCH  37  38
ENDBRANCH  29  32
ENDBRANCH  27  28
ENDBRANCH  26  27
ENDBRANCH   1  26
TORSDOF 15
ENDMDL
MODEL 3
REMARK VINA RESULT:     -11.0      3.973      8.776
REMARK SMILES CCC(CC)(NC(=O)Nc1cc(Cl)cc(Cl)c1)C(=O)NCCCCNC(=O)c1ccc(-c2c3nc(c(-c4ccccc4)c4ccc([nH]4)c(-c4ccccc4)c4nc(c(-c5ccccc5)c5ccc2[nH]5)C=C4)C=C3)cc1
REMARK SMILES IDX 22 1 21 2 20 3 18 4 19 5 3 7 2 8 1 9 4 10 5 11 6 12 7 13
REMARK SMILES IDX 8 15 9 16 10 18 11 19 17 20 12 21 15 22 13 23 14 24 16 25
REMARK SMILES IDX 23 26 24 27 25 28 26 29 27 31 28 32 29 33 75 34 30 35 74 36
REMARK SMILES IDX 31 37 32 38 33 39 68 40 34 41 73 42 67 43 69 44 35 45 72 46
REMARK SMILES IDX 66 47 65 48 36 50 58 51 43 52 57 53 44 54 47 55 56 56 70 57
REMARK SMILES IDX 45 58 46 59 55 61 71 62 48 63 37 64 38 65 42 66 39 67 41 68
REMARK SMILES IDX 40 69 59 70 60 71 64 72 61 73 63 74 62 75 49 76 50 77 54 78
REMARK SMILES IDX 51 79 53 80 52 81
REMARK H PARENT 20 6 6 14 9 17 25 30 69 49 47 60
REMARK Flexibility Score: inf
ROOT
ATOM      1  C   UNL A   1      31.231  30.393  25.217  1.00  0.00     0.023 C 
ENDROOT
BRANCH   1   2
ATOM      2  C   UNL A   1      32.232  29.357  25.761  1.00  0.00     0.116 C 
BRANCH   2   3
ATOM      3  N   UNL A   1      33.312  29.117  24.814  1.00  0.00    -0.354 N 
ATOM      4  C   UNL A   1      33.236  28.601  23.524  1.00  0.00     0.245 C 
ATOM      5  O   UNL A   1      33.450  29.300  22.538  1.00  0.00    -0.272 OA
ATOM      6  H   UNL A   1      34.214  29.353  25.128  1.00  0.00     0.163 HD
BRANCH   4   7
ATOM      7  C   UNL A   1      32.757  27.124  23.439  1.00  0.00     0.120 C 
BRANCH   7   8
ATOM      8  C   UNL A   1      31.395  26.662  23.994  1.00  0.00     0.035 C 
ATOM      9  C   UNL A   1      30.134  27.256  23.409  1.00  0.00     0.007 C 
ENDBRANCH   7   8
BRANCH   7  10
ATOM     10  C   UNL A   1      33.941  26.475  24.263  1.00  0.00     0.035 C 
ATOM     11  C   UNL A   1      33.725  25.872  25.635  1.00  0.00     0.007 C 
ENDBRANCH   7  10
BRANCH   7  12
ATOM     12  N   UNL A   1      32.719  26.795  21.989  1.00  0.00    -0.323 N 
ATOM     13  C   UNL A   1      32.820  25.647  21.286  1.00  0.00     0.320 C 
ATOM     14  H   UNL A   1      32.593  27.587  21.417  1.00  0.00     0.166 HD
ATOM     15  O   UNL A   1      32.941  25.772  20.061  1.00  0.00    -0.248 OA
ATOM     16  N   UNL A   1      32.742  24.371  21.744  1.00  0.00    -0.308 N 
ATOM     17  H   UNL A   1      32.603  23.744  20.998  1.00  0.00     0.171 HD
BRANCH  16  18
ATOM     18  C   UNL A   1      32.801  23.673  22.975  1.00  0.00     0.045 A 
ATOM     19  C   UNL A   1      31.697  23.403  23.792  1.00  0.00     0.046 A 
ATOM     20  C   UNL A   1      33.961  22.942  23.241  1.00  0.00     0.046 A 
ATOM     21  C   UNL A   1      31.822  22.676  24.982  1.00  0.00     0.044 A 
ATOM     22  C   UNL A   1      34.067  22.154  24.398  1.00  0.00     0.044 A 
ATOM     23  Cl  UNL A   1      30.462  22.506  26.028  1.00  0.00    -0.084 Cl
ATOM     24  C   UNL A   1      33.019  22.064  25.305  1.00  0.00     0.041 A 
ATOM     25  Cl  UNL A   1      35.505  21.253  24.683  1.00  0.00    -0.084 Cl
ENDBRANCH  16  18
ENDBRANCH   7  12
ENDBRANCH   4   7
ENDBRANCH   2   3
ENDBRANCH   1   2
BRANCH   1  26
ATOM     26  C   UNL A   1      31.047  31.661  26.060  1.00  0.00     0.023 C 
BRANCH  26  27
ATOM     27  C   UNL A   1      32.260  32.051  26.892  1.00  0.00     0.116 C 
BRANCH  27  28
ATOM     28  N   UNL A   1      32.209  33.451  27.270  1.00  0.00    -0.352 N 
ATOM     29  C   UNL A   1      32.986  34.159  28.147  1.00  0.00     0.251 C 
ATOM     30  H   UNL A   1      31.505  33.975  26.825  1.00  0.00     0.163 HD
ATOM     31  O   UNL A   1      32.626  35.275  28.507  1.00  0.00    -0.269 OA
BRANCH  29  32
ATOM     32  C   UNL A   1      34.247  33.589  28.670  1.00  0.00     0.039 A 
ATOM     33  C   UNL A   1      35.425  33.813  27.951  1.00  0.00     0.014 A 
ATOM     34  C   UNL A   1      34.273  32.791  29.818  1.00  0.00     0.014 A 
ATOM     35  C   UNL A   1      36.630  33.274  28.403  1.00  0.00     0.010 A 
ATOM     36  C   UNL A   1      35.488  32.317  30.310  1.00  0.00     0.010 A 
ATOM     37  C   UNL A   1      36.676  32.542  29.601  1.00  0.00    -0.014 A 
BRANCH  37  38
ATOM     38  C   UNL A   1      37.959  32.003  30.117  1.00  0.00     0.031 A 
ATOM     39  C   UNL A   1      38.516  30.714  29.579  1.00  0.00     0.074 A 
ATOM     40  C   UNL A   1      38.603  32.653  31.106  1.00  0.00     0.049 A 
ATOM     41  N   UNL A   1      39.600  30.069  29.936  1.00  0.00    -0.248 NA
ATOM     42  C   UNL A   1      37.747  30.050  28.514  1.00  0.00     0.031 C 
ATOM     43  C   UNL A   1      38.157  33.898  31.735  1.00  0.00     0.029 A 
ATOM     44  N   UNL A   1      39.771  32.351  31.761  1.00  0.00    -0.354 N 
ATOM     45  C   UNL A   1      39.631  28.920  29.155  1.00  0.00     0.074 A 
ATOM     46  C   UNL A   1      38.438  28.932  28.337  1.00  0.00     0.031 C 
ATOM     47  C   UNL A   1      39.055  34.270  32.661  1.00  0.00     0.029 A 
ATOM     48  C   UNL A   1      40.114  33.268  32.725  1.00  0.00     0.049 A 
ATOM     49  H   UNL A   1      40.313  31.555  31.558  1.00  0.00     0.167 HD
ATOM     50  C   UNL A   1      40.575  27.951  29.110  1.00  0.00     0.031 A 
ATOM     51  C   UNL A   1      41.159  33.295  33.575  1.00  0.00     0.031 A 
ATOM     52  C   UNL A   1      41.767  27.940  29.918  1.00  0.00     0.049 A 
ATOM     53  C   UNL A   1      42.177  32.190  33.524  1.00  0.00     0.074 A 
ATOM     54  C   UNL A   1      42.809  27.030  29.905  1.00  0.00     0.029 A 
ATOM     55  N   UNL A   1      42.070  28.882  30.890  1.00  0.00    -0.354 N 
ATOM     56  N   UNL A   1      42.226  31.146  32.733  1.00  0.00    -0.248 NA
ATOM     57  C   UNL A   1      43.289  32.274  34.482  1.00  0.00     0.031 C 
ATOM     58  C   UNL A   1      43.715  27.387  30.908  1.00  0.00     0.029 A 
ATOM     59  C   UNL A   1      43.269  28.557  31.503  1.00  0.00     0.049 A 
ATOM     60  H   UNL A   1      41.517  29.665  31.110  1.00  0.00     0.167 HD
ATOM     61  C   UNL A   1      43.388  30.468  33.075  1.00  0.00     0.074 A 
ATOM     62  C   UNL A   1      44.022  31.226  34.133  1.00  0.00     0.031 C 
ATOM     63  C   UNL A   1      43.888  29.319  32.556  1.00  0.00     0.031 A 
BRANCH  50  64
ATOM     64  C   UNL A   1      40.351  26.805  28.162  1.00  0.00    -0.014 A 
ATOM     65  C   UNL A   1      40.883  26.816  26.863  1.00  0.00     0.009 A 
ATOM     66  C   UNL A   1      39.630  25.677  28.589  1.00  0.00     0.009 A 
ATOM     67  C   UNL A   1      40.668  25.739  25.999  1.00  0.00     0.001 A 
ATOM     68  C   UNL A   1      39.443  24.588  27.735  1.00  0.00     0.001 A 
ATOM     69  C   UNL A   1      39.953  24.624  26.438  1.00  0.00     0.000 A 
ENDBRANCH  50  64
BRANCH  51  70
ATOM     70  C   UNL A   1      41.304  34.415  34.542  1.00  0.00    -0.014 A 
ATOM     71  C   UNL A   1      40.714  34.337  35.812  1.00  0.00     0.009 A 
ATOM     72  C   UNL A   1      42.020  35.571  34.195  1.00  0.00     0.009 A 
ATOM     73  C   UNL A   1      40.814  35.406  36.706  1.00  0.00     0.001 A 
ATOM     74  C   UNL A   1      42.145  36.625  35.103  1.00  0.00     0.001 A 
ATOM     75  C   UNL A   1      41.532  36.546  36.352  1.00  0.00     0.000 A 
ENDBRANCH  51  70
BRANCH  63  76
ATOM     76  C   UNL A   1      45.203  28.834  33.098  1.00  0.00    -0.014 A 
ATOM     77  C   UNL A   1      46.420  29.195  32.500  1.00  0.00     0.009 A 
ATOM     78  C   UNL A   1      45.224  28.031  34.251  1.00  0.00     0.009 A 
ATOM     79  C   UNL A   1      47.629  28.733  33.024  1.00  0.00     0.001 A 
ATOM     80  C   UNL A   1      46.435  27.597  34.791  1.00  0.00     0.001 A 
ATOM     81  C   UNL A   1      47.636  27.940  34.173  1.00  0.00     0.000 A 
ENDBRANCH  63  76
ENDBRANCH  37  38
ENDBRANCH  29  32
ENDBRANCH  27  28
ENDBRANCH  26  27
ENDBRANCH   1  26
TORSDOF 15
ENDMDL
