MODEL 1
REMARK VINA RESULT:     -10.6      0.000      0.000
REMARK SMILES CC(C)NC(=O)CNC(=O)N1CCO[C@@H](CC(=O)NCCCCNC(=O)c2ccc(-c3c4nc(c(-c5ccccc5)c5ccc([nH]5)c(-c5ccccc5)c5nc(c(-c6ccccc6)c6ccc3[nH]6)C=C5)C=C4)cc2)C1
REMARK SMILES IDX 20 1 19 2 17 3 18 4 16 6 15 7 11 8 12 9 75 10 13 11 14 12
REMARK SMILES IDX 9 13 8 14 10 16 7 17 5 18 4 19 6 21 2 22 1 23 3 24 21 25
REMARK SMILES IDX 22 26 23 27 24 28 25 29 26 31 27 32 28 33 74 34 29 35 73 36
REMARK SMILES IDX 30 37 31 38 32 39 67 40 33 41 72 42 66 43 68 44 34 45 71 46
REMARK SMILES IDX 65 47 64 48 35 50 57 51 42 52 56 53 43 54 46 55 55 56 69 57
REMARK SMILES IDX 44 58 45 59 54 61 70 62 47 63 36 64 37 65 41 66 38 67 40 68
REMARK SMILES IDX 39 69 58 70 59 71 63 72 60 73 62 74 61 75 48 76 49 77 53 78
REMARK SMILES IDX 50 79 52 80 51 81
REMARK H PARENT 19 5 8 15 4 20 24 30 68 49 46 60
REMARK Flexibility Score: inf
ROOT
ATOM      1  C   UNL A   1      37.594  23.324  25.681  1.00  0.00     0.116 C 
ENDROOT
BRANCH   1   2
ATOM      2  N   UNL A   1      36.473  23.004  26.550  1.00  0.00    -0.356 N 
ATOM      3  C   UNL A   1      35.147  22.844  26.270  1.00  0.00     0.222 C 
ATOM      4  O   UNL A   1      34.364  22.766  27.218  1.00  0.00    -0.275 OA
ATOM      5  H   UNL A   1      36.709  22.880  27.498  1.00  0.00     0.163 HD
BRANCH   3   6
ATOM      6  C   UNL A   1      34.641  22.782  24.839  1.00  0.00     0.133 C 
BRANCH   6   7
ATOM      7  C   UNL A   1      33.455  23.721  24.593  1.00  0.00     0.147 C 
ATOM      8  N   UNL A   1      32.243  24.894  22.748  1.00  0.00    -0.320 N 
ATOM      9  C   UNL A   1      31.001  24.261  23.176  1.00  0.00     0.150 C 
ATOM     10  C   UNL A   1      33.430  24.167  23.132  1.00  0.00     0.154 C 
ATOM     11  C   UNL A   1      31.087  23.887  24.659  1.00  0.00     0.182 C 
ATOM     12  O   UNL A   1      32.226  23.039  24.915  1.00  0.00    -0.374 OA
BRANCH   8  13
ATOM     13  C   UNL A   1      32.327  25.666  21.615  1.00  0.00     0.318 C 
ATOM     14  N   UNL A   1      31.472  26.710  21.502  1.00  0.00    -0.329 N 
ATOM     15  H   UNL A   1      31.392  27.106  20.604  1.00  0.00     0.165 HD
ATOM     16  O   UNL A   1      33.225  25.541  20.786  1.00  0.00    -0.249 OA
BRANCH  14  17
ATOM     17  C   UNL A   1      30.661  27.319  22.543  1.00  0.00     0.217 C 
BRANCH  17  18
ATOM     18  C   UNL A   1      30.636  28.853  22.532  1.00  0.00     0.239 C 
ATOM     19  N   UNL A   1      31.242  29.590  23.507  1.00  0.00    -0.352 N 
ATOM     20  H   UNL A   1      31.094  30.561  23.439  1.00  0.00     0.163 HD
ATOM     21  O   UNL A   1      29.972  29.459  21.686  1.00  0.00    -0.273 OA
BRANCH  19  22
ATOM     22  C   UNL A   1      32.072  29.180  24.630  1.00  0.00     0.075 C 
ATOM     23  C   UNL A   1      33.508  28.959  24.166  1.00  0.00     0.030 C 
ATOM     24  C   UNL A   1      32.007  30.197  25.764  1.00  0.00     0.030 C 
ENDBRANCH  19  22
ENDBRANCH  17  18
ENDBRANCH  14  17
ENDBRANCH   8  13
ENDBRANCH   6   7
ENDBRANCH   3   6
ENDBRANCH   1   2
BRANCH   1  25
ATOM     25  C   UNL A   1      38.826  22.494  26.061  1.00  0.00     0.023 C 
BRANCH  25  26
ATOM     26  C   UNL A   1      38.925  21.116  25.441  1.00  0.00     0.023 C 
BRANCH  26  27
ATOM     27  C   UNL A   1      39.403  20.043  26.391  1.00  0.00     0.116 C 
BRANCH  27  28
ATOM     28  N   UNL A   1      40.544  19.279  25.908  1.00  0.00    -0.352 N 
ATOM     29  C   UNL A   1      41.873  19.641  25.911  1.00  0.00     0.251 C 
ATOM     30  H   UNL A   1      40.340  18.392  25.533  1.00  0.00     0.163 HD
ATOM     31  O   UNL A   1      42.729  18.916  25.426  1.00  0.00    -0.269 OA
BRANCH  29  32
ATOM     32  C   UNL A   1      42.240  20.960  26.469  1.00  0.00     0.039 A 
ATOM     33  C   UNL A   1      42.536  22.007  25.593  1.00  0.00     0.014 A 
ATOM     34  C   UNL A   1      42.196  21.178  27.845  1.00  0.00     0.014 A 
ATOM     35  C   UNL A   1      42.728  23.291  26.104  1.00  0.00     0.010 A 
ATOM     36  C   UNL A   1      42.250  22.473  28.335  1.00  0.00     0.010 A 
ATOM     37  C   UNL A   1      42.555  23.537  27.475  1.00  0.00    -0.014 A 
BRANCH  37  38
ATOM     38  C   UNL A   1      42.775  24.881  28.060  1.00  0.00     0.031 A 
ATOM     39  C   UNL A   1      44.165  25.269  28.493  1.00  0.00     0.074 A 
ATOM     40  C   UNL A   1      41.739  25.717  28.258  1.00  0.00     0.049 A 
ATOM     41  N   UNL A   1      44.571  26.353  29.102  1.00  0.00    -0.248 NA
ATOM     42  C   UNL A   1      45.235  24.283  28.254  1.00  0.00     0.031 C 
ATOM     43  C   UNL A   1      40.338  25.437  27.932  1.00  0.00     0.029 A 
ATOM     44  N   UNL A   1      41.709  26.984  28.784  1.00  0.00    -0.354 N 
ATOM     45  C   UNL A   1      45.924  26.158  29.347  1.00  0.00     0.074 A 
ATOM     46  C   UNL A   1      46.257  24.829  28.891  1.00  0.00     0.031 C 
ATOM     47  C   UNL A   1      39.594  26.518  28.224  1.00  0.00     0.029 A 
ATOM     48  C   UNL A   1      40.457  27.550  28.788  1.00  0.00     0.049 A 
ATOM     49  H   UNL A   1      42.509  27.444  29.126  1.00  0.00     0.167 HD
ATOM     50  C   UNL A   1      46.826  27.022  29.867  1.00  0.00     0.031 A 
ATOM     51  C   UNL A   1      40.059  28.770  29.193  1.00  0.00     0.031 A 
ATOM     52  C   UNL A   1      46.505  28.363  30.267  1.00  0.00     0.049 A 
ATOM     53  C   UNL A   1      41.086  29.732  29.725  1.00  0.00     0.074 A 
ATOM     54  C   UNL A   1      47.350  29.346  30.748  1.00  0.00     0.029 A 
ATOM     55  N   UNL A   1      45.233  28.912  30.210  1.00  0.00    -0.354 N 
ATOM     56  N   UNL A   1      42.374  29.554  29.897  1.00  0.00    -0.248 NA
ATOM     57  C   UNL A   1      40.607  31.069  30.101  1.00  0.00     0.031 C 
ATOM     58  C   UNL A   1      46.581  30.484  31.013  1.00  0.00     0.029 A 
ATOM     59  C   UNL A   1      45.269  30.222  30.649  1.00  0.00     0.049 A 
ATOM     60  H   UNL A   1      44.426  28.440  29.904  1.00  0.00     0.167 HD
ATOM     61  C   UNL A   1      42.865  30.768  30.362  1.00  0.00     0.074 A 
ATOM     62  C   UNL A   1      41.737  31.675  30.436  1.00  0.00     0.031 C 
ATOM     63  C   UNL A   1      44.134  31.106  30.697  1.00  0.00     0.031 A 
BRANCH  50  64
ATOM     64  C   UNL A   1      48.241  26.537  30.011  1.00  0.00    -0.014 A 
ATOM     65  C   UNL A   1      48.674  25.898  31.185  1.00  0.00     0.009 A 
ATOM     66  C   UNL A   1      49.154  26.720  28.963  1.00  0.00     0.009 A 
ATOM     67  C   UNL A   1      50.003  25.493  31.323  1.00  0.00     0.001 A 
ATOM     68  C   UNL A   1      50.475  26.286  29.091  1.00  0.00     0.001 A 
ATOM     69  C   UNL A   1      50.901  25.684  30.274  1.00  0.00     0.000 A 
ENDBRANCH  50  64
BRANCH  51  70
ATOM     70  C   UNL A   1      38.635  29.176  29.061  1.00  0.00    -0.014 A 
ATOM     71  C   UNL A   1      38.155  29.693  27.848  1.00  0.00     0.009 A 
ATOM     72  C   UNL A   1      37.754  29.065  30.146  1.00  0.00     0.009 A 
ATOM     73  C   UNL A   1      36.829  30.120  27.733  1.00  0.00     0.001 A 
ATOM     74  C   UNL A   1      36.421  29.467  30.021  1.00  0.00     0.001 A 
ATOM     75  C   UNL A   1      35.964  30.004  28.819  1.00  0.00     0.000 A 
ENDBRANCH  51  70
BRANCH  63  76
ATOM     76  C   UNL A   1      44.377  32.527  31.116  1.00  0.00    -0.014 A 
ATOM     77  C   UNL A   1      44.677  33.524  30.177  1.00  0.00     0.009 A 
ATOM     78  C   UNL A   1      44.258  32.874  32.470  1.00  0.00     0.009 A 
ATOM     79  C   UNL A   1      44.888  34.840  30.594  1.00  0.00     0.001 A 
ATOM     80  C   UNL A   1      44.441  34.194  32.879  1.00  0.00     0.001 A 
ATOM     81  C   UNL A   1      44.766  35.174  31.943  1.00  0.00     0.000 A 
ENDBRANCH  63  76
ENDBRANCH  37  38
ENDBRANCH  29  32
ENDBRANCH  27  28
ENDBRANCH  26  27
ENDBRANCH  25  26
ENDBRANCH   1  25
TORSDOF 16
ENDMDL
MODEL 2
REMARK VINA RESULT:     -10.4      1.198      6.039
REMARK SMILES CC(C)NC(=O)CNC(=O)N1CCO[C@@H](CC(=O)NCCCCNC(=O)c2ccc(-c3c4nc(c(-c5ccccc5)c5ccc([nH]5)c(-c5ccccc5)c5nc(c(-c6ccccc6)c6ccc3[nH]6)C=C5)C=C4)cc2)C1
REMARK SMILES IDX 20 1 19 2 17 3 18 4 16 6 15 7 11 8 12 9 75 10 13 11 14 12
REMARK SMILES IDX 9 13 8 14 10 16 7 17 5 18 4 19 6 21 2 22 1 23 3 24 21 25
REMARK SMILES IDX 22 26 23 27 24 28 25 29 26 31 27 32 28 33 74 34 29 35 73 36
REMARK SMILES IDX 30 37 31 38 32 39 67 40 33 41 72 42 66 43 68 44 34 45 71 46
REMARK SMILES IDX 65 47 64 48 35 50 57 51 42 52 56 53 43 54 46 55 55 56 69 57
REMARK SMILES IDX 44 58 45 59 54 61 70 62 47 63 36 64 37 65 41 66 38 67 40 68
REMARK SMILES IDX 39 69 58 70 59 71 63 72 60 73 62 74 61 75 48 76 49 77 53 78
REMARK SMILES IDX 50 79 52 80 51 81
REMARK H PARENT 19 5 8 15 4 20 24 30 68 49 46 60
REMARK Flexibility Score: inf
ROOT
ATOM      1  C   UNL A   1      35.477  21.285  25.459  1.00  0.00     0.116 C 
ENDROOT
BRANCH   1   2
ATOM      2  N   UNL A   1      34.241  20.538  25.626  1.00  0.00    -0.356 N 
ATOM      3  C   UNL A   1      33.095  20.537  24.886  1.00  0.00     0.222 C 
ATOM      4  O   UNL A   1      32.111  19.958  25.349  1.00  0.00    -0.275 OA
ATOM      5  H   UNL A   1      34.229  19.931  26.401  1.00  0.00     0.163 HD
BRANCH   3   6
ATOM      6  C   UNL A   1      33.018  21.242  23.543  1.00  0.00     0.133 C 
BRANCH   6   7
ATOM      7  C   UNL A   1      32.687  22.732  23.678  1.00  0.00     0.147 C 
ATOM      8  N   UNL A   1      32.367  24.795  22.302  1.00  0.00    -0.320 N 
ATOM      9  C   UNL A   1      31.042  24.966  22.884  1.00  0.00     0.150 C 
ATOM     10  C   UNL A   1      32.845  23.432  22.330  1.00  0.00     0.154 C 
ATOM     11  C   UNL A   1      30.978  24.278  24.252  1.00  0.00     0.182 C 
ATOM     12  O   UNL A   1      31.332  22.883  24.149  1.00  0.00    -0.374 OA
BRANCH   8  13
ATOM     13  C   UNL A   1      32.841  25.598  21.294  1.00  0.00     0.318 C 
ATOM     14  N   UNL A   1      33.220  26.857  21.619  1.00  0.00    -0.329 N 
ATOM     15  H   UNL A   1      33.338  27.480  20.866  1.00  0.00     0.165 HD
ATOM     16  O   UNL A   1      33.070  25.183  20.160  1.00  0.00    -0.249 OA
BRANCH  14  17
ATOM     17  C   UNL A   1      33.474  27.400  22.942  1.00  0.00     0.217 C 
BRANCH  17  18
ATOM     18  C   UNL A   1      32.389  28.346  23.475  1.00  0.00     0.239 C 
ATOM     19  N   UNL A   1      31.986  28.320  24.778  1.00  0.00    -0.352 N 
ATOM     20  H   UNL A   1      31.232  28.917  24.986  1.00  0.00     0.163 HD
ATOM     21  O   UNL A   1      31.779  29.091  22.702  1.00  0.00    -0.273 OA
BRANCH  19  22
ATOM     22  C   UNL A   1      32.488  27.557  25.911  1.00  0.00     0.075 C 
ATOM     23  C   UNL A   1      33.498  28.388  26.695  1.00  0.00     0.030 C 
ATOM     24  C   UNL A   1      31.347  27.084  26.805  1.00  0.00     0.030 C 
ENDBRANCH  19  22
ENDBRANCH  17  18
ENDBRANCH  14  17
ENDBRANCH   8  13
ENDBRANCH   6   7
ENDBRANCH   3   6
ENDBRANCH   1   2
BRANCH   1  25
ATOM     25  C   UNL A   1      36.605  20.363  24.980  1.00  0.00     0.023 C 
BRANCH  25  26
ATOM     26  C   UNL A   1      37.972  20.998  24.826  1.00  0.00     0.023 C 
BRANCH  26  27
ATOM     27  C   UNL A   1      38.897  20.766  25.999  1.00  0.00     0.116 C 
BRANCH  27  28
ATOM     28  N   UNL A   1      39.904  19.740  25.774  1.00  0.00    -0.352 N 
ATOM     29  C   UNL A   1      41.261  19.814  26.004  1.00  0.00     0.251 C 
ATOM     30  H   UNL A   1      39.574  18.885  25.414  1.00  0.00     0.163 HD
ATOM     31  O   UNL A   1      42.003  18.886  25.723  1.00  0.00    -0.269 OA
BRANCH  29  32
ATOM     32  C   UNL A   1      41.812  21.073  26.550  1.00  0.00     0.039 A 
ATOM     33  C   UNL A   1      42.102  22.121  25.675  1.00  0.00     0.014 A 
ATOM     34  C   UNL A   1      41.947  21.241  27.928  1.00  0.00     0.014 A 
ATOM     35  C   UNL A   1      42.471  23.362  26.195  1.00  0.00     0.010 A 
ATOM     36  C   UNL A   1      42.179  22.506  28.443  1.00  0.00     0.010 A 
ATOM     37  C   UNL A   1      42.482  23.571  27.583  1.00  0.00    -0.014 A 
BRANCH  37  38
ATOM     38  C   UNL A   1      42.893  24.866  28.174  1.00  0.00     0.031 A 
ATOM     39  C   UNL A   1      41.841  25.912  28.442  1.00  0.00     0.074 A 
ATOM     40  C   UNL A   1      44.192  25.126  28.410  1.00  0.00     0.049 A 
ATOM     41  N   UNL A   1      41.984  27.138  28.874  1.00  0.00    -0.248 NA
ATOM     42  C   UNL A   1      40.447  25.545  28.137  1.00  0.00     0.031 C 
ATOM     43  C   UNL A   1      45.310  24.218  28.142  1.00  0.00     0.029 A 
ATOM     44  N   UNL A   1      44.792  26.243  28.934  1.00  0.00    -0.354 N 
ATOM     45  C   UNL A   1      40.709  27.690  28.854  1.00  0.00     0.074 A 
ATOM     46  C   UNL A   1      39.819  26.697  28.300  1.00  0.00     0.031 C 
ATOM     47  C   UNL A   1      46.454  24.797  28.545  1.00  0.00     0.029 A 
ATOM     48  C   UNL A   1      46.154  26.127  29.067  1.00  0.00     0.049 A 
ATOM     49  H   UNL A   1      44.293  27.052  29.192  1.00  0.00     0.167 HD
ATOM     50  C   UNL A   1      40.302  28.903  29.295  1.00  0.00     0.031 A 
ATOM     51  C   UNL A   1      47.054  26.995  29.565  1.00  0.00     0.031 A 
ATOM     52  C   UNL A   1      41.180  29.867  29.896  1.00  0.00     0.049 A 
ATOM     53  C   UNL A   1      46.574  28.319  30.092  1.00  0.00     0.074 A 
ATOM     54  C   UNL A   1      40.867  31.101  30.436  1.00  0.00     0.029 A 
ATOM     55  N   UNL A   1      42.546  29.689  30.054  1.00  0.00    -0.354 N 
ATOM     56  N   UNL A   1      45.356  28.805  30.120  1.00  0.00    -0.248 NA
ATOM     57  C   UNL A   1      47.591  29.206  30.675  1.00  0.00     0.031 C 
ATOM     58  C   UNL A   1      42.052  31.685  30.894  1.00  0.00     0.029 A 
ATOM     59  C   UNL A   1      43.092  30.792  30.683  1.00  0.00     0.049 A 
ATOM     60  H   UNL A   1      43.050  28.896  29.762  1.00  0.00     0.167 HD
ATOM     61  C   UNL A   1      45.454  30.036  30.759  1.00  0.00     0.074 A 
ATOM     62  C   UNL A   1      46.849  30.215  31.108  1.00  0.00     0.031 C 
ATOM     63  C   UNL A   1      44.480  30.937  31.033  1.00  0.00     0.031 A 
BRANCH  50  64
ATOM     64  C   UNL A   1      38.844  29.233  29.152  1.00  0.00    -0.014 A 
ATOM     65  C   UNL A   1      37.954  29.082  30.229  1.00  0.00     0.009 A 
ATOM     66  C   UNL A   1      38.350  29.702  27.926  1.00  0.00     0.009 A 
ATOM     67  C   UNL A   1      36.594  29.350  30.068  1.00  0.00     0.001 A 
ATOM     68  C   UNL A   1      36.993  29.999  27.776  1.00  0.00     0.001 A 
ATOM     69  C   UNL A   1      36.115  29.811  28.843  1.00  0.00     0.000 A 
ENDBRANCH  50  64
BRANCH  51  70
ATOM     70  C   UNL A   1      48.492  26.623  29.641  1.00  0.00    -0.014 A 
ATOM     71  C   UNL A   1      49.370  26.970  28.603  1.00  0.00     0.009 A 
ATOM     72  C   UNL A   1      48.991  25.909  30.741  1.00  0.00     0.009 A 
ATOM     73  C   UNL A   1      50.712  26.582  28.648  1.00  0.00     0.001 A 
ATOM     74  C   UNL A   1      50.339  25.546  30.797  1.00  0.00     0.001 A 
ATOM     75  C   UNL A   1      51.195  25.873  29.746  1.00  0.00     0.000 A 
ENDBRANCH  51  70
BRANCH  63  76
ATOM     76  C   UNL A   1      44.879  32.166  31.796  1.00  0.00    -0.014 A 
ATOM     77  C   UNL A   1      45.271  33.341  31.137  1.00  0.00     0.009 A 
ATOM     78  C   UNL A   1      44.816  32.156  33.198  1.00  0.00     0.009 A 
ATOM     79  C   UNL A   1      45.627  34.473  31.872  1.00  0.00     0.001 A 
ATOM     80  C   UNL A   1      45.145  33.298  33.928  1.00  0.00     0.001 A 
ATOM     81  C   UNL A   1      45.559  34.451  33.265  1.00  0.00     0.000 A 
ENDBRANCH  63  76
ENDBRANCH  37  38
ENDBRANCH  29  32
ENDBRANCH  27  28
ENDBRANCH  26  27
ENDBRANCH  25  26
ENDBRANCH   1  25
TORSDOF 16
ENDMDL
MODEL 3
REMARK VINA RESULT:     -10.4      3.118      8.836
REMARK SMILES CC(C)NC(=O)CNC(=O)N1CCO[C@@H](CC(=O)NCCCCNC(=O)c2ccc(-c3c4nc(c(-c5ccccc5)c5ccc([nH]5)c(-c5ccccc5)c5nc(c(-c6ccccc6)c6ccc3[nH]6)C=C5)C=C4)cc2)C1
REMARK SMILES IDX 20 1 19 2 17 3 18 4 16 6 15 7 11 8 12 9 75 10 13 11 14 12
REMARK SMILES IDX 9 13 8 14 10 16 7 17 5 18 4 19 6 21 2 22 1 23 3 24 21 25
REMARK SMILES IDX 22 26 23 27 24 28 25 29 26 31 27 32 28 33 74 34 29 35 73 36
REMARK SMILES IDX 30 37 31 38 32 39 67 40 33 41 72 42 66 43 68 44 34 45 71 46
REMARK SMILES IDX 65 47 64 48 35 50 57 51 42 52 56 53 43 54 46 55 55 56 69 57
REMARK SMILES IDX 44 58 45 59 54 61 70 62 47 63 36 64 37 65 41 66 38 67 40 68
REMARK SMILES IDX 39 69 58 70 59 71 63 72 60 73 62 74 61 75 48 76 49 77 53 78
REMARK SMILES IDX 50 79 52 80 51 81
REMARK H PARENT 19 5 8 15 4 20 24 30 68 49 46 60
REMARK Flexibility Score: inf
ROOT
ATOM      1  C   UNL A   1      33.149  29.765  26.116  1.00  0.00     0.116 C 
ENDROOT
BRANCH   1   2
ATOM      2  N   UNL A   1      33.310  29.678  24.674  1.00  0.00    -0.356 N 
ATOM      3  C   UNL A   1      33.613  28.615  23.874  1.00  0.00     0.222 C 
ATOM      4  O   UNL A   1      33.886  28.841  22.694  1.00  0.00    -0.275 OA
ATOM      5  H   UNL A   1      33.178  30.528  24.193  1.00  0.00     0.163 HD
BRANCH   3   6
ATOM      6  C   UNL A   1      33.633  27.196  24.416  1.00  0.00     0.133 C 
BRANCH   6   7
ATOM      7  C   UNL A   1      32.301  26.467  24.210  1.00  0.00     0.147 C 
ATOM      8  N   UNL A   1      30.695  24.961  25.393  1.00  0.00    -0.320 N 
ATOM      9  C   UNL A   1      29.627  25.922  25.145  1.00  0.00     0.150 C 
ATOM     10  C   UNL A   1      32.016  25.544  25.393  1.00  0.00     0.154 C 
ATOM     11  C   UNL A   1      29.965  26.776  23.919  1.00  0.00     0.182 C 
ATOM     12  O   UNL A   1      31.239  27.434  24.079  1.00  0.00    -0.374 OA
BRANCH   8  13
ATOM     13  C   UNL A   1      30.513  23.835  26.159  1.00  0.00     0.318 C 
ATOM     14  N   UNL A   1      30.906  22.650  25.635  1.00  0.00    -0.329 N 
ATOM     15  H   UNL A   1      30.567  21.845  26.090  1.00  0.00     0.165 HD
ATOM     16  O   UNL A   1      30.154  23.876  27.334  1.00  0.00    -0.249 OA
BRANCH  14  17
ATOM     17  C   UNL A   1      31.764  22.420  24.486  1.00  0.00     0.217 C 
BRANCH  17  18
ATOM     18  C   UNL A   1      32.653  21.172  24.579  1.00  0.00     0.239 C 
ATOM     19  N   UNL A   1      34.011  21.245  24.466  1.00  0.00    -0.352 N 
ATOM     20  H   UNL A   1      34.469  20.374  24.463  1.00  0.00     0.163 HD
ATOM     21  O   UNL A   1      32.145  20.050  24.658  1.00  0.00    -0.273 OA
BRANCH  19  22
ATOM     22  C   UNL A   1      34.893  22.397  24.349  1.00  0.00     0.075 C 
ATOM     23  C   UNL A   1      34.478  23.255  23.159  1.00  0.00     0.030 C 
ATOM     24  C   UNL A   1      34.912  23.210  25.639  1.00  0.00     0.030 C 
ENDBRANCH  19  22
ENDBRANCH  17  18
ENDBRANCH  14  17
ENDBRANCH   8  13
ENDBRANCH   6   7
ENDBRANCH   3   6
ENDBRANCH   1   2
BRANCH   1  25
ATOM     25  C   UNL A   1      31.744  30.266  26.473  1.00  0.00     0.023 C 
BRANCH  25  26
ATOM     26  C   UNL A   1      31.569  31.767  26.563  1.00  0.00     0.023 C 
BRANCH  26  27
ATOM     27  C   UNL A   1      32.755  32.495  27.153  1.00  0.00     0.116 C 
BRANCH  27  28
ATOM     28  N   UNL A   1      32.440  33.803  27.708  1.00  0.00    -0.352 N 
ATOM     29  C   UNL A   1      33.185  34.553  28.593  1.00  0.00     0.251 C 
ATOM     30  H   UNL A   1      31.590  34.202  27.414  1.00  0.00     0.163 HD
ATOM     31  O   UNL A   1      32.775  35.622  29.018  1.00  0.00    -0.269 OA
BRANCH  29  32
ATOM     32  C   UNL A   1      34.475  34.005  29.064  1.00  0.00     0.039 A 
ATOM     33  C   UNL A   1      34.490  33.181  30.191  1.00  0.00     0.014 A 
ATOM     34  C   UNL A   1      35.643  34.233  28.336  1.00  0.00     0.014 A 
ATOM     35  C   UNL A   1      35.673  32.535  30.548  1.00  0.00     0.010 A 
ATOM     36  C   UNL A   1      36.776  33.487  28.612  1.00  0.00     0.010 A 
ATOM     37  C   UNL A   1      36.816  32.659  29.742  1.00  0.00    -0.014 A 
BRANCH  37  38
ATOM     38  C   UNL A   1      38.098  32.010  30.102  1.00  0.00     0.031 A 
ATOM     39  C   UNL A   1      39.028  32.713  31.057  1.00  0.00     0.074 A 
ATOM     40  C   UNL A   1      38.455  30.841  29.537  1.00  0.00     0.049 A 
ATOM     41  N   UNL A   1      40.230  32.373  31.445  1.00  0.00    -0.248 NA
ATOM     42  C   UNL A   1      38.563  33.997  31.614  1.00  0.00     0.031 C 
ATOM     43  C   UNL A   1      37.667  30.090  28.557  1.00  0.00     0.029 A 
ATOM     44  N   UNL A   1      39.581  30.078  29.712  1.00  0.00    -0.354 N 
ATOM     45  C   UNL A   1      40.670  33.414  32.253  1.00  0.00     0.074 A 
ATOM     46  C   UNL A   1      39.643  34.429  32.243  1.00  0.00     0.031 C 
ATOM     47  C   UNL A   1      38.315  28.952  28.252  1.00  0.00     0.029 A 
ATOM     48  C   UNL A   1      39.575  28.912  28.987  1.00  0.00     0.049 A 
ATOM     49  H   UNL A   1      40.324  30.342  30.302  1.00  0.00     0.167 HD
ATOM     50  C   UNL A   1      41.810  33.504  32.976  1.00  0.00     0.031 A 
ATOM     51  C   UNL A   1      40.482  27.919  28.933  1.00  0.00     0.031 A 
ATOM     52  C   UNL A   1      42.803  32.469  33.029  1.00  0.00     0.049 A 
ATOM     53  C   UNL A   1      41.720  28.019  29.782  1.00  0.00     0.074 A 
ATOM     54  C   UNL A   1      43.966  32.426  33.776  1.00  0.00     0.029 A 
ATOM     55  N   UNL A   1      42.735  31.283  32.316  1.00  0.00    -0.354 N 
ATOM     56  N   UNL A   1      42.096  28.983  30.587  1.00  0.00    -0.248 NA
ATOM     57  C   UNL A   1      42.651  26.882  29.727  1.00  0.00     0.031 C 
ATOM     58  C   UNL A   1      44.618  31.222  33.490  1.00  0.00     0.029 A 
ATOM     59  C   UNL A   1      43.836  30.499  32.603  1.00  0.00     0.049 A 
ATOM     60  H   UNL A   1      42.010  31.036  31.696  1.00  0.00     0.167 HD
ATOM     61  C   UNL A   1      43.284  28.553  31.165  1.00  0.00     0.074 A 
ATOM     62  C   UNL A   1      43.560  27.237  30.624  1.00  0.00     0.031 C 
ATOM     63  C   UNL A   1      44.076  29.187  32.063  1.00  0.00     0.031 A 
BRANCH  50  64
ATOM     64  C   UNL A   1      42.021  34.760  33.774  1.00  0.00    -0.014 A 
ATOM     65  C   UNL A   1      41.511  34.889  35.077  1.00  0.00     0.009 A 
ATOM     66  C   UNL A   1      42.739  35.829  33.218  1.00  0.00     0.009 A 
ATOM     67  C   UNL A   1      41.676  36.079  35.788  1.00  0.00     0.001 A 
ATOM     68  C   UNL A   1      42.931  37.006  33.944  1.00  0.00     0.001 A 
ATOM     69  C   UNL A   1      42.389  37.135  35.222  1.00  0.00     0.000 A 
ENDBRANCH  50  64
BRANCH  51  70
ATOM     70  C   UNL A   1      40.232  26.719  28.092  1.00  0.00    -0.014 A 
ATOM     71  C   UNL A   1      39.465  25.653  28.588  1.00  0.00     0.009 A 
ATOM     72  C   UNL A   1      40.768  26.625  26.799  1.00  0.00     0.009 A 
ATOM     73  C   UNL A   1      39.268  24.503  27.818  1.00  0.00     0.001 A 
ATOM     74  C   UNL A   1      40.546  25.485  26.021  1.00  0.00     0.001 A 
ATOM     75  C   UNL A   1      39.806  24.422  26.536  1.00  0.00     0.000 A 
ENDBRANCH  51  70
BRANCH  63  76
ATOM     76  C   UNL A   1      45.281  28.442  32.560  1.00  0.00    -0.014 A 
ATOM     77  C   UNL A   1      45.209  27.594  33.674  1.00  0.00     0.009 A 
ATOM     78  C   UNL A   1      46.496  28.560  31.867  1.00  0.00     0.009 A 
ATOM     79  C   UNL A   1      46.343  26.905  34.108  1.00  0.00     0.001 A 
ATOM     80  C   UNL A   1      47.619  27.848  32.286  1.00  0.00     0.001 A 
ATOM     81  C   UNL A   1      47.545  27.029  33.411  1.00  0.00     0.000 A 
ENDBRANCH  63  76
ENDBRANCH  37  38
ENDBRANCH  29  32
ENDBRANCH  27  28
ENDBRANCH  26  27
ENDBRANCH  25  26
ENDBRANCH   1  25
TORSDOF 16
ENDMDL
