MODEL 1
REMARK VINA RESULT:     -11.1      0.000      0.000
REMARK SMILES C=Cc1cc(Cl)cc2c1O[C@H](C(F)(F)F)C(C(=O)NCCCCNC(=O)c1ccc(-c3c4nc(c(-c5ccccc5)c5ccc([nH]5)c(-c5ccccc5)c5nc(c(-c6ccccc6)c6ccc3[nH]6)C=C5)C=C4)cc1)=C2
REMARK SMILES IDX 22 1 21 2 20 3 19 4 17 5 18 6 16 8 3 9 4 10 9 11 5 12 8 13
REMARK SMILES IDX 10 14 6 15 7 16 75 17 11 18 2 19 1 20 12 21 13 22 14 23
REMARK SMILES IDX 15 24 23 25 24 26 25 27 26 29 27 30 28 31 74 32 29 33 73 34
REMARK SMILES IDX 30 35 31 36 32 37 67 38 33 39 72 40 66 41 68 42 34 43 71 44
REMARK SMILES IDX 65 45 64 46 35 48 57 49 42 50 56 51 43 52 46 53 55 54 69 55
REMARK SMILES IDX 44 56 45 57 54 59 70 60 47 61 36 62 37 63 41 64 38 65 40 66
REMARK SMILES IDX 39 67 58 68 59 69 63 70 60 71 62 72 61 73 48 74 49 75 53 76
REMARK SMILES IDX 50 77 52 78 51 79
REMARK H PARENT 19 7 24 28 68 47 46 58
REMARK Flexibility Score: inf
ROOT
ATOM      1  C   UNL A   1      33.372  28.462  27.257  1.00  0.00     0.023 C 
ENDROOT
BRANCH   1   2
ATOM      2  C   UNL A   1      31.888  28.383  27.621  1.00  0.00     0.023 C 
BRANCH   2   3
ATOM      3  C   UNL A   1      31.073  27.443  26.737  1.00  0.00     0.116 C 
BRANCH   3   4
ATOM      4  N   UNL A   1      31.461  27.530  25.340  1.00  0.00    -0.352 N 
ATOM      5  C   UNL A   1      32.102  26.745  24.442  1.00  0.00     0.251 C 
ATOM      6  O   UNL A   1      32.220  27.231  23.312  1.00  0.00    -0.270 OA
ATOM      7  H   UNL A   1      31.182  28.385  24.939  1.00  0.00     0.163 HD
BRANCH   5   8
ATOM      8  C   UNL A   1      32.658  25.387  24.722  1.00  0.00     0.067 C 
ATOM      9  C   UNL A   1      34.338  21.674  25.805  1.00  0.00     0.018 A 
ATOM     10  C   UNL A   1      35.730  21.563  25.904  1.00  0.00     0.032 A 
ATOM     11  C   UNL A   1      33.778  22.922  25.480  1.00  0.00     0.135 A 
ATOM     12  C   UNL A   1      36.537  22.684  25.708  1.00  0.00     0.042 A 
ATOM     13  C   UNL A   1      34.588  24.048  25.294  1.00  0.00     0.019 A 
ATOM     14  O   UNL A   1      32.412  23.011  25.415  1.00  0.00    -0.475 OA
ATOM     15  Cl  UNL A   1      38.246  22.534  25.840  1.00  0.00    -0.084 Cl
ATOM     16  C   UNL A   1      35.975  23.926  25.410  1.00  0.00     0.032 A 
ATOM     17  C   UNL A   1      33.969  25.343  25.026  1.00  0.00     0.025 C 
ATOM     18  C   UNL A   1      31.867  24.115  24.644  1.00  0.00     0.314 C 
BRANCH   9  19
ATOM     19  C   UNL A   1      33.476  20.495  25.980  1.00  0.00     0.004 C 
ATOM     20  C   UNL A   1      33.560  19.393  25.225  1.00  0.00     0.009 C 
ENDBRANCH   9  19
BRANCH  18  21
ATOM     21  C   UNL A   1      31.620  23.653  23.197  1.00  0.00     0.429 C 
ATOM     22  F   UNL A   1      31.741  22.305  23.103  1.00  0.00    -0.167 F 
ATOM     23  F   UNL A   1      30.375  23.958  22.761  1.00  0.00    -0.167 F 
ATOM     24  F   UNL A   1      32.490  24.200  22.318  1.00  0.00    -0.167 F 
ENDBRANCH  18  21
ENDBRANCH   5   8
ENDBRANCH   3   4
ENDBRANCH   2   3
ENDBRANCH   1   2
BRANCH   1  25
ATOM     25  C   UNL A   1      33.867  29.838  26.812  1.00  0.00     0.116 C 
BRANCH  25  26
ATOM     26  N   UNL A   1      33.857  30.852  27.859  1.00  0.00    -0.352 N 
ATOM     27  C   UNL A   1      34.833  31.094  28.801  1.00  0.00     0.251 C 
ATOM     28  H   UNL A   1      33.061  31.430  27.897  1.00  0.00     0.163 HD
ATOM     29  O   UNL A   1      34.677  31.943  29.671  1.00  0.00    -0.269 OA
BRANCH  27  30
ATOM     30  C   UNL A   1      36.048  30.257  28.778  1.00  0.00     0.039 A 
ATOM     31  C   UNL A   1      36.408  29.522  29.907  1.00  0.00     0.014 A 
ATOM     32  C   UNL A   1      36.894  30.326  27.669  1.00  0.00     0.014 A 
ATOM     33  C   UNL A   1      37.698  29.018  30.003  1.00  0.00     0.010 A 
ATOM     34  C   UNL A   1      38.164  29.749  27.740  1.00  0.00     0.010 A 
ATOM     35  C   UNL A   1      38.599  29.153  28.933  1.00  0.00    -0.014 A 
BRANCH  35  36
ATOM     36  C   UNL A   1      40.007  28.717  29.112  1.00  0.00     0.031 A 
ATOM     37  C   UNL A   1      40.445  27.345  28.670  1.00  0.00     0.074 A 
ATOM     38  C   UNL A   1      40.912  29.590  29.590  1.00  0.00     0.049 A 
ATOM     39  N   UNL A   1      41.642  26.814  28.702  1.00  0.00    -0.248 NA
ATOM     40  C   UNL A   1      39.412  26.452  28.118  1.00  0.00     0.031 C 
ATOM     41  C   UNL A   1      40.616  30.958  30.020  1.00  0.00     0.029 A 
ATOM     42  N   UNL A   1      42.268  29.472  29.758  1.00  0.00    -0.354 N 
ATOM     43  C   UNL A   1      41.502  25.526  28.200  1.00  0.00     0.074 A 
ATOM     44  C   UNL A   1      40.102  25.343  27.887  1.00  0.00     0.031 C 
ATOM     45  C   UNL A   1      41.764  31.573  30.338  1.00  0.00     0.029 A 
ATOM     46  C   UNL A   1      42.867  30.628  30.194  1.00  0.00     0.049 A 
ATOM     47  H   UNL A   1      42.764  28.640  29.582  1.00  0.00     0.167 HD
ATOM     48  C   UNL A   1      42.455  24.583  28.009  1.00  0.00     0.031 A 
ATOM     49  C   UNL A   1      44.159  30.901  30.453  1.00  0.00     0.031 A 
ATOM     50  C   UNL A   1      43.851  24.768  28.303  1.00  0.00     0.049 A 
ATOM     51  C   UNL A   1      45.192  29.830  30.261  1.00  0.00     0.074 A 
ATOM     52  C   UNL A   1      44.889  23.866  28.146  1.00  0.00     0.029 A 
ATOM     53  N   UNL A   1      44.405  25.935  28.805  1.00  0.00    -0.354 N 
ATOM     54  N   UNL A   1      45.036  28.610  29.807  1.00  0.00    -0.248 NA
ATOM     55  C   UNL A   1      46.576  30.170  30.619  1.00  0.00     0.031 C 
ATOM     56  C   UNL A   1      46.066  24.474  28.589  1.00  0.00     0.029 A 
ATOM     57  C   UNL A   1      45.768  25.771  28.974  1.00  0.00     0.049 A 
ATOM     58  H   UNL A   1      43.903  26.756  29.010  1.00  0.00     0.167 HD
ATOM     59  C   UNL A   1      46.300  28.039  29.819  1.00  0.00     0.074 A 
ATOM     60  C   UNL A   1      47.215  29.050  30.306  1.00  0.00     0.031 C 
ATOM     61  C   UNL A   1      46.666  26.784  29.462  1.00  0.00     0.031 A 
BRANCH  48  62
ATOM     62  C   UNL A   1      42.025  23.249  27.466  1.00  0.00    -0.014 A 
ATOM     63  C   UNL A   1      41.516  22.274  28.339  1.00  0.00     0.009 A 
ATOM     64  C   UNL A   1      42.197  22.926  26.112  1.00  0.00     0.009 A 
ATOM     65  C   UNL A   1      41.196  20.999  27.869  1.00  0.00     0.001 A 
ATOM     66  C   UNL A   1      41.854  21.658  25.640  1.00  0.00     0.001 A 
ATOM     67  C   UNL A   1      41.362  20.694  26.519  1.00  0.00     0.000 A 
ENDBRANCH  48  62
BRANCH  49  68
ATOM     68  C   UNL A   1      44.533  32.261  30.915  1.00  0.00    -0.014 A 
ATOM     69  C   UNL A   1      44.908  33.249  29.989  1.00  0.00     0.009 A 
ATOM     70  C   UNL A   1      44.576  32.561  32.284  1.00  0.00     0.009 A 
ATOM     71  C   UNL A   1      45.345  34.500  30.425  1.00  0.00     0.001 A 
ATOM     72  C   UNL A   1      44.988  33.824  32.716  1.00  0.00     0.001 A 
ATOM     73  C   UNL A   1      45.381  34.787  31.789  1.00  0.00     0.000 A 
ENDBRANCH  49  68
BRANCH  61  74
ATOM     74  C   UNL A   1      48.119  26.426  29.570  1.00  0.00    -0.014 A 
ATOM     75  C   UNL A   1      48.968  26.619  28.469  1.00  0.00     0.009 A 
ATOM     76  C   UNL A   1      48.627  25.814  30.725  1.00  0.00     0.009 A 
ATOM     77  C   UNL A   1      50.297  26.198  28.519  1.00  0.00     0.001 A 
ATOM     78  C   UNL A   1      49.963  25.414  30.781  1.00  0.00     0.001 A 
ATOM     79  C   UNL A   1      50.794  25.599  29.676  1.00  0.00     0.000 A 
ENDBRANCH  61  74
ENDBRANCH  35  36
ENDBRANCH  27  30
ENDBRANCH  25  26
ENDBRANCH   1  25
TORSDOF 13
ENDMDL
MODEL 2
REMARK VINA RESULT:     -11.1      2.250      7.452
REMARK SMILES C=Cc1cc(Cl)cc2c1O[C@H](C(F)(F)F)C(C(=O)NCCCCNC(=O)c1ccc(-c3c4nc(c(-c5ccccc5)c5ccc([nH]5)c(-c5ccccc5)c5nc(c(-c6ccccc6)c6ccc3[nH]6)C=C5)C=C4)cc1)=C2
REMARK SMILES IDX 22 1 21 2 20 3 19 4 17 5 18 6 16 8 3 9 4 10 9 11 5 12 8 13
REMARK SMILES IDX 10 14 6 15 7 16 75 17 11 18 2 19 1 20 12 21 13 22 14 23
REMARK SMILES IDX 15 24 23 25 24 26 25 27 26 29 27 30 28 31 74 32 29 33 73 34
REMARK SMILES IDX 30 35 31 36 32 37 67 38 33 39 72 40 66 41 68 42 34 43 71 44
REMARK SMILES IDX 65 45 64 46 35 48 57 49 42 50 56 51 43 52 46 53 55 54 69 55
REMARK SMILES IDX 44 56 45 57 54 59 70 60 47 61 36 62 37 63 41 64 38 65 40 66
REMARK SMILES IDX 39 67 58 68 59 69 63 70 60 71 62 72 61 73 48 74 49 75 53 76
REMARK SMILES IDX 50 77 52 78 51 79
REMARK H PARENT 19 7 24 28 68 47 46 58
REMARK Flexibility Score: inf
ROOT
ATOM      1  C   UNL A   1      37.123  21.468  24.720  1.00  0.00     0.023 C 
ENDROOT
BRANCH   1   2
ATOM      2  C   UNL A   1      36.985  22.653  23.761  1.00  0.00     0.023 C 
BRANCH   2   3
ATOM      3  C   UNL A   1      35.656  23.396  23.868  1.00  0.00     0.116 C 
BRANCH   3   4
ATOM      4  N   UNL A   1      35.006  23.176  25.149  1.00  0.00    -0.352 N 
ATOM      5  C   UNL A   1      34.046  23.783  25.886  1.00  0.00     0.251 C 
ATOM      6  O   UNL A   1      33.788  23.235  26.962  1.00  0.00    -0.270 OA
ATOM      7  H   UNL A   1      35.355  22.373  25.599  1.00  0.00     0.163 HD
BRANCH   5   8
ATOM      8  C   UNL A   1      33.313  25.025  25.498  1.00  0.00     0.067 C 
ATOM      9  C   UNL A   1      31.542  28.672  24.336  1.00  0.00     0.018 A 
ATOM     10  C   UNL A   1      31.753  29.809  25.125  1.00  0.00     0.032 A 
ATOM     11  C   UNL A   1      32.164  27.466  24.704  1.00  0.00     0.135 A 
ATOM     12  C   UNL A   1      32.589  29.742  26.240  1.00  0.00     0.042 A 
ATOM     13  C   UNL A   1      33.010  27.403  25.817  1.00  0.00     0.019 A 
ATOM     14  O   UNL A   1      31.963  26.374  23.901  1.00  0.00    -0.475 OA
ATOM     15  Cl  UNL A   1      32.844  31.150  27.196  1.00  0.00    -0.084 Cl
ATOM     16  C   UNL A   1      33.223  28.549  26.587  1.00  0.00     0.032 A 
ATOM     17  C   UNL A   1      33.693  26.151  26.131  1.00  0.00     0.025 C 
ATOM     18  C   UNL A   1      32.190  25.072  24.504  1.00  0.00     0.314 C 
BRANCH   9  19
ATOM     19  C   UNL A   1      30.642  28.720  23.174  1.00  0.00     0.004 C 
ATOM     20  C   UNL A   1      29.369  28.305  23.202  1.00  0.00     0.009 C 
ENDBRANCH   9  19
BRANCH  18  21
ATOM     21  C   UNL A   1      30.865  24.537  25.076  1.00  0.00     0.429 C 
ATOM     22  F   UNL A   1      29.818  25.252  24.593  1.00  0.00    -0.167 F 
ATOM     23  F   UNL A   1      30.637  23.246  24.737  1.00  0.00    -0.167 F 
ATOM     24  F   UNL A   1      30.813  24.604  26.425  1.00  0.00    -0.167 F 
ENDBRANCH  18  21
ENDBRANCH   5   8
ENDBRANCH   3   4
ENDBRANCH   2   3
ENDBRANCH   1   2
BRANCH   1  25
ATOM     25  C   UNL A   1      38.418  21.427  25.530  1.00  0.00     0.116 C 
BRANCH  25  26
ATOM     26  N   UNL A   1      39.141  20.164  25.452  1.00  0.00    -0.352 N 
ATOM     27  C   UNL A   1      40.423  19.902  25.888  1.00  0.00     0.251 C 
ATOM     28  H   UNL A   1      38.658  19.411  25.041  1.00  0.00     0.163 HD
ATOM     29  O   UNL A   1      40.941  18.807  25.709  1.00  0.00    -0.269 OA
BRANCH  27  30
ATOM     30  C   UNL A   1      41.181  20.999  26.518  1.00  0.00     0.039 A 
ATOM     31  C   UNL A   1      41.150  21.161  27.904  1.00  0.00     0.014 A 
ATOM     32  C   UNL A   1      41.806  21.945  25.702  1.00  0.00     0.014 A 
ATOM     33  C   UNL A   1      41.572  22.363  28.455  1.00  0.00     0.010 A 
ATOM     34  C   UNL A   1      42.301  23.120  26.270  1.00  0.00     0.010 A 
ATOM     35  C   UNL A   1      42.124  23.367  27.640  1.00  0.00    -0.014 A 
BRANCH  35  36
ATOM     36  C   UNL A   1      42.448  24.687  28.238  1.00  0.00     0.031 A 
ATOM     37  C   UNL A   1      43.876  25.057  28.544  1.00  0.00     0.074 A 
ATOM     38  C   UNL A   1      41.466  25.587  28.421  1.00  0.00     0.049 A 
ATOM     39  N   UNL A   1      44.349  26.183  29.019  1.00  0.00    -0.248 NA
ATOM     40  C   UNL A   1      44.908  24.041  28.282  1.00  0.00     0.031 C 
ATOM     41  C   UNL A   1      40.049  25.358  28.131  1.00  0.00     0.029 A 
ATOM     42  N   UNL A   1      41.513  26.887  28.856  1.00  0.00    -0.354 N 
ATOM     43  C   UNL A   1      45.723  26.001  29.134  1.00  0.00     0.074 A 
ATOM     44  C   UNL A   1      46.009  24.652  28.698  1.00  0.00     0.031 C 
ATOM     45  C   UNL A   1      39.373  26.498  28.332  1.00  0.00     0.029 A 
ATOM     46  C   UNL A   1      40.294  27.518  28.823  1.00  0.00     0.049 A 
ATOM     47  H   UNL A   1      42.340  27.325  29.163  1.00  0.00     0.167 HD
ATOM     48  C   UNL A   1      46.661  26.881  29.555  1.00  0.00     0.031 A 
ATOM     49  C   UNL A   1      39.950  28.777  29.152  1.00  0.00     0.031 A 
ATOM     50  C   UNL A   1      46.381  28.229  29.973  1.00  0.00     0.049 A 
ATOM     51  C   UNL A   1      41.004  29.725  29.644  1.00  0.00     0.074 A 
ATOM     52  C   UNL A   1      47.269  29.192  30.421  1.00  0.00     0.029 A 
ATOM     53  N   UNL A   1      45.122  28.808  29.983  1.00  0.00    -0.354 N 
ATOM     54  N   UNL A   1      42.294  29.526  29.768  1.00  0.00    -0.248 NA
ATOM     55  C   UNL A   1      40.557  31.066  30.045  1.00  0.00     0.031 C 
ATOM     56  C   UNL A   1      46.542  30.341  30.740  1.00  0.00     0.029 A 
ATOM     57  C   UNL A   1      45.209  30.109  30.442  1.00  0.00     0.049 A 
ATOM     58  H   UNL A   1      44.292  28.359  29.706  1.00  0.00     0.167 HD
ATOM     59  C   UNL A   1      42.813  30.717  30.255  1.00  0.00     0.074 A 
ATOM     60  C   UNL A   1      41.704  31.639  30.385  1.00  0.00     0.031 C 
ATOM     61  C   UNL A   1      44.097  31.015  30.570  1.00  0.00     0.031 A 
BRANCH  48  62
ATOM     62  C   UNL A   1      48.089  26.415  29.605  1.00  0.00    -0.014 A 
ATOM     63  C   UNL A   1      48.584  25.811  30.772  1.00  0.00     0.009 A 
ATOM     64  C   UNL A   1      48.966  26.646  28.535  1.00  0.00     0.009 A 
ATOM     65  C   UNL A   1      49.930  25.454  30.870  1.00  0.00     0.001 A 
ATOM     66  C   UNL A   1      50.307  26.267  28.627  1.00  0.00     0.001 A 
ATOM     67  C   UNL A   1      50.789  25.679  29.795  1.00  0.00     0.000 A 
ENDBRANCH  48  62
BRANCH  49  68
ATOM     68  C   UNL A   1      38.535  29.203  29.009  1.00  0.00    -0.014 A 
ATOM     69  C   UNL A   1      38.058  29.686  27.779  1.00  0.00     0.009 A 
ATOM     70  C   UNL A   1      37.672  29.184  30.114  1.00  0.00     0.009 A 
ATOM     71  C   UNL A   1      36.753  30.168  27.666  1.00  0.00     0.001 A 
ATOM     72  C   UNL A   1      36.359  29.643  29.990  1.00  0.00     0.001 A 
ATOM     73  C   UNL A   1      35.904  30.143  28.771  1.00  0.00     0.000 A 
ENDBRANCH  49  68
BRANCH  61  74
ATOM     74  C   UNL A   1      44.386  32.397  31.077  1.00  0.00    -0.014 A 
ATOM     75  C   UNL A   1      44.291  32.670  32.451  1.00  0.00     0.009 A 
ATOM     76  C   UNL A   1      44.662  33.447  30.190  1.00  0.00     0.009 A 
ATOM     77  C   UNL A   1      44.457  33.971  32.926  1.00  0.00     0.001 A 
ATOM     78  C   UNL A   1      44.851  34.744  30.670  1.00  0.00     0.001 A 
ATOM     79  C   UNL A   1      44.740  35.006  32.035  1.00  0.00     0.000 A 
ENDBRANCH  61  74
ENDBRANCH  35  36
ENDBRANCH  27  30
ENDBRANCH  25  26
ENDBRANCH   1  25
TORSDOF 13
ENDMDL
MODEL 3
REMARK VINA RESULT:     -11.0      2.363      7.307
REMARK SMILES C=Cc1cc(Cl)cc2c1O[C@H](C(F)(F)F)C(C(=O)NCCCCNC(=O)c1ccc(-c3c4nc(c(-c5ccccc5)c5ccc([nH]5)c(-c5ccccc5)c5nc(c(-c6ccccc6)c6ccc3[nH]6)C=C5)C=C4)cc1)=C2
REMARK SMILES IDX 22 1 21 2 20 3 19 4 17 5 18 6 16 8 3 9 4 10 9 11 5 12 8 13
REMARK SMILES IDX 10 14 6 15 7 16 75 17 11 18 2 19 1 20 12 21 13 22 14 23
REMARK SMILES IDX 15 24 23 25 24 26 25 27 26 29 27 30 28 31 74 32 29 33 73 34
REMARK SMILES IDX 30 35 31 36 32 37 67 38 33 39 72 40 66 41 68 42 34 43 71 44
REMARK SMILES IDX 65 45 64 46 35 48 57 49 42 50 56 51 43 52 46 53 55 54 69 55
REMARK SMILES IDX 44 56 45 57 54 59 70 60 47 61 36 62 37 63 41 64 38 65 40 66
REMARK SMILES IDX 39 67 58 68 59 69 63 70 60 71 62 72 61 73 48 74 49 75 53 76
REMARK SMILES IDX 50 77 52 78 51 79
REMARK H PARENT 19 7 24 28 68 47 46 58
REMARK Flexibility Score: inf
ROOT
ATOM      1  C   UNL A   1      37.746  21.379  25.142  1.00  0.00     0.023 C 
ENDROOT
BRANCH   1   2
ATOM      2  C   UNL A   1      37.028  20.060  24.852  1.00  0.00     0.023 C 
BRANCH   2   3
ATOM      3  C   UNL A   1      35.505  20.160  24.848  1.00  0.00     0.116 C 
BRANCH   3   4
ATOM      4  N   UNL A   1      34.988  20.708  26.090  1.00  0.00    -0.352 N 
ATOM      5  C   UNL A   1      34.373  21.848  26.486  1.00  0.00     0.251 C 
ATOM      6  O   UNL A   1      34.094  21.901  27.688  1.00  0.00    -0.270 OA
ATOM      7  H   UNL A   1      35.119  20.087  26.842  1.00  0.00     0.163 HD
BRANCH   5   8
ATOM      8  C   UNL A   1      34.028  22.998  25.598  1.00  0.00     0.067 C 
ATOM      9  C   UNL A   1      33.369  26.359  23.137  1.00  0.00     0.018 A 
ATOM     10  C   UNL A   1      33.369  27.633  23.717  1.00  0.00     0.032 A 
ATOM     11  C   UNL A   1      33.626  25.243  23.953  1.00  0.00     0.135 A 
ATOM     12  C   UNL A   1      33.648  27.784  25.076  1.00  0.00     0.042 A 
ATOM     13  C   UNL A   1      33.915  25.396  25.314  1.00  0.00     0.019 A 
ATOM     14  O   UNL A   1      33.646  24.009  23.357  1.00  0.00    -0.475 OA
ATOM     15  Cl  UNL A   1      33.651  29.358  25.772  1.00  0.00    -0.084 Cl
ATOM     16  C   UNL A   1      33.926  26.676  25.876  1.00  0.00     0.032 A 
ATOM     17  C   UNL A   1      34.245  24.222  26.116  1.00  0.00     0.025 C 
ATOM     18  C   UNL A   1      33.438  22.863  24.225  1.00  0.00     0.314 C 
BRANCH   9  19
ATOM     19  C   UNL A   1      33.049  26.181  21.712  1.00  0.00     0.004 C 
ATOM     20  C   UNL A   1      31.801  26.084  21.237  1.00  0.00     0.009 C 
ENDBRANCH   9  19
BRANCH  18  21
ATOM     21  C   UNL A   1      31.940  22.509  24.253  1.00  0.00     0.429 C 
ATOM     22  F   UNL A   1      31.772  21.163  24.263  1.00  0.00    -0.167 F 
ATOM     23  F   UNL A   1      31.316  22.982  25.358  1.00  0.00    -0.167 F 
ATOM     24  F   UNL A   1      31.269  22.993  23.184  1.00  0.00    -0.167 F 
ENDBRANCH  18  21
ENDBRANCH   5   8
ENDBRANCH   3   4
ENDBRANCH   2   3
ENDBRANCH   1   2
BRANCH   1  25
ATOM     25  C   UNL A   1      38.945  21.281  26.083  1.00  0.00     0.116 C 
BRANCH  25  26
ATOM     26  N   UNL A   1      39.751  20.078  25.914  1.00  0.00    -0.352 N 
ATOM     27  C   UNL A   1      41.108  19.942  26.115  1.00  0.00     0.251 C 
ATOM     28  H   UNL A   1      39.271  19.270  25.621  1.00  0.00     0.163 HD
ATOM     29  O   UNL A   1      41.681  18.885  25.879  1.00  0.00    -0.269 OA
BRANCH  27  30
ATOM     30  C   UNL A   1      41.868  21.125  26.562  1.00  0.00     0.039 A 
ATOM     31  C   UNL A   1      42.009  21.389  27.925  1.00  0.00     0.014 A 
ATOM     32  C   UNL A   1      42.315  22.041  25.606  1.00  0.00     0.014 A 
ATOM     33  C   UNL A   1      42.419  22.652  28.332  1.00  0.00     0.010 A 
ATOM     34  C   UNL A   1      42.800  23.283  26.023  1.00  0.00     0.010 A 
ATOM     35  C   UNL A   1      42.789  23.621  27.384  1.00  0.00    -0.014 A 
BRANCH  35  36
ATOM     36  C   UNL A   1      43.100  24.999  27.842  1.00  0.00     0.031 A 
ATOM     37  C   UNL A   1      41.994  25.987  28.102  1.00  0.00     0.074 A 
ATOM     38  C   UNL A   1      44.376  25.332  28.111  1.00  0.00     0.049 A 
ATOM     39  N   UNL A   1      42.077  27.214  28.553  1.00  0.00    -0.248 NA
ATOM     40  C   UNL A   1      40.616  25.546  27.826  1.00  0.00     0.031 C 
ATOM     41  C   UNL A   1      45.531  24.451  27.932  1.00  0.00     0.029 A 
ATOM     42  N   UNL A   1      44.910  26.484  28.628  1.00  0.00    -0.354 N 
ATOM     43  C   UNL A   1      40.773  27.696  28.591  1.00  0.00     0.074 A 
ATOM     44  C   UNL A   1      39.916  26.639  28.101  1.00  0.00     0.031 C 
ATOM     45  C   UNL A   1      46.627  25.069  28.394  1.00  0.00     0.029 A 
ATOM     46  C   UNL A   1      46.264  26.409  28.845  1.00  0.00     0.049 A 
ATOM     47  H   UNL A   1      44.375  27.287  28.825  1.00  0.00     0.167 HD
ATOM     48  C   UNL A   1      40.329  28.906  29.006  1.00  0.00     0.031 A 
ATOM     49  C   UNL A   1      47.122  27.316  29.347  1.00  0.00     0.031 A 
ATOM     50  C   UNL A   1      41.176  29.952  29.511  1.00  0.00     0.049 A 
ATOM     51  C   UNL A   1      46.610  28.660  29.772  1.00  0.00     0.074 A 
ATOM     52  C   UNL A   1      40.815  31.214  29.950  1.00  0.00     0.029 A 
ATOM     53  N   UNL A   1      42.551  29.857  29.653  1.00  0.00    -0.354 N 
ATOM     54  N   UNL A   1      45.376  29.105  29.779  1.00  0.00    -0.248 NA
ATOM     55  C   UNL A   1      47.604  29.628  30.255  1.00  0.00     0.031 C 
ATOM     56  C   UNL A   1      41.976  31.896  30.322  1.00  0.00     0.029 A 
ATOM     57  C   UNL A   1      43.053  31.041  30.161  1.00  0.00     0.049 A 
ATOM     58  H   UNL A   1      43.089  29.064  29.426  1.00  0.00     0.167 HD
ATOM     59  C   UNL A   1      45.445  30.400  30.270  1.00  0.00     0.074 A 
ATOM     60  C   UNL A   1      46.837  30.664  30.570  1.00  0.00     0.031 C 
ATOM     61  C   UNL A   1      44.441  31.292  30.452  1.00  0.00     0.031 A 
BRANCH  48  62
ATOM     62  C   UNL A   1      38.854  29.179  28.920  1.00  0.00    -0.014 A 
ATOM     63  C   UNL A   1      38.310  29.698  27.735  1.00  0.00     0.009 A 
ATOM     64  C   UNL A   1      38.016  29.004  30.033  1.00  0.00     0.009 A 
ATOM     65  C   UNL A   1      36.959  30.043  27.666  1.00  0.00     0.001 A 
ATOM     66  C   UNL A   1      36.661  29.329  29.954  1.00  0.00     0.001 A 
ATOM     67  C   UNL A   1      36.135  29.854  28.774  1.00  0.00     0.000 A 
ENDBRANCH  48  62
BRANCH  49  68
ATOM     68  C   UNL A   1      48.557  26.960  29.478  1.00  0.00    -0.014 A 
ATOM     69  C   UNL A   1      49.029  26.320  30.636  1.00  0.00     0.009 A 
ATOM     70  C   UNL A   1      49.472  27.311  28.474  1.00  0.00     0.009 A 
ATOM     71  C   UNL A   1      50.391  26.064  30.799  1.00  0.00     0.001 A 
ATOM     72  C   UNL A   1      50.831  27.029  28.629  1.00  0.00     0.001 A 
ATOM     73  C   UNL A   1      51.290  26.415  29.794  1.00  0.00     0.000 A 
ENDBRANCH  49  68
BRANCH  61  74
ATOM     74  C   UNL A   1      44.798  32.637  31.011  1.00  0.00    -0.014 A 
ATOM     75  C   UNL A   1      45.169  33.677  30.144  1.00  0.00     0.009 A 
ATOM     76  C   UNL A   1      44.856  32.849  32.396  1.00  0.00     0.009 A 
ATOM     77  C   UNL A   1      45.600  34.902  30.652  1.00  0.00     0.001 A 
ATOM     78  C   UNL A   1      45.267  34.084  32.902  1.00  0.00     0.001 A 
ATOM     79  C   UNL A   1      45.645  35.105  32.031  1.00  0.00     0.000 A 
ENDBRANCH  61  74
ENDBRANCH  35  36
ENDBRANCH  27  30
ENDBRANCH  25  26
ENDBRANCH   1  25
TORSDOF 13
ENDMDL
