MODEL 1
REMARK VINA RESULT:     -11.8      0.000      0.000
REMARK SMILES O=C(NCCCCNC(=O)[C@@H]1CC=CC[C@@H]1C(=O)Nc1ccc(Br)cc1Cl)c1ccc(-c2c3nc(c(-c4ccccc4)c4ccc([nH]4)c(-c4ccccc4)c4nc(c(-c5ccccc5)c5ccc2[nH]5)C=C4)C=C3)cc1
REMARK SMILES IDX 5 1 4 2 3 3 1 4 2 5 28 7 29 8 75 9 30 10 74 11 31 12 32 13
REMARK SMILES IDX 33 14 68 15 34 16 73 17 67 18 69 19 35 20 72 21 66 22 65 23
REMARK SMILES IDX 36 25 58 26 43 27 57 28 44 29 47 30 56 31 70 32 45 33 46 34
REMARK SMILES IDX 55 36 71 37 48 38 37 39 38 40 42 41 39 42 41 43 40 44 59 45
REMARK SMILES IDX 60 46 64 47 61 48 63 49 62 50 49 51 50 52 54 53 51 54 53 55
REMARK SMILES IDX 52 56 6 57 7 58 8 59 9 60 10 62 11 63 12 64 16 65 13 66
REMARK SMILES IDX 15 67 14 68 17 69 18 70 19 71 20 73 21 74 26 75 22 76 25 77
REMARK SMILES IDX 27 78 23 79 24 80
REMARK H PARENT 3 6 69 24 47 35 8 61 19 72
REMARK Flexibility Score: inf
ROOT
ATOM      1  C   UNL A   1      37.770  19.596  24.980  1.00  0.00     0.023 C 
ENDROOT
BRANCH   1   2
ATOM      2  C   UNL A   1      38.982  20.150  25.717  1.00  0.00     0.116 C 
BRANCH   2   3
ATOM      3  N   UNL A   1      40.117  19.239  25.712  1.00  0.00    -0.352 N 
ATOM      4  O   UNL A   1      42.286  18.635  25.863  1.00  0.00    -0.269 OA
ATOM      5  C   UNL A   1      41.426  19.492  26.039  1.00  0.00     0.251 C 
ATOM      6  H   UNL A   1      39.919  18.316  25.434  1.00  0.00     0.163 HD
BRANCH   5   7
ATOM      7  C   UNL A   1      41.799  20.815  26.581  1.00  0.00     0.039 A 
ATOM      8  C   UNL A   1      41.747  21.063  27.955  1.00  0.00     0.014 A 
ATOM      9  C   UNL A   1      42.208  21.818  25.697  1.00  0.00     0.014 A 
ATOM     10  C   UNL A   1      41.984  22.347  28.432  1.00  0.00     0.010 A 
ATOM     11  C   UNL A   1      42.514  23.089  26.186  1.00  0.00     0.010 A 
ATOM     12  C   UNL A   1      42.380  23.369  27.555  1.00  0.00    -0.014 A 
BRANCH  12  13
ATOM     13  C   UNL A   1      42.713  24.707  28.100  1.00  0.00     0.031 A 
ATOM     14  C   UNL A   1      44.129  25.086  28.422  1.00  0.00     0.074 A 
ATOM     15  C   UNL A   1      41.716  25.595  28.276  1.00  0.00     0.049 A 
ATOM     16  N   UNL A   1      44.590  26.222  28.885  1.00  0.00    -0.248 NA
ATOM     17  C   UNL A   1      45.163  24.063  28.201  1.00  0.00     0.031 C 
ATOM     18  C   UNL A   1      40.300  25.340  27.997  1.00  0.00     0.029 A 
ATOM     19  N   UNL A   1      41.741  26.894  28.711  1.00  0.00    -0.354 N 
ATOM     20  C   UNL A   1      45.960  26.046  29.027  1.00  0.00     0.074 A 
ATOM     21  C   UNL A   1      46.256  24.689  28.619  1.00  0.00     0.031 C 
ATOM     22  C   UNL A   1      39.600  26.461  28.222  1.00  0.00     0.029 A 
ATOM     23  C   UNL A   1      40.506  27.493  28.714  1.00  0.00     0.049 A 
ATOM     24  H   UNL A   1      42.565  27.353  28.996  1.00  0.00     0.167 HD
ATOM     25  C   UNL A   1      46.887  26.938  29.454  1.00  0.00     0.031 A 
ATOM     26  C   UNL A   1      40.137  28.733  29.082  1.00  0.00     0.031 A 
ATOM     27  C   UNL A   1      46.591  28.287  29.858  1.00  0.00     0.049 A 
ATOM     28  C   UNL A   1      41.178  29.687  29.583  1.00  0.00     0.074 A 
ATOM     29  C   UNL A   1      47.466  29.272  30.285  1.00  0.00     0.029 A 
ATOM     30  N   UNL A   1      45.321  28.842  29.890  1.00  0.00    -0.354 N 
ATOM     31  N   UNL A   1      42.473  29.510  29.693  1.00  0.00    -0.248 NA
ATOM     32  C   UNL A   1      40.708  31.009  30.015  1.00  0.00     0.031 C 
ATOM     33  C   UNL A   1      46.720  30.409  30.614  1.00  0.00     0.029 A 
ATOM     34  C   UNL A   1      45.385  30.147  30.349  1.00  0.00     0.049 A 
ATOM     35  H   UNL A   1      44.494  28.376  29.624  1.00  0.00     0.167 HD
ATOM     36  C   UNL A   1      42.973  30.700  30.198  1.00  0.00     0.074 A 
ATOM     37  C   UNL A   1      41.846  31.599  30.352  1.00  0.00     0.031 C 
ATOM     38  C   UNL A   1      44.252  31.021  30.508  1.00  0.00     0.031 A 
BRANCH  25  39
ATOM     39  C   UNL A   1      48.313  26.473  29.528  1.00  0.00    -0.014 A 
ATOM     40  C   UNL A   1      49.204  26.682  28.464  1.00  0.00     0.009 A 
ATOM     41  C   UNL A   1      48.786  25.861  30.700  1.00  0.00     0.009 A 
ATOM     42  C   UNL A   1      50.532  26.262  28.561  1.00  0.00     0.001 A 
ATOM     43  C   UNL A   1      50.121  25.462  30.803  1.00  0.00     0.001 A 
ATOM     44  C   UNL A   1      50.991  25.657  29.731  1.00  0.00     0.000 A 
ENDBRANCH  25  39
BRANCH  26  45
ATOM     45  C   UNL A   1      38.711  29.130  28.994  1.00  0.00    -0.014 A 
ATOM     46  C   UNL A   1      37.866  28.999  30.106  1.00  0.00     0.009 A 
ATOM     47  C   UNL A   1      38.194  29.667  27.806  1.00  0.00     0.009 A 
ATOM     48  C   UNL A   1      36.527  29.387  30.024  1.00  0.00     0.001 A 
ATOM     49  C   UNL A   1      36.863  30.079  27.734  1.00  0.00     0.001 A 
ATOM     50  C   UNL A   1      36.029  29.933  28.841  1.00  0.00     0.000 A 
ENDBRANCH  26  45
BRANCH  38  51
ATOM     51  C   UNL A   1      44.496  32.405  31.031  1.00  0.00    -0.014 A 
ATOM     52  C   UNL A   1      44.464  32.673  32.407  1.00  0.00     0.009 A 
ATOM     53  C   UNL A   1      44.781  33.448  30.136  1.00  0.00     0.009 A 
ATOM     54  C   UNL A   1      44.683  33.970  32.877  1.00  0.00     0.001 A 
ATOM     55  C   UNL A   1      45.022  34.738  30.611  1.00  0.00     0.001 A 
ATOM     56  C   UNL A   1      44.965  35.000  31.979  1.00  0.00     0.000 A 
ENDBRANCH  38  51
ENDBRANCH  12  13
ENDBRANCH   5   7
ENDBRANCH   2   3
ENDBRANCH   1   2
BRANCH   1  57
ATOM     57  C   UNL A   1      36.590  20.560  24.847  1.00  0.00     0.023 C 
BRANCH  57  58
ATOM     58  C   UNL A   1      36.824  21.948  25.438  1.00  0.00     0.116 C 
BRANCH  58  59
ATOM     59  N   UNL A   1      35.865  22.271  26.475  1.00  0.00    -0.356 N 
ATOM     60  C   UNL A   1      34.824  23.153  26.464  1.00  0.00     0.224 C 
ATOM     61  H   UNL A   1      35.983  21.778  27.319  1.00  0.00     0.163 HD
ATOM     62  O   UNL A   1      34.041  23.107  27.413  1.00  0.00    -0.275 OA
BRANCH  60  63
ATOM     63  C   UNL A   1      34.627  24.078  25.266  1.00  0.00     0.095 C 
ATOM     64  C   UNL A   1      34.234  25.510  25.666  1.00  0.00     0.041 C 
ATOM     65  C   UNL A   1      33.652  23.480  24.222  1.00  0.00     0.095 C 
ATOM     66  C   UNL A   1      33.835  26.356  24.491  1.00  0.00    -0.030 C 
ATOM     67  C   UNL A   1      33.633  24.382  22.971  1.00  0.00     0.041 C 
ATOM     68  C   UNL A   1      33.597  25.852  23.272  1.00  0.00    -0.030 C 
BRANCH  65  69
ATOM     69  C   UNL A   1      32.228  23.258  24.762  1.00  0.00     0.228 C 
ATOM     70  O   UNL A   1      31.476  24.197  25.038  1.00  0.00    -0.274 OA
ATOM     71  N   UNL A   1      31.676  22.004  24.819  1.00  0.00    -0.324 N 
ATOM     72  H   UNL A   1      30.739  21.981  25.121  1.00  0.00     0.169 HD
BRANCH  71  73
ATOM     73  C   UNL A   1      32.226  20.747  24.521  1.00  0.00     0.060 A 
ATOM     74  C   UNL A   1      32.839  20.085  25.595  1.00  0.00     0.029 A 
ATOM     75  C   UNL A   1      32.236  20.138  23.255  1.00  0.00     0.065 A 
ATOM     76  C   UNL A   1      33.339  18.791  25.443  1.00  0.00     0.018 A 
ATOM     77  C   UNL A   1      32.733  18.838  23.104  1.00  0.00     0.038 A 
ATOM     78  Cl  UNL A   1      31.852  20.996  21.803  1.00  0.00    -0.082 Cl
ATOM     79  C   UNL A   1      33.262  18.166  24.202  1.00  0.00     0.019 A 
ATOM     80  Br  UNL A   1      33.916  16.404  24.001  1.00  0.00    -0.051 Br
ENDBRANCH  71  73
ENDBRANCH  65  69
ENDBRANCH  60  63
ENDBRANCH  58  59
ENDBRANCH  57  58
ENDBRANCH   1  57
TORSDOF 13
ENDMDL
MODEL 2
REMARK VINA RESULT:     -11.8      0.215      5.930
REMARK SMILES O=C(NCCCCNC(=O)[C@@H]1CC=CC[C@@H]1C(=O)Nc1ccc(Br)cc1Cl)c1ccc(-c2c3nc(c(-c4ccccc4)c4ccc([nH]4)c(-c4ccccc4)c4nc(c(-c5ccccc5)c5ccc2[nH]5)C=C4)C=C3)cc1
REMARK SMILES IDX 5 1 4 2 3 3 1 4 2 5 28 7 29 8 75 9 30 10 74 11 31 12 32 13
REMARK SMILES IDX 33 14 68 15 34 16 73 17 67 18 69 19 35 20 72 21 66 22 65 23
REMARK SMILES IDX 36 25 58 26 43 27 57 28 44 29 47 30 56 31 70 32 45 33 46 34
REMARK SMILES IDX 55 36 71 37 48 38 37 39 38 40 42 41 39 42 41 43 40 44 59 45
REMARK SMILES IDX 60 46 64 47 61 48 63 49 62 50 49 51 50 52 54 53 51 54 53 55
REMARK SMILES IDX 52 56 6 57 7 58 8 59 9 60 10 62 11 63 12 64 16 65 13 66
REMARK SMILES IDX 15 67 14 68 17 69 18 70 19 71 20 73 21 74 26 75 22 76 25 77
REMARK SMILES IDX 27 78 23 79 24 80
REMARK H PARENT 3 6 69 24 47 35 8 61 19 72
REMARK Flexibility Score: inf
ROOT
ATOM      1  C   UNL A   1      37.781  19.604  24.996  1.00  0.00     0.023 C 
ENDROOT
BRANCH   1   2
ATOM      2  C   UNL A   1      38.994  20.162  25.728  1.00  0.00     0.116 C 
BRANCH   2   3
ATOM      3  N   UNL A   1      40.105  19.225  25.785  1.00  0.00    -0.352 N 
ATOM      4  O   UNL A   1      42.256  18.576  26.009  1.00  0.00    -0.269 OA
ATOM      5  C   UNL A   1      41.413  19.460  26.130  1.00  0.00     0.251 C 
ATOM      6  H   UNL A   1      39.890  18.296  25.543  1.00  0.00     0.163 HD
BRANCH   5   7
ATOM      7  C   UNL A   1      41.808  20.796  26.624  1.00  0.00     0.039 A 
ATOM      8  C   UNL A   1      41.754  21.097  27.987  1.00  0.00     0.014 A 
ATOM      9  C   UNL A   1      42.240  21.756  25.705  1.00  0.00     0.014 A 
ATOM     10  C   UNL A   1      42.012  22.394  28.416  1.00  0.00     0.010 A 
ATOM     11  C   UNL A   1      42.567  23.040  26.147  1.00  0.00     0.010 A 
ATOM     12  C   UNL A   1      42.431  23.375  27.504  1.00  0.00    -0.014 A 
BRANCH  12  13
ATOM     13  C   UNL A   1      42.786  24.726  27.999  1.00  0.00     0.031 A 
ATOM     14  C   UNL A   1      41.732  25.769  28.237  1.00  0.00     0.074 A 
ATOM     15  C   UNL A   1      44.078  24.995  28.260  1.00  0.00     0.049 A 
ATOM     16  N   UNL A   1      41.875  26.991  28.687  1.00  0.00    -0.248 NA
ATOM     17  C   UNL A   1      40.342  25.399  27.930  1.00  0.00     0.031 C 
ATOM     18  C   UNL A   1      45.190  24.060  28.068  1.00  0.00     0.029 A 
ATOM     19  N   UNL A   1      44.674  26.123  28.760  1.00  0.00    -0.354 N 
ATOM     20  C   UNL A   1      40.600  27.541  28.701  1.00  0.00     0.074 A 
ATOM     21  C   UNL A   1      39.697  26.527  28.197  1.00  0.00     0.031 C 
ATOM     22  C   UNL A   1      46.325  24.636  28.491  1.00  0.00     0.029 A 
ATOM     23  C   UNL A   1      46.031  25.995  28.929  1.00  0.00     0.049 A 
ATOM     24  H   UNL A   1      44.178  26.946  28.977  1.00  0.00     0.167 HD
ATOM     25  C   UNL A   1      40.217  28.778  29.102  1.00  0.00     0.031 A 
ATOM     26  C   UNL A   1      46.942  26.877  29.376  1.00  0.00     0.031 A 
ATOM     27  C   UNL A   1      41.116  29.784  29.603  1.00  0.00     0.049 A 
ATOM     28  C   UNL A   1      46.496  28.249  29.780  1.00  0.00     0.074 A 
ATOM     29  C   UNL A   1      40.818  31.059  30.055  1.00  0.00     0.029 A 
ATOM     30  N   UNL A   1      42.489  29.631  29.716  1.00  0.00    -0.354 N 
ATOM     31  N   UNL A   1      45.283  28.747  29.805  1.00  0.00    -0.248 NA
ATOM     32  C   UNL A   1      47.543  29.182  30.213  1.00  0.00     0.031 C 
ATOM     33  C   UNL A   1      42.017  31.692  30.402  1.00  0.00     0.029 A 
ATOM     34  C   UNL A   1      43.056  30.795  30.208  1.00  0.00     0.049 A 
ATOM     35  H   UNL A   1      42.988  28.815  29.480  1.00  0.00     0.167 HD
ATOM     36  C   UNL A   1      45.419  30.047  30.265  1.00  0.00     0.074 A 
ATOM     37  C   UNL A   1      46.830  30.255  30.528  1.00  0.00     0.031 C 
ATOM     38  C   UNL A   1      44.462  30.987  30.451  1.00  0.00     0.031 A 
BRANCH  25  39
ATOM     39  C   UNL A   1      38.759  29.122  28.994  1.00  0.00    -0.014 A 
ATOM     40  C   UNL A   1      37.894  28.981  30.090  1.00  0.00     0.009 A 
ATOM     41  C   UNL A   1      38.253  29.640  27.790  1.00  0.00     0.009 A 
ATOM     42  C   UNL A   1      36.545  29.327  29.975  1.00  0.00     0.001 A 
ATOM     43  C   UNL A   1      36.909  30.006  27.685  1.00  0.00     0.001 A 
ATOM     44  C   UNL A   1      36.055  29.843  28.775  1.00  0.00     0.000 A 
ENDBRANCH  25  39
BRANCH  26  45
ATOM     45  C   UNL A   1      48.370  26.481  29.452  1.00  0.00    -0.014 A 
ATOM     46  C   UNL A   1      49.235  26.729  28.376  1.00  0.00     0.009 A 
ATOM     47  C   UNL A   1      48.880  25.879  30.612  1.00  0.00     0.009 A 
ATOM     48  C   UNL A   1      50.582  26.367  28.457  1.00  0.00     0.001 A 
ATOM     49  C   UNL A   1      50.231  25.543  30.699  1.00  0.00     0.001 A 
ATOM     50  C   UNL A   1      51.080  25.781  29.620  1.00  0.00     0.000 A 
ENDBRANCH  26  45
BRANCH  38  51
ATOM     51  C   UNL A   1      44.912  32.318  30.977  1.00  0.00    -0.014 A 
ATOM     52  C   UNL A   1      45.027  32.548  32.356  1.00  0.00     0.009 A 
ATOM     53  C   UNL A   1      45.245  33.345  30.081  1.00  0.00     0.009 A 
ATOM     54  C   UNL A   1      45.439  33.796  32.829  1.00  0.00     0.001 A 
ATOM     55  C   UNL A   1      45.678  34.583  30.557  1.00  0.00     0.001 A 
ATOM     56  C   UNL A   1      45.767  34.810  31.929  1.00  0.00     0.000 A 
ENDBRANCH  38  51
ENDBRANCH  12  13
ENDBRANCH   5   7
ENDBRANCH   2   3
ENDBRANCH   1   2
BRANCH   1  57
ATOM     57  C   UNL A   1      36.545  20.504  24.998  1.00  0.00     0.023 C 
BRANCH  57  58
ATOM     58  C   UNL A   1      36.771  21.906  25.560  1.00  0.00     0.116 C 
BRANCH  58  59
ATOM     59  N   UNL A   1      35.790  22.258  26.566  1.00  0.00    -0.356 N 
ATOM     60  C   UNL A   1      34.753  23.143  26.509  1.00  0.00     0.224 C 
ATOM     61  H   UNL A   1      35.887  21.786  27.425  1.00  0.00     0.163 HD
ATOM     62  O   UNL A   1      33.948  23.124  27.440  1.00  0.00    -0.275 OA
BRANCH  60  63
ATOM     63  C   UNL A   1      34.587  24.038  25.283  1.00  0.00     0.095 C 
ATOM     64  C   UNL A   1      34.173  25.476  25.636  1.00  0.00     0.041 C 
ATOM     65  C   UNL A   1      33.648  23.409  24.224  1.00  0.00     0.095 C 
ATOM     66  C   UNL A   1      33.805  26.290  24.429  1.00  0.00    -0.030 C 
ATOM     67  C   UNL A   1      33.662  24.279  22.952  1.00  0.00     0.041 C 
ATOM     68  C   UNL A   1      33.608  25.757  23.217  1.00  0.00    -0.030 C 
BRANCH  65  69
ATOM     69  C   UNL A   1      32.210  23.189  24.726  1.00  0.00     0.228 C 
ATOM     70  O   UNL A   1      31.454  24.130  24.984  1.00  0.00    -0.274 OA
ATOM     71  N   UNL A   1      31.653  21.937  24.765  1.00  0.00    -0.324 N 
ATOM     72  H   UNL A   1      30.708  21.916  25.042  1.00  0.00     0.169 HD
BRANCH  71  73
ATOM     73  C   UNL A   1      32.206  20.679  24.478  1.00  0.00     0.060 A 
ATOM     74  C   UNL A   1      32.813  20.024  25.560  1.00  0.00     0.029 A 
ATOM     75  C   UNL A   1      32.226  20.063  23.216  1.00  0.00     0.065 A 
ATOM     76  C   UNL A   1      33.315  18.730  25.419  1.00  0.00     0.018 A 
ATOM     77  C   UNL A   1      32.725  18.763  23.075  1.00  0.00     0.038 A 
ATOM     78  Cl  UNL A   1      31.850  20.911  21.756  1.00  0.00    -0.082 Cl
ATOM     79  C   UNL A   1      33.248  18.098  24.181  1.00  0.00     0.019 A 
ATOM     80  Br  UNL A   1      33.906  16.336  23.995  1.00  0.00    -0.051 Br
ENDBRANCH  71  73
ENDBRANCH  65  69
ENDBRANCH  60  63
ENDBRANCH  58  59
ENDBRANCH  57  58
ENDBRANCH   1  57
TORSDOF 13
ENDMDL
MODEL 3
REMARK VINA RESULT:     -11.7      4.803      9.559
REMARK SMILES O=C(NCCCCNC(=O)[C@@H]1CC=CC[C@@H]1C(=O)Nc1ccc(Br)cc1Cl)c1ccc(-c2c3nc(c(-c4ccccc4)c4ccc([nH]4)c(-c4ccccc4)c4nc(c(-c5ccccc5)c5ccc2[nH]5)C=C4)C=C3)cc1
REMARK SMILES IDX 5 1 4 2 3 3 1 4 2 5 28 7 29 8 75 9 30 10 74 11 31 12 32 13
REMARK SMILES IDX 33 14 68 15 34 16 73 17 67 18 69 19 35 20 72 21 66 22 65 23
REMARK SMILES IDX 36 25 58 26 43 27 57 28 44 29 47 30 56 31 70 32 45 33 46 34
REMARK SMILES IDX 55 36 71 37 48 38 37 39 38 40 42 41 39 42 41 43 40 44 59 45
REMARK SMILES IDX 60 46 64 47 61 48 63 49 62 50 49 51 50 52 54 53 51 54 53 55
REMARK SMILES IDX 52 56 6 57 7 58 8 59 9 60 10 62 11 63 12 64 16 65 13 66
REMARK SMILES IDX 15 67 14 68 17 69 18 70 19 71 20 73 21 74 26 75 22 76 25 77
REMARK SMILES IDX 27 78 23 79 24 80
REMARK H PARENT 3 6 69 24 47 35 8 61 19 72
REMARK Flexibility Score: inf
ROOT
ATOM      1  C   UNL A   1      31.270  31.887  26.468  1.00  0.00     0.023 C 
ENDROOT
BRANCH   1   2
ATOM      2  C   UNL A   1      32.525  32.553  27.018  1.00  0.00     0.116 C 
BRANCH   2   3
ATOM      3  N   UNL A   1      32.286  33.905  27.499  1.00  0.00    -0.352 N 
ATOM      4  O   UNL A   1      32.571  35.710  28.824  1.00  0.00    -0.269 OA
ATOM      5  C   UNL A   1      32.981  34.617  28.445  1.00  0.00     0.251 C 
ATOM      6  H   UNL A   1      31.520  34.372  27.093  1.00  0.00     0.163 HD
BRANCH   5   7
ATOM      7  C   UNL A   1      34.215  34.049  29.025  1.00  0.00     0.039 A 
ATOM      8  C   UNL A   1      35.470  34.423  28.539  1.00  0.00     0.014 A 
ATOM      9  C   UNL A   1      34.108  33.129  30.072  1.00  0.00     0.014 A 
ATOM     10  C   UNL A   1      36.610  33.786  29.014  1.00  0.00     0.010 A 
ATOM     11  C   UNL A   1      35.261  32.541  30.597  1.00  0.00     0.010 A 
ATOM     12  C   UNL A   1      36.519  32.848  30.054  1.00  0.00    -0.014 A 
BRANCH  12  13
ATOM     13  C   UNL A   1      37.758  32.248  30.605  1.00  0.00     0.031 A 
ATOM     14  C   UNL A   1      38.403  32.794  31.846  1.00  0.00     0.074 A 
ATOM     15  C   UNL A   1      38.284  31.177  29.982  1.00  0.00     0.049 A 
ATOM     16  N   UNL A   1      39.476  32.372  32.467  1.00  0.00    -0.248 NA
ATOM     17  C   UNL A   1      37.767  33.964  32.471  1.00  0.00     0.031 C 
ATOM     18  C   UNL A   1      37.745  30.557  28.768  1.00  0.00     0.029 A 
ATOM     19  N   UNL A   1      39.375  30.408  30.292  1.00  0.00    -0.354 N 
ATOM     20  C   UNL A   1      39.655  33.231  33.543  1.00  0.00     0.074 A 
ATOM     21  C   UNL A   1      38.592  34.212  33.481  1.00  0.00     0.031 C 
ATOM     22  C   UNL A   1      38.478  29.477  28.465  1.00  0.00     0.029 A 
ATOM     23  C   UNL A   1      39.569  29.360  29.426  1.00  0.00     0.049 A 
ATOM     24  H   UNL A   1      39.964  30.590  31.060  1.00  0.00     0.167 HD
ATOM     25  C   UNL A   1      40.616  33.202  34.497  1.00  0.00     0.031 A 
ATOM     26  C   UNL A   1      40.525  28.415  29.398  1.00  0.00     0.031 A 
ATOM     27  C   UNL A   1      41.673  32.226  34.557  1.00  0.00     0.049 A 
ATOM     28  C   UNL A   1      41.596  28.428  30.446  1.00  0.00     0.074 A 
ATOM     29  C   UNL A   1      42.680  32.102  35.499  1.00  0.00     0.029 A 
ATOM     30  N   UNL A   1      41.861  31.208  33.635  1.00  0.00    -0.354 N 
ATOM     31  N   UNL A   1      41.740  29.237  31.468  1.00  0.00    -0.248 NA
ATOM     32  C   UNL A   1      42.639  27.400  30.336  1.00  0.00     0.031 C 
ATOM     33  C   UNL A   1      43.502  31.033  35.123  1.00  0.00     0.029 A 
ATOM     34  C   UNL A   1      42.980  30.465  33.972  1.00  0.00     0.049 A 
ATOM     35  H   UNL A   1      41.284  31.038  32.856  1.00  0.00     0.167 HD
ATOM     36  C   UNL A   1      42.883  28.812  32.127  1.00  0.00     0.074 A 
ATOM     37  C   UNL A   1      43.382  27.659  31.403  1.00  0.00     0.031 C 
ATOM     38  C   UNL A   1      43.468  29.330  33.233  1.00  0.00     0.031 A 
BRANCH  25  39
ATOM     39  C   UNL A   1      40.584  34.276  35.547  1.00  0.00    -0.014 A 
ATOM     40  C   UNL A   1      41.247  35.498  35.359  1.00  0.00     0.009 A 
ATOM     41  C   UNL A   1      39.841  34.079  36.722  1.00  0.00     0.009 A 
ATOM     42  C   UNL A   1      41.187  36.492  36.338  1.00  0.00     0.001 A 
ATOM     43  C   UNL A   1      39.764  35.083  37.689  1.00  0.00     0.001 A 
ATOM     44  C   UNL A   1      40.443  36.286  37.500  1.00  0.00     0.000 A 
ENDBRANCH  25  39
BRANCH  26  45
ATOM     45  C   UNL A   1      40.508  27.386  28.330  1.00  0.00    -0.014 A 
ATOM     46  C   UNL A   1      39.832  26.172  28.522  1.00  0.00     0.009 A 
ATOM     47  C   UNL A   1      41.145  27.625  27.103  1.00  0.00     0.009 A 
ATOM     48  C   UNL A   1      39.807  25.212  27.508  1.00  0.00     0.001 A 
ATOM     49  C   UNL A   1      41.095  26.675  26.083  1.00  0.00     0.001 A 
ATOM     50  C   UNL A   1      40.432  25.467  26.288  1.00  0.00     0.000 A 
ENDBRANCH  26  45
BRANCH  38  51
ATOM     51  C   UNL A   1      44.705  28.642  33.730  1.00  0.00    -0.014 A 
ATOM     52  C   UNL A   1      45.978  29.053  33.308  1.00  0.00     0.009 A 
ATOM     53  C   UNL A   1      44.594  27.585  34.646  1.00  0.00     0.009 A 
ATOM     54  C   UNL A   1      47.120  28.395  33.773  1.00  0.00     0.001 A 
ATOM     55  C   UNL A   1      45.738  26.945  35.125  1.00  0.00     0.001 A 
ATOM     56  C   UNL A   1      46.998  27.345  34.683  1.00  0.00     0.000 A 
ENDBRANCH  38  51
ENDBRANCH  12  13
ENDBRANCH   5   7
ENDBRANCH   2   3
ENDBRANCH   1   2
BRANCH   1  57
ATOM     57  C   UNL A   1      31.494  30.537  25.784  1.00  0.00     0.023 C 
BRANCH  57  58
ATOM     58  C   UNL A   1      32.822  29.860  26.117  1.00  0.00     0.116 C 
BRANCH  58  59
ATOM     59  N   UNL A   1      33.499  29.369  24.933  1.00  0.00    -0.356 N 
ATOM     60  C   UNL A   1      33.679  28.090  24.492  1.00  0.00     0.224 C 
ATOM     61  H   UNL A   1      33.889  30.067  24.358  1.00  0.00     0.163 HD
ATOM     62  O   UNL A   1      34.130  27.949  23.356  1.00  0.00    -0.275 OA
BRANCH  60  63
ATOM     63  C   UNL A   1      33.246  26.918  25.368  1.00  0.00     0.095 C 
ATOM     64  C   UNL A   1      34.267  25.769  25.389  1.00  0.00     0.041 C 
ATOM     65  C   UNL A   1      31.822  26.421  25.015  1.00  0.00     0.095 C 
ATOM     66  C   UNL A   1      33.746  24.538  26.074  1.00  0.00    -0.030 C 
ATOM     67  C   UNL A   1      31.385  25.358  26.043  1.00  0.00     0.041 C 
ATOM     68  C   UNL A   1      32.458  24.368  26.397  1.00  0.00    -0.030 C 
BRANCH  65  69
ATOM     69  C   UNL A   1      31.693  25.884  23.579  1.00  0.00     0.228 C 
ATOM     70  O   UNL A   1      32.190  24.807  23.234  1.00  0.00    -0.274 OA
ATOM     71  N   UNL A   1      30.894  26.506  22.655  1.00  0.00    -0.324 N 
ATOM     72  H   UNL A   1      30.834  26.044  21.787  1.00  0.00     0.169 HD
BRANCH  71  73
ATOM     73  C   UNL A   1      30.147  27.692  22.739  1.00  0.00     0.060 A 
ATOM     74  C   UNL A   1      30.821  28.858  22.350  1.00  0.00     0.029 A 
ATOM     75  C   UNL A   1      28.826  27.795  23.204  1.00  0.00     0.065 A 
ATOM     76  C   UNL A   1      30.155  30.084  22.304  1.00  0.00     0.018 A 
ATOM     77  C   UNL A   1      28.156  29.023  23.153  1.00  0.00     0.038 A 
ATOM     78  Cl  UNL A   1      28.029  26.511  24.046  1.00  0.00    -0.082 Cl
ATOM     79  C   UNL A   1      28.818  30.154  22.685  1.00  0.00     0.019 A 
ATOM     80  Br  UNL A   1      27.908  31.808  22.599  1.00  0.00    -0.051 Br
ENDBRANCH  71  73
ENDBRANCH  65  69
ENDBRANCH  60  63
ENDBRANCH  58  59
ENDBRANCH  57  58
ENDBRANCH   1  57
TORSDOF 13
ENDMDL
