MODEL 1
REMARK VINA RESULT:     -11.6      0.000      0.000
REMARK SMILES CC1(C)S[C@@H]2[C@H]([NH2+]Cn3nnc4ccccc43)C(=O)N2[C@@H]1C(=O)NCCCCNC(=O)c1ccc(-c2c3nc(c(-c4ccccc4)c4ccc([nH]4)c(-c4ccccc4)c4nc(c(-c5ccccc5)c5ccc2[nH]5)C=C4)C=C3)cc1
REMARK SMILES IDX 26 1 25 2 24 3 22 4 23 5 21 7 1 8 2 9 3 10 4 11 5 12 20 13
REMARK SMILES IDX 6 14 18 15 19 16 7 17 8 20 9 21 10 22 17 23 11 24 12 25
REMARK SMILES IDX 16 26 13 27 15 28 14 29 27 30 28 31 29 32 30 33 31 35 32 36
REMARK SMILES IDX 33 37 79 38 34 39 78 40 35 41 36 42 37 43 72 44 38 45 77 46
REMARK SMILES IDX 71 47 73 48 39 49 76 50 70 51 69 52 40 54 62 55 47 56 61 57
REMARK SMILES IDX 48 58 51 59 60 60 74 61 49 62 50 63 59 65 75 66 52 67 41 68
REMARK SMILES IDX 42 69 46 70 43 71 45 72 44 73 63 74 64 75 68 76 65 77 67 78
REMARK SMILES IDX 66 79 53 80 54 81 58 82 55 83 57 84 56 85
REMARK H PARENT 24 6 7 18 7 19 29 34 73 53 51 64
REMARK Flexibility Score: inf
ROOT
ATOM      1  C   UNL A   1      33.819  28.071  24.617  1.00  0.00     0.023 C 
ENDROOT
BRANCH   1   2
ATOM      2  C   UNL A   1      33.672  26.571  24.376  1.00  0.00     0.116 C 
BRANCH   2   3
ATOM      3  N   UNL A   1      32.519  26.208  23.583  1.00  0.00    -0.354 N 
ATOM      4  C   UNL A   1      31.744  25.081  23.616  1.00  0.00     0.244 C 
ATOM      5  O   UNL A   1      30.626  25.169  23.093  1.00  0.00    -0.273 OA
ATOM      6  H   UNL A   1      32.249  26.877  22.913  1.00  0.00     0.163 HD
BRANCH   4   7
ATOM      7  C   UNL A   1      32.116  23.790  24.391  1.00  0.00     0.191 C 
ATOM      8  C   UNL A   1      31.519  25.230  26.505  1.00  0.00     0.026 C 
ATOM      9  C   UNL A   1      31.931  23.862  25.945  1.00  0.00     0.042 C 
ATOM     10  C   UNL A   1      30.950  22.801  26.467  1.00  0.00     0.026 C 
ATOM     11  S   UNL A   1      33.575  23.343  26.719  1.00  0.00    -0.121 SA
ATOM     12  C   UNL A   1      34.143  22.528  25.201  1.00  0.00     0.213 C 
ATOM     13  N   UNL A   1      33.483  23.360  24.215  1.00  0.00    -0.306 N 
ATOM     14  C   UNL A   1      35.451  22.727  24.357  1.00  0.00     0.307 C 
ATOM     15  C   UNL A   1      34.392  23.196  23.242  1.00  0.00     0.285 C 
ATOM     16  O   UNL A   1      34.356  23.451  22.072  1.00  0.00    -0.268 OA
BRANCH  14  17
ATOM     17  N   UNL A   1      36.487  23.746  24.699  1.00  0.00    -0.315 N 
ATOM     18  H   UNL A   1      36.092  24.669  24.519  1.00  0.00     0.348 HD
ATOM     19  H   UNL A   1      37.299  23.529  24.122  1.00  0.00     0.348 HD
BRANCH  17  20
ATOM     20  C   UNL A   1      36.951  23.719  26.069  1.00  0.00     0.415 C 
BRANCH  20  21
ATOM     21  N   UNL A   1      38.297  23.185  26.267  1.00  0.00    -0.194 N 
ATOM     22  N   UNL A   1      38.693  21.967  25.863  1.00  0.00    -0.061 NA
ATOM     23  C   UNL A   1      39.263  23.819  27.017  1.00  0.00     0.095 A 
ATOM     24  N   UNL A   1      39.905  21.759  26.372  1.00  0.00    -0.130 NA
ATOM     25  C   UNL A   1      40.271  22.870  27.093  1.00  0.00     0.113 A 
ATOM     26  C   UNL A   1      39.350  25.086  27.614  1.00  0.00     0.030 A 
ATOM     27  C   UNL A   1      41.436  23.177  27.811  1.00  0.00     0.032 A 
ATOM     28  C   UNL A   1      40.538  25.394  28.278  1.00  0.00     0.002 A 
ATOM     29  C   UNL A   1      41.565  24.456  28.378  1.00  0.00     0.002 A 
ENDBRANCH  20  21
ENDBRANCH  17  20
ENDBRANCH  14  17
ENDBRANCH   4   7
ENDBRANCH   2   3
ENDBRANCH   1   2
BRANCH   1  30
ATOM     30  C   UNL A   1      33.386  28.543  26.005  1.00  0.00     0.023 C 
BRANCH  30  31
ATOM     31  C   UNL A   1      33.537  30.048  26.243  1.00  0.00     0.116 C 
BRANCH  31  32
ATOM     32  N   UNL A   1      33.682  30.394  27.641  1.00  0.00    -0.352 N 
ATOM     33  C   UNL A   1      34.650  31.276  28.062  1.00  0.00     0.251 C 
ATOM     34  H   UNL A   1      33.075  29.992  28.304  1.00  0.00     0.163 HD
ATOM     35  O   UNL A   1      34.411  32.442  28.344  1.00  0.00    -0.269 OA
BRANCH  33  36
ATOM     36  C   UNL A   1      35.946  30.677  28.402  1.00  0.00     0.039 A 
ATOM     37  C   UNL A   1      36.968  31.448  28.952  1.00  0.00     0.014 A 
ATOM     38  C   UNL A   1      36.166  29.351  27.998  1.00  0.00     0.014 A 
ATOM     39  C   UNL A   1      38.244  30.941  28.962  1.00  0.00     0.010 A 
ATOM     40  C   UNL A   1      37.444  28.831  28.031  1.00  0.00     0.010 A 
ATOM     41  C   UNL A   1      38.477  29.654  28.461  1.00  0.00    -0.014 A 
BRANCH  41  42
ATOM     42  C   UNL A   1      39.816  29.139  28.645  1.00  0.00     0.031 A 
ATOM     43  C   UNL A   1      40.078  28.826  30.069  1.00  0.00     0.074 A 
ATOM     44  C   UNL A   1      40.711  28.957  27.661  1.00  0.00     0.049 A 
ATOM     45  N   UNL A   1      40.832  29.493  30.875  1.00  0.00    -0.248 NA
ATOM     46  C   UNL A   1      39.218  27.826  30.726  1.00  0.00     0.031 C 
ATOM     47  C   UNL A   1      40.522  28.991  26.213  1.00  0.00     0.029 A 
ATOM     48  N   UNL A   1      42.015  28.610  27.791  1.00  0.00    -0.354 N 
ATOM     49  C   UNL A   1      40.670  28.900  32.117  1.00  0.00     0.074 A 
ATOM     50  C   UNL A   1      39.541  28.014  32.005  1.00  0.00     0.031 C 
ATOM     51  C   UNL A   1      41.602  28.428  25.616  1.00  0.00     0.029 A 
ATOM     52  C   UNL A   1      42.604  28.139  26.630  1.00  0.00     0.049 A 
ATOM     53  H   UNL A   1      42.503  28.687  28.643  1.00  0.00     0.167 HD
ATOM     54  C   UNL A   1      41.622  29.016  33.081  1.00  0.00     0.031 A 
ATOM     55  C   UNL A   1      43.796  27.491  26.560  1.00  0.00     0.031 A 
ATOM     56  C   UNL A   1      42.517  30.111  32.811  1.00  0.00     0.049 A 
ATOM     57  C   UNL A   1      44.556  27.831  27.792  1.00  0.00     0.074 A 
ATOM     58  C   UNL A   1      42.345  31.479  32.712  1.00  0.00     0.029 A 
ATOM     59  N   UNL A   1      43.689  29.826  32.150  1.00  0.00    -0.354 N 
ATOM     60  N   UNL A   1      45.011  29.026  28.040  1.00  0.00    -0.248 NA
ATOM     61  C   UNL A   1      44.386  26.974  28.956  1.00  0.00     0.031 C 
ATOM     62  C   UNL A   1      43.147  31.870  31.601  1.00  0.00     0.029 A 
ATOM     63  C   UNL A   1      43.840  30.748  31.143  1.00  0.00     0.049 A 
ATOM     64  H   UNL A   1      44.310  29.091  32.360  1.00  0.00     0.167 HD
ATOM     65  C   UNL A   1      44.746  29.229  29.387  1.00  0.00     0.074 A 
ATOM     66  C   UNL A   1      44.441  27.901  29.919  1.00  0.00     0.031 C 
ATOM     67  C   UNL A   1      44.503  30.479  29.882  1.00  0.00     0.031 A 
BRANCH  54  68
ATOM     68  C   UNL A   1      41.939  27.896  34.030  1.00  0.00    -0.014 A 
ATOM     69  C   UNL A   1      42.764  26.805  33.682  1.00  0.00     0.009 A 
ATOM     70  C   UNL A   1      41.626  28.040  35.390  1.00  0.00     0.009 A 
ATOM     71  C   UNL A   1      43.249  25.904  34.629  1.00  0.00     0.001 A 
ATOM     72  C   UNL A   1      42.146  27.161  36.349  1.00  0.00     0.001 A 
ATOM     73  C   UNL A   1      42.958  26.095  35.968  1.00  0.00     0.000 A 
ENDBRANCH  54  68
BRANCH  55  74
ATOM     74  C   UNL A   1      44.111  26.273  25.774  1.00  0.00    -0.014 A 
ATOM     75  C   UNL A   1      43.080  25.420  25.340  1.00  0.00     0.009 A 
ATOM     76  C   UNL A   1      45.426  25.780  25.731  1.00  0.00     0.009 A 
ATOM     77  C   UNL A   1      43.343  24.106  24.941  1.00  0.00     0.001 A 
ATOM     78  C   UNL A   1      45.690  24.462  25.333  1.00  0.00     0.001 A 
ATOM     79  C   UNL A   1      44.647  23.620  24.958  1.00  0.00     0.000 A 
ENDBRANCH  55  74
BRANCH  67  80
ATOM     80  C   UNL A   1      44.710  31.669  28.962  1.00  0.00    -0.014 A 
ATOM     81  C   UNL A   1      43.822  31.835  27.889  1.00  0.00     0.009 A 
ATOM     82  C   UNL A   1      45.834  32.513  29.021  1.00  0.00     0.009 A 
ATOM     83  C   UNL A   1      44.051  32.799  26.903  1.00  0.00     0.001 A 
ATOM     84  C   UNL A   1      46.050  33.499  28.049  1.00  0.00     0.001 A 
ATOM     85  C   UNL A   1      45.162  33.634  26.985  1.00  0.00     0.000 A 
ENDBRANCH  67  80
ENDBRANCH  41  42
ENDBRANCH  33  36
ENDBRANCH  31  32
ENDBRANCH  30  31
ENDBRANCH   1  30
TORSDOF 14
ENDMDL
MODEL 2
REMARK VINA RESULT:     -11.4      2.220      7.652
REMARK SMILES CC1(C)S[C@@H]2[C@H]([NH2+]Cn3nnc4ccccc43)C(=O)N2[C@@H]1C(=O)NCCCCNC(=O)c1ccc(-c2c3nc(c(-c4ccccc4)c4ccc([nH]4)c(-c4ccccc4)c4nc(c(-c5ccccc5)c5ccc2[nH]5)C=C4)C=C3)cc1
REMARK SMILES IDX 26 1 25 2 24 3 22 4 23 5 21 7 1 8 2 9 3 10 4 11 5 12 20 13
REMARK SMILES IDX 6 14 18 15 19 16 7 17 8 20 9 21 10 22 17 23 11 24 12 25
REMARK SMILES IDX 16 26 13 27 15 28 14 29 27 30 28 31 29 32 30 33 31 35 32 36
REMARK SMILES IDX 33 37 79 38 34 39 78 40 35 41 36 42 37 43 72 44 38 45 77 46
REMARK SMILES IDX 71 47 73 48 39 49 76 50 70 51 69 52 40 54 62 55 47 56 61 57
REMARK SMILES IDX 48 58 51 59 60 60 74 61 49 62 50 63 59 65 75 66 52 67 41 68
REMARK SMILES IDX 42 69 46 70 43 71 45 72 44 73 63 74 64 75 68 76 65 77 67 78
REMARK SMILES IDX 66 79 53 80 54 81 58 82 55 83 57 84 56 85
REMARK H PARENT 24 6 7 18 7 19 29 34 73 53 51 64
REMARK Flexibility Score: inf
ROOT
ATOM      1  C   UNL A   1      35.964  22.257  24.030  1.00  0.00     0.023 C 
ENDROOT
BRANCH   1   2
ATOM      2  C   UNL A   1      34.572  22.871  23.916  1.00  0.00     0.116 C 
BRANCH   2   3
ATOM      3  N   UNL A   1      34.463  23.913  22.919  1.00  0.00    -0.354 N 
ATOM      4  C   UNL A   1      33.670  25.026  22.888  1.00  0.00     0.244 C 
ATOM      5  O   UNL A   1      34.017  25.926  22.114  1.00  0.00    -0.273 OA
ATOM      6  H   UNL A   1      35.053  23.803  22.138  1.00  0.00     0.163 HD
BRANCH   4   7
ATOM      7  C   UNL A   1      32.487  25.280  23.860  1.00  0.00     0.191 C 
ATOM      8  C   UNL A   1      31.385  26.421  21.767  1.00  0.00     0.026 C 
ATOM      9  C   UNL A   1      31.236  25.978  23.228  1.00  0.00     0.042 C 
ATOM     10  C   UNL A   1      29.964  25.124  23.356  1.00  0.00     0.026 C 
ATOM     11  S   UNL A   1      30.848  27.486  24.298  1.00  0.00    -0.121 SA
ATOM     12  C   UNL A   1      31.797  26.851  25.708  1.00  0.00     0.213 C 
ATOM     13  N   UNL A   1      32.816  26.104  24.999  1.00  0.00    -0.306 N 
ATOM     14  C   UNL A   1      32.969  27.493  26.529  1.00  0.00     0.307 C 
ATOM     15  C   UNL A   1      33.780  26.244  25.923  1.00  0.00     0.285 C 
ATOM     16  O   UNL A   1      34.831  25.688  26.063  1.00  0.00    -0.268 OA
BRANCH  14  17
ATOM     17  N   UNL A   1      33.549  28.829  26.201  1.00  0.00    -0.315 N 
ATOM     18  H   UNL A   1      33.410  28.996  25.204  1.00  0.00     0.348 HD
ATOM     19  H   UNL A   1      34.530  28.787  26.475  1.00  0.00     0.348 HD
BRANCH  17  20
ATOM     20  C   UNL A   1      32.978  29.944  26.925  1.00  0.00     0.415 C 
BRANCH  20  21
ATOM     21  N   UNL A   1      33.942  30.873  27.512  1.00  0.00    -0.194 N 
ATOM     22  N   UNL A   1      33.720  32.187  27.677  1.00  0.00    -0.061 NA
ATOM     23  C   UNL A   1      35.237  30.525  27.827  1.00  0.00     0.095 A 
ATOM     24  N   UNL A   1      34.871  32.734  28.062  1.00  0.00    -0.130 NA
ATOM     25  C   UNL A   1      35.818  31.743  28.148  1.00  0.00     0.113 A 
ATOM     26  C   UNL A   1      35.932  29.306  27.862  1.00  0.00     0.030 A 
ATOM     27  C   UNL A   1      37.170  31.771  28.515  1.00  0.00     0.032 A 
ATOM     28  C   UNL A   1      37.262  29.347  28.282  1.00  0.00     0.002 A 
ATOM     29  C   UNL A   1      37.874  30.558  28.602  1.00  0.00     0.002 A 
ENDBRANCH  20  21
ENDBRANCH  17  20
ENDBRANCH  14  17
ENDBRANCH   4   7
ENDBRANCH   2   3
ENDBRANCH   1   2
BRANCH   1  30
ATOM     30  C   UNL A   1      36.976  23.100  24.807  1.00  0.00     0.023 C 
BRANCH  30  31
ATOM     31  C   UNL A   1      37.827  22.316  25.808  1.00  0.00     0.116 C 
BRANCH  31  32
ATOM     32  N   UNL A   1      39.247  22.555  25.664  1.00  0.00    -0.352 N 
ATOM     33  C   UNL A   1      40.068  22.667  26.762  1.00  0.00     0.251 C 
ATOM     34  H   UNL A   1      39.633  22.638  24.762  1.00  0.00     0.163 HD
ATOM     35  O   UNL A   1      40.797  21.762  27.143  1.00  0.00    -0.269 OA
BRANCH  33  36
ATOM     36  C   UNL A   1      40.216  24.023  27.304  1.00  0.00     0.039 A 
ATOM     37  C   UNL A   1      41.376  24.401  27.978  1.00  0.00     0.014 A 
ATOM     38  C   UNL A   1      39.088  24.857  27.265  1.00  0.00     0.014 A 
ATOM     39  C   UNL A   1      41.356  25.546  28.734  1.00  0.00     0.010 A 
ATOM     40  C   UNL A   1      39.075  26.022  28.005  1.00  0.00     0.010 A 
ATOM     41  C   UNL A   1      40.190  26.323  28.776  1.00  0.00    -0.014 A 
BRANCH  41  42
ATOM     42  C   UNL A   1      40.300  27.586  29.471  1.00  0.00     0.031 A 
ATOM     43  C   UNL A   1      41.270  28.484  28.801  1.00  0.00     0.074 A 
ATOM     44  C   UNL A   1      39.612  27.917  30.575  1.00  0.00     0.049 A 
ATOM     45  N   UNL A   1      42.448  28.794  29.225  1.00  0.00    -0.248 NA
ATOM     46  C   UNL A   1      41.004  28.869  27.404  1.00  0.00     0.031 C 
ATOM     47  C   UNL A   1      38.472  27.248  31.197  1.00  0.00     0.029 A 
ATOM     48  N   UNL A   1      39.773  29.024  31.342  1.00  0.00    -0.354 N 
ATOM     49  C   UNL A   1      43.023  29.550  28.216  1.00  0.00     0.074 A 
ATOM     50  C   UNL A   1      42.174  29.407  27.062  1.00  0.00     0.031 C 
ATOM     51  C   UNL A   1      37.895  28.098  32.083  1.00  0.00     0.029 A 
ATOM     52  C   UNL A   1      38.713  29.296  32.190  1.00  0.00     0.049 A 
ATOM     53  H   UNL A   1      40.580  29.587  31.300  1.00  0.00     0.167 HD
ATOM     54  C   UNL A   1      44.034  30.420  28.479  1.00  0.00     0.031 A 
ATOM     55  C   UNL A   1      38.516  30.466  32.852  1.00  0.00     0.031 A 
ATOM     56  C   UNL A   1      44.664  30.133  29.741  1.00  0.00     0.049 A 
ATOM     57  C   UNL A   1      39.830  31.158  32.925  1.00  0.00     0.074 A 
ATOM     58  C   UNL A   1      45.369  29.049  30.229  1.00  0.00     0.029 A 
ATOM     59  N   UNL A   1      44.221  30.827  30.844  1.00  0.00    -0.354 N 
ATOM     60  N   UNL A   1      40.830  30.714  33.631  1.00  0.00    -0.248 NA
ATOM     61  C   UNL A   1      40.184  32.063  31.841  1.00  0.00     0.031 C 
ATOM     62  C   UNL A   1      44.907  28.882  31.566  1.00  0.00     0.029 A 
ATOM     63  C   UNL A   1      44.023  29.922  31.859  1.00  0.00     0.049 A 
ATOM     64  H   UNL A   1      44.072  31.799  30.897  1.00  0.00     0.167 HD
ATOM     65  C   UNL A   1      41.940  30.897  32.820  1.00  0.00     0.074 A 
ATOM     66  C   UNL A   1      41.496  31.811  31.767  1.00  0.00     0.031 C 
ATOM     67  C   UNL A   1      43.022  30.066  32.898  1.00  0.00     0.031 A 
BRANCH  54  68
ATOM     68  C   UNL A   1      44.165  31.734  27.763  1.00  0.00    -0.014 A 
ATOM     69  C   UNL A   1      44.394  31.833  26.374  1.00  0.00     0.009 A 
ATOM     70  C   UNL A   1      43.802  32.915  28.426  1.00  0.00     0.009 A 
ATOM     71  C   UNL A   1      44.273  33.036  25.680  1.00  0.00     0.001 A 
ATOM     72  C   UNL A   1      43.640  34.118  27.726  1.00  0.00     0.001 A 
ATOM     73  C   UNL A   1      43.874  34.177  26.354  1.00  0.00     0.000 A 
ENDBRANCH  54  68
BRANCH  55  74
ATOM     74  C   UNL A   1      37.244  31.215  32.991  1.00  0.00    -0.014 A 
ATOM     75  C   UNL A   1      36.292  31.201  31.955  1.00  0.00     0.009 A 
ATOM     76  C   UNL A   1      37.106  32.195  33.989  1.00  0.00     0.009 A 
ATOM     77  C   UNL A   1      35.283  32.166  31.882  1.00  0.00     0.001 A 
ATOM     78  C   UNL A   1      36.095  33.164  33.914  1.00  0.00     0.001 A 
ATOM     79  C   UNL A   1      35.197  33.161  32.850  1.00  0.00     0.000 A 
ENDBRANCH  55  74
BRANCH  67  80
ATOM     80  C   UNL A   1      43.063  29.045  34.019  1.00  0.00    -0.014 A 
ATOM     81  C   UNL A   1      43.833  29.341  35.154  1.00  0.00     0.009 A 
ATOM     82  C   UNL A   1      42.516  27.752  33.917  1.00  0.00     0.009 A 
ATOM     83  C   UNL A   1      44.061  28.382  36.145  1.00  0.00     0.001 A 
ATOM     84  C   UNL A   1      42.718  26.799  34.923  1.00  0.00     0.001 A 
ATOM     85  C   UNL A   1      43.500  27.112  36.032  1.00  0.00     0.000 A 
ENDBRANCH  67  80
ENDBRANCH  41  42
ENDBRANCH  33  36
ENDBRANCH  31  32
ENDBRANCH  30  31
ENDBRANCH   1  30
TORSDOF 14
ENDMDL
MODEL 3
REMARK VINA RESULT:     -11.1      2.485      4.293
REMARK SMILES CC1(C)S[C@@H]2[C@H]([NH2+]Cn3nnc4ccccc43)C(=O)N2[C@@H]1C(=O)NCCCCNC(=O)c1ccc(-c2c3nc(c(-c4ccccc4)c4ccc([nH]4)c(-c4ccccc4)c4nc(c(-c5ccccc5)c5ccc2[nH]5)C=C4)C=C3)cc1
REMARK SMILES IDX 26 1 25 2 24 3 22 4 23 5 21 7 1 8 2 9 3 10 4 11 5 12 20 13
REMARK SMILES IDX 6 14 18 15 19 16 7 17 8 20 9 21 10 22 17 23 11 24 12 25
REMARK SMILES IDX 16 26 13 27 15 28 14 29 27 30 28 31 29 32 30 33 31 35 32 36
REMARK SMILES IDX 33 37 79 38 34 39 78 40 35 41 36 42 37 43 72 44 38 45 77 46
REMARK SMILES IDX 71 47 73 48 39 49 76 50 70 51 69 52 40 54 62 55 47 56 61 57
REMARK SMILES IDX 48 58 51 59 60 60 74 61 49 62 50 63 59 65 75 66 52 67 41 68
REMARK SMILES IDX 42 69 46 70 43 71 45 72 44 73 63 74 64 75 68 76 65 77 67 78
REMARK SMILES IDX 66 79 53 80 54 81 58 82 55 83 57 84 56 85
REMARK H PARENT 24 6 7 18 7 19 29 34 73 53 51 64
REMARK Flexibility Score: inf
ROOT
ATOM      1  C   UNL A   1      31.871  29.588  26.642  1.00  0.00     0.023 C 
ENDROOT
BRANCH   1   2
ATOM      2  C   UNL A   1      32.326  28.284  27.291  1.00  0.00     0.116 C 
BRANCH   2   3
ATOM      3  N   UNL A   1      31.416  27.177  27.099  1.00  0.00    -0.354 N 
ATOM      4  C   UNL A   1      31.427  26.176  26.169  1.00  0.00     0.244 C 
ATOM      5  O   UNL A   1      30.756  25.171  26.435  1.00  0.00    -0.273 OA
ATOM      6  H   UNL A   1      30.669  27.138  27.741  1.00  0.00     0.163 HD
BRANCH   4   7
ATOM      7  C   UNL A   1      32.336  26.165  24.911  1.00  0.00     0.191 C 
ATOM      8  C   UNL A   1      30.314  27.410  23.789  1.00  0.00     0.026 C 
ATOM      9  C   UNL A   1      31.751  26.889  23.652  1.00  0.00     0.042 C 
ATOM     10  C   UNL A   1      32.648  28.039  23.169  1.00  0.00     0.026 C 
ATOM     11  S   UNL A   1      31.830  25.655  22.223  1.00  0.00    -0.121 SA
ATOM     12  C   UNL A   1      33.066  24.621  23.056  1.00  0.00     0.213 C 
ATOM     13  N   UNL A   1      32.682  24.847  24.436  1.00  0.00    -0.306 N 
ATOM     14  C   UNL A   1      33.057  23.091  23.402  1.00  0.00     0.307 C 
ATOM     15  C   UNL A   1      33.093  23.658  24.906  1.00  0.00     0.285 C 
ATOM     16  O   UNL A   1      33.260  23.263  26.024  1.00  0.00    -0.268 OA
BRANCH  14  17
ATOM     17  N   UNL A   1      31.899  22.199  23.100  1.00  0.00    -0.315 N 
ATOM     18  H   UNL A   1      31.393  22.598  22.309  1.00  0.00     0.348 HD
ATOM     19  H   UNL A   1      31.347  22.152  23.957  1.00  0.00     0.348 HD
BRANCH  17  20
ATOM     20  C   UNL A   1      32.241  20.833  22.768  1.00  0.00     0.415 C 
BRANCH  20  21
ATOM     21  N   UNL A   1      32.323  19.912  23.901  1.00  0.00    -0.194 N 
ATOM     22  N   UNL A   1      31.985  20.233  25.160  1.00  0.00    -0.061 NA
ATOM     23  C   UNL A   1      32.892  18.660  23.823  1.00  0.00     0.095 A 
ATOM     24  N   UNL A   1      32.362  19.220  25.938  1.00  0.00    -0.130 NA
ATOM     25  C   UNL A   1      32.931  18.252  25.147  1.00  0.00     0.113 A 
ATOM     26  C   UNL A   1      33.358  17.873  22.758  1.00  0.00     0.030 A 
ATOM     27  C   UNL A   1      33.474  16.996  25.451  1.00  0.00     0.032 A 
ATOM     28  C   UNL A   1      33.845  16.604  23.075  1.00  0.00     0.002 A 
ATOM     29  C   UNL A   1      33.905  16.171  24.399  1.00  0.00     0.002 A 
ENDBRANCH  20  21
ENDBRANCH  17  20
ENDBRANCH  14  17
ENDBRANCH   4   7
ENDBRANCH   2   3
ENDBRANCH   1   2
BRANCH   1  30
ATOM     30  C   UNL A   1      32.498  30.851  27.232  1.00  0.00     0.023 C 
BRANCH  30  31
ATOM     31  C   UNL A   1      34.029  30.846  27.274  1.00  0.00     0.116 C 
BRANCH  31  32
ATOM     32  N   UNL A   1      34.566  31.103  28.594  1.00  0.00    -0.352 N 
ATOM     33  C   UNL A   1      35.775  31.737  28.761  1.00  0.00     0.251 C 
ATOM     34  H   UNL A   1      34.055  30.820  29.386  1.00  0.00     0.163 HD
ATOM     35  O   UNL A   1      35.871  32.916  29.071  1.00  0.00    -0.269 OA
BRANCH  33  36
ATOM     36  C   UNL A   1      36.950  30.857  28.801  1.00  0.00     0.039 A 
ATOM     37  C   UNL A   1      36.812  29.476  28.690  1.00  0.00     0.014 A 
ATOM     38  C   UNL A   1      38.182  31.447  29.122  1.00  0.00     0.014 A 
ATOM     39  C   UNL A   1      37.871  28.676  29.043  1.00  0.00     0.010 A 
ATOM     40  C   UNL A   1      39.256  30.645  29.454  1.00  0.00     0.010 A 
ATOM     41  C   UNL A   1      39.069  29.269  29.465  1.00  0.00    -0.014 A 
BRANCH  41  42
ATOM     42  C   UNL A   1      40.179  28.365  29.674  1.00  0.00     0.031 A 
ATOM     43  C   UNL A   1      40.611  28.368  31.091  1.00  0.00     0.074 A 
ATOM     44  C   UNL A   1      40.746  27.612  28.719  1.00  0.00     0.049 A 
ATOM     45  N   UNL A   1      41.688  28.898  31.563  1.00  0.00    -0.248 NA
ATOM     46  C   UNL A   1      39.629  27.969  32.114  1.00  0.00     0.031 C 
ATOM     47  C   UNL A   1      40.286  27.328  27.362  1.00  0.00     0.029 A 
ATOM     48  N   UNL A   1      41.866  26.856  28.826  1.00  0.00    -0.354 N 
ATOM     49  C   UNL A   1      41.601  28.760  32.939  1.00  0.00     0.074 A 
ATOM     50  C   UNL A   1      40.249  28.357  33.227  1.00  0.00     0.031 C 
ATOM     51  C   UNL A   1      40.981  26.270  26.876  1.00  0.00     0.029 A 
ATOM     52  C   UNL A   1      42.022  25.911  27.826  1.00  0.00     0.049 A 
ATOM     53  H   UNL A   1      42.517  26.971  29.557  1.00  0.00     0.167 HD
ATOM     54  C   UNL A   1      42.715  28.767  33.718  1.00  0.00     0.031 A 
ATOM     55  C   UNL A   1      42.901  24.875  27.853  1.00  0.00     0.031 A 
ATOM     56  C   UNL A   1      43.841  29.341  33.026  1.00  0.00     0.049 A 
ATOM     57  C   UNL A   1      43.965  25.225  28.832  1.00  0.00     0.074 A 
ATOM     58  C   UNL A   1      44.102  30.596  32.510  1.00  0.00     0.029 A 
ATOM     59  N   UNL A   1      44.697  28.478  32.381  1.00  0.00    -0.354 N 
ATOM     60  N   UNL A   1      44.821  26.188  28.638  1.00  0.00    -0.248 NA
ATOM     61  C   UNL A   1      43.770  24.833  30.220  1.00  0.00     0.031 C 
ATOM     62  C   UNL A   1      44.742  30.354  31.261  1.00  0.00     0.029 A 
ATOM     63  C   UNL A   1      44.927  28.977  31.122  1.00  0.00     0.049 A 
ATOM     64  H   UNL A   1      45.077  27.650  32.755  1.00  0.00     0.167 HD
ATOM     65  C   UNL A   1      44.917  26.824  29.867  1.00  0.00     0.074 A 
ATOM     66  C   UNL A   1      44.316  25.894  30.824  1.00  0.00     0.031 C 
ATOM     67  C   UNL A   1      45.196  28.158  29.956  1.00  0.00     0.031 A 
BRANCH  54  68
ATOM     68  C   UNL A   1      42.843  27.905  34.941  1.00  0.00    -0.014 A 
ATOM     69  C   UNL A   1      42.491  26.538  34.957  1.00  0.00     0.009 A 
ATOM     70  C   UNL A   1      43.566  28.381  36.044  1.00  0.00     0.009 A 
ATOM     71  C   UNL A   1      42.834  25.690  36.010  1.00  0.00     0.001 A 
ATOM     72  C   UNL A   1      43.948  27.524  37.085  1.00  0.00     0.001 A 
ATOM     73  C   UNL A   1      43.584  26.180  37.065  1.00  0.00     0.000 A 
ENDBRANCH  54  68
BRANCH  55  74
ATOM     74  C   UNL A   1      42.639  23.466  27.473  1.00  0.00    -0.014 A 
ATOM     75  C   UNL A   1      43.303  22.890  26.374  1.00  0.00     0.009 A 
ATOM     76  C   UNL A   1      41.512  22.795  27.979  1.00  0.00     0.009 A 
ATOM     77  C   UNL A   1      42.823  21.727  25.763  1.00  0.00     0.001 A 
ATOM     78  C   UNL A   1      41.030  21.630  27.365  1.00  0.00     0.001 A 
ATOM     79  C   UNL A   1      41.674  21.109  26.245  1.00  0.00     0.000 A 
ENDBRANCH  55  74
BRANCH  67  80
ATOM     80  C   UNL A   1      45.582  28.897  28.688  1.00  0.00    -0.014 A 
ATOM     81  C   UNL A   1      46.945  29.127  28.446  1.00  0.00     0.009 A 
ATOM     82  C   UNL A   1      44.650  29.512  27.830  1.00  0.00     0.009 A 
ATOM     83  C   UNL A   1      47.365  29.949  27.396  1.00  0.00     0.001 A 
ATOM     84  C   UNL A   1      45.071  30.312  26.760  1.00  0.00     0.001 A 
ATOM     85  C   UNL A   1      46.429  30.538  26.551  1.00  0.00     0.000 A 
ENDBRANCH  67  80
ENDBRANCH  41  42
ENDBRANCH  33  36
ENDBRANCH  31  32
ENDBRANCH  30  31
ENDBRANCH   1  30
TORSDOF 14
ENDMDL
