MODEL 1
REMARK VINA RESULT:      -9.4      0.000      0.000
REMARK SMILES C[C@@H](CO)C[NH2+]CC(C)(C)C(=O)NCCCCNC(=O)c1ccc(-c2c3nc(c(-c4ccccc4)c4ccc([nH]4)c(-c4ccccc4)c4nc(c(-c5ccccc5)c5ccc2[nH]5)C=C4)C=C3)cc1
REMARK SMILES IDX 11 1 12 2 13 3 8 5 9 6 10 7 7 8 6 9 5 12 2 13 1 14 3 15 4 16
REMARK SMILES IDX 14 18 15 19 16 20 17 21 18 22 19 23 20 25 21 26 22 27 68 28
REMARK SMILES IDX 23 29 67 30 24 31 25 32 26 33 61 34 27 35 66 36 60 37 62 38
REMARK SMILES IDX 28 39 65 40 59 41 58 42 29 44 51 45 36 46 50 47 37 48 40 49
REMARK SMILES IDX 49 50 63 51 38 52 39 53 48 55 64 56 41 57 30 58 31 59 35 60
REMARK SMILES IDX 32 61 34 62 33 63 52 64 53 65 57 66 54 67 56 68 55 69 42 70
REMARK SMILES IDX 43 71 47 72 44 73 46 74 45 75
REMARK H PARENT 13 4 6 10 6 11 4 17 18 24 62 43 40 54
REMARK Flexibility Score: inf
ROOT
ATOM      1  C   UNL A   1      33.457  28.574  23.697  1.00  0.00     0.231 C 
ATOM      2  O   UNL A   1      34.132  28.777  22.684  1.00  0.00    -0.274 OA
ATOM      3  N   UNL A   1      33.043  29.688  24.355  1.00  0.00    -0.355 N 
ATOM      4  H   UNL A   1      32.798  30.449  23.781  1.00  0.00     0.163 HD
ENDROOT
BRANCH   1   5
ATOM      5  C   UNL A   1      33.134  27.151  24.195  1.00  0.00     0.092 C 
ATOM      6  C   UNL A   1      33.757  26.797  25.559  1.00  0.00     0.027 C 
ATOM      7  C   UNL A   1      33.627  26.175  23.111  1.00  0.00     0.027 C 
BRANCH   5   8
ATOM      8  C   UNL A   1      31.574  26.992  24.314  1.00  0.00     0.276 C 
BRANCH   8   9
ATOM      9  N   UNL A   1      30.751  27.207  23.101  1.00  0.00    -0.345 N 
ATOM     10  H   UNL A   1      31.237  27.859  22.487  1.00  0.00     0.346 HD
ATOM     11  H   UNL A   1      30.617  26.301  22.653  1.00  0.00     0.346 HD
BRANCH   9  12
ATOM     12  C   UNL A   1      29.427  27.752  23.415  1.00  0.00     0.266 C 
BRANCH  12  13
ATOM     13  C   UNL A   1      28.979  28.896  22.488  1.00  0.00     0.067 C 
ATOM     14  C   UNL A   1      27.560  29.371  22.821  1.00  0.00     0.016 C 
BRANCH  13  15
ATOM     15  C   UNL A   1      29.981  30.059  22.605  1.00  0.00     0.165 C 
BRANCH  15  16
ATOM     16  O   UNL A   1      31.112  29.883  21.757  1.00  0.00    -0.396 OA
ATOM     17  H   UNL A   1      30.816  29.787  20.838  1.00  0.00     0.210 HD
ENDBRANCH  15  16
ENDBRANCH  13  15
ENDBRANCH  12  13
ENDBRANCH   9  12
ENDBRANCH   8   9
ENDBRANCH   5   8
ENDBRANCH   1   5
BRANCH   3  18
ATOM     18  C   UNL A   1      32.910  29.918  25.776  1.00  0.00     0.116 C 
BRANCH  18  19
ATOM     19  C   UNL A   1      31.484  30.357  26.105  1.00  0.00     0.023 C 
BRANCH  19  20
ATOM     20  C   UNL A   1      31.368  31.796  26.612  1.00  0.00     0.023 C 
BRANCH  20  21
ATOM     21  C   UNL A   1      32.654  32.375  27.184  1.00  0.00     0.116 C 
BRANCH  21  22
ATOM     22  N   UNL A   1      32.498  33.755  27.620  1.00  0.00    -0.352 N 
ATOM     23  C   UNL A   1      33.237  34.462  28.530  1.00  0.00     0.251 C 
ATOM     24  H   UNL A   1      31.758  34.249  27.200  1.00  0.00     0.163 HD
ATOM     25  O   UNL A   1      32.861  35.575  28.895  1.00  0.00    -0.269 OA
BRANCH  23  26
ATOM     26  C   UNL A   1      34.474  33.882  29.085  1.00  0.00     0.039 A 
ATOM     27  C   UNL A   1      35.693  34.186  28.477  1.00  0.00     0.014 A 
ATOM     28  C   UNL A   1      34.432  33.026  30.190  1.00  0.00     0.014 A 
ATOM     29  C   UNL A   1      36.873  33.652  28.994  1.00  0.00     0.010 A 
ATOM     30  C   UNL A   1      35.616  32.571  30.759  1.00  0.00     0.010 A 
ATOM     31  C   UNL A   1      36.845  32.852  30.148  1.00  0.00    -0.014 A 
BRANCH  31  32
ATOM     32  C   UNL A   1      38.089  32.249  30.686  1.00  0.00     0.031 A 
ATOM     33  C   UNL A   1      38.624  30.974  30.088  1.00  0.00     0.074 A 
ATOM     34  C   UNL A   1      38.724  32.830  31.720  1.00  0.00     0.049 A 
ATOM     35  N   UNL A   1      39.696  30.296  30.410  1.00  0.00    -0.248 NA
ATOM     36  C   UNL A   1      37.838  30.367  29.000  1.00  0.00     0.031 C 
ATOM     37  C   UNL A   1      38.286  34.043  32.415  1.00  0.00     0.029 A 
ATOM     38  N   UNL A   1      39.884  32.480  32.364  1.00  0.00    -0.354 N 
ATOM     39  C   UNL A   1      39.701  29.182  29.580  1.00  0.00     0.074 A 
ATOM     40  C   UNL A   1      38.495  29.239  28.785  1.00  0.00     0.031 C 
ATOM     41  C   UNL A   1      39.186  34.357  33.360  1.00  0.00     0.029 A 
ATOM     42  C   UNL A   1      40.243  33.351  33.364  1.00  0.00     0.049 A 
ATOM     43  H   UNL A   1      40.408  31.679  32.133  1.00  0.00     0.167 HD
ATOM     44  C   UNL A   1      40.638  28.212  29.466  1.00  0.00     0.031 A 
ATOM     45  C   UNL A   1      41.310  33.342  34.185  1.00  0.00     0.031 A 
ATOM     46  C   UNL A   1      41.844  28.161  30.247  1.00  0.00     0.049 A 
ATOM     47  C   UNL A   1      42.335  32.252  34.039  1.00  0.00     0.074 A 
ATOM     48  C   UNL A   1      42.880  27.248  30.177  1.00  0.00     0.029 A 
ATOM     49  N   UNL A   1      42.174  29.068  31.243  1.00  0.00    -0.354 N 
ATOM     50  N   UNL A   1      42.361  31.244  33.202  1.00  0.00    -0.248 NA
ATOM     51  C   UNL A   1      43.495  32.315  34.940  1.00  0.00     0.031 C 
ATOM     52  C   UNL A   1      43.813  27.570  31.168  1.00  0.00     0.029 A 
ATOM     53  C   UNL A   1      43.391  28.725  31.807  1.00  0.00     0.049 A 
ATOM     54  H   UNL A   1      41.624  29.840  31.510  1.00  0.00     0.167 HD
ATOM     55  C   UNL A   1      43.556  30.577  33.447  1.00  0.00     0.074 A 
ATOM     56  C   UNL A   1      44.231  31.307  34.500  1.00  0.00     0.031 C 
ATOM     57  C   UNL A   1      44.052  29.465  32.851  1.00  0.00     0.031 A 
BRANCH  44  58
ATOM     58  C   UNL A   1      40.387  27.122  28.457  1.00  0.00    -0.014 A 
ATOM     59  C   UNL A   1      39.683  25.957  28.802  1.00  0.00     0.009 A 
ATOM     60  C   UNL A   1      40.840  27.273  27.138  1.00  0.00     0.009 A 
ATOM     61  C   UNL A   1      39.475  24.949  27.858  1.00  0.00     0.001 A 
ATOM     62  C   UNL A   1      40.601  26.279  26.188  1.00  0.00     0.001 A 
ATOM     63  C   UNL A   1      39.929  25.113  26.551  1.00  0.00     0.000 A 
ENDBRANCH  44  58
BRANCH  45  64
ATOM     64  C   UNL A   1      41.483  34.417  35.198  1.00  0.00    -0.014 A 
ATOM     65  C   UNL A   1      40.964  34.268  36.494  1.00  0.00     0.009 A 
ATOM     66  C   UNL A   1      42.151  35.607  34.870  1.00  0.00     0.009 A 
ATOM     67  C   UNL A   1      41.075  35.302  37.427  1.00  0.00     0.001 A 
ATOM     68  C   UNL A   1      42.290  36.626  35.815  1.00  0.00     0.001 A 
ATOM     69  C   UNL A   1      41.741  36.478  37.087  1.00  0.00     0.000 A 
ENDBRANCH  45  64
BRANCH  57  70
ATOM     70  C   UNL A   1      45.418  29.007  33.282  1.00  0.00    -0.014 A 
ATOM     71  C   UNL A   1      46.587  29.503  32.685  1.00  0.00     0.009 A 
ATOM     72  C   UNL A   1      45.531  28.072  34.325  1.00  0.00     0.009 A 
ATOM     73  C   UNL A   1      47.839  29.033  33.088  1.00  0.00     0.001 A 
ATOM     74  C   UNL A   1      46.785  27.632  34.750  1.00  0.00     0.001 A 
ATOM     75  C   UNL A   1      47.937  28.101  34.121  1.00  0.00     0.000 A 
ENDBRANCH  57  70
ENDBRANCH  31  32
ENDBRANCH  23  26
ENDBRANCH  21  22
ENDBRANCH  20  21
ENDBRANCH  19  20
ENDBRANCH  18  19
ENDBRANCH   3  18
TORSDOF 17
ENDMDL
MODEL 2
REMARK VINA RESULT:      -9.1      1.180      6.401
REMARK SMILES C[C@@H](CO)C[NH2+]CC(C)(C)C(=O)NCCCCNC(=O)c1ccc(-c2c3nc(c(-c4ccccc4)c4ccc([nH]4)c(-c4ccccc4)c4nc(c(-c5ccccc5)c5ccc2[nH]5)C=C4)C=C3)cc1
REMARK SMILES IDX 11 1 12 2 13 3 8 5 9 6 10 7 7 8 6 9 5 12 2 13 1 14 3 15 4 16
REMARK SMILES IDX 14 18 15 19 16 20 17 21 18 22 19 23 20 25 21 26 22 27 68 28
REMARK SMILES IDX 23 29 67 30 24 31 25 32 26 33 61 34 27 35 66 36 60 37 62 38
REMARK SMILES IDX 28 39 65 40 59 41 58 42 29 44 51 45 36 46 50 47 37 48 40 49
REMARK SMILES IDX 49 50 63 51 38 52 39 53 48 55 64 56 41 57 30 58 31 59 35 60
REMARK SMILES IDX 32 61 34 62 33 63 52 64 53 65 57 66 54 67 56 68 55 69 42 70
REMARK SMILES IDX 43 71 47 72 44 73 46 74 45 75
REMARK H PARENT 13 4 6 10 6 11 4 17 18 24 62 43 40 54
REMARK Flexibility Score: inf
ROOT
ATOM      1  C   UNL A   1      32.368  28.535  23.691  1.00  0.00     0.231 C 
ATOM      2  O   UNL A   1      33.512  28.081  23.602  1.00  0.00    -0.274 OA
ATOM      3  N   UNL A   1      32.253  29.695  24.389  1.00  0.00    -0.355 N 
ATOM      4  H   UNL A   1      32.996  30.331  24.274  1.00  0.00     0.163 HD
ENDROOT
BRANCH   1   5
ATOM      5  C   UNL A   1      31.150  27.817  23.076  1.00  0.00     0.092 C 
ATOM      6  C   UNL A   1      30.229  27.131  24.103  1.00  0.00     0.027 C 
ATOM      7  C   UNL A   1      31.699  26.783  22.075  1.00  0.00     0.027 C 
BRANCH   5   8
ATOM      8  C   UNL A   1      30.293  28.861  22.270  1.00  0.00     0.276 C 
BRANCH   8   9
ATOM      9  N   UNL A   1      28.933  29.182  22.759  1.00  0.00    -0.345 N 
ATOM     10  H   UNL A   1      28.447  28.311  22.970  1.00  0.00     0.346 HD
ATOM     11  H   UNL A   1      29.032  29.765  23.590  1.00  0.00     0.346 HD
BRANCH   9  12
ATOM     12  C   UNL A   1      28.149  29.934  21.775  1.00  0.00     0.266 C 
BRANCH  12  13
ATOM     13  C   UNL A   1      27.624  31.287  22.286  1.00  0.00     0.067 C 
ATOM     14  C   UNL A   1      27.613  31.348  23.818  1.00  0.00     0.016 C 
BRANCH  13  15
ATOM     15  C   UNL A   1      28.494  32.416  21.704  1.00  0.00     0.165 C 
BRANCH  15  16
ATOM     16  O   UNL A   1      27.712  33.500  21.211  1.00  0.00    -0.396 OA
ATOM     17  H   UNL A   1      27.196  33.204  20.444  1.00  0.00     0.210 HD
ENDBRANCH  15  16
ENDBRANCH  13  15
ENDBRANCH  12  13
ENDBRANCH   9  12
ENDBRANCH   8   9
ENDBRANCH   5   8
ENDBRANCH   1   5
BRANCH   3  18
ATOM     18  C   UNL A   1      31.199  30.131  25.277  1.00  0.00     0.116 C 
BRANCH  18  19
ATOM     19  C   UNL A   1      31.791  30.597  26.606  1.00  0.00     0.023 C 
BRANCH  19  20
ATOM     20  C   UNL A   1      31.476  32.052  26.961  1.00  0.00     0.023 C 
BRANCH  20  21
ATOM     21  C   UNL A   1      32.686  32.976  26.996  1.00  0.00     0.116 C 
BRANCH  21  22
ATOM     22  N   UNL A   1      32.466  34.151  27.826  1.00  0.00    -0.352 N 
ATOM     23  C   UNL A   1      33.193  34.601  28.894  1.00  0.00     0.251 C 
ATOM     24  H   UNL A   1      31.685  34.698  27.584  1.00  0.00     0.163 HD
ATOM     25  O   UNL A   1      32.767  35.529  29.581  1.00  0.00    -0.269 OA
BRANCH  23  26
ATOM     26  C   UNL A   1      34.479  33.963  29.232  1.00  0.00     0.039 A 
ATOM     27  C   UNL A   1      34.518  33.036  30.276  1.00  0.00     0.014 A 
ATOM     28  C   UNL A   1      35.647  34.288  28.536  1.00  0.00     0.014 A 
ATOM     29  C   UNL A   1      35.724  32.417  30.604  1.00  0.00     0.010 A 
ATOM     30  C   UNL A   1      36.826  33.603  28.802  1.00  0.00     0.010 A 
ATOM     31  C   UNL A   1      36.885  32.685  29.860  1.00  0.00    -0.014 A 
BRANCH  31  32
ATOM     32  C   UNL A   1      38.181  32.060  30.221  1.00  0.00     0.031 A 
ATOM     33  C   UNL A   1      39.088  32.737  31.215  1.00  0.00     0.074 A 
ATOM     34  C   UNL A   1      38.552  30.902  29.644  1.00  0.00     0.049 A 
ATOM     35  N   UNL A   1      40.254  32.350  31.667  1.00  0.00    -0.248 NA
ATOM     36  C   UNL A   1      38.638  34.032  31.755  1.00  0.00     0.031 C 
ATOM     37  C   UNL A   1      37.783  30.169  28.636  1.00  0.00     0.029 A 
ATOM     38  N   UNL A   1      39.673  30.133  29.831  1.00  0.00    -0.354 N 
ATOM     39  C   UNL A   1      40.678  33.358  32.525  1.00  0.00     0.074 A 
ATOM     40  C   UNL A   1      39.679  34.401  32.482  1.00  0.00     0.031 C 
ATOM     41  C   UNL A   1      38.435  29.038  28.324  1.00  0.00     0.029 A 
ATOM     42  C   UNL A   1      39.683  28.983  29.079  1.00  0.00     0.049 A 
ATOM     43  H   UNL A   1      40.402  30.383  30.444  1.00  0.00     0.167 HD
ATOM     44  C   UNL A   1      41.785  33.400  33.303  1.00  0.00     0.031 A 
ATOM     45  C   UNL A   1      40.593  27.993  29.015  1.00  0.00     0.031 A 
ATOM     46  C   UNL A   1      42.773  32.356  33.356  1.00  0.00     0.049 A 
ATOM     47  C   UNL A   1      41.815  28.065  29.887  1.00  0.00     0.074 A 
ATOM     48  C   UNL A   1      43.907  32.280  34.144  1.00  0.00     0.029 A 
ATOM     49  N   UNL A   1      42.741  31.204  32.585  1.00  0.00    -0.354 N 
ATOM     50  N   UNL A   1      42.168  28.992  30.746  1.00  0.00    -0.248 NA
ATOM     51  C   UNL A   1      42.754  26.939  29.798  1.00  0.00     0.031 C 
ATOM     52  C   UNL A   1      44.590  31.106  33.812  1.00  0.00     0.029 A 
ATOM     53  C   UNL A   1      43.845  30.418  32.867  1.00  0.00     0.049 A 
ATOM     54  H   UNL A   1      42.038  30.979  31.933  1.00  0.00     0.167 HD
ATOM     55  C   UNL A   1      43.347  28.540  31.328  1.00  0.00     0.074 A 
ATOM     56  C   UNL A   1      43.637  27.251  30.734  1.00  0.00     0.031 C 
ATOM     57  C   UNL A   1      44.117  29.135  32.272  1.00  0.00     0.031 A 
BRANCH  44  58
ATOM     58  C   UNL A   1      41.983  34.623  34.158  1.00  0.00    -0.014 A 
ATOM     59  C   UNL A   1      42.684  35.742  33.679  1.00  0.00     0.009 A 
ATOM     60  C   UNL A   1      41.442  34.667  35.451  1.00  0.00     0.009 A 
ATOM     61  C   UNL A   1      42.875  36.861  34.492  1.00  0.00     0.001 A 
ATOM     62  C   UNL A   1      41.604  35.801  36.250  1.00  0.00     0.001 A 
ATOM     63  C   UNL A   1      42.329  36.892  35.775  1.00  0.00     0.000 A 
ENDBRANCH  44  58
BRANCH  45  64
ATOM     64  C   UNL A   1      40.370  26.830  28.115  1.00  0.00    -0.014 A 
ATOM     65  C   UNL A   1      39.667  25.701  28.567  1.00  0.00     0.009 A 
ATOM     66  C   UNL A   1      40.876  26.832  26.806  1.00  0.00     0.009 A 
ATOM     67  C   UNL A   1      39.511  24.585  27.741  1.00  0.00     0.001 A 
ATOM     68  C   UNL A   1      40.690  25.729  25.971  1.00  0.00     0.001 A 
ATOM     69  C   UNL A   1      40.019  24.602  26.443  1.00  0.00     0.000 A 
ENDBRANCH  45  64
BRANCH  57  70
ATOM     70  C   UNL A   1      45.313  28.369  32.765  1.00  0.00    -0.014 A 
ATOM     71  C   UNL A   1      45.222  27.461  33.831  1.00  0.00     0.009 A 
ATOM     72  C   UNL A   1      46.553  28.550  32.130  1.00  0.00     0.009 A 
ATOM     73  C   UNL A   1      46.359  26.789  34.284  1.00  0.00     0.001 A 
ATOM     74  C   UNL A   1      47.680  27.849  32.562  1.00  0.00     0.001 A 
ATOM     75  C   UNL A   1      47.585  26.982  33.647  1.00  0.00     0.000 A 
ENDBRANCH  57  70
ENDBRANCH  31  32
ENDBRANCH  23  26
ENDBRANCH  21  22
ENDBRANCH  20  21
ENDBRANCH  19  20
ENDBRANCH  18  19
ENDBRANCH   3  18
TORSDOF 17
ENDMDL
MODEL 3
REMARK VINA RESULT:      -8.9      4.451      9.210
REMARK SMILES C[C@@H](CO)C[NH2+]CC(C)(C)C(=O)NCCCCNC(=O)c1ccc(-c2c3nc(c(-c4ccccc4)c4ccc([nH]4)c(-c4ccccc4)c4nc(c(-c5ccccc5)c5ccc2[nH]5)C=C4)C=C3)cc1
REMARK SMILES IDX 11 1 12 2 13 3 8 5 9 6 10 7 7 8 6 9 5 12 2 13 1 14 3 15 4 16
REMARK SMILES IDX 14 18 15 19 16 20 17 21 18 22 19 23 20 25 21 26 22 27 68 28
REMARK SMILES IDX 23 29 67 30 24 31 25 32 26 33 61 34 27 35 66 36 60 37 62 38
REMARK SMILES IDX 28 39 65 40 59 41 58 42 29 44 51 45 36 46 50 47 37 48 40 49
REMARK SMILES IDX 49 50 63 51 38 52 39 53 48 55 64 56 41 57 30 58 31 59 35 60
REMARK SMILES IDX 32 61 34 62 33 63 52 64 53 65 57 66 54 67 56 68 55 69 42 70
REMARK SMILES IDX 43 71 47 72 44 73 46 74 45 75
REMARK H PARENT 13 4 6 10 6 11 4 17 18 24 62 43 40 54
REMARK Flexibility Score: inf
ROOT
ATOM      1  C   UNL A   1      34.342  21.907  25.410  1.00  0.00     0.231 C 
ATOM      2  O   UNL A   1      33.283  21.648  25.987  1.00  0.00    -0.274 OA
ATOM      3  N   UNL A   1      35.322  20.975  25.539  1.00  0.00    -0.355 N 
ATOM      4  H   UNL A   1      35.014  20.040  25.543  1.00  0.00     0.163 HD
ENDROOT
BRANCH   1   5
ATOM      5  C   UNL A   1      34.547  23.216  24.621  1.00  0.00     0.092 C 
ATOM      6  C   UNL A   1      35.111  23.023  23.201  1.00  0.00     0.027 C 
ATOM      7  C   UNL A   1      35.492  24.099  25.457  1.00  0.00     0.027 C 
BRANCH   5   8
ATOM      8  C   UNL A   1      33.168  23.964  24.503  1.00  0.00     0.276 C 
BRANCH   8   9
ATOM      9  N   UNL A   1      32.033  23.250  23.874  1.00  0.00    -0.345 N 
ATOM     10  H   UNL A   1      32.071  23.398  22.866  1.00  0.00     0.346 HD
ATOM     11  H   UNL A   1      32.119  22.261  24.109  1.00  0.00     0.346 HD
BRANCH   9  12
ATOM     12  C   UNL A   1      30.736  23.717  24.371  1.00  0.00     0.266 C 
BRANCH  12  13
ATOM     13  C   UNL A   1      30.776  24.292  25.798  1.00  0.00     0.067 C 
ATOM     14  C   UNL A   1      29.913  25.553  25.926  1.00  0.00     0.016 C 
BRANCH  13  15
ATOM     15  C   UNL A   1      30.306  23.211  26.789  1.00  0.00     0.165 C 
BRANCH  15  16
ATOM     16  O   UNL A   1      30.376  21.902  26.231  1.00  0.00    -0.396 OA
ATOM     17  H   UNL A   1      30.334  21.960  25.263  1.00  0.00     0.210 HD
ENDBRANCH  15  16
ENDBRANCH  13  15
ENDBRANCH  12  13
ENDBRANCH   9  12
ENDBRANCH   8   9
ENDBRANCH   5   8
ENDBRANCH   1   5
BRANCH   3  18
ATOM     18  C   UNL A   1      36.750  21.156  25.672  1.00  0.00     0.116 C 
BRANCH  18  19
ATOM     19  C   UNL A   1      37.484  20.335  24.612  1.00  0.00     0.023 C 
BRANCH  19  20
ATOM     20  C   UNL A   1      38.421  19.267  25.180  1.00  0.00     0.023 C 
BRANCH  20  21
ATOM     21  C   UNL A   1      39.525  19.803  26.081  1.00  0.00     0.116 C 
BRANCH  21  22
ATOM     22  N   UNL A   1      40.800  19.138  25.855  1.00  0.00    -0.352 N 
ATOM     23  C   UNL A   1      42.068  19.640  25.967  1.00  0.00     0.251 C 
ATOM     24  H   UNL A   1      40.741  18.193  25.585  1.00  0.00     0.163 HD
ATOM     25  O   UNL A   1      43.029  18.977  25.580  1.00  0.00    -0.269 OA
BRANCH  23  26
ATOM     26  C   UNL A   1      42.280  20.985  26.535  1.00  0.00     0.039 A 
ATOM     27  C   UNL A   1      42.569  22.043  25.672  1.00  0.00     0.014 A 
ATOM     28  C   UNL A   1      42.212  21.200  27.915  1.00  0.00     0.014 A 
ATOM     29  C   UNL A   1      42.765  23.323  26.192  1.00  0.00     0.010 A 
ATOM     30  C   UNL A   1      42.315  22.490  28.421  1.00  0.00     0.010 A 
ATOM     31  C   UNL A   1      42.625  23.559  27.569  1.00  0.00    -0.014 A 
BRANCH  31  32
ATOM     32  C   UNL A   1      42.866  24.907  28.138  1.00  0.00     0.031 A 
ATOM     33  C   UNL A   1      44.261  25.318  28.528  1.00  0.00     0.074 A 
ATOM     34  C   UNL A   1      41.834  25.752  28.325  1.00  0.00     0.049 A 
ATOM     35  N   UNL A   1      44.679  26.451  29.033  1.00  0.00    -0.248 NA
ATOM     36  C   UNL A   1      45.326  24.316  28.351  1.00  0.00     0.031 C 
ATOM     37  C   UNL A   1      40.431  25.459  28.027  1.00  0.00     0.029 A 
ATOM     38  N   UNL A   1      41.810  27.037  28.804  1.00  0.00    -0.354 N 
ATOM     39  C   UNL A   1      46.042  26.289  29.246  1.00  0.00     0.074 A 
ATOM     40  C   UNL A   1      46.371  24.931  28.879  1.00  0.00     0.031 C 
ATOM     41  C   UNL A   1      39.689  26.545  28.293  1.00  0.00     0.029 A 
ATOM     42  C   UNL A   1      40.556  27.598  28.813  1.00  0.00     0.049 A 
ATOM     43  H   UNL A   1      42.616  27.512  29.114  1.00  0.00     0.167 HD
ATOM     44  C   UNL A   1      46.948  27.197  29.681  1.00  0.00     0.031 A 
ATOM     45  C   UNL A   1      40.154  28.826  29.190  1.00  0.00     0.031 A 
ATOM     46  C   UNL A   1      46.623  28.552  30.035  1.00  0.00     0.049 A 
ATOM     47  C   UNL A   1      41.180  29.815  29.672  1.00  0.00     0.074 A 
ATOM     48  C   UNL A   1      47.473  29.564  30.443  1.00  0.00     0.029 A 
ATOM     49  N   UNL A   1      45.343  29.083  30.022  1.00  0.00    -0.354 N 
ATOM     50  N   UNL A   1      42.476  29.669  29.802  1.00  0.00    -0.248 NA
ATOM     51  C   UNL A   1      40.686  31.150  30.036  1.00  0.00     0.031 C 
ATOM     52  C   UNL A   1      46.699  30.694  30.728  1.00  0.00     0.029 A 
ATOM     53  C   UNL A   1      45.376  30.405  30.431  1.00  0.00     0.049 A 
ATOM     54  H   UNL A   1      44.529  28.592  29.762  1.00  0.00     0.167 HD
ATOM     55  C   UNL A   1      42.957  30.903  30.223  1.00  0.00     0.074 A 
ATOM     56  C   UNL A   1      41.813  31.788  30.310  1.00  0.00     0.031 C 
ATOM     57  C   UNL A   1      44.230  31.274  30.507  1.00  0.00     0.031 A 
BRANCH  44  58
ATOM     58  C   UNL A   1      48.379  26.744  29.801  1.00  0.00    -0.014 A 
ATOM     59  C   UNL A   1      48.863  26.159  30.983  1.00  0.00     0.009 A 
ATOM     60  C   UNL A   1      49.249  26.882  28.709  1.00  0.00     0.009 A 
ATOM     61  C   UNL A   1      50.198  25.762  31.082  1.00  0.00     0.001 A 
ATOM     62  C   UNL A   1      50.574  26.452  28.800  1.00  0.00     0.001 A 
ATOM     63  C   UNL A   1      51.050  25.903  29.989  1.00  0.00     0.000 A 
ENDBRANCH  44  58
BRANCH  45  64
ATOM     64  C   UNL A   1      38.719  29.205  29.098  1.00  0.00    -0.014 A 
ATOM     65  C   UNL A   1      38.203  29.766  27.919  1.00  0.00     0.009 A 
ATOM     66  C   UNL A   1      37.862  29.027  30.194  1.00  0.00     0.009 A 
ATOM     67  C   UNL A   1      36.869  30.177  27.854  1.00  0.00     0.001 A 
ATOM     68  C   UNL A   1      36.521  29.408  30.115  1.00  0.00     0.001 A 
ATOM     69  C   UNL A   1      36.029  29.994  28.950  1.00  0.00     0.000 A 
ENDBRANCH  45  64
BRANCH  57  70
ATOM     70  C   UNL A   1      44.459  32.712  30.878  1.00  0.00    -0.014 A 
ATOM     71  C   UNL A   1      44.713  33.695  29.909  1.00  0.00     0.009 A 
ATOM     72  C   UNL A   1      44.399  33.090  32.230  1.00  0.00     0.009 A 
ATOM     73  C   UNL A   1      44.953  35.017  30.291  1.00  0.00     0.001 A 
ATOM     74  C   UNL A   1      44.603  34.419  32.605  1.00  0.00     0.001 A 
ATOM     75  C   UNL A   1      44.895  35.377  31.637  1.00  0.00     0.000 A 
ENDBRANCH  57  70
ENDBRANCH  31  32
ENDBRANCH  23  26
ENDBRANCH  21  22
ENDBRANCH  20  21
ENDBRANCH  19  20
ENDBRANCH  18  19
ENDBRANCH   3  18
TORSDOF 17
ENDMDL
