MODEL 1
REMARK VINA RESULT:      -9.7      0.000      0.000
REMARK SMILES C=CC[N@H+](CC(=O)NCCCCNC(=O)c1ccc(-c2c3nc(c(-c4ccccc4)c4ccc([nH]4)c(-c4ccccc4)c4nc(c(-c5ccccc5)c5ccc2[nH]5)C=C4)C=C3)cc1)[C@H](C)c1ccc(F)cc1O
REMARK SMILES IDX 9 1 8 2 6 3 7 4 5 6 4 7 3 9 2 10 1 11 64 12 65 13 66 14
REMARK SMILES IDX 67 15 72 16 68 17 71 18 69 19 70 20 73 21 10 23 11 24 12 25
REMARK SMILES IDX 13 26 14 27 15 29 16 30 17 31 63 32 18 33 62 34 19 35 20 36
REMARK SMILES IDX 21 37 56 38 22 39 61 40 55 41 57 42 23 43 60 44 54 45 53 46
REMARK SMILES IDX 24 48 46 49 31 50 45 51 32 52 35 53 44 54 58 55 33 56 34 57
REMARK SMILES IDX 43 59 59 60 36 61 25 62 26 63 30 64 27 65 29 66 28 67 47 68
REMARK SMILES IDX 48 69 52 70 49 71 51 72 50 73 37 74 38 75 42 76 39 77 41 78
REMARK SMILES IDX 40 79
REMARK H PARENT 8 5 4 8 73 22 13 28 57 47 35 58
REMARK Flexibility Score: inf
ROOT
ATOM      1  C   UNL A   1      36.971  22.791  25.657  1.00  0.00     0.116 C 
ENDROOT
BRANCH   1   2
ATOM      2  N   UNL A   1      36.303  24.013  25.232  1.00  0.00    -0.351 N 
ATOM      3  C   UNL A   1      34.985  24.397  25.288  1.00  0.00     0.275 C 
ATOM      4  O   UNL A   1      34.679  25.446  24.716  1.00  0.00    -0.269 OA
ATOM      5  H   UNL A   1      36.903  24.685  24.834  1.00  0.00     0.163 HD
BRANCH   3   6
ATOM      6  C   UNL A   1      33.928  23.575  26.064  1.00  0.00     0.364 C 
BRANCH   6   7
ATOM      7  N   UNL A   1      32.570  23.539  25.412  1.00  0.00    -0.318 N 
ATOM      8  H   UNL A   1      32.537  24.111  24.567  1.00  0.00     0.349 HD
BRANCH   7   9
ATOM      9  C   UNL A   1      32.314  22.158  25.000  1.00  0.00     0.291 C 
BRANCH   9  10
ATOM     10  C   UNL A   1      33.162  20.967  25.323  1.00  0.00     0.025 C 
ATOM     11  C   UNL A   1      32.787  19.692  25.145  1.00  0.00     0.010 C 
ENDBRANCH   9  10
ENDBRANCH   7   9
BRANCH   7  12
ATOM     12  C   UNL A   1      31.528  24.175  26.269  1.00  0.00     0.216 C 
ATOM     13  C   UNL A   1      30.463  23.198  26.799  1.00  0.00     0.081 C 
BRANCH  12  14
ATOM     14  C   UNL A   1      30.971  25.441  25.606  1.00  0.00     0.051 A 
ATOM     15  C   UNL A   1      29.886  25.399  24.708  1.00  0.00     0.017 A 
ATOM     16  C   UNL A   1      31.639  26.677  25.762  1.00  0.00     0.127 A 
ATOM     17  C   UNL A   1      29.557  26.514  23.932  1.00  0.00     0.040 A 
ATOM     18  C   UNL A   1      31.300  27.795  25.007  1.00  0.00     0.085 A 
ATOM     19  C   UNL A   1      30.280  27.692  24.075  1.00  0.00     0.126 A 
ATOM     20  F   UNL A   1      30.010  28.727  23.269  1.00  0.00    -0.207 F 
BRANCH  16  21
ATOM     21  O   UNL A   1      32.739  26.796  26.571  1.00  0.00    -0.507 OA
ATOM     22  H   UNL A   1      33.202  27.609  26.613  1.00  0.00     0.293 HD
ENDBRANCH  16  21
ENDBRANCH  12  14
ENDBRANCH   7  12
ENDBRANCH   6   7
ENDBRANCH   3   6
ENDBRANCH   1   2
BRANCH   1  23
ATOM     23  C   UNL A   1      36.966  21.730  24.544  1.00  0.00     0.023 C 
BRANCH  23  24
ATOM     24  C   UNL A   1      37.663  20.423  24.849  1.00  0.00     0.023 C 
BRANCH  24  25
ATOM     25  C   UNL A   1      38.780  20.544  25.855  1.00  0.00     0.116 C 
BRANCH  25  26
ATOM     26  N   UNL A   1      39.807  19.519  25.726  1.00  0.00    -0.352 N 
ATOM     27  C   UNL A   1      41.152  19.609  26.011  1.00  0.00     0.251 C 
ATOM     28  H   UNL A   1      39.499  18.646  25.390  1.00  0.00     0.163 HD
ATOM     29  O   UNL A   1      41.906  18.683  25.773  1.00  0.00    -0.269 OA
BRANCH  27  30
ATOM     30  C   UNL A   1      41.668  20.878  26.569  1.00  0.00     0.039 A 
ATOM     31  C   UNL A   1      42.040  21.899  25.694  1.00  0.00     0.014 A 
ATOM     32  C   UNL A   1      41.687  21.085  27.949  1.00  0.00     0.014 A 
ATOM     33  C   UNL A   1      42.361  23.154  26.210  1.00  0.00     0.010 A 
ATOM     34  C   UNL A   1      41.864  22.365  28.446  1.00  0.00     0.010 A 
ATOM     35  C   UNL A   1      42.233  23.408  27.587  1.00  0.00    -0.014 A 
BRANCH  35  36
ATOM     36  C   UNL A   1      42.526  24.744  28.154  1.00  0.00     0.031 A 
ATOM     37  C   UNL A   1      43.937  25.097  28.543  1.00  0.00     0.074 A 
ATOM     38  C   UNL A   1      41.522  25.618  28.359  1.00  0.00     0.049 A 
ATOM     39  N   UNL A   1      44.399  26.212  29.046  1.00  0.00    -0.248 NA
ATOM     40  C   UNL A   1      44.958  24.047  28.381  1.00  0.00     0.031 C 
ATOM     41  C   UNL A   1      40.103  25.366  28.094  1.00  0.00     0.029 A 
ATOM     42  N   UNL A   1      41.546  26.905  28.831  1.00  0.00    -0.354 N 
ATOM     43  C   UNL A   1      45.751  25.986  29.276  1.00  0.00     0.074 A 
ATOM     44  C   UNL A   1      46.020  24.610  28.934  1.00  0.00     0.031 C 
ATOM     45  C   UNL A   1      39.403  26.482  28.352  1.00  0.00     0.029 A 
ATOM     46  C   UNL A   1      40.315  27.515  28.830  1.00  0.00     0.049 A 
ATOM     47  H   UNL A   1      42.368  27.351  29.141  1.00  0.00     0.167 HD
ATOM     48  C   UNL A   1      46.697  26.857  29.697  1.00  0.00     0.031 A 
ATOM     49  C   UNL A   1      39.967  28.772  29.161  1.00  0.00     0.031 A 
ATOM     50  C   UNL A   1      46.433  28.233  30.009  1.00  0.00     0.049 A 
ATOM     51  C   UNL A   1      41.040  29.731  29.595  1.00  0.00     0.074 A 
ATOM     52  C   UNL A   1      47.326  29.220  30.384  1.00  0.00     0.029 A 
ATOM     53  N   UNL A   1      45.176  28.818  29.975  1.00  0.00    -0.354 N 
ATOM     54  N   UNL A   1      42.328  29.527  29.727  1.00  0.00    -0.248 NA
ATOM     55  C   UNL A   1      40.610  31.100  29.907  1.00  0.00     0.031 C 
ATOM     56  C   UNL A   1      46.601  30.393  30.620  1.00  0.00     0.029 A 
ATOM     57  C   UNL A   1      45.266  30.149  30.338  1.00  0.00     0.049 A 
ATOM     58  H   UNL A   1      44.343  28.353  29.729  1.00  0.00     0.167 HD
ATOM     59  C   UNL A   1      42.868  30.747  30.110  1.00  0.00     0.074 A 
ATOM     60  C   UNL A   1      41.768  31.690  30.167  1.00  0.00     0.031 C 
ATOM     61  C   UNL A   1      44.155  31.064  30.391  1.00  0.00     0.031 A 
BRANCH  48  62
ATOM     62  C   UNL A   1      48.101  26.336  29.833  1.00  0.00    -0.014 A 
ATOM     63  C   UNL A   1      48.565  25.803  31.048  1.00  0.00     0.009 A 
ATOM     64  C   UNL A   1      48.969  26.369  28.731  1.00  0.00     0.009 A 
ATOM     65  C   UNL A   1      49.882  25.356  31.168  1.00  0.00     0.001 A 
ATOM     66  C   UNL A   1      50.276  25.890  28.846  1.00  0.00     0.001 A 
ATOM     67  C   UNL A   1      50.735  25.395  30.066  1.00  0.00     0.000 A 
ENDBRANCH  48  62
BRANCH  49  68
ATOM     68  C   UNL A   1      38.552  29.211  29.044  1.00  0.00    -0.014 A 
ATOM     69  C   UNL A   1      38.061  29.712  27.827  1.00  0.00     0.009 A 
ATOM     70  C   UNL A   1      37.685  29.139  30.145  1.00  0.00     0.009 A 
ATOM     71  C   UNL A   1      36.742  30.159  27.725  1.00  0.00     0.001 A 
ATOM     72  C   UNL A   1      36.358  29.560  30.032  1.00  0.00     0.001 A 
ATOM     73  C   UNL A   1      35.891  30.079  28.826  1.00  0.00     0.000 A 
ENDBRANCH  49  68
BRANCH  61  74
ATOM     74  C   UNL A   1      44.441  32.493  30.753  1.00  0.00    -0.014 A 
ATOM     75  C   UNL A   1      44.739  33.449  29.768  1.00  0.00     0.009 A 
ATOM     76  C   UNL A   1      44.388  32.892  32.097  1.00  0.00     0.009 A 
ATOM     77  C   UNL A   1      45.023  34.767  30.130  1.00  0.00     0.001 A 
ATOM     78  C   UNL A   1      44.641  34.217  32.452  1.00  0.00     0.001 A 
ATOM     79  C   UNL A   1      44.970  35.150  31.470  1.00  0.00     0.000 A 
ENDBRANCH  61  74
ENDBRANCH  35  36
ENDBRANCH  27  30
ENDBRANCH  25  26
ENDBRANCH  24  25
ENDBRANCH  23  24
ENDBRANCH   1  23
TORSDOF 17
ENDMDL
MODEL 2
REMARK VINA RESULT:      -9.6      4.549      9.557
REMARK SMILES C=CC[N@H+](CC(=O)NCCCCNC(=O)c1ccc(-c2c3nc(c(-c4ccccc4)c4ccc([nH]4)c(-c4ccccc4)c4nc(c(-c5ccccc5)c5ccc2[nH]5)C=C4)C=C3)cc1)[C@H](C)c1ccc(F)cc1O
REMARK SMILES IDX 9 1 8 2 6 3 7 4 5 6 4 7 3 9 2 10 1 11 64 12 65 13 66 14
REMARK SMILES IDX 67 15 72 16 68 17 71 18 69 19 70 20 73 21 10 23 11 24 12 25
REMARK SMILES IDX 13 26 14 27 15 29 16 30 17 31 63 32 18 33 62 34 19 35 20 36
REMARK SMILES IDX 21 37 56 38 22 39 61 40 55 41 57 42 23 43 60 44 54 45 53 46
REMARK SMILES IDX 24 48 46 49 31 50 45 51 32 52 35 53 44 54 58 55 33 56 34 57
REMARK SMILES IDX 43 59 59 60 36 61 25 62 26 63 30 64 27 65 29 66 28 67 47 68
REMARK SMILES IDX 48 69 52 70 49 71 51 72 50 73 37 74 38 75 42 76 39 77 41 78
REMARK SMILES IDX 40 79
REMARK H PARENT 8 5 4 8 73 22 13 28 57 47 35 58
REMARK Flexibility Score: inf
ROOT
ATOM      1  C   UNL A   1      32.695  30.269  27.028  1.00  0.00     0.116 C 
ENDROOT
BRANCH   1   2
ATOM      2  N   UNL A   1      32.294  28.948  27.488  1.00  0.00    -0.351 N 
ATOM      3  C   UNL A   1      31.792  27.861  26.813  1.00  0.00     0.275 C 
ATOM      4  O   UNL A   1      31.401  26.908  27.491  1.00  0.00    -0.269 OA
ATOM      5  H   UNL A   1      32.402  28.806  28.457  1.00  0.00     0.163 HD
BRANCH   3   6
ATOM      6  C   UNL A   1      31.748  27.811  25.267  1.00  0.00     0.364 C 
BRANCH   6   7
ATOM      7  N   UNL A   1      32.072  26.461  24.681  1.00  0.00    -0.318 N 
ATOM      8  H   UNL A   1      32.052  25.724  25.388  1.00  0.00     0.349 HD
BRANCH   7   9
ATOM      9  C   UNL A   1      31.030  26.141  23.705  1.00  0.00     0.291 C 
BRANCH   9  10
ATOM     10  C   UNL A   1      30.909  24.869  22.925  1.00  0.00     0.025 C 
ATOM     11  C   UNL A   1      30.710  23.658  23.466  1.00  0.00     0.010 C 
ENDBRANCH   9  10
ENDBRANCH   7   9
BRANCH   7  12
ATOM     12  C   UNL A   1      33.479  26.395  24.190  1.00  0.00     0.216 C 
ATOM     13  C   UNL A   1      33.704  27.072  22.826  1.00  0.00     0.081 C 
BRANCH  12  14
ATOM     14  C   UNL A   1      34.033  24.968  24.301  1.00  0.00     0.051 A 
ATOM     15  C   UNL A   1      34.605  24.301  23.200  1.00  0.00     0.017 A 
ATOM     16  C   UNL A   1      33.839  24.223  25.486  1.00  0.00     0.127 A 
ATOM     17  C   UNL A   1      34.872  22.929  23.256  1.00  0.00     0.040 A 
ATOM     18  C   UNL A   1      34.124  22.863  25.552  1.00  0.00     0.085 A 
ATOM     19  C   UNL A   1      34.610  22.223  24.423  1.00  0.00     0.126 A 
ATOM     20  F   UNL A   1      34.793  20.896  24.439  1.00  0.00    -0.207 F 
BRANCH  16  21
ATOM     21  O   UNL A   1      33.237  24.774  26.587  1.00  0.00    -0.507 OA
ATOM     22  H   UNL A   1      33.744  24.966  27.350  1.00  0.00     0.293 HD
ENDBRANCH  16  21
ENDBRANCH  12  14
ENDBRANCH   7  12
ENDBRANCH   6   7
ENDBRANCH   3   6
ENDBRANCH   1   2
BRANCH   1  23
ATOM     23  C   UNL A   1      31.481  31.108  26.596  1.00  0.00     0.023 C 
BRANCH  23  24
ATOM     24  C   UNL A   1      31.705  32.596  26.442  1.00  0.00     0.023 C 
BRANCH  24  25
ATOM     25  C   UNL A   1      32.642  33.185  27.466  1.00  0.00     0.116 C 
BRANCH  25  26
ATOM     26  N   UNL A   1      32.296  34.540  27.875  1.00  0.00    -0.352 N 
ATOM     27  C   UNL A   1      32.922  35.343  28.803  1.00  0.00     0.251 C 
ATOM     28  H   UNL A   1      31.511  34.933  27.429  1.00  0.00     0.163 HD
ATOM     29  O   UNL A   1      32.464  36.433  29.098  1.00  0.00    -0.269 OA
BRANCH  27  30
ATOM     30  C   UNL A   1      34.138  34.830  29.470  1.00  0.00     0.039 A 
ATOM     31  C   UNL A   1      34.015  34.201  30.708  1.00  0.00     0.014 A 
ATOM     32  C   UNL A   1      35.374  34.887  28.823  1.00  0.00     0.014 A 
ATOM     33  C   UNL A   1      35.126  33.562  31.260  1.00  0.00     0.010 A 
ATOM     34  C   UNL A   1      36.432  34.133  29.301  1.00  0.00     0.010 A 
ATOM     35  C   UNL A   1      36.331  33.487  30.540  1.00  0.00    -0.014 A 
BRANCH  35  36
ATOM     36  C   UNL A   1      37.510  32.778  31.085  1.00  0.00     0.031 A 
ATOM     37  C   UNL A   1      38.096  33.209  32.404  1.00  0.00     0.074 A 
ATOM     38  C   UNL A   1      38.079  31.783  30.378  1.00  0.00     0.049 A 
ATOM     39  N   UNL A   1      39.118  32.714  33.053  1.00  0.00    -0.248 NA
ATOM     40  C   UNL A   1      37.477  34.372  33.064  1.00  0.00     0.031 C 
ATOM     41  C   UNL A   1      37.650  31.324  29.054  1.00  0.00     0.029 A 
ATOM     42  N   UNL A   1      39.139  30.968  30.683  1.00  0.00    -0.354 N 
ATOM     43  C   UNL A   1      39.271  33.516  34.178  1.00  0.00     0.074 A 
ATOM     44  C   UNL A   1      38.292  34.574  34.086  1.00  0.00     0.031 C 
ATOM     45  C   UNL A   1      38.402  30.273  28.688  1.00  0.00     0.029 A 
ATOM     46  C   UNL A   1      39.384  30.006  29.733  1.00  0.00     0.049 A 
ATOM     47  H   UNL A   1      39.673  31.062  31.505  1.00  0.00     0.167 HD
ATOM     48  C   UNL A   1      40.123  33.366  35.218  1.00  0.00     0.031 A 
ATOM     49  C   UNL A   1      40.288  29.009  29.719  1.00  0.00     0.031 A 
ATOM     50  C   UNL A   1      41.075  32.296  35.321  1.00  0.00     0.049 A 
ATOM     51  C   UNL A   1      41.202  28.842  30.900  1.00  0.00     0.074 A 
ATOM     52  C   UNL A   1      41.944  32.011  36.359  1.00  0.00     0.029 A 
ATOM     53  N   UNL A   1      41.278  31.330  34.348  1.00  0.00    -0.354 N 
ATOM     54  N   UNL A   1      41.278  29.559  31.995  1.00  0.00    -0.248 NA
ATOM     55  C   UNL A   1      42.142  27.715  30.848  1.00  0.00     0.031 C 
ATOM     56  C   UNL A   1      42.704  30.895  35.993  1.00  0.00     0.029 A 
ATOM     57  C   UNL A   1      42.269  30.455  34.753  1.00  0.00     0.049 A 
ATOM     58  H   UNL A   1      40.788  31.275  33.496  1.00  0.00     0.167 HD
ATOM     59  C   UNL A   1      42.254  28.953  32.777  1.00  0.00     0.074 A 
ATOM     60  C   UNL A   1      42.724  27.799  32.036  1.00  0.00     0.031 C 
ATOM     61  C   UNL A   1      42.722  29.317  33.995  1.00  0.00     0.031 A 
BRANCH  48  62
ATOM     62  C   UNL A   1      40.047  34.383  36.322  1.00  0.00    -0.014 A 
ATOM     63  C   UNL A   1      40.805  35.566  36.275  1.00  0.00     0.009 A 
ATOM     64  C   UNL A   1      39.202  34.163  37.420  1.00  0.00     0.009 A 
ATOM     65  C   UNL A   1      40.750  36.485  37.325  1.00  0.00     0.001 A 
ATOM     66  C   UNL A   1      39.126  35.099  38.453  1.00  0.00     0.001 A 
ATOM     67  C   UNL A   1      39.908  36.253  38.410  1.00  0.00     0.000 A 
ENDBRANCH  48  62
BRANCH  49  68
ATOM     68  C   UNL A   1      40.337  28.061  28.575  1.00  0.00    -0.014 A 
ATOM     69  C   UNL A   1      39.627  26.851  28.623  1.00  0.00     0.009 A 
ATOM     70  C   UNL A   1      41.096  28.356  27.432  1.00  0.00     0.009 A 
ATOM     71  C   UNL A   1      39.701  25.943  27.565  1.00  0.00     0.001 A 
ATOM     72  C   UNL A   1      41.146  27.459  26.363  1.00  0.00     0.001 A 
ATOM     73  C   UNL A   1      40.457  26.249  26.434  1.00  0.00     0.000 A 
ENDBRANCH  49  68
BRANCH  61  74
ATOM     74  C   UNL A   1      43.772  28.437  34.611  1.00  0.00    -0.014 A 
ATOM     75  C   UNL A   1      45.139  28.686  34.413  1.00  0.00     0.009 A 
ATOM     76  C   UNL A   1      43.385  27.358  35.420  1.00  0.00     0.009 A 
ATOM     77  C   UNL A   1      46.097  27.842  34.977  1.00  0.00     0.001 A 
ATOM     78  C   UNL A   1      44.345  26.536  36.009  1.00  0.00     0.001 A 
ATOM     79  C   UNL A   1      45.699  26.771  35.777  1.00  0.00     0.000 A 
ENDBRANCH  61  74
ENDBRANCH  35  36
ENDBRANCH  27  30
ENDBRANCH  25  26
ENDBRANCH  24  25
ENDBRANCH  23  24
ENDBRANCH   1  23
TORSDOF 17
ENDMDL
MODEL 3
REMARK VINA RESULT:      -9.6      2.534      3.739
REMARK SMILES C=CC[N@H+](CC(=O)NCCCCNC(=O)c1ccc(-c2c3nc(c(-c4ccccc4)c4ccc([nH]4)c(-c4ccccc4)c4nc(c(-c5ccccc5)c5ccc2[nH]5)C=C4)C=C3)cc1)[C@H](C)c1ccc(F)cc1O
REMARK SMILES IDX 9 1 8 2 6 3 7 4 5 6 4 7 3 9 2 10 1 11 64 12 65 13 66 14
REMARK SMILES IDX 67 15 72 16 68 17 71 18 69 19 70 20 73 21 10 23 11 24 12 25
REMARK SMILES IDX 13 26 14 27 15 29 16 30 17 31 63 32 18 33 62 34 19 35 20 36
REMARK SMILES IDX 21 37 56 38 22 39 61 40 55 41 57 42 23 43 60 44 54 45 53 46
REMARK SMILES IDX 24 48 46 49 31 50 45 51 32 52 35 53 44 54 58 55 33 56 34 57
REMARK SMILES IDX 43 59 59 60 36 61 25 62 26 63 30 64 27 65 29 66 28 67 47 68
REMARK SMILES IDX 48 69 52 70 49 71 51 72 50 73 37 74 38 75 42 76 39 77 41 78
REMARK SMILES IDX 40 79
REMARK H PARENT 8 5 4 8 73 22 13 28 57 47 35 58
REMARK Flexibility Score: inf
ROOT
ATOM      1  C   UNL A   1      34.625  24.421  25.587  1.00  0.00     0.116 C 
ENDROOT
BRANCH   1   2
ATOM      2  N   UNL A   1      33.468  24.270  26.459  1.00  0.00    -0.351 N 
ATOM      3  C   UNL A   1      32.128  24.483  26.238  1.00  0.00     0.275 C 
ATOM      4  O   UNL A   1      31.379  24.410  27.215  1.00  0.00    -0.269 OA
ATOM      5  H   UNL A   1      33.683  23.958  27.368  1.00  0.00     0.163 HD
BRANCH   3   6
ATOM      6  C   UNL A   1      31.570  24.768  24.824  1.00  0.00     0.364 C 
BRANCH   6   7
ATOM      7  N   UNL A   1      31.177  26.204  24.590  1.00  0.00    -0.318 N 
ATOM      8  H   UNL A   1      30.267  26.422  24.999  1.00  0.00     0.349 HD
BRANCH   7   9
ATOM      9  C   UNL A   1      32.161  27.047  25.269  1.00  0.00     0.291 C 
BRANCH   9  10
ATOM     10  C   UNL A   1      31.862  28.210  26.164  1.00  0.00     0.025 C 
ATOM     11  C   UNL A   1      31.414  28.108  27.424  1.00  0.00     0.010 C 
ENDBRANCH   9  10
ENDBRANCH   7   9
BRANCH   7  12
ATOM     12  C   UNL A   1      30.952  26.486  23.143  1.00  0.00     0.216 C 
ATOM     13  C   UNL A   1      32.245  26.645  22.322  1.00  0.00     0.081 C 
BRANCH  12  14
ATOM     14  C   UNL A   1      29.927  27.613  22.956  1.00  0.00     0.051 A 
ATOM     15  C   UNL A   1      30.306  28.907  22.546  1.00  0.00     0.017 A 
ATOM     16  C   UNL A   1      28.583  27.421  23.347  1.00  0.00     0.127 A 
ATOM     17  C   UNL A   1      29.404  29.973  22.623  1.00  0.00     0.040 A 
ATOM     18  C   UNL A   1      27.678  28.476  23.403  1.00  0.00     0.085 A 
ATOM     19  C   UNL A   1      28.108  29.750  23.069  1.00  0.00     0.126 A 
ATOM     20  F   UNL A   1      27.278  30.790  23.217  1.00  0.00    -0.207 F 
BRANCH  16  21
ATOM     21  O   UNL A   1      28.141  26.211  23.814  1.00  0.00    -0.507 OA
ATOM     22  H   UNL A   1      27.528  25.711  23.313  1.00  0.00     0.293 HD
ENDBRANCH  16  21
ENDBRANCH  12  14
ENDBRANCH   7  12
ENDBRANCH   6   7
ENDBRANCH   3   6
ENDBRANCH   1   2
BRANCH   1  23
ATOM     23  C   UNL A   1      34.603  23.399  24.439  1.00  0.00     0.023 C 
BRANCH  23  24
ATOM     24  C   UNL A   1      35.760  22.427  24.373  1.00  0.00     0.023 C 
BRANCH  24  25
ATOM     25  C   UNL A   1      36.555  22.334  25.651  1.00  0.00     0.116 C 
BRANCH  25  26
ATOM     26  N   UNL A   1      37.576  21.294  25.636  1.00  0.00    -0.352 N 
ATOM     27  C   UNL A   1      38.897  21.381  26.022  1.00  0.00     0.251 C 
ATOM     28  H   UNL A   1      37.285  20.413  25.308  1.00  0.00     0.163 HD
ATOM     29  O   UNL A   1      39.655  20.440  25.875  1.00  0.00    -0.269 OA
BRANCH  27  30
ATOM     30  C   UNL A   1      39.384  22.664  26.573  1.00  0.00     0.039 A 
ATOM     31  C   UNL A   1      40.369  22.645  27.560  1.00  0.00     0.014 A 
ATOM     32  C   UNL A   1      38.937  23.875  26.041  1.00  0.00     0.014 A 
ATOM     33  C   UNL A   1      40.957  23.845  27.959  1.00  0.00     0.010 A 
ATOM     34  C   UNL A   1      39.620  25.043  26.332  1.00  0.00     0.010 A 
ATOM     35  C   UNL A   1      40.617  25.048  27.316  1.00  0.00    -0.014 A 
BRANCH  35  36
ATOM     36  C   UNL A   1      41.258  26.329  27.691  1.00  0.00     0.031 A 
ATOM     37  C   UNL A   1      42.612  26.678  27.133  1.00  0.00     0.074 A 
ATOM     38  C   UNL A   1      40.647  27.153  28.565  1.00  0.00     0.049 A 
ATOM     39  N   UNL A   1      43.335  27.749  27.331  1.00  0.00    -0.248 NA
ATOM     40  C   UNL A   1      43.257  25.675  26.266  1.00  0.00     0.031 C 
ATOM     41  C   UNL A   1      39.369  26.892  29.233  1.00  0.00     0.029 A 
ATOM     42  N   UNL A   1      41.017  28.388  29.032  1.00  0.00    -0.354 N 
ATOM     43  C   UNL A   1      44.518  27.537  26.633  1.00  0.00     0.074 A 
ATOM     44  C   UNL A   1      44.452  26.208  26.073  1.00  0.00     0.031 C 
ATOM     45  C   UNL A   1      39.036  27.959  29.977  1.00  0.00     0.029 A 
ATOM     46  C   UNL A   1      40.089  28.962  29.865  1.00  0.00     0.049 A 
ATOM     47  H   UNL A   1      41.869  28.822  28.792  1.00  0.00     0.167 HD
ATOM     48  C   UNL A   1      45.554  28.385  26.441  1.00  0.00     0.031 A 
ATOM     49  C   UNL A   1      40.081  30.172  30.455  1.00  0.00     0.031 A 
ATOM     50  C   UNL A   1      45.604  29.717  26.976  1.00  0.00     0.049 A 
ATOM     51  C   UNL A   1      41.227  31.110  30.201  1.00  0.00     0.074 A 
ATOM     52  C   UNL A   1      46.574  30.685  26.791  1.00  0.00     0.029 A 
ATOM     53  N   UNL A   1      44.633  30.270  27.797  1.00  0.00    -0.354 N 
ATOM     54  N   UNL A   1      42.301  30.927  29.470  1.00  0.00    -0.248 NA
ATOM     55  C   UNL A   1      41.149  32.430  30.839  1.00  0.00     0.031 C 
ATOM     56  C   UNL A   1      46.211  31.810  27.539  1.00  0.00     0.029 A 
ATOM     57  C   UNL A   1      44.988  31.561  28.143  1.00  0.00     0.049 A 
ATOM     58  H   UNL A   1      43.813  29.811  28.090  1.00  0.00     0.167 HD
ATOM     59  C   UNL A   1      43.012  32.117  29.537  1.00  0.00     0.074 A 
ATOM     60  C   UNL A   1      42.235  33.021  30.362  1.00  0.00     0.031 C 
ATOM     61  C   UNL A   1      44.200  32.437  28.969  1.00  0.00     0.031 A 
BRANCH  48  62
ATOM     62  C   UNL A   1      46.704  27.889  25.611  1.00  0.00    -0.014 A 
ATOM     63  C   UNL A   1      46.688  27.993  24.209  1.00  0.00     0.009 A 
ATOM     64  C   UNL A   1      47.823  27.319  26.235  1.00  0.00     0.009 A 
ATOM     65  C   UNL A   1      47.748  27.495  23.449  1.00  0.00     0.001 A 
ATOM     66  C   UNL A   1      48.897  26.852  25.473  1.00  0.00     0.001 A 
ATOM     67  C   UNL A   1      48.854  26.930  24.082  1.00  0.00     0.000 A 
ENDBRANCH  48  62
BRANCH  49  68
ATOM     68  C   UNL A   1      38.930  30.584  31.299  1.00  0.00    -0.014 A 
ATOM     69  C   UNL A   1      38.937  30.336  32.681  1.00  0.00     0.009 A 
ATOM     70  C   UNL A   1      37.816  31.222  30.732  1.00  0.00     0.009 A 
ATOM     71  C   UNL A   1      37.841  30.689  33.471  1.00  0.00     0.001 A 
ATOM     72  C   UNL A   1      36.734  31.601  31.529  1.00  0.00     0.001 A 
ATOM     73  C   UNL A   1      36.742  31.325  32.895  1.00  0.00     0.000 A 
ENDBRANCH  49  68
BRANCH  61  74
ATOM     74  C   UNL A   1      44.711  33.831  29.199  1.00  0.00    -0.014 A 
ATOM     75  C   UNL A   1      45.557  34.129  30.279  1.00  0.00     0.009 A 
ATOM     76  C   UNL A   1      44.357  34.855  28.307  1.00  0.00     0.009 A 
ATOM     77  C   UNL A   1      46.001  35.436  30.486  1.00  0.00     0.001 A 
ATOM     78  C   UNL A   1      44.829  36.153  28.498  1.00  0.00     0.001 A 
ATOM     79  C   UNL A   1      45.639  36.445  29.594  1.00  0.00     0.000 A 
ENDBRANCH  61  74
ENDBRANCH  35  36
ENDBRANCH  27  30
ENDBRANCH  25  26
ENDBRANCH  24  25
ENDBRANCH  23  24
ENDBRANCH   1  23
TORSDOF 17
ENDMDL
