MODEL 1
REMARK VINA RESULT:     -11.0      0.000      0.000
REMARK SMILES C[C@H]([NH2+][C@@H](C)[C@]12C[C@H]3C[C@H](C[C@H](C3)C1)C2)[C@@H](C)C(=O)NCCCCNC(=O)c1ccc(-c2c3nc(c(-c4ccccc4)c4ccc([nH]4)c(-c4ccccc4)c4nc(c(-c5ccccc5)c5ccc2[nH]5)C=C4)C=C3)cc1
REMARK SMILES IDX 21 1 20 2 18 3 19 4 16 6 17 7 2 8 1 9 3 10 4 13 5 14 6 15
REMARK SMILES IDX 7 16 14 17 15 18 8 19 12 20 10 21 9 22 13 23 11 24 22 25
REMARK SMILES IDX 23 26 24 27 25 28 26 29 27 31 28 32 29 33 75 34 30 35 74 36
REMARK SMILES IDX 31 37 32 38 33 39 68 40 34 41 73 42 67 43 69 44 35 45 72 46
REMARK SMILES IDX 66 47 65 48 36 50 58 51 43 52 57 53 44 54 47 55 56 56 70 57
REMARK SMILES IDX 45 58 46 59 55 61 71 62 48 63 37 64 38 65 42 66 39 67 41 68
REMARK SMILES IDX 40 69 59 70 60 71 64 72 61 73 63 74 62 75 49 76 50 77 54 78
REMARK SMILES IDX 51 79 53 80 52 81
REMARK H PARENT 20 5 3 11 3 12 25 30 69 49 47 60
REMARK Flexibility Score: inf
ROOT
ATOM      1  C   UNL A   1      34.925  21.873  26.184  1.00  0.00     0.116 C 
ENDROOT
BRANCH   1   2
ATOM      2  N   UNL A   1      33.802  21.010  25.874  1.00  0.00    -0.356 N 
ATOM      3  C   UNL A   1      32.606  21.274  25.277  1.00  0.00     0.228 C 
ATOM      4  O   UNL A   1      31.860  20.312  25.071  1.00  0.00    -0.275 OA
ATOM      5  H   UNL A   1      33.927  20.070  26.140  1.00  0.00     0.163 HD
BRANCH   3   6
ATOM      6  C   UNL A   1      32.161  22.693  24.896  1.00  0.00     0.133 C 
ATOM      7  C   UNL A   1      31.126  23.208  25.891  1.00  0.00     0.024 C 
BRANCH   6   8
ATOM      8  C   UNL A   1      31.786  22.802  23.390  1.00  0.00     0.191 C 
ATOM      9  C   UNL A   1      32.959  22.199  22.591  1.00  0.00     0.076 C 
BRANCH   8  10
ATOM     10  N   UNL A   1      31.496  24.189  22.993  1.00  0.00    -0.341 N 
ATOM     11  H   UNL A   1      30.836  24.565  23.674  1.00  0.00     0.346 HD
ATOM     12  H   UNL A   1      31.157  24.107  22.034  1.00  0.00     0.346 HD
BRANCH  10  13
ATOM     13  C   UNL A   1      32.621  25.151  22.898  1.00  0.00     0.185 C 
ATOM     14  C   UNL A   1      32.614  25.652  21.445  1.00  0.00     0.076 C 
BRANCH  13  15
ATOM     15  C   UNL A   1      32.678  26.325  23.962  1.00  0.00     0.023 C 
ATOM     16  C   UNL A   1      31.255  26.513  24.570  1.00  0.00     0.016 C 
ATOM     17  C   UNL A   1      33.237  27.644  23.358  1.00  0.00     0.016 C 
ATOM     18  C   UNL A   1      33.604  26.037  25.195  1.00  0.00     0.016 C 
ATOM     19  C   UNL A   1      31.201  27.688  25.550  1.00  0.00    -0.010 C 
ATOM     20  C   UNL A   1      33.110  28.813  24.345  1.00  0.00    -0.010 C 
ATOM     21  C   UNL A   1      33.570  27.207  26.214  1.00  0.00    -0.010 C 
ATOM     22  C   UNL A   1      32.136  27.395  26.729  1.00  0.00     0.007 C 
ATOM     23  C   UNL A   1      31.655  28.962  24.824  1.00  0.00     0.007 C 
ATOM     24  C   UNL A   1      34.017  28.516  25.542  1.00  0.00     0.007 C 
ENDBRANCH  13  15
ENDBRANCH  10  13
ENDBRANCH   8  10
ENDBRANCH   6   8
ENDBRANCH   3   6
ENDBRANCH   1   2
BRANCH   1  25
ATOM     25  C   UNL A   1      35.979  21.917  25.075  1.00  0.00     0.023 C 
BRANCH  25  26
ATOM     26  C   UNL A   1      36.955  20.747  25.033  1.00  0.00     0.023 C 
BRANCH  26  27
ATOM     27  C   UNL A   1      38.372  21.069  25.475  1.00  0.00     0.116 C 
BRANCH  27  28
ATOM     28  N   UNL A   1      39.256  19.914  25.492  1.00  0.00    -0.352 N 
ATOM     29  C   UNL A   1      40.547  19.835  25.958  1.00  0.00     0.251 C 
ATOM     30  H   UNL A   1      38.882  19.082  25.122  1.00  0.00     0.163 HD
ATOM     31  O   UNL A   1      41.194  18.802  25.830  1.00  0.00    -0.269 OA
BRANCH  29  32
ATOM     32  C   UNL A   1      41.162  21.030  26.569  1.00  0.00     0.039 A 
ATOM     33  C   UNL A   1      41.766  21.974  25.737  1.00  0.00     0.014 A 
ATOM     34  C   UNL A   1      41.083  21.245  27.947  1.00  0.00     0.014 A 
ATOM     35  C   UNL A   1      42.226  23.174  26.280  1.00  0.00     0.010 A 
ATOM     36  C   UNL A   1      41.468  22.472  28.473  1.00  0.00     0.010 A 
ATOM     37  C   UNL A   1      42.043  23.448  27.646  1.00  0.00    -0.014 A 
BRANCH  37  38
ATOM     38  C   UNL A   1      42.443  24.751  28.229  1.00  0.00     0.031 A 
ATOM     39  C   UNL A   1      41.418  25.834  28.422  1.00  0.00     0.074 A 
ATOM     40  C   UNL A   1      43.738  24.986  28.512  1.00  0.00     0.049 A 
ATOM     41  N   UNL A   1      41.584  27.059  28.854  1.00  0.00    -0.248 NA
ATOM     42  C   UNL A   1      40.030  25.510  28.054  1.00  0.00     0.031 C 
ATOM     43  C   UNL A   1      44.836  24.035  28.323  1.00  0.00     0.029 A 
ATOM     44  N   UNL A   1      44.352  26.105  29.016  1.00  0.00    -0.354 N 
ATOM     45  C   UNL A   1      40.330  27.653  28.789  1.00  0.00     0.074 A 
ATOM     46  C   UNL A   1      39.425  26.674  28.231  1.00  0.00     0.031 C 
ATOM     47  C   UNL A   1      45.984  24.602  28.728  1.00  0.00     0.029 A 
ATOM     48  C   UNL A   1      45.711  25.966  29.170  1.00  0.00     0.049 A 
ATOM     49  H   UNL A   1      43.867  26.930  29.245  1.00  0.00     0.167 HD
ATOM     50  C   UNL A   1      39.961  28.896  29.177  1.00  0.00     0.031 A 
ATOM     51  C   UNL A   1      46.634  26.841  29.613  1.00  0.00     0.031 A 
ATOM     52  C   UNL A   1      40.858  29.862  29.750  1.00  0.00     0.049 A 
ATOM     53  C   UNL A   1      46.196  28.213  30.043  1.00  0.00     0.074 A 
ATOM     54  C   UNL A   1      40.567  31.124  30.239  1.00  0.00     0.029 A 
ATOM     55  N   UNL A   1      42.222  29.675  29.909  1.00  0.00    -0.354 N 
ATOM     56  N   UNL A   1      44.993  28.733  30.048  1.00  0.00    -0.248 NA
ATOM     57  C   UNL A   1      47.245  29.115  30.539  1.00  0.00     0.031 C 
ATOM     58  C   UNL A   1      41.763  31.719  30.650  1.00  0.00     0.029 A 
ATOM     59  C   UNL A   1      42.790  30.807  30.467  1.00  0.00     0.049 A 
ATOM     60  H   UNL A   1      42.713  28.858  29.662  1.00  0.00     0.167 HD
ATOM     61  C   UNL A   1      45.136  30.011  30.573  1.00  0.00     0.074 A 
ATOM     62  C   UNL A   1      46.539  30.180  30.889  1.00  0.00     0.031 C 
ATOM     63  C   UNL A   1      44.189  30.959  30.775  1.00  0.00     0.031 A 
BRANCH  50  64
ATOM     64  C   UNL A   1      38.521  29.280  28.988  1.00  0.00    -0.014 A 
ATOM     65  C   UNL A   1      37.599  29.192  30.045  1.00  0.00     0.009 A 
ATOM     66  C   UNL A   1      38.085  29.767  27.746  1.00  0.00     0.009 A 
ATOM     67  C   UNL A   1      36.264  29.549  29.850  1.00  0.00     0.001 A 
ATOM     68  C   UNL A   1      36.755  30.150  27.563  1.00  0.00     0.001 A 
ATOM     69  C   UNL A   1      35.844  30.033  28.612  1.00  0.00     0.000 A 
ENDBRANCH  50  64
BRANCH  51  70
ATOM     70  C   UNL A   1      48.063  26.442  29.689  1.00  0.00    -0.014 A 
ATOM     71  C   UNL A   1      48.924  26.670  28.606  1.00  0.00     0.009 A 
ATOM     72  C   UNL A   1      48.572  25.825  30.842  1.00  0.00     0.009 A 
ATOM     73  C   UNL A   1      50.258  26.261  28.662  1.00  0.00     0.001 A 
ATOM     74  C   UNL A   1      49.914  25.443  30.908  1.00  0.00     0.001 A 
ATOM     75  C   UNL A   1      50.753  25.651  29.814  1.00  0.00     0.000 A 
ENDBRANCH  51  70
BRANCH  63  76
ATOM     76  C   UNL A   1      44.633  32.251  31.398  1.00  0.00    -0.014 A 
ATOM     77  C   UNL A   1      44.686  32.407  32.792  1.00  0.00     0.009 A 
ATOM     78  C   UNL A   1      45.048  33.311  30.577  1.00  0.00     0.009 A 
ATOM     79  C   UNL A   1      45.114  33.614  33.350  1.00  0.00     0.001 A 
ATOM     80  C   UNL A   1      45.502  34.505  31.137  1.00  0.00     0.001 A 
ATOM     81  C   UNL A   1      45.525  34.659  32.522  1.00  0.00     0.000 A 
ENDBRANCH  63  76
ENDBRANCH  37  38
ENDBRANCH  29  32
ENDBRANCH  27  28
ENDBRANCH  26  27
ENDBRANCH  25  26
ENDBRANCH   1  25
TORSDOF 15
ENDMDL
MODEL 2
REMARK VINA RESULT:     -11.0      3.372      8.334
REMARK SMILES C[C@H]([NH2+][C@@H](C)[C@]12C[C@H]3C[C@H](C[C@H](C3)C1)C2)[C@@H](C)C(=O)NCCCCNC(=O)c1ccc(-c2c3nc(c(-c4ccccc4)c4ccc([nH]4)c(-c4ccccc4)c4nc(c(-c5ccccc5)c5ccc2[nH]5)C=C4)C=C3)cc1
REMARK SMILES IDX 21 1 20 2 18 3 19 4 16 6 17 7 2 8 1 9 3 10 4 13 5 14 6 15
REMARK SMILES IDX 7 16 14 17 15 18 8 19 12 20 10 21 9 22 13 23 11 24 22 25
REMARK SMILES IDX 23 26 24 27 25 28 26 29 27 31 28 32 29 33 75 34 30 35 74 36
REMARK SMILES IDX 31 37 32 38 33 39 68 40 34 41 73 42 67 43 69 44 35 45 72 46
REMARK SMILES IDX 66 47 65 48 36 50 58 51 43 52 57 53 44 54 47 55 56 56 70 57
REMARK SMILES IDX 45 58 46 59 55 61 71 62 48 63 37 64 38 65 42 66 39 67 41 68
REMARK SMILES IDX 40 69 59 70 60 71 64 72 61 73 63 74 62 75 49 76 50 77 54 78
REMARK SMILES IDX 51 79 53 80 52 81
REMARK H PARENT 20 5 3 11 3 12 25 30 69 49 47 60
REMARK Flexibility Score: inf
ROOT
ATOM      1  C   UNL A   1      32.080  27.968  25.920  1.00  0.00     0.116 C 
ENDROOT
BRANCH   1   2
ATOM      2  N   UNL A   1      31.468  28.275  24.642  1.00  0.00    -0.356 N 
ATOM      3  C   UNL A   1      31.467  27.594  23.462  1.00  0.00     0.228 C 
ATOM      4  O   UNL A   1      30.788  28.065  22.545  1.00  0.00    -0.275 OA
ATOM      5  H   UNL A   1      30.967  29.122  24.624  1.00  0.00     0.163 HD
BRANCH   3   6
ATOM      6  C   UNL A   1      32.286  26.315  23.237  1.00  0.00     0.133 C 
ATOM      7  C   UNL A   1      33.512  26.615  22.379  1.00  0.00     0.024 C 
BRANCH   6   8
ATOM      8  C   UNL A   1      31.396  25.124  22.780  1.00  0.00     0.191 C 
ATOM      9  C   UNL A   1      30.482  24.764  23.969  1.00  0.00     0.076 C 
BRANCH   8  10
ATOM     10  N   UNL A   1      32.199  23.977  22.327  1.00  0.00    -0.341 N 
ATOM     11  H   UNL A   1      33.136  24.326  22.126  1.00  0.00     0.346 HD
ATOM     12  H   UNL A   1      31.676  23.607  21.533  1.00  0.00     0.346 HD
BRANCH  10  13
ATOM     13  C   UNL A   1      32.351  22.814  23.234  1.00  0.00     0.185 C 
ATOM     14  C   UNL A   1      32.087  21.574  22.365  1.00  0.00     0.076 C 
BRANCH  13  15
ATOM     15  C   UNL A   1      33.688  22.710  24.079  1.00  0.00     0.023 C 
ATOM     16  C   UNL A   1      34.852  23.327  23.245  1.00  0.00     0.016 C 
ATOM     17  C   UNL A   1      33.994  21.252  24.525  1.00  0.00     0.016 C 
ATOM     18  C   UNL A   1      33.676  23.532  25.416  1.00  0.00     0.016 C 
ATOM     19  C   UNL A   1      36.201  23.191  23.956  1.00  0.00    -0.010 C 
ATOM     20  C   UNL A   1      35.380  21.142  25.177  1.00  0.00    -0.010 C 
ATOM     21  C   UNL A   1      35.031  23.421  26.162  1.00  0.00    -0.010 C 
ATOM     22  C   UNL A   1      36.152  23.977  25.272  1.00  0.00     0.007 C 
ATOM     23  C   UNL A   1      36.464  21.706  24.242  1.00  0.00     0.007 C 
ATOM     24  C   UNL A   1      35.351  21.950  26.477  1.00  0.00     0.007 C 
ENDBRANCH  13  15
ENDBRANCH  10  13
ENDBRANCH   8  10
ENDBRANCH   6   8
ENDBRANCH   3   6
ENDBRANCH   1   2
BRANCH   1  25
ATOM     25  C   UNL A   1      31.816  29.032  26.988  1.00  0.00     0.023 C 
BRANCH  25  26
ATOM     26  C   UNL A   1      31.741  30.472  26.493  1.00  0.00     0.023 C 
BRANCH  26  27
ATOM     27  C   UNL A   1      32.846  31.387  26.994  1.00  0.00     0.116 C 
BRANCH  27  28
ATOM     28  N   UNL A   1      32.390  32.729  27.324  1.00  0.00    -0.352 N 
ATOM     29  C   UNL A   1      33.018  33.677  28.094  1.00  0.00     0.251 C 
ATOM     30  H   UNL A   1      31.518  32.990  26.947  1.00  0.00     0.163 HD
ATOM     31  O   UNL A   1      32.465  34.742  28.347  1.00  0.00    -0.269 OA
BRANCH  29  32
ATOM     32  C   UNL A   1      34.350  33.377  28.656  1.00  0.00     0.039 A 
ATOM     33  C   UNL A   1      34.427  32.708  29.879  1.00  0.00     0.014 A 
ATOM     34  C   UNL A   1      35.510  33.696  27.947  1.00  0.00     0.014 A 
ATOM     35  C   UNL A   1      35.670  32.291  30.356  1.00  0.00     0.010 A 
ATOM     36  C   UNL A   1      36.737  33.210  28.382  1.00  0.00     0.010 A 
ATOM     37  C   UNL A   1      36.829  32.503  29.590  1.00  0.00    -0.014 A 
BRANCH  37  38
ATOM     38  C   UNL A   1      38.147  31.991  30.034  1.00  0.00     0.031 A 
ATOM     39  C   UNL A   1      38.657  30.675  29.513  1.00  0.00     0.074 A 
ATOM     40  C   UNL A   1      38.850  32.670  30.961  1.00  0.00     0.049 A 
ATOM     41  N   UNL A   1      39.751  30.031  29.831  1.00  0.00    -0.248 NA
ATOM     42  C   UNL A   1      37.813  29.978  28.529  1.00  0.00     0.031 C 
ATOM     43  C   UNL A   1      38.441  33.931  31.583  1.00  0.00     0.029 A 
ATOM     44  N   UNL A   1      40.057  32.388  31.549  1.00  0.00    -0.354 N 
ATOM     45  C   UNL A   1      39.714  28.848  29.104  1.00  0.00     0.074 A 
ATOM     46  C   UNL A   1      38.470  28.840  28.368  1.00  0.00     0.031 C 
ATOM     47  C   UNL A   1      39.392  34.327  32.445  1.00  0.00     0.029 A 
ATOM     48  C   UNL A   1      40.457  33.330  32.466  1.00  0.00     0.049 A 
ATOM     49  H   UNL A   1      40.587  31.586  31.336  1.00  0.00     0.167 HD
ATOM     50  C   UNL A   1      40.643  27.866  29.038  1.00  0.00     0.031 A 
ATOM     51  C   UNL A   1      41.558  33.383  33.240  1.00  0.00     0.031 A 
ATOM     52  C   UNL A   1      41.889  27.883  29.754  1.00  0.00     0.049 A 
ATOM     53  C   UNL A   1      42.575  32.281  33.144  1.00  0.00     0.074 A 
ATOM     54  C   UNL A   1      42.927  26.968  29.702  1.00  0.00     0.029 A 
ATOM     55  N   UNL A   1      42.267  28.866  30.656  1.00  0.00    -0.354 N 
ATOM     56  N   UNL A   1      42.562  31.207  32.393  1.00  0.00    -0.248 NA
ATOM     57  C   UNL A   1      43.766  32.407  33.997  1.00  0.00     0.031 C 
ATOM     58  C   UNL A   1      43.911  27.373  30.608  1.00  0.00     0.029 A 
ATOM     59  C   UNL A   1      43.511  28.567  31.184  1.00  0.00     0.049 A 
ATOM     60  H   UNL A   1      41.730  29.658  30.886  1.00  0.00     0.167 HD
ATOM     61  C   UNL A   1      43.753  30.543  32.661  1.00  0.00     0.074 A 
ATOM     62  C   UNL A   1      44.470  31.345  33.631  1.00  0.00     0.031 C 
ATOM     63  C   UNL A   1      44.210  29.376  32.148  1.00  0.00     0.031 A 
BRANCH  50  64
ATOM     64  C   UNL A   1      40.338  26.684  28.162  1.00  0.00    -0.014 A 
ATOM     65  C   UNL A   1      39.541  25.622  28.622  1.00  0.00     0.009 A 
ATOM     66  C   UNL A   1      40.828  26.644  26.847  1.00  0.00     0.009 A 
ATOM     67  C   UNL A   1      39.273  24.530  27.796  1.00  0.00     0.001 A 
ATOM     68  C   UNL A   1      40.533  25.563  26.014  1.00  0.00     0.001 A 
ATOM     69  C   UNL A   1      39.763  24.503  26.492  1.00  0.00     0.000 A 
ENDBRANCH  50  64
BRANCH  51  70
ATOM     70  C   UNL A   1      41.765  34.529  34.164  1.00  0.00    -0.014 A 
ATOM     71  C   UNL A   1      41.381  34.436  35.510  1.00  0.00     0.009 A 
ATOM     72  C   UNL A   1      42.341  35.722  33.703  1.00  0.00     0.009 A 
ATOM     73  C   UNL A   1      41.541  35.525  36.369  1.00  0.00     0.001 A 
ATOM     74  C   UNL A   1      42.526  36.801  34.571  1.00  0.00     0.001 A 
ATOM     75  C   UNL A   1      42.117  36.705  35.901  1.00  0.00     0.000 A 
ENDBRANCH  51  70
BRANCH  63  76
ATOM     76  C   UNL A   1      45.565  28.912  32.601  1.00  0.00    -0.014 A 
ATOM     77  C   UNL A   1      46.730  29.283  31.911  1.00  0.00     0.009 A 
ATOM     78  C   UNL A   1      45.680  28.129  33.761  1.00  0.00     0.009 A 
ATOM     79  C   UNL A   1      47.981  28.849  32.357  1.00  0.00     0.001 A 
ATOM     80  C   UNL A   1      46.932  27.722  34.220  1.00  0.00     0.001 A 
ATOM     81  C   UNL A   1      48.080  28.074  33.513  1.00  0.00     0.000 A 
ENDBRANCH  63  76
ENDBRANCH  37  38
ENDBRANCH  29  32
ENDBRANCH  27  28
ENDBRANCH  26  27
ENDBRANCH  25  26
ENDBRANCH   1  25
TORSDOF 15
ENDMDL
MODEL 3
REMARK VINA RESULT:     -10.9      0.463      6.001
REMARK SMILES C[C@H]([NH2+][C@@H](C)[C@]12C[C@H]3C[C@H](C[C@H](C3)C1)C2)[C@@H](C)C(=O)NCCCCNC(=O)c1ccc(-c2c3nc(c(-c4ccccc4)c4ccc([nH]4)c(-c4ccccc4)c4nc(c(-c5ccccc5)c5ccc2[nH]5)C=C4)C=C3)cc1
REMARK SMILES IDX 21 1 20 2 18 3 19 4 16 6 17 7 2 8 1 9 3 10 4 13 5 14 6 15
REMARK SMILES IDX 7 16 14 17 15 18 8 19 12 20 10 21 9 22 13 23 11 24 22 25
REMARK SMILES IDX 23 26 24 27 25 28 26 29 27 31 28 32 29 33 75 34 30 35 74 36
REMARK SMILES IDX 31 37 32 38 33 39 68 40 34 41 73 42 67 43 69 44 35 45 72 46
REMARK SMILES IDX 66 47 65 48 36 50 58 51 43 52 57 53 44 54 47 55 56 56 70 57
REMARK SMILES IDX 45 58 46 59 55 61 71 62 48 63 37 64 38 65 42 66 39 67 41 68
REMARK SMILES IDX 40 69 59 70 60 71 64 72 61 73 63 74 62 75 49 76 50 77 54 78
REMARK SMILES IDX 51 79 53 80 52 81
REMARK H PARENT 20 5 3 11 3 12 25 30 69 49 47 60
REMARK Flexibility Score: inf
ROOT
ATOM      1  C   UNL A   1      35.491  21.660  25.675  1.00  0.00     0.116 C 
ENDROOT
BRANCH   1   2
ATOM      2  N   UNL A   1      34.294  20.860  25.501  1.00  0.00    -0.356 N 
ATOM      3  C   UNL A   1      33.034  21.204  25.114  1.00  0.00     0.228 C 
ATOM      4  O   UNL A   1      32.220  20.285  24.979  1.00  0.00    -0.275 OA
ATOM      5  H   UNL A   1      34.414  19.902  25.696  1.00  0.00     0.163 HD
BRANCH   3   6
ATOM      6  C   UNL A   1      32.602  22.658  24.881  1.00  0.00     0.133 C 
ATOM      7  C   UNL A   1      31.470  23.034  25.833  1.00  0.00     0.024 C 
BRANCH   6   8
ATOM      8  C   UNL A   1      32.368  22.963  23.374  1.00  0.00     0.191 C 
ATOM      9  C   UNL A   1      33.754  22.989  22.700  1.00  0.00     0.076 C 
BRANCH   8  10
ATOM     10  N   UNL A   1      31.627  24.219  23.174  1.00  0.00    -0.341 N 
ATOM     11  H   UNL A   1      31.069  24.377  24.013  1.00  0.00     0.346 HD
ATOM     12  H   UNL A   1      31.108  24.066  22.309  1.00  0.00     0.346 HD
BRANCH  10  13
ATOM     13  C   UNL A   1      32.394  25.462  22.918  1.00  0.00     0.185 C 
ATOM     14  C   UNL A   1      31.846  26.022  21.596  1.00  0.00     0.076 C 
BRANCH  13  15
ATOM     15  C   UNL A   1      32.451  26.543  24.076  1.00  0.00     0.023 C 
ATOM     16  C   UNL A   1      32.727  27.939  23.440  1.00  0.00     0.016 C 
ATOM     17  C   UNL A   1      33.493  26.182  25.172  1.00  0.00     0.016 C 
ATOM     18  C   UNL A   1      31.105  26.722  24.862  1.00  0.00     0.016 C 
ATOM     19  C   UNL A   1      32.881  29.032  24.500  1.00  0.00    -0.010 C 
ATOM     20  C   UNL A   1      33.667  27.325  26.182  1.00  0.00    -0.010 C 
ATOM     21  C   UNL A   1      31.223  27.828  25.944  1.00  0.00    -0.010 C 
ATOM     22  C   UNL A   1      31.563  29.166  25.273  1.00  0.00     0.007 C 
ATOM     23  C   UNL A   1      34.013  28.639  25.459  1.00  0.00     0.007 C 
ATOM     24  C   UNL A   1      32.346  27.488  26.938  1.00  0.00     0.007 C 
ENDBRANCH  13  15
ENDBRANCH  10  13
ENDBRANCH   8  10
ENDBRANCH   6   8
ENDBRANCH   3   6
ENDBRANCH   1   2
BRANCH   1  25
ATOM     25  C   UNL A   1      36.579  21.351  24.645  1.00  0.00     0.023 C 
BRANCH  25  26
ATOM     26  C   UNL A   1      37.500  20.182  24.974  1.00  0.00     0.023 C 
BRANCH  26  27
ATOM     27  C   UNL A   1      38.770  20.548  25.722  1.00  0.00     0.116 C 
BRANCH  27  28
ATOM     28  N   UNL A   1      39.779  19.500  25.709  1.00  0.00    -0.352 N 
ATOM     29  C   UNL A   1      41.100  19.584  26.079  1.00  0.00     0.251 C 
ATOM     30  H   UNL A   1      39.477  18.617  25.394  1.00  0.00     0.163 HD
ATOM     31  O   UNL A   1      41.850  18.625  25.935  1.00  0.00    -0.269 OA
BRANCH  29  32
ATOM     32  C   UNL A   1      41.617  20.862  26.606  1.00  0.00     0.039 A 
ATOM     33  C   UNL A   1      42.115  21.806  25.706  1.00  0.00     0.014 A 
ATOM     34  C   UNL A   1      41.548  21.150  27.971  1.00  0.00     0.014 A 
ATOM     35  C   UNL A   1      42.476  23.072  26.168  1.00  0.00     0.010 A 
ATOM     36  C   UNL A   1      41.830  22.435  28.417  1.00  0.00     0.010 A 
ATOM     37  C   UNL A   1      42.296  23.408  27.521  1.00  0.00    -0.014 A 
BRANCH  37  38
ATOM     38  C   UNL A   1      42.588  24.774  28.018  1.00  0.00     0.031 A 
ATOM     39  C   UNL A   1      43.985  25.138  28.440  1.00  0.00     0.074 A 
ATOM     40  C   UNL A   1      41.585  25.661  28.162  1.00  0.00     0.049 A 
ATOM     41  N   UNL A   1      44.424  26.256  28.961  1.00  0.00    -0.248 NA
ATOM     42  C   UNL A   1      45.017  24.101  28.285  1.00  0.00     0.031 C 
ATOM     43  C   UNL A   1      40.178  25.414  27.837  1.00  0.00     0.029 A 
ATOM     44  N   UNL A   1      41.594  26.952  28.628  1.00  0.00    -0.354 N 
ATOM     45  C   UNL A   1      45.773  26.047  29.213  1.00  0.00     0.074 A 
ATOM     46  C   UNL A   1      46.070  24.684  28.836  1.00  0.00     0.031 C 
ATOM     47  C   UNL A   1      39.466  26.524  28.089  1.00  0.00     0.029 A 
ATOM     48  C   UNL A   1      40.356  27.547  28.628  1.00  0.00     0.049 A 
ATOM     49  H   UNL A   1      42.411  27.408  28.934  1.00  0.00     0.167 HD
ATOM     50  C   UNL A   1      46.689  26.919  29.697  1.00  0.00     0.031 A 
ATOM     51  C   UNL A   1      39.979  28.778  29.023  1.00  0.00     0.031 A 
ATOM     52  C   UNL A   1      46.398  28.280  30.054  1.00  0.00     0.049 A 
ATOM     53  C   UNL A   1      41.017  29.728  29.552  1.00  0.00     0.074 A 
ATOM     54  C   UNL A   1      47.270  29.263  30.488  1.00  0.00     0.029 A 
ATOM     55  N   UNL A   1      45.135  28.852  30.019  1.00  0.00    -0.354 N 
ATOM     56  N   UNL A   1      42.304  29.541  29.712  1.00  0.00    -0.248 NA
ATOM     57  C   UNL A   1      40.548  31.065  29.945  1.00  0.00     0.031 C 
ATOM     58  C   UNL A   1      46.528  30.415  30.763  1.00  0.00     0.029 A 
ATOM     59  C   UNL A   1      45.202  30.166  30.447  1.00  0.00     0.049 A 
ATOM     60  H   UNL A   1      44.314  28.391  29.733  1.00  0.00     0.167 HD
ATOM     61  C   UNL A   1      42.804  30.743  30.196  1.00  0.00     0.074 A 
ATOM     62  C   UNL A   1      41.683  31.656  30.289  1.00  0.00     0.031 C 
ATOM     63  C   UNL A   1      44.077  31.061  30.533  1.00  0.00     0.031 A 
BRANCH  50  64
ATOM     64  C   UNL A   1      48.095  26.418  29.873  1.00  0.00    -0.014 A 
ATOM     65  C   UNL A   1      48.518  25.848  31.085  1.00  0.00     0.009 A 
ATOM     66  C   UNL A   1      49.001  26.490  28.803  1.00  0.00     0.009 A 
ATOM     67  C   UNL A   1      49.830  25.393  31.232  1.00  0.00     0.001 A 
ATOM     68  C   UNL A   1      50.303  26.007  28.945  1.00  0.00     0.001 A 
ATOM     69  C   UNL A   1      50.719  25.467  30.161  1.00  0.00     0.000 A 
ENDBRANCH  50  64
BRANCH  51  70
ATOM     70  C   UNL A   1      38.555  29.191  28.919  1.00  0.00    -0.014 A 
ATOM     71  C   UNL A   1      37.699  29.081  30.025  1.00  0.00     0.009 A 
ATOM     72  C   UNL A   1      38.043  29.691  27.712  1.00  0.00     0.009 A 
ATOM     73  C   UNL A   1      36.353  29.433  29.917  1.00  0.00     0.001 A 
ATOM     74  C   UNL A   1      36.702  30.070  27.614  1.00  0.00     0.001 A 
ATOM     75  C   UNL A   1      35.856  29.931  28.713  1.00  0.00     0.000 A 
ENDBRANCH  51  70
BRANCH  63  76
ATOM     76  C   UNL A   1      44.332  32.465  31.001  1.00  0.00    -0.014 A 
ATOM     77  C   UNL A   1      44.625  33.494  30.092  1.00  0.00     0.009 A 
ATOM     78  C   UNL A   1      44.234  32.771  32.367  1.00  0.00     0.009 A 
ATOM     79  C   UNL A   1      44.848  34.795  30.548  1.00  0.00     0.001 A 
ATOM     80  C   UNL A   1      44.428  34.077  32.817  1.00  0.00     0.001 A 
ATOM     81  C   UNL A   1      44.744  35.086  31.909  1.00  0.00     0.000 A 
ENDBRANCH  63  76
ENDBRANCH  37  38
ENDBRANCH  29  32
ENDBRANCH  27  28
ENDBRANCH  26  27
ENDBRANCH  25  26
ENDBRANCH   1  25
TORSDOF 15
ENDMDL
