MODEL 1
REMARK VINA RESULT:     -12.6      0.000      0.000
REMARK SMILES C[N@@H+]1CCN(C(=O)c2ccc3[nH]c4c(c3c2)CSCC4)C[C@H]1C(=O)NCCCCNC(=O)c1ccc(-c2c3nc(c(-c4ccccc4)c4ccc([nH]4)c(-c4ccccc4)c4nc(c(-c5ccccc5)c5ccc2[nH]5)C=C4)C=C3)cc1
REMARK SMILES IDX 27 1 26 2 25 3 23 4 24 5 22 7 1 8 2 9 3 10 4 12 21 13 5 14
REMARK SMILES IDX 6 15 7 16 8 17 9 18 16 19 10 20 15 21 11 22 14 23 12 24
REMARK SMILES IDX 13 25 17 26 20 28 18 29 19 30 28 31 29 32 30 33 31 34 32 36
REMARK SMILES IDX 33 37 34 38 80 39 35 40 79 41 36 42 37 43 38 44 73 45 39 46
REMARK SMILES IDX 78 47 72 48 74 49 40 50 77 51 71 52 70 53 41 55 63 56 48 57
REMARK SMILES IDX 62 58 49 59 52 60 61 61 75 62 50 63 51 64 60 66 76 67 53 68
REMARK SMILES IDX 42 69 43 70 47 71 44 72 46 73 45 74 64 75 65 76 69 77 66 78
REMARK SMILES IDX 68 79 67 80 54 81 55 82 59 83 56 84 58 85 57 86
REMARK H PARENT 25 6 2 11 12 27 30 35 74 54 52 65
REMARK Flexibility Score: inf
ROOT
ATOM      1  C   UNL A   1      34.171  30.464  27.596  1.00  0.00     0.023 C 
ENDROOT
BRANCH   1   2
ATOM      2  C   UNL A   1      33.120  29.755  26.754  1.00  0.00     0.116 C 
BRANCH   2   3
ATOM      3  N   UNL A   1      33.570  29.525  25.393  1.00  0.00    -0.351 N 
ATOM      4  C   UNL A   1      33.117  28.629  24.469  1.00  0.00     0.280 C 
ATOM      5  O   UNL A   1      33.664  28.622  23.362  1.00  0.00    -0.268 OA
ATOM      6  H   UNL A   1      34.311  30.099  25.093  1.00  0.00     0.163 HD
BRANCH   4   7
ATOM      7  C   UNL A   1      31.939  27.692  24.767  1.00  0.00     0.293 C 
ATOM      8  C   UNL A   1      30.371  28.907  23.339  1.00  0.00     0.333 C 
ATOM      9  N   UNL A   1      30.980  27.604  23.623  1.00  0.00    -0.324 N 
ATOM     10  C   UNL A   1      29.925  26.617  23.949  1.00  0.00     0.284 C 
ATOM     11  H   UNL A   1      31.493  27.308  22.793  1.00  0.00     0.348 HD
ATOM     12  C   UNL A   1      30.489  25.237  24.327  1.00  0.00     0.181 C 
ATOM     13  C   UNL A   1      32.513  26.328  25.207  1.00  0.00     0.195 C 
ATOM     14  N   UNL A   1      31.470  25.317  25.410  1.00  0.00    -0.326 N 
BRANCH  14  15
ATOM     15  C   UNL A   1      31.537  24.270  26.324  1.00  0.00     0.254 C 
ATOM     16  O   UNL A   1      30.740  24.124  27.248  1.00  0.00    -0.269 OA
BRANCH  15  17
ATOM     17  C   UNL A   1      32.595  23.249  26.164  1.00  0.00     0.040 A 
ATOM     18  C   UNL A   1      33.839  23.405  26.783  1.00  0.00     0.016 A 
ATOM     19  C   UNL A   1      32.303  22.110  25.400  1.00  0.00     0.024 A 
ATOM     20  C   UNL A   1      34.854  22.467  26.586  1.00  0.00     0.027 A 
ATOM     21  C   UNL A   1      33.306  21.139  25.213  1.00  0.00     0.004 A 
ATOM     22  C   UNL A   1      34.559  21.349  25.795  1.00  0.00     0.046 A 
ATOM     23  C   UNL A   1      33.353  19.881  24.536  1.00  0.00    -0.009 A 
ATOM     24  N   UNL A   1      35.353  20.280  25.447  1.00  0.00    -0.358 N 
ATOM     25  C   UNL A   1      34.627  19.376  24.724  1.00  0.00     0.021 A 
ATOM     26  C   UNL A   1      32.232  19.198  23.819  1.00  0.00     0.107 C 
ATOM     27  H   UNL A   1      36.303  20.182  25.684  1.00  0.00     0.166 HD
ATOM     28  C   UNL A   1      35.163  18.070  24.248  1.00  0.00     0.065 C 
ATOM     29  S   UNL A   1      32.754  17.710  22.888  1.00  0.00    -0.157 SA
ATOM     30  C   UNL A   1      34.024  17.066  24.042  1.00  0.00     0.076 C 
ENDBRANCH  15  17
ENDBRANCH  14  15
ENDBRANCH   4   7
ENDBRANCH   2   3
ENDBRANCH   1   2
BRANCH   1  31
ATOM     31  C   UNL A   1      34.023  31.984  27.667  1.00  0.00     0.023 C 
BRANCH  31  32
ATOM     32  C   UNL A   1      35.009  32.700  28.594  1.00  0.00     0.116 C 
BRANCH  32  33
ATOM     33  N   UNL A   1      34.700  32.604  30.006  1.00  0.00    -0.352 N 
ATOM     34  C   UNL A   1      35.344  32.098  31.105  1.00  0.00     0.251 C 
ATOM     35  H   UNL A   1      33.823  32.994  30.228  1.00  0.00     0.163 HD
ATOM     36  O   UNL A   1      34.833  32.339  32.194  1.00  0.00    -0.269 OA
BRANCH  34  37
ATOM     37  C   UNL A   1      36.564  31.243  31.058  1.00  0.00     0.039 A 
ATOM     38  C   UNL A   1      37.874  31.696  31.185  1.00  0.00     0.014 A 
ATOM     39  C   UNL A   1      36.354  29.869  30.826  1.00  0.00     0.014 A 
ATOM     40  C   UNL A   1      38.945  30.835  30.979  1.00  0.00     0.010 A 
ATOM     41  C   UNL A   1      37.424  28.992  30.656  1.00  0.00     0.010 A 
ATOM     42  C   UNL A   1      38.724  29.486  30.694  1.00  0.00    -0.014 A 
BRANCH  42  43
ATOM     43  C   UNL A   1      39.904  28.642  30.540  1.00  0.00     0.031 A 
ATOM     44  C   UNL A   1      40.715  28.417  31.772  1.00  0.00     0.074 A 
ATOM     45  C   UNL A   1      40.243  28.005  29.403  1.00  0.00     0.049 A 
ATOM     46  N   UNL A   1      41.968  28.678  31.964  1.00  0.00    -0.248 NA
ATOM     47  C   UNL A   1      40.025  27.879  32.952  1.00  0.00     0.031 C 
ATOM     48  C   UNL A   1      39.445  27.830  28.190  1.00  0.00     0.029 A 
ATOM     49  N   UNL A   1      41.366  27.270  29.152  1.00  0.00    -0.354 N 
ATOM     50  C   UNL A   1      42.269  28.229  33.249  1.00  0.00     0.074 A 
ATOM     51  C   UNL A   1      41.019  27.821  33.840  1.00  0.00     0.031 C 
ATOM     52  C   UNL A   1      39.998  26.850  27.441  1.00  0.00     0.029 A 
ATOM     53  C   UNL A   1      41.250  26.434  28.055  1.00  0.00     0.049 A 
ATOM     54  H   UNL A   1      42.181  27.329  29.701  1.00  0.00     0.167 HD
ATOM     55  C   UNL A   1      43.548  28.099  33.701  1.00  0.00     0.031 A 
ATOM     56  C   UNL A   1      42.079  25.414  27.728  1.00  0.00     0.031 A 
ATOM     57  C   UNL A   1      44.486  28.832  32.898  1.00  0.00     0.049 A 
ATOM     58  C   UNL A   1      43.372  25.623  28.420  1.00  0.00     0.074 A 
ATOM     59  C   UNL A   1      44.648  30.164  32.574  1.00  0.00     0.029 A 
ATOM     60  N   UNL A   1      45.279  28.134  32.020  1.00  0.00    -0.354 N 
ATOM     61  N   UNL A   1      44.226  26.554  28.112  1.00  0.00    -0.248 NA
ATOM     62  C   UNL A   1      43.570  25.002  29.720  1.00  0.00     0.031 C 
ATOM     63  C   UNL A   1      45.125  30.161  31.233  1.00  0.00     0.029 A 
ATOM     64  C   UNL A   1      45.265  28.828  30.840  1.00  0.00     0.049 A 
ATOM     65  H   UNL A   1      45.764  27.297  32.205  1.00  0.00     0.167 HD
ATOM     66  C   UNL A   1      44.787  26.935  29.321  1.00  0.00     0.074 A 
ATOM     67  C   UNL A   1      44.439  25.864  30.250  1.00  0.00     0.031 C 
ATOM     68  C   UNL A   1      45.234  28.210  29.530  1.00  0.00     0.031 A 
BRANCH  55  69
ATOM     69  C   UNL A   1      43.993  27.083  34.720  1.00  0.00    -0.014 A 
ATOM     70  C   UNL A   1      43.974  27.320  36.106  1.00  0.00     0.009 A 
ATOM     71  C   UNL A   1      44.202  25.750  34.312  1.00  0.00     0.009 A 
ATOM     72  C   UNL A   1      44.142  26.289  37.038  1.00  0.00     0.001 A 
ATOM     73  C   UNL A   1      44.324  24.709  35.242  1.00  0.00     0.001 A 
ATOM     74  C   UNL A   1      44.291  24.981  36.605  1.00  0.00     0.000 A 
ENDBRANCH  55  69
BRANCH  56  75
ATOM     75  C   UNL A   1      41.728  24.128  27.091  1.00  0.00    -0.014 A 
ATOM     76  C   UNL A   1      40.749  23.292  27.662  1.00  0.00     0.009 A 
ATOM     77  C   UNL A   1      42.530  23.591  26.074  1.00  0.00     0.009 A 
ATOM     78  C   UNL A   1      40.598  21.964  27.257  1.00  0.00     0.001 A 
ATOM     79  C   UNL A   1      42.387  22.256  25.674  1.00  0.00     0.001 A 
ATOM     80  C   UNL A   1      41.430  21.441  26.274  1.00  0.00     0.000 A 
ENDBRANCH  56  75
BRANCH  68  81
ATOM     81  C   UNL A   1      45.386  29.144  28.352  1.00  0.00    -0.014 A 
ATOM     82  C   UNL A   1      46.667  29.324  27.803  1.00  0.00     0.009 A 
ATOM     83  C   UNL A   1      44.353  29.982  27.899  1.00  0.00     0.009 A 
ATOM     84  C   UNL A   1      46.911  30.310  26.844  1.00  0.00     0.001 A 
ATOM     85  C   UNL A   1      44.588  30.949  26.915  1.00  0.00     0.001 A 
ATOM     86  C   UNL A   1      45.870  31.119  26.396  1.00  0.00     0.000 A 
ENDBRANCH  68  81
ENDBRANCH  42  43
ENDBRANCH  34  37
ENDBRANCH  32  33
ENDBRANCH  31  32
ENDBRANCH   1  31
TORSDOF 13
ENDMDL
MODEL 2
REMARK VINA RESULT:     -12.6      3.253      8.774
REMARK SMILES C[N@@H+]1CCN(C(=O)c2ccc3[nH]c4c(c3c2)CSCC4)C[C@H]1C(=O)NCCCCNC(=O)c1ccc(-c2c3nc(c(-c4ccccc4)c4ccc([nH]4)c(-c4ccccc4)c4nc(c(-c5ccccc5)c5ccc2[nH]5)C=C4)C=C3)cc1
REMARK SMILES IDX 27 1 26 2 25 3 23 4 24 5 22 7 1 8 2 9 3 10 4 12 21 13 5 14
REMARK SMILES IDX 6 15 7 16 8 17 9 18 16 19 10 20 15 21 11 22 14 23 12 24
REMARK SMILES IDX 13 25 17 26 20 28 18 29 19 30 28 31 29 32 30 33 31 34 32 36
REMARK SMILES IDX 33 37 34 38 80 39 35 40 79 41 36 42 37 43 38 44 73 45 39 46
REMARK SMILES IDX 78 47 72 48 74 49 40 50 77 51 71 52 70 53 41 55 63 56 48 57
REMARK SMILES IDX 62 58 49 59 52 60 61 61 75 62 50 63 51 64 60 66 76 67 53 68
REMARK SMILES IDX 42 69 43 70 47 71 44 72 46 73 45 74 64 75 65 76 69 77 66 78
REMARK SMILES IDX 68 79 67 80 54 81 55 82 59 83 56 84 58 85 57 86
REMARK H PARENT 25 6 2 11 12 27 30 35 74 54 52 65
REMARK Flexibility Score: inf
ROOT
ATOM      1  C   UNL A   1      35.520  23.831  24.822  1.00  0.00     0.023 C 
ENDROOT
BRANCH   1   2
ATOM      2  C   UNL A   1      34.876  23.673  23.451  1.00  0.00     0.116 C 
BRANCH   2   3
ATOM      3  N   UNL A   1      33.486  23.264  23.542  1.00  0.00    -0.351 N 
ATOM      4  C   UNL A   1      32.373  24.019  23.769  1.00  0.00     0.280 C 
ATOM      5  O   UNL A   1      31.283  23.439  23.800  1.00  0.00    -0.268 OA
ATOM      6  H   UNL A   1      33.322  22.301  23.422  1.00  0.00     0.163 HD
BRANCH   4   7
ATOM      7  C   UNL A   1      32.455  25.544  23.933  1.00  0.00     0.293 C 
ATOM      8  C   UNL A   1      32.574  25.981  21.530  1.00  0.00     0.333 C 
ATOM      9  N   UNL A   1      31.854  26.272  22.773  1.00  0.00    -0.324 N 
ATOM     10  C   UNL A   1      31.887  27.727  23.043  1.00  0.00     0.284 C 
ATOM     11  H   UNL A   1      30.890  25.959  22.659  1.00  0.00     0.348 HD
ATOM     12  C   UNL A   1      31.208  28.108  24.370  1.00  0.00     0.181 C 
ATOM     13  C   UNL A   1      31.828  25.912  25.294  1.00  0.00     0.195 C 
ATOM     14  N   UNL A   1      31.752  27.361  25.505  1.00  0.00    -0.326 N 
BRANCH  14  15
ATOM     15  C   UNL A   1      31.829  27.996  26.742  1.00  0.00     0.254 C 
ATOM     16  O   UNL A   1      31.023  27.809  27.650  1.00  0.00    -0.269 OA
BRANCH  15  17
ATOM     17  C   UNL A   1      32.957  28.914  27.005  1.00  0.00     0.040 A 
ATOM     18  C   UNL A   1      34.279  28.475  26.891  1.00  0.00     0.016 A 
ATOM     19  C   UNL A   1      32.661  30.242  27.343  1.00  0.00     0.024 A 
ATOM     20  C   UNL A   1      35.341  29.329  27.193  1.00  0.00     0.027 A 
ATOM     21  C   UNL A   1      33.721  31.127  27.625  1.00  0.00     0.004 A 
ATOM     22  C   UNL A   1      35.031  30.645  27.560  1.00  0.00     0.046 A 
ATOM     23  C   UNL A   1      33.790  32.512  27.969  1.00  0.00    -0.009 A 
ATOM     24  N   UNL A   1      35.864  31.687  27.897  1.00  0.00    -0.358 N 
ATOM     25  C   UNL A   1      35.132  32.821  28.106  1.00  0.00     0.021 A 
ATOM     26  C   UNL A   1      32.649  33.471  28.093  1.00  0.00     0.107 C 
ATOM     27  H   UNL A   1      36.844  31.624  27.974  1.00  0.00     0.166 HD
ATOM     28  C   UNL A   1      35.728  34.150  28.419  1.00  0.00     0.065 C 
ATOM     29  S   UNL A   1      33.130  35.102  28.775  1.00  0.00    -0.157 SA
ATOM     30  C   UNL A   1      34.779  35.276  27.995  1.00  0.00     0.076 C 
ENDBRANCH  15  17
ENDBRANCH  14  15
ENDBRANCH   4   7
ENDBRANCH   2   3
ENDBRANCH   1   2
BRANCH   1  31
ATOM     31  C   UNL A   1      37.016  23.516  24.872  1.00  0.00     0.023 C 
BRANCH  31  32
ATOM     32  C   UNL A   1      37.416  22.361  25.793  1.00  0.00     0.116 C 
BRANCH  32  33
ATOM     33  N   UNL A   1      38.825  22.023  25.773  1.00  0.00    -0.352 N 
ATOM     34  C   UNL A   1      39.948  22.525  26.376  1.00  0.00     0.251 C 
ATOM     35  H   UNL A   1      39.021  21.254  25.190  1.00  0.00     0.163 HD
ATOM     36  O   UNL A   1      40.977  21.869  26.242  1.00  0.00    -0.269 OA
BRANCH  34  37
ATOM     37  C   UNL A   1      40.012  23.817  27.118  1.00  0.00     0.039 A 
ATOM     38  C   UNL A   1      39.047  24.819  27.081  1.00  0.00     0.014 A 
ATOM     39  C   UNL A   1      41.175  24.040  27.883  1.00  0.00     0.014 A 
ATOM     40  C   UNL A   1      39.274  26.046  27.693  1.00  0.00     0.010 A 
ATOM     41  C   UNL A   1      41.393  25.254  28.530  1.00  0.00     0.010 A 
ATOM     42  C   UNL A   1      40.456  26.274  28.401  1.00  0.00    -0.014 A 
BRANCH  42  43
ATOM     43  C   UNL A   1      40.593  27.572  29.054  1.00  0.00     0.031 A 
ATOM     44  C   UNL A   1      41.542  28.531  28.415  1.00  0.00     0.074 A 
ATOM     45  C   UNL A   1      39.872  27.971  30.119  1.00  0.00     0.049 A 
ATOM     46  N   UNL A   1      42.577  29.103  28.940  1.00  0.00    -0.248 NA
ATOM     47  C   UNL A   1      41.334  28.848  26.995  1.00  0.00     0.031 C 
ATOM     48  C   UNL A   1      38.692  27.335  30.702  1.00  0.00     0.029 A 
ATOM     49  N   UNL A   1      39.996  29.126  30.835  1.00  0.00    -0.354 N 
ATOM     50  C   UNL A   1      43.092  29.953  27.962  1.00  0.00     0.074 A 
ATOM     51  C   UNL A   1      42.337  29.696  26.761  1.00  0.00     0.031 C 
ATOM     52  C   UNL A   1      38.073  28.223  31.513  1.00  0.00     0.029 A 
ATOM     53  C   UNL A   1      38.885  29.426  31.604  1.00  0.00     0.049 A 
ATOM     54  H   UNL A   1      40.800  29.693  30.807  1.00  0.00     0.167 HD
ATOM     55  C   UNL A   1      44.023  30.909  28.237  1.00  0.00     0.031 A 
ATOM     56  C   UNL A   1      38.613  30.613  32.199  1.00  0.00     0.031 A 
ATOM     57  C   UNL A   1      44.685  30.681  29.491  1.00  0.00     0.049 A 
ATOM     58  C   UNL A   1      39.876  31.377  32.317  1.00  0.00     0.074 A 
ATOM     59  C   UNL A   1      45.462  29.660  30.002  1.00  0.00     0.029 A 
ATOM     60  N   UNL A   1      44.331  31.456  30.568  1.00  0.00    -0.354 N 
ATOM     61  N   UNL A   1      40.843  31.071  33.132  1.00  0.00    -0.248 NA
ATOM     62  C   UNL A   1      40.227  32.304  31.253  1.00  0.00     0.031 C 
ATOM     63  C   UNL A   1      45.124  29.597  31.383  1.00  0.00     0.029 A 
ATOM     64  C   UNL A   1      44.196  30.609  31.636  1.00  0.00     0.049 A 
ATOM     65  H   UNL A   1      44.199  32.432  30.571  1.00  0.00     0.167 HD
ATOM     66  C   UNL A   1      42.002  31.410  32.450  1.00  0.00     0.074 A 
ATOM     67  C   UNL A   1      41.557  32.275  31.361  1.00  0.00     0.031 C 
ATOM     68  C   UNL A   1      43.173  30.735  32.653  1.00  0.00     0.031 A 
BRANCH  55  69
ATOM     69  C   UNL A   1      44.149  32.215  27.496  1.00  0.00    -0.014 A 
ATOM     70  C   UNL A   1      44.445  32.297  26.123  1.00  0.00     0.009 A 
ATOM     71  C   UNL A   1      43.712  33.402  28.117  1.00  0.00     0.009 A 
ATOM     72  C   UNL A   1      44.304  33.488  25.403  1.00  0.00     0.001 A 
ATOM     73  C   UNL A   1      43.525  34.585  27.391  1.00  0.00     0.001 A 
ATOM     74  C   UNL A   1      43.819  34.625  26.032  1.00  0.00     0.000 A 
ENDBRANCH  55  69
BRANCH  56  75
ATOM     75  C   UNL A   1      37.292  31.242  32.404  1.00  0.00    -0.014 A 
ATOM     76  C   UNL A   1      36.293  31.145  31.417  1.00  0.00     0.009 A 
ATOM     77  C   UNL A   1      37.092  32.161  33.445  1.00  0.00     0.009 A 
ATOM     78  C   UNL A   1      35.155  31.954  31.449  1.00  0.00     0.001 A 
ATOM     79  C   UNL A   1      35.956  32.981  33.473  1.00  0.00     0.001 A 
ATOM     80  C   UNL A   1      34.995  32.885  32.469  1.00  0.00     0.000 A 
ENDBRANCH  56  75
BRANCH  68  81
ATOM     81  C   UNL A   1      43.292  29.799  33.834  1.00  0.00    -0.014 A 
ATOM     82  C   UNL A   1      42.810  28.487  33.697  1.00  0.00     0.009 A 
ATOM     83  C   UNL A   1      43.686  30.225  35.114  1.00  0.00     0.009 A 
ATOM     84  C   UNL A   1      42.713  27.633  34.799  1.00  0.00     0.001 A 
ATOM     85  C   UNL A   1      43.620  29.361  36.212  1.00  0.00     0.001 A 
ATOM     86  C   UNL A   1      43.123  28.069  36.056  1.00  0.00     0.000 A 
ENDBRANCH  68  81
ENDBRANCH  42  43
ENDBRANCH  34  37
ENDBRANCH  32  33
ENDBRANCH  31  32
ENDBRANCH   1  31
TORSDOF 13
ENDMDL
MODEL 3
REMARK VINA RESULT:     -12.2      2.331      4.013
REMARK SMILES C[N@@H+]1CCN(C(=O)c2ccc3[nH]c4c(c3c2)CSCC4)C[C@H]1C(=O)NCCCCNC(=O)c1ccc(-c2c3nc(c(-c4ccccc4)c4ccc([nH]4)c(-c4ccccc4)c4nc(c(-c5ccccc5)c5ccc2[nH]5)C=C4)C=C3)cc1
REMARK SMILES IDX 27 1 26 2 25 3 23 4 24 5 22 7 1 8 2 9 3 10 4 12 21 13 5 14
REMARK SMILES IDX 6 15 7 16 8 17 9 18 16 19 10 20 15 21 11 22 14 23 12 24
REMARK SMILES IDX 13 25 17 26 20 28 18 29 19 30 28 31 29 32 30 33 31 34 32 36
REMARK SMILES IDX 33 37 34 38 80 39 35 40 79 41 36 42 37 43 38 44 73 45 39 46
REMARK SMILES IDX 78 47 72 48 74 49 40 50 77 51 71 52 70 53 41 55 63 56 48 57
REMARK SMILES IDX 62 58 49 59 52 60 61 61 75 62 50 63 51 64 60 66 76 67 53 68
REMARK SMILES IDX 42 69 43 70 47 71 44 72 46 73 45 74 64 75 65 76 69 77 66 78
REMARK SMILES IDX 68 79 67 80 54 81 55 82 59 83 56 84 58 85 57 86
REMARK H PARENT 25 6 2 11 12 27 30 35 74 54 52 65
REMARK Flexibility Score: inf
ROOT
ATOM      1  C   UNL A   1      35.807  32.302  32.321  1.00  0.00     0.023 C 
ENDROOT
BRANCH   1   2
ATOM      2  C   UNL A   1      34.874  32.440  31.126  1.00  0.00     0.116 C 
BRANCH   2   3
ATOM      3  N   UNL A   1      35.599  32.643  29.884  1.00  0.00    -0.351 N 
ATOM      4  C   UNL A   1      35.187  32.452  28.598  1.00  0.00     0.280 C 
ATOM      5  O   UNL A   1      35.993  32.697  27.695  1.00  0.00    -0.268 OA
ATOM      6  H   UNL A   1      36.524  32.964  29.985  1.00  0.00     0.163 HD
BRANCH   4   7
ATOM      7  C   UNL A   1      33.758  31.995  28.271  1.00  0.00     0.293 C 
ATOM      8  C   UNL A   1      32.872  34.268  28.105  1.00  0.00     0.333 C 
ATOM      9  N   UNL A   1      33.029  32.983  27.417  1.00  0.00    -0.324 N 
ATOM     10  C   UNL A   1      31.698  32.434  27.069  1.00  0.00     0.284 C 
ATOM     11  H   UNL A   1      33.574  33.143  26.570  1.00  0.00     0.348 HD
ATOM     12  C   UNL A   1      31.774  31.050  26.402  1.00  0.00     0.181 C 
ATOM     13  C   UNL A   1      33.838  30.580  27.660  1.00  0.00     0.195 C 
ATOM     14  N   UNL A   1      32.532  30.090  27.204  1.00  0.00    -0.326 N 
BRANCH  14  15
ATOM     15  C   UNL A   1      32.140  28.754  27.188  1.00  0.00     0.254 C 
ATOM     16  O   UNL A   1      31.304  28.284  27.955  1.00  0.00    -0.269 OA
BRANCH  15  17
ATOM     17  C   UNL A   1      32.724  27.850  26.173  1.00  0.00     0.040 A 
ATOM     18  C   UNL A   1      33.286  28.361  25.000  1.00  0.00     0.016 A 
ATOM     19  C   UNL A   1      32.720  26.473  26.436  1.00  0.00     0.024 A 
ATOM     20  C   UNL A   1      33.787  27.503  24.019  1.00  0.00     0.027 A 
ATOM     21  C   UNL A   1      33.246  25.593  25.470  1.00  0.00     0.004 A 
ATOM     22  C   UNL A   1      33.749  26.127  24.281  1.00  0.00     0.046 A 
ATOM     23  C   UNL A   1      33.422  24.176  25.413  1.00  0.00    -0.009 A 
ATOM     24  N   UNL A   1      34.175  25.070  23.509  1.00  0.00    -0.358 N 
ATOM     25  C   UNL A   1      34.019  23.899  24.195  1.00  0.00     0.021 A 
ATOM     26  C   UNL A   1      33.096  23.181  26.480  1.00  0.00     0.107 C 
ATOM     27  H   UNL A   1      34.539  25.147  22.598  1.00  0.00     0.166 HD
ATOM     28  C   UNL A   1      34.445  22.569  23.678  1.00  0.00     0.065 C 
ATOM     29  S   UNL A   1      33.256  21.439  25.935  1.00  0.00    -0.157 SA
ATOM     30  C   UNL A   1      34.714  21.604  24.837  1.00  0.00     0.076 C 
ENDBRANCH  15  17
ENDBRANCH  14  15
ENDBRANCH   4   7
ENDBRANCH   2   3
ENDBRANCH   1   2
BRANCH   1  31
ATOM     31  C   UNL A   1      36.397  33.616  32.835  1.00  0.00     0.023 C 
BRANCH  31  32
ATOM     32  C   UNL A   1      37.926  33.699  32.830  1.00  0.00     0.116 C 
BRANCH  32  33
ATOM     33  N   UNL A   1      38.497  34.390  31.691  1.00  0.00    -0.352 N 
ATOM     34  C   UNL A   1      39.152  34.000  30.553  1.00  0.00     0.251 C 
ATOM     35  H   UNL A   1      38.387  35.366  31.749  1.00  0.00     0.163 HD
ATOM     36  O   UNL A   1      39.357  34.874  29.716  1.00  0.00    -0.269 OA
BRANCH  34  37
ATOM     37  C   UNL A   1      39.672  32.626  30.297  1.00  0.00     0.039 A 
ATOM     38  C   UNL A   1      38.892  31.492  30.091  1.00  0.00     0.014 A 
ATOM     39  C   UNL A   1      41.073  32.478  30.308  1.00  0.00     0.014 A 
ATOM     40  C   UNL A   1      39.478  30.234  30.008  1.00  0.00     0.010 A 
ATOM     41  C   UNL A   1      41.669  31.224  30.187  1.00  0.00     0.010 A 
ATOM     42  C   UNL A   1      40.865  30.095  30.077  1.00  0.00    -0.014 A 
BRANCH  42  43
ATOM     43  C   UNL A   1      41.400  28.744  29.933  1.00  0.00     0.031 A 
ATOM     44  C   UNL A   1      42.156  28.210  31.103  1.00  0.00     0.074 A 
ATOM     45  C   UNL A   1      41.184  27.947  28.869  1.00  0.00     0.049 A 
ATOM     46  N   UNL A   1      43.376  27.780  31.140  1.00  0.00    -0.248 NA
ATOM     47  C   UNL A   1      41.477  28.204  32.406  1.00  0.00     0.031 C 
ATOM     48  C   UNL A   1      40.236  28.139  27.773  1.00  0.00     0.029 A 
ATOM     49  N   UNL A   1      41.712  26.714  28.620  1.00  0.00    -0.354 N 
ATOM     50  C   UNL A   1      43.594  27.331  32.441  1.00  0.00     0.074 A 
ATOM     51  C   UNL A   1      42.420  27.690  33.197  1.00  0.00     0.031 C 
ATOM     52  C   UNL A   1      40.082  26.965  27.119  1.00  0.00     0.029 A 
ATOM     53  C   UNL A   1      41.016  25.992  27.665  1.00  0.00     0.049 A 
ATOM     54  H   UNL A   1      42.513  26.369  29.077  1.00  0.00     0.167 HD
ATOM     55  C   UNL A   1      44.674  26.574  32.786  1.00  0.00     0.031 A 
ATOM     56  C   UNL A   1      41.139  24.668  27.408  1.00  0.00     0.031 A 
ATOM     57  C   UNL A   1      45.720  26.640  31.804  1.00  0.00     0.049 A 
ATOM     58  C   UNL A   1      42.441  24.207  27.941  1.00  0.00     0.074 A 
ATOM     59  C   UNL A   1      46.495  27.658  31.284  1.00  0.00     0.029 A 
ATOM     60  N   UNL A   1      45.895  25.569  30.963  1.00  0.00    -0.354 N 
ATOM     61  N   UNL A   1      43.595  24.521  27.428  1.00  0.00    -0.248 NA
ATOM     62  C   UNL A   1      42.486  23.668  29.291  1.00  0.00     0.031 C 
ATOM     63  C   UNL A   1      46.691  27.309  29.918  1.00  0.00     0.029 A 
ATOM     64  C   UNL A   1      46.060  26.082  29.703  1.00  0.00     0.049 A 
ATOM     65  H   UNL A   1      45.899  24.618  31.216  1.00  0.00     0.167 HD
ATOM     66  C   UNL A   1      44.449  24.629  28.514  1.00  0.00     0.074 A 
ATOM     67  C   UNL A   1      43.745  23.973  29.613  1.00  0.00     0.031 C 
ATOM     68  C   UNL A   1      45.516  25.484  28.502  1.00  0.00     0.031 A 
BRANCH  55  69
ATOM     69  C   UNL A   1      44.680  25.550  33.890  1.00  0.00    -0.014 A 
ATOM     70  C   UNL A   1      44.919  25.870  35.239  1.00  0.00     0.009 A 
ATOM     71  C   UNL A   1      44.183  24.257  33.629  1.00  0.00     0.009 A 
ATOM     72  C   UNL A   1      44.667  24.962  36.273  1.00  0.00     0.001 A 
ATOM     73  C   UNL A   1      43.886  23.362  34.665  1.00  0.00     0.001 A 
ATOM     74  C   UNL A   1      44.127  23.718  35.988  1.00  0.00     0.000 A 
ENDBRANCH  55  69
BRANCH  56  75
ATOM     75  C   UNL A   1      40.081  23.723  26.993  1.00  0.00    -0.014 A 
ATOM     76  C   UNL A   1      40.397  22.384  26.694  1.00  0.00     0.009 A 
ATOM     77  C   UNL A   1      38.808  24.189  26.633  1.00  0.00     0.009 A 
ATOM     78  C   UNL A   1      39.490  21.552  26.034  1.00  0.00     0.001 A 
ATOM     79  C   UNL A   1      37.902  23.358  25.960  1.00  0.00     0.001 A 
ATOM     80  C   UNL A   1      38.248  22.045  25.651  1.00  0.00     0.000 A 
ENDBRANCH  56  75
BRANCH  68  81
ATOM     81  C   UNL A   1      45.946  26.111  27.195  1.00  0.00    -0.014 A 
ATOM     82  C   UNL A   1      45.263  27.254  26.747  1.00  0.00     0.009 A 
ATOM     83  C   UNL A   1      46.861  25.505  26.317  1.00  0.00     0.009 A 
ATOM     84  C   UNL A   1      45.478  27.769  25.465  1.00  0.00     0.001 A 
ATOM     85  C   UNL A   1      47.101  26.038  25.046  1.00  0.00     0.001 A 
ATOM     86  C   UNL A   1      46.401  27.163  24.617  1.00  0.00     0.000 A 
ENDBRANCH  68  81
ENDBRANCH  42  43
ENDBRANCH  34  37
ENDBRANCH  32  33
ENDBRANCH  31  32
ENDBRANCH   1  31
TORSDOF 13
ENDMDL
