MODEL 1
REMARK VINA RESULT:     -11.3      0.000      0.000
REMARK SMILES O=C(NCCCCNC(=O)c1csc(C[NH2+][C@H]2CCSc3ccc(F)cc32)c1)c1ccc(-c2c3nc(c(-c4ccccc4)c4ccc([nH]4)c(-c4ccccc4)c4nc(c(-c5ccccc5)c5ccc2[nH]5)C=C4)C=C3)cc1
REMARK SMILES IDX 6 1 5 2 4 3 3 4 1 5 2 6 29 8 30 9 76 10 31 11 75 12 32 13
REMARK SMILES IDX 33 14 34 15 69 16 35 17 74 18 68 19 70 20 36 21 73 22 67 23
REMARK SMILES IDX 66 24 37 26 59 27 44 28 58 29 45 30 48 31 57 32 71 33 46 34
REMARK SMILES IDX 47 35 56 37 72 38 49 39 38 40 39 41 43 42 40 43 42 44 41 45
REMARK SMILES IDX 60 46 61 47 65 48 62 49 64 50 63 51 50 52 51 53 55 54 52 55
REMARK SMILES IDX 54 56 53 57 7 58 8 59 9 60 10 62 11 63 12 64 28 65 13 66
REMARK SMILES IDX 14 67 15 68 16 69 17 72 18 73 27 74 19 75 21 76 26 77 20 78
REMARK SMILES IDX 22 79 24 80 23 81 25 82
REMARK H PARENT 3 7 70 25 48 36 8 61 16 70 16 71
REMARK Flexibility Score: inf
ROOT
ATOM      1  C   UNL A   1      31.733  29.107  25.730  1.00  0.00     0.023 C 
ENDROOT
BRANCH   1   2
ATOM      2  C   UNL A   1      32.512  28.034  26.496  1.00  0.00     0.023 C 
BRANCH   2   3
ATOM      3  C   UNL A   1      33.716  28.529  27.295  1.00  0.00     0.116 C 
BRANCH   3   4
ATOM      4  N   UNL A   1      33.600  29.919  27.696  1.00  0.00    -0.352 N 
ATOM      5  O   UNL A   1      34.180  31.866  28.656  1.00  0.00    -0.269 OA
ATOM      6  C   UNL A   1      34.520  30.740  28.298  1.00  0.00     0.251 C 
ATOM      7  H   UNL A   1      32.729  30.335  27.508  1.00  0.00     0.163 HD
BRANCH   6   8
ATOM      8  C   UNL A   1      35.908  30.287  28.543  1.00  0.00     0.039 A 
ATOM      9  C   UNL A   1      36.833  30.392  27.498  1.00  0.00     0.014 A 
ATOM     10  C   UNL A   1      36.293  29.708  29.755  1.00  0.00     0.014 A 
ATOM     11  C   UNL A   1      38.147  29.951  27.678  1.00  0.00     0.010 A 
ATOM     12  C   UNL A   1      37.618  29.321  29.954  1.00  0.00     0.010 A 
ATOM     13  C   UNL A   1      38.553  29.424  28.912  1.00  0.00    -0.014 A 
BRANCH  13  14
ATOM     14  C   UNL A   1      39.936  28.923  29.112  1.00  0.00     0.031 A 
ATOM     15  C   UNL A   1      40.972  29.814  29.739  1.00  0.00     0.074 A 
ATOM     16  C   UNL A   1      40.271  27.683  28.709  1.00  0.00     0.049 A 
ATOM     17  N   UNL A   1      42.245  29.587  29.937  1.00  0.00    -0.248 NA
ATOM     18  C   UNL A   1      40.520  31.140  30.190  1.00  0.00     0.031 C 
ATOM     19  C   UNL A   1      39.365  26.720  28.083  1.00  0.00     0.029 A 
ATOM     20  N   UNL A   1      41.472  27.021  28.771  1.00  0.00    -0.354 N 
ATOM     21  C   UNL A   1      42.749  30.746  30.513  1.00  0.00     0.074 A 
ATOM     22  C   UNL A   1      41.655  31.686  30.602  1.00  0.00     0.031 C 
ATOM     23  C   UNL A   1      40.034  25.579  27.848  1.00  0.00     0.029 A 
ATOM     24  C   UNL A   1      41.422  25.743  28.271  1.00  0.00     0.049 A 
ATOM     25  H   UNL A   1      42.291  27.424  29.139  1.00  0.00     0.167 HD
ATOM     26  C   UNL A   1      44.006  30.999  30.944  1.00  0.00     0.031 A 
ATOM     27  C   UNL A   1      42.385  24.807  28.164  1.00  0.00     0.031 A 
ATOM     28  C   UNL A   1      45.093  30.061  30.881  1.00  0.00     0.049 A 
ATOM     29  C   UNL A   1      43.776  25.114  28.642  1.00  0.00     0.074 A 
ATOM     30  C   UNL A   1      46.396  30.222  31.320  1.00  0.00     0.029 A 
ATOM     31  N   UNL A   1      44.999  28.781  30.359  1.00  0.00    -0.354 N 
ATOM     32  N   UNL A   1      44.234  26.213  29.189  1.00  0.00    -0.248 NA
ATOM     33  C   UNL A   1      44.781  24.052  28.489  1.00  0.00     0.031 C 
ATOM     34  C   UNL A   1      47.100  29.049  31.034  1.00  0.00     0.029 A 
ATOM     35  C   UNL A   1      46.224  28.144  30.456  1.00  0.00     0.049 A 
ATOM     36  H   UNL A   1      44.184  28.386  29.975  1.00  0.00     0.167 HD
ATOM     37  C   UNL A   1      45.574  25.970  29.463  1.00  0.00     0.074 A 
ATOM     38  C   UNL A   1      45.854  24.617  29.031  1.00  0.00     0.031 C 
ATOM     39  C   UNL A   1      46.487  26.798  30.023  1.00  0.00     0.031 A 
BRANCH  26  40
ATOM     40  C   UNL A   1      44.277  32.355  31.528  1.00  0.00    -0.014 A 
ATOM     41  C   UNL A   1      44.735  33.394  30.702  1.00  0.00     0.009 A 
ATOM     42  C   UNL A   1      44.125  32.593  32.903  1.00  0.00     0.009 A 
ATOM     43  C   UNL A   1      45.034  34.646  31.243  1.00  0.00     0.001 A 
ATOM     44  C   UNL A   1      44.403  33.852  33.437  1.00  0.00     0.001 A 
ATOM     45  C   UNL A   1      44.862  34.876  32.608  1.00  0.00     0.000 A 
ENDBRANCH  26  40
BRANCH  27  46
ATOM     46  C   UNL A   1      42.051  23.473  27.605  1.00  0.00    -0.014 A 
ATOM     47  C   UNL A   1      42.253  23.195  26.244  1.00  0.00     0.009 A 
ATOM     48  C   UNL A   1      41.497  22.483  28.428  1.00  0.00     0.009 A 
ATOM     49  C   UNL A   1      41.894  21.954  25.716  1.00  0.00     0.001 A 
ATOM     50  C   UNL A   1      41.158  21.234  27.901  1.00  0.00     0.001 A 
ATOM     51  C   UNL A   1      41.351  20.973  26.545  1.00  0.00     0.000 A 
ENDBRANCH  27  46
BRANCH  39  52
ATOM     52  C   UNL A   1      47.878  26.270  30.224  1.00  0.00    -0.014 A 
ATOM     53  C   UNL A   1      48.750  26.171  29.130  1.00  0.00     0.009 A 
ATOM     54  C   UNL A   1      48.288  25.779  31.472  1.00  0.00     0.009 A 
ATOM     55  C   UNL A   1      50.007  25.583  29.278  1.00  0.00     0.001 A 
ATOM     56  C   UNL A   1      49.553  25.209  31.622  1.00  0.00     0.001 A 
ATOM     57  C   UNL A   1      50.407  25.104  30.525  1.00  0.00     0.000 A 
ENDBRANCH  39  52
ENDBRANCH  13  14
ENDBRANCH   6   8
ENDBRANCH   3   4
ENDBRANCH   2   3
ENDBRANCH   1   2
BRANCH   1  58
ATOM     58  C   UNL A   1      32.237  29.406  24.319  1.00  0.00     0.116 C 
BRANCH  58  59
ATOM     59  N   UNL A   1      31.143  29.584  23.376  1.00  0.00    -0.352 N 
ATOM     60  C   UNL A   1      30.524  28.657  22.587  1.00  0.00     0.252 C 
ATOM     61  H   UNL A   1      30.800  30.505  23.296  1.00  0.00     0.163 HD
ATOM     62  O   UNL A   1      29.794  29.053  21.665  1.00  0.00    -0.269 OA
BRANCH  60  63
ATOM     63  C   UNL A   1      30.748  27.242  22.823  1.00  0.00     0.051 A 
ATOM     64  C   UNL A   1      29.916  26.434  23.579  1.00  0.00     0.079 A 
ATOM     65  C   UNL A   1      31.806  26.468  22.245  1.00  0.00     0.035 A 
ATOM     66  S   UNL A   1      30.467  24.820  23.674  1.00  0.00    -0.142 S 
ATOM     67  C   UNL A   1      31.795  25.146  22.646  1.00  0.00     0.059 A 
BRANCH  67  68
ATOM     68  C   UNL A   1      32.752  24.054  22.271  1.00  0.00     0.308 C 
BRANCH  68  69
ATOM     69  N   UNL A   1      33.864  24.024  23.215  1.00  0.00    -0.336 N 
ATOM     70  H   UNL A   1      33.942  24.945  23.645  1.00  0.00     0.347 HD
ATOM     71  H   UNL A   1      34.690  23.759  22.677  1.00  0.00     0.347 HD
BRANCH  69  72
ATOM     72  C   UNL A   1      33.735  23.024  24.294  1.00  0.00     0.215 C 
ATOM     73  C   UNL A   1      32.790  21.879  23.882  1.00  0.00     0.081 C 
ATOM     74  C   UNL A   1      35.128  22.576  24.736  1.00  0.00     0.026 A 
ATOM     75  C   UNL A   1      32.803  20.733  24.874  1.00  0.00     0.081 C 
ATOM     76  C   UNL A   1      35.496  21.231  24.924  1.00  0.00     0.017 A 
ATOM     77  C   UNL A   1      36.095  23.570  25.002  1.00  0.00     0.050 A 
ATOM     78  S   UNL A   1      34.375  19.856  24.741  1.00  0.00    -0.125 SA
ATOM     79  C   UNL A   1      36.815  20.905  25.288  1.00  0.00     0.018 A 
ATOM     80  C   UNL A   1      37.390  23.230  25.379  1.00  0.00     0.123 A 
ATOM     81  C   UNL A   1      37.763  21.903  25.512  1.00  0.00     0.040 A 
ATOM     82  F   UNL A   1      38.288  24.195  25.612  1.00  0.00    -0.207 F 
ENDBRANCH  69  72
ENDBRANCH  68  69
ENDBRANCH  67  68
ENDBRANCH  60  63
ENDBRANCH  58  59
ENDBRANCH   1  58
TORSDOF 14
ENDMDL
MODEL 2
REMARK VINA RESULT:     -11.0      2.770      7.790
REMARK SMILES O=C(NCCCCNC(=O)c1csc(C[NH2+][C@H]2CCSc3ccc(F)cc32)c1)c1ccc(-c2c3nc(c(-c4ccccc4)c4ccc([nH]4)c(-c4ccccc4)c4nc(c(-c5ccccc5)c5ccc2[nH]5)C=C4)C=C3)cc1
REMARK SMILES IDX 6 1 5 2 4 3 3 4 1 5 2 6 29 8 30 9 76 10 31 11 75 12 32 13
REMARK SMILES IDX 33 14 34 15 69 16 35 17 74 18 68 19 70 20 36 21 73 22 67 23
REMARK SMILES IDX 66 24 37 26 59 27 44 28 58 29 45 30 48 31 57 32 71 33 46 34
REMARK SMILES IDX 47 35 56 37 72 38 49 39 38 40 39 41 43 42 40 43 42 44 41 45
REMARK SMILES IDX 60 46 61 47 65 48 62 49 64 50 63 51 50 52 51 53 55 54 52 55
REMARK SMILES IDX 54 56 53 57 7 58 8 59 9 60 10 62 11 63 12 64 28 65 13 66
REMARK SMILES IDX 14 67 15 68 16 69 17 72 18 73 27 74 19 75 21 76 26 77 20 78
REMARK SMILES IDX 22 79 24 80 23 81 25 82
REMARK H PARENT 3 7 70 25 48 36 8 61 16 70 16 71
REMARK Flexibility Score: inf
ROOT
ATOM      1  C   UNL A   1      36.442  19.899  25.020  1.00  0.00     0.023 C 
ENDROOT
BRANCH   1   2
ATOM      2  C   UNL A   1      37.902  19.543  24.721  1.00  0.00     0.023 C 
BRANCH   2   3
ATOM      3  C   UNL A   1      38.922  19.987  25.767  1.00  0.00     0.116 C 
BRANCH   3   4
ATOM      4  N   UNL A   1      40.119  19.166  25.778  1.00  0.00    -0.352 N 
ATOM      5  O   UNL A   1      42.306  18.673  25.922  1.00  0.00    -0.269 OA
ATOM      6  C   UNL A   1      41.414  19.503  26.082  1.00  0.00     0.251 C 
ATOM      7  H   UNL A   1      39.980  18.224  25.530  1.00  0.00     0.163 HD
BRANCH   6   8
ATOM      8  C   UNL A   1      41.758  20.856  26.578  1.00  0.00     0.039 A 
ATOM      9  C   UNL A   1      41.625  21.112  27.947  1.00  0.00     0.014 A 
ATOM     10  C   UNL A   1      42.147  21.883  25.714  1.00  0.00     0.014 A 
ATOM     11  C   UNL A   1      41.913  22.382  28.454  1.00  0.00     0.010 A 
ATOM     12  C   UNL A   1      42.489  23.134  26.226  1.00  0.00     0.010 A 
ATOM     13  C   UNL A   1      42.360  23.399  27.598  1.00  0.00    -0.014 A 
BRANCH  13  14
ATOM     14  C   UNL A   1      42.642  24.763  28.113  1.00  0.00     0.031 A 
ATOM     15  C   UNL A   1      44.049  25.150  28.477  1.00  0.00     0.074 A 
ATOM     16  C   UNL A   1      41.638  25.644  28.280  1.00  0.00     0.049 A 
ATOM     17  N   UNL A   1      44.488  26.264  29.005  1.00  0.00    -0.248 NA
ATOM     18  C   UNL A   1      45.097  24.147  28.230  1.00  0.00     0.031 C 
ATOM     19  C   UNL A   1      40.230  25.395  27.970  1.00  0.00     0.029 A 
ATOM     20  N   UNL A   1      41.655  26.933  28.751  1.00  0.00    -0.354 N 
ATOM     21  C   UNL A   1      45.855  26.088  29.172  1.00  0.00     0.074 A 
ATOM     22  C   UNL A   1      46.169  24.750  28.722  1.00  0.00     0.031 C 
ATOM     23  C   UNL A   1      39.522  26.507  28.230  1.00  0.00     0.029 A 
ATOM     24  C   UNL A   1      40.419  27.532  28.758  1.00  0.00     0.049 A 
ATOM     25  H   UNL A   1      42.474  27.386  29.055  1.00  0.00     0.167 HD
ATOM     26  C   UNL A   1      46.771  26.966  29.641  1.00  0.00     0.031 A 
ATOM     27  C   UNL A   1      40.048  28.767  29.145  1.00  0.00     0.031 A 
ATOM     28  C   UNL A   1      46.470  28.306  30.066  1.00  0.00     0.049 A 
ATOM     29  C   UNL A   1      41.080  29.723  29.672  1.00  0.00     0.074 A 
ATOM     30  C   UNL A   1      47.340  29.277  30.532  1.00  0.00     0.029 A 
ATOM     31  N   UNL A   1      45.204  28.867  30.065  1.00  0.00    -0.354 N 
ATOM     32  N   UNL A   1      42.370  29.543  29.817  1.00  0.00    -0.248 NA
ATOM     33  C   UNL A   1      40.607  31.053  30.084  1.00  0.00     0.031 C 
ATOM     34  C   UNL A   1      46.594  30.417  30.842  1.00  0.00     0.029 A 
ATOM     35  C   UNL A   1      45.267  30.169  30.529  1.00  0.00     0.049 A 
ATOM     36  H   UNL A   1      44.382  28.408  29.777  1.00  0.00     0.167 HD
ATOM     37  C   UNL A   1      42.865  30.738  30.321  1.00  0.00     0.074 A 
ATOM     38  C   UNL A   1      41.740  31.641  30.447  1.00  0.00     0.031 C 
ATOM     39  C   UNL A   1      44.140  31.056  30.648  1.00  0.00     0.031 A 
BRANCH  26  40
ATOM     40  C   UNL A   1      48.197  26.503  29.720  1.00  0.00    -0.014 A 
ATOM     41  C   UNL A   1      49.054  26.687  28.624  1.00  0.00     0.009 A 
ATOM     42  C   UNL A   1      48.679  25.842  30.861  1.00  0.00     0.009 A 
ATOM     43  C   UNL A   1      50.368  26.219  28.669  1.00  0.00     0.001 A 
ATOM     44  C   UNL A   1      50.000  25.396  30.912  1.00  0.00     0.001 A 
ATOM     45  C   UNL A   1      50.842  25.580  29.815  1.00  0.00     0.000 A 
ENDBRANCH  26  40
BRANCH  27  46
ATOM     46  C   UNL A   1      38.627  29.179  29.017  1.00  0.00    -0.014 A 
ATOM     47  C   UNL A   1      38.149  29.747  27.826  1.00  0.00     0.009 A 
ATOM     48  C   UNL A   1      37.751  29.034  30.103  1.00  0.00     0.009 A 
ATOM     49  C   UNL A   1      36.823  30.173  27.729  1.00  0.00     0.001 A 
ATOM     50  C   UNL A   1      36.419  29.443  29.996  1.00  0.00     0.001 A 
ATOM     51  C   UNL A   1      35.959  30.017  28.812  1.00  0.00     0.000 A 
ENDBRANCH  27  46
BRANCH  39  52
ATOM     52  C   UNL A   1      44.406  32.441  31.159  1.00  0.00    -0.014 A 
ATOM     53  C   UNL A   1      44.295  32.711  32.532  1.00  0.00     0.009 A 
ATOM     54  C   UNL A   1      44.667  33.497  30.274  1.00  0.00     0.009 A 
ATOM     55  C   UNL A   1      44.433  34.014  33.010  1.00  0.00     0.001 A 
ATOM     56  C   UNL A   1      44.823  34.797  30.757  1.00  0.00     0.001 A 
ATOM     57  C   UNL A   1      44.699  35.056  32.122  1.00  0.00     0.000 A 
ENDBRANCH  39  52
ENDBRANCH  13  14
ENDBRANCH   6   8
ENDBRANCH   3   4
ENDBRANCH   2   3
ENDBRANCH   1   2
BRANCH   1  58
ATOM     58  C   UNL A   1      36.178  21.363  25.368  1.00  0.00     0.116 C 
BRANCH  58  59
ATOM     59  N   UNL A   1      36.160  22.210  24.185  1.00  0.00    -0.352 N 
ATOM     60  C   UNL A   1      35.114  22.883  23.622  1.00  0.00     0.252 C 
ATOM     61  H   UNL A   1      37.025  22.311  23.725  1.00  0.00     0.163 HD
ATOM     62  O   UNL A   1      35.246  23.334  22.474  1.00  0.00    -0.269 OA
BRANCH  60  63
ATOM     63  C   UNL A   1      33.873  23.037  24.360  1.00  0.00     0.051 A 
ATOM     64  C   UNL A   1      32.815  22.147  24.304  1.00  0.00     0.079 A 
ATOM     65  C   UNL A   1      33.602  24.077  25.307  1.00  0.00     0.035 A 
ATOM     66  S   UNL A   1      31.496  22.623  25.280  1.00  0.00    -0.142 S 
ATOM     67  C   UNL A   1      32.337  23.995  25.858  1.00  0.00     0.059 A 
BRANCH  67  68
ATOM     68  C   UNL A   1      31.699  24.914  26.857  1.00  0.00     0.308 C 
BRANCH  68  69
ATOM     69  N   UNL A   1      30.637  25.683  26.214  1.00  0.00    -0.336 N 
ATOM     70  H   UNL A   1      29.807  25.636  26.805  1.00  0.00     0.347 HD
ATOM     71  H   UNL A   1      30.499  25.266  25.292  1.00  0.00     0.347 HD
BRANCH  69  72
ATOM     72  C   UNL A   1      30.955  27.105  25.981  1.00  0.00     0.215 C 
ATOM     73  C   UNL A   1      31.586  27.747  27.232  1.00  0.00     0.081 C 
ATOM     74  C   UNL A   1      31.788  27.234  24.707  1.00  0.00     0.026 A 
ATOM     75  C   UNL A   1      32.121  29.139  26.961  1.00  0.00     0.081 C 
ATOM     76  C   UNL A   1      32.957  28.011  24.609  1.00  0.00     0.017 A 
ATOM     77  C   UNL A   1      31.343  26.559  23.548  1.00  0.00     0.050 A 
ATOM     78  S   UNL A   1      33.601  29.013  25.935  1.00  0.00    -0.125 SA
ATOM     79  C   UNL A   1      33.688  28.036  23.408  1.00  0.00     0.018 A 
ATOM     80  C   UNL A   1      32.070  26.611  22.364  1.00  0.00     0.123 A 
ATOM     81  C   UNL A   1      33.248  27.334  22.287  1.00  0.00     0.040 A 
ATOM     82  F   UNL A   1      31.629  25.950  21.285  1.00  0.00    -0.207 F 
ENDBRANCH  69  72
ENDBRANCH  68  69
ENDBRANCH  67  68
ENDBRANCH  60  63
ENDBRANCH  58  59
ENDBRANCH   1  58
TORSDOF 14
ENDMDL
MODEL 3
REMARK VINA RESULT:     -10.9      2.939      8.070
REMARK SMILES O=C(NCCCCNC(=O)c1csc(C[NH2+][C@H]2CCSc3ccc(F)cc32)c1)c1ccc(-c2c3nc(c(-c4ccccc4)c4ccc([nH]4)c(-c4ccccc4)c4nc(c(-c5ccccc5)c5ccc2[nH]5)C=C4)C=C3)cc1
REMARK SMILES IDX 6 1 5 2 4 3 3 4 1 5 2 6 29 8 30 9 76 10 31 11 75 12 32 13
REMARK SMILES IDX 33 14 34 15 69 16 35 17 74 18 68 19 70 20 36 21 73 22 67 23
REMARK SMILES IDX 66 24 37 26 59 27 44 28 58 29 45 30 48 31 57 32 71 33 46 34
REMARK SMILES IDX 47 35 56 37 72 38 49 39 38 40 39 41 43 42 40 43 42 44 41 45
REMARK SMILES IDX 60 46 61 47 65 48 62 49 64 50 63 51 50 52 51 53 55 54 52 55
REMARK SMILES IDX 54 56 53 57 7 58 8 59 9 60 10 62 11 63 12 64 28 65 13 66
REMARK SMILES IDX 14 67 15 68 16 69 17 72 18 73 27 74 19 75 21 76 26 77 20 78
REMARK SMILES IDX 22 79 24 80 23 81 25 82
REMARK H PARENT 3 7 70 25 48 36 8 61 16 70 16 71
REMARK Flexibility Score: inf
ROOT
ATOM      1  C   UNL A   1      35.974  21.534  24.450  1.00  0.00     0.023 C 
ENDROOT
BRANCH   1   2
ATOM      2  C   UNL A   1      36.175  23.047  24.321  1.00  0.00     0.023 C 
BRANCH   2   3
ATOM      3  C   UNL A   1      37.215  23.663  25.254  1.00  0.00     0.116 C 
BRANCH   3   4
ATOM      4  N   UNL A   1      38.340  22.783  25.510  1.00  0.00    -0.352 N 
ATOM      5  O   UNL A   1      40.386  22.164  26.203  1.00  0.00    -0.269 OA
ATOM      6  C   UNL A   1      39.505  23.020  26.197  1.00  0.00     0.251 C 
ATOM      7  H   UNL A   1      38.256  21.878  25.133  1.00  0.00     0.163 HD
BRANCH   6   8
ATOM      8  C   UNL A   1      39.725  24.298  26.912  1.00  0.00     0.039 A 
ATOM      9  C   UNL A   1      40.438  25.309  26.257  1.00  0.00     0.014 A 
ATOM     10  C   UNL A   1      39.299  24.491  28.229  1.00  0.00     0.014 A 
ATOM     11  C   UNL A   1      40.692  26.521  26.905  1.00  0.00     0.010 A 
ATOM     12  C   UNL A   1      39.503  25.721  28.855  1.00  0.00     0.010 A 
ATOM     13  C   UNL A   1      40.214  26.741  28.205  1.00  0.00    -0.014 A 
BRANCH  13  14
ATOM     14  C   UNL A   1      40.501  28.009  28.920  1.00  0.00     0.031 A 
ATOM     15  C   UNL A   1      41.841  28.216  29.571  1.00  0.00     0.074 A 
ATOM     16  C   UNL A   1      39.555  28.963  29.012  1.00  0.00     0.049 A 
ATOM     17  N   UNL A   1      42.259  29.221  30.297  1.00  0.00    -0.248 NA
ATOM     18  C   UNL A   1      42.835  27.146  29.394  1.00  0.00     0.031 C 
ATOM     19  C   UNL A   1      38.214  28.887  28.431  1.00  0.00     0.029 A 
ATOM     20  N   UNL A   1      39.584  30.189  29.630  1.00  0.00    -0.354 N 
ATOM     21  C   UNL A   1      43.553  28.894  30.680  1.00  0.00     0.074 A 
ATOM     22  C   UNL A   1      43.840  27.586  30.136  1.00  0.00     0.031 C 
ATOM     23  C   UNL A   1      37.560  30.031  28.693  1.00  0.00     0.029 A 
ATOM     24  C   UNL A   1      38.419  30.902  29.490  1.00  0.00     0.049 A 
ATOM     25  H   UNL A   1      40.365  30.525  30.125  1.00  0.00     0.167 HD
ATOM     26  C   UNL A   1      44.431  29.625  31.406  1.00  0.00     0.031 A 
ATOM     27  C   UNL A   1      38.079  32.121  29.951  1.00  0.00     0.031 A 
ATOM     28  C   UNL A   1      44.162  30.936  31.929  1.00  0.00     0.049 A 
ATOM     29  C   UNL A   1      39.067  32.911  30.762  1.00  0.00     0.074 A 
ATOM     30  C   UNL A   1      45.003  31.764  32.653  1.00  0.00     0.029 A 
ATOM     31  N   UNL A   1      42.966  31.616  31.770  1.00  0.00    -0.354 N 
ATOM     32  N   UNL A   1      40.289  32.590  31.110  1.00  0.00    -0.248 NA
ATOM     33  C   UNL A   1      38.630  34.231  31.241  1.00  0.00     0.031 C 
ATOM     34  C   UNL A   1      44.303  32.934  32.961  1.00  0.00     0.029 A 
ATOM     35  C   UNL A   1      43.042  32.851  32.391  1.00  0.00     0.049 A 
ATOM     36  H   UNL A   1      42.179  31.273  31.290  1.00  0.00     0.167 HD
ATOM     37  C   UNL A   1      40.774  33.672  31.832  1.00  0.00     0.074 A 
ATOM     38  C   UNL A   1      39.718  34.664  31.865  1.00  0.00     0.031 C 
ATOM     39  C   UNL A   1      41.986  33.827  32.416  1.00  0.00     0.031 A 
BRANCH  26  40
ATOM     40  C   UNL A   1      45.777  29.018  31.679  1.00  0.00    -0.014 A 
ATOM     41  C   UNL A   1      45.980  28.260  32.842  1.00  0.00     0.009 A 
ATOM     42  C   UNL A   1      46.858  29.237  30.810  1.00  0.00     0.009 A 
ATOM     43  C   UNL A   1      47.239  27.730  33.129  1.00  0.00     0.001 A 
ATOM     44  C   UNL A   1      48.109  28.687  31.087  1.00  0.00     0.001 A 
ATOM     45  C   UNL A   1      48.301  27.938  32.249  1.00  0.00     0.000 A 
ENDBRANCH  26  40
BRANCH  27  46
ATOM     46  C   UNL A   1      36.744  32.682  29.624  1.00  0.00    -0.014 A 
ATOM     47  C   UNL A   1      36.521  33.342  28.406  1.00  0.00     0.009 A 
ATOM     48  C   UNL A   1      35.695  32.585  30.550  1.00  0.00     0.009 A 
ATOM     49  C   UNL A   1      35.275  33.906  28.126  1.00  0.00     0.001 A 
ATOM     50  C   UNL A   1      34.443  33.133  30.258  1.00  0.00     0.001 A 
ATOM     51  C   UNL A   1      34.236  33.797  29.050  1.00  0.00     0.000 A 
ENDBRANCH  27  46
BRANCH  39  52
ATOM     52  C   UNL A   1      42.259  35.120  33.127  1.00  0.00    -0.014 A 
ATOM     53  C   UNL A   1      43.073  36.089  32.522  1.00  0.00     0.009 A 
ATOM     54  C   UNL A   1      41.794  35.335  34.432  1.00  0.00     0.009 A 
ATOM     55  C   UNL A   1      43.425  37.248  33.213  1.00  0.00     0.001 A 
ATOM     56  C   UNL A   1      42.132  36.505  35.115  1.00  0.00     0.001 A 
ATOM     57  C   UNL A   1      42.952  37.456  34.509  1.00  0.00     0.000 A 
ENDBRANCH  39  52
ENDBRANCH  13  14
ENDBRANCH   6   8
ENDBRANCH   3   4
ENDBRANCH   2   3
ENDBRANCH   1   2
BRANCH   1  58
ATOM     58  C   UNL A   1      35.137  21.081  25.646  1.00  0.00     0.116 C 
BRANCH  58  59
ATOM     59  N   UNL A   1      34.097  20.141  25.258  1.00  0.00    -0.352 N 
ATOM     60  C   UNL A   1      32.755  20.350  25.111  1.00  0.00     0.252 C 
ATOM     61  H   UNL A   1      34.404  19.223  25.075  1.00  0.00     0.163 HD
ATOM     62  O   UNL A   1      32.005  19.366  25.030  1.00  0.00    -0.269 OA
BRANCH  60  63
ATOM     63  C   UNL A   1      32.235  21.705  25.078  1.00  0.00     0.051 A 
ATOM     64  C   UNL A   1      31.625  22.335  26.149  1.00  0.00     0.079 A 
ATOM     65  C   UNL A   1      32.355  22.606  23.970  1.00  0.00     0.035 A 
ATOM     66  S   UNL A   1      31.112  23.923  25.780  1.00  0.00    -0.142 S 
ATOM     67  C   UNL A   1      31.761  23.832  24.199  1.00  0.00     0.059 A 
BRANCH  67  68
ATOM     68  C   UNL A   1      31.664  25.005  23.269  1.00  0.00     0.308 C 
BRANCH  68  69
ATOM     69  N   UNL A   1      32.713  25.972  23.582  1.00  0.00    -0.336 N 
ATOM     70  H   UNL A   1      33.567  25.680  23.108  1.00  0.00     0.347 HD
ATOM     71  H   UNL A   1      32.799  25.981  24.599  1.00  0.00     0.347 HD
BRANCH  69  72
ATOM     72  C   UNL A   1      32.415  27.361  23.179  1.00  0.00     0.215 C 
ATOM     73  C   UNL A   1      31.055  27.454  22.461  1.00  0.00     0.081 C 
ATOM     74  C   UNL A   1      32.563  28.280  24.391  1.00  0.00     0.026 A 
ATOM     75  C   UNL A   1      30.621  28.887  22.227  1.00  0.00     0.081 C 
ATOM     76  C   UNL A   1      31.621  29.262  24.749  1.00  0.00     0.017 A 
ATOM     77  C   UNL A   1      33.728  28.160  25.182  1.00  0.00     0.050 A 
ATOM     78  S   UNL A   1      30.153  29.627  23.806  1.00  0.00    -0.125 SA
ATOM     79  C   UNL A   1      31.815  30.035  25.909  1.00  0.00     0.018 A 
ATOM     80  C   UNL A   1      33.910  28.945  26.314  1.00  0.00     0.123 A 
ATOM     81  C   UNL A   1      32.957  29.874  26.694  1.00  0.00     0.040 A 
ATOM     82  F   UNL A   1      35.019  28.799  27.052  1.00  0.00    -0.207 F 
ENDBRANCH  69  72
ENDBRANCH  68  69
ENDBRANCH  67  68
ENDBRANCH  60  63
ENDBRANCH  58  59
ENDBRANCH   1  58
TORSDOF 14
ENDMDL
