MODEL 1
REMARK VINA RESULT:     -11.5      0.000      0.000
REMARK SMILES COC(=O)c1cc(F)cc(-c2ccccc2C(=O)NCCCCNC(=O)c2ccc(-c3c4nc(c(-c5ccccc5)c5ccc([nH]5)c(-c5ccccc5)c5nc(c(-c6ccccc6)c6ccc3[nH]6)C=C5)C=C4)cc2)c1
REMARK SMILES IDX 21 1 20 2 19 3 17 4 18 5 16 7 11 8 12 9 13 10 15 11 14 12
REMARK SMILES IDX 10 13 5 14 6 15 75 16 7 17 8 18 9 19 3 20 4 21 2 22 1 23
REMARK SMILES IDX 22 24 23 25 24 26 25 27 26 29 27 30 28 31 74 32 29 33 73 34
REMARK SMILES IDX 30 35 31 36 32 37 67 38 33 39 72 40 66 41 68 42 34 43 71 44
REMARK SMILES IDX 65 45 64 46 35 48 57 49 42 50 56 51 43 52 46 53 55 54 69 55
REMARK SMILES IDX 44 56 45 57 54 59 70 60 47 61 36 62 37 63 41 64 38 65 40 66
REMARK SMILES IDX 39 67 58 68 59 69 63 70 60 71 62 72 61 73 48 74 49 75 53 76
REMARK SMILES IDX 50 77 52 78 51 79
REMARK H PARENT 19 6 24 28 68 47 46 58
REMARK Flexibility Score: inf
ROOT
ATOM      1  C   UNL A   1      36.623  22.308  24.093  1.00  0.00     0.023 C 
ENDROOT
BRANCH   1   2
ATOM      2  C   UNL A   1      35.577  23.283  24.610  1.00  0.00     0.116 C 
BRANCH   2   3
ATOM      3  N   UNL A   1      34.836  22.898  25.783  1.00  0.00    -0.352 N 
ATOM      4  C   UNL A   1      33.924  21.881  25.969  1.00  0.00     0.251 C 
ATOM      5  O   UNL A   1      33.534  21.706  27.127  1.00  0.00    -0.269 OA
ATOM      6  H   UNL A   1      35.009  23.450  26.579  1.00  0.00     0.163 HD
BRANCH   4   7
ATOM      7  C   UNL A   1      33.299  21.041  24.886  1.00  0.00     0.047 A 
ATOM      8  C   UNL A   1      32.505  21.452  23.786  1.00  0.00    -0.005 A 
ATOM      9  C   UNL A   1      32.085  20.466  22.855  1.00  0.00     0.009 A 
ATOM     10  C   UNL A   1      32.444  19.125  22.979  1.00  0.00     0.001 A 
ATOM     11  C   UNL A   1      33.658  19.674  24.977  1.00  0.00     0.014 A 
ATOM     12  C   UNL A   1      33.237  18.728  24.040  1.00  0.00     0.001 A 
BRANCH   8  13
ATOM     13  C   UNL A   1      32.075  22.829  23.502  1.00  0.00    -0.014 A 
ATOM     14  C   UNL A   1      32.326  24.941  22.323  1.00  0.00     0.063 A 
ATOM     15  C   UNL A   1      31.389  25.548  23.165  1.00  0.00     0.055 A 
ATOM     16  C   UNL A   1      32.651  23.583  22.473  1.00  0.00     0.024 A 
ATOM     17  C   UNL A   1      30.769  24.781  24.140  1.00  0.00     0.124 A 
ATOM     18  F   UNL A   1      29.897  25.351  24.980  1.00  0.00    -0.207 F 
ATOM     19  C   UNL A   1      31.089  23.437  24.305  1.00  0.00     0.048 A 
BRANCH  14  20
ATOM     20  C   UNL A   1      33.068  25.711  21.304  1.00  0.00     0.337 C 
ATOM     21  O   UNL A   1      32.894  25.585  20.103  1.00  0.00    -0.246 OA
BRANCH  20  22
ATOM     22  O   UNL A   1      34.026  26.452  21.910  1.00  0.00    -0.465 OA
ATOM     23  C   UNL A   1      33.641  27.804  22.148  1.00  0.00     0.282 C 
ENDBRANCH  20  22
ENDBRANCH  14  20
ENDBRANCH   8  13
ENDBRANCH   4   7
ENDBRANCH   2   3
ENDBRANCH   1   2
BRANCH   1  24
ATOM     24  C   UNL A   1      37.127  21.217  25.036  1.00  0.00     0.023 C 
BRANCH  24  25
ATOM     25  C   UNL A   1      38.528  21.350  25.634  1.00  0.00     0.116 C 
BRANCH  25  26
ATOM     26  N   UNL A   1      39.385  20.180  25.527  1.00  0.00    -0.352 N 
ATOM     27  C   UNL A   1      40.674  19.996  25.990  1.00  0.00     0.251 C 
ATOM     28  H   UNL A   1      38.991  19.409  25.058  1.00  0.00     0.163 HD
ATOM     29  O   UNL A   1      41.220  18.904  25.858  1.00  0.00    -0.269 OA
BRANCH  27  30
ATOM     30  C   UNL A   1      41.435  21.129  26.574  1.00  0.00     0.039 A 
ATOM     31  C   UNL A   1      42.166  21.956  25.712  1.00  0.00     0.014 A 
ATOM     32  C   UNL A   1      41.387  21.423  27.938  1.00  0.00     0.014 A 
ATOM     33  C   UNL A   1      42.721  23.147  26.189  1.00  0.00     0.010 A 
ATOM     34  C   UNL A   1      41.889  22.636  28.404  1.00  0.00     0.010 A 
ATOM     35  C   UNL A   1      42.520  23.528  27.525  1.00  0.00    -0.014 A 
BRANCH  35  36
ATOM     36  C   UNL A   1      42.837  24.896  28.001  1.00  0.00     0.031 A 
ATOM     37  C   UNL A   1      44.212  25.244  28.490  1.00  0.00     0.074 A 
ATOM     38  C   UNL A   1      41.827  25.780  28.130  1.00  0.00     0.049 A 
ATOM     39  N   UNL A   1      44.634  26.354  29.040  1.00  0.00    -0.248 NA
ATOM     40  C   UNL A   1      45.239  24.198  28.370  1.00  0.00     0.031 C 
ATOM     41  C   UNL A   1      40.430  25.531  27.762  1.00  0.00     0.029 A 
ATOM     42  N   UNL A   1      41.811  27.056  28.638  1.00  0.00    -0.354 N 
ATOM     43  C   UNL A   1      45.971  26.138  29.346  1.00  0.00     0.074 A 
ATOM     44  C   UNL A   1      46.278  24.777  28.954  1.00  0.00     0.031 C 
ATOM     45  C   UNL A   1      39.696  26.616  28.056  1.00  0.00     0.029 A 
ATOM     46  C   UNL A   1      40.561  27.625  28.656  1.00  0.00     0.049 A 
ATOM     47  H   UNL A   1      42.620  27.519  28.959  1.00  0.00     0.167 HD
ATOM     48  C   UNL A   1      46.862  26.999  29.893  1.00  0.00     0.031 A 
ATOM     49  C   UNL A   1      40.151  28.821  29.115  1.00  0.00     0.031 A 
ATOM     50  C   UNL A   1      46.548  28.348  30.285  1.00  0.00     0.049 A 
ATOM     51  C   UNL A   1      41.160  29.765  29.698  1.00  0.00     0.074 A 
ATOM     52  C   UNL A   1      47.397  29.324  30.778  1.00  0.00     0.029 A 
ATOM     53  N   UNL A   1      45.281  28.908  30.235  1.00  0.00    -0.354 N 
ATOM     54  N   UNL A   1      42.445  29.581  29.890  1.00  0.00    -0.248 NA
ATOM     55  C   UNL A   1      40.670  31.087  30.111  1.00  0.00     0.031 C 
ATOM     56  C   UNL A   1      46.634  30.462  31.065  1.00  0.00     0.029 A 
ATOM     57  C   UNL A   1      45.320  30.209  30.708  1.00  0.00     0.049 A 
ATOM     58  H   UNL A   1      44.472  28.449  29.912  1.00  0.00     0.167 HD
ATOM     59  C   UNL A   1      42.922  30.771  30.419  1.00  0.00     0.074 A 
ATOM     60  C   UNL A   1      41.791  31.674  30.508  1.00  0.00     0.031 C 
ATOM     61  C   UNL A   1      44.184  31.090  30.792  1.00  0.00     0.031 A 
BRANCH  48  62
ATOM     62  C   UNL A   1      48.264  26.500  30.103  1.00  0.00    -0.014 A 
ATOM     63  C   UNL A   1      49.257  26.697  29.129  1.00  0.00     0.009 A 
ATOM     64  C   UNL A   1      48.608  25.855  31.301  1.00  0.00     0.009 A 
ATOM     65  C   UNL A   1      50.555  26.225  29.335  1.00  0.00     0.001 A 
ATOM     66  C   UNL A   1      49.913  25.406  31.514  1.00  0.00     0.001 A 
ATOM     67  C   UNL A   1      50.883  25.582  30.528  1.00  0.00     0.000 A 
ENDBRANCH  48  62
BRANCH  49  68
ATOM     68  C   UNL A   1      38.721  29.204  29.003  1.00  0.00    -0.014 A 
ATOM     69  C   UNL A   1      38.215  29.706  27.794  1.00  0.00     0.009 A 
ATOM     70  C   UNL A   1      37.849  29.048  30.092  1.00  0.00     0.009 A 
ATOM     71  C   UNL A   1      36.869  30.063  27.684  1.00  0.00     0.001 A 
ATOM     72  C   UNL A   1      36.499  29.385  29.972  1.00  0.00     0.001 A 
ATOM     73  C   UNL A   1      36.012  29.897  28.770  1.00  0.00     0.000 A 
ENDBRANCH  49  68
BRANCH  61  74
ATOM     74  C   UNL A   1      44.411  32.484  31.302  1.00  0.00    -0.014 A 
ATOM     75  C   UNL A   1      44.722  33.535  30.427  1.00  0.00     0.009 A 
ATOM     76  C   UNL A   1      44.279  32.750  32.673  1.00  0.00     0.009 A 
ATOM     77  C   UNL A   1      44.927  34.824  30.923  1.00  0.00     0.001 A 
ATOM     78  C   UNL A   1      44.460  34.045  33.162  1.00  0.00     0.001 A 
ATOM     79  C   UNL A   1      44.792  35.078  32.287  1.00  0.00     0.000 A 
ENDBRANCH  61  74
ENDBRANCH  35  36
ENDBRANCH  27  30
ENDBRANCH  25  26
ENDBRANCH  24  25
ENDBRANCH   1  24
TORSDOF 14
ENDMDL
MODEL 2
REMARK VINA RESULT:     -11.5      1.375      3.320
REMARK SMILES COC(=O)c1cc(F)cc(-c2ccccc2C(=O)NCCCCNC(=O)c2ccc(-c3c4nc(c(-c5ccccc5)c5ccc([nH]5)c(-c5ccccc5)c5nc(c(-c6ccccc6)c6ccc3[nH]6)C=C5)C=C4)cc2)c1
REMARK SMILES IDX 21 1 20 2 19 3 17 4 18 5 16 7 11 8 12 9 13 10 15 11 14 12
REMARK SMILES IDX 10 13 5 14 6 15 75 16 7 17 8 18 9 19 3 20 4 21 2 22 1 23
REMARK SMILES IDX 22 24 23 25 24 26 25 27 26 29 27 30 28 31 74 32 29 33 73 34
REMARK SMILES IDX 30 35 31 36 32 37 67 38 33 39 72 40 66 41 68 42 34 43 71 44
REMARK SMILES IDX 65 45 64 46 35 48 57 49 42 50 56 51 43 52 46 53 55 54 69 55
REMARK SMILES IDX 44 56 45 57 54 59 70 60 47 61 36 62 37 63 41 64 38 65 40 66
REMARK SMILES IDX 39 67 58 68 59 69 63 70 60 71 62 72 61 73 48 74 49 75 53 76
REMARK SMILES IDX 50 77 52 78 51 79
REMARK H PARENT 19 6 24 28 68 47 46 58
REMARK Flexibility Score: inf
ROOT
ATOM      1  C   UNL A   1      36.244  21.882  25.646  1.00  0.00     0.023 C 
ENDROOT
BRANCH   1   2
ATOM      2  C   UNL A   1      36.175  23.373  25.355  1.00  0.00     0.116 C 
BRANCH   2   3
ATOM      3  N   UNL A   1      35.644  23.775  24.078  1.00  0.00    -0.352 N 
ATOM      4  C   UNL A   1      34.404  24.275  23.745  1.00  0.00     0.251 C 
ATOM      5  O   UNL A   1      34.266  24.655  22.578  1.00  0.00    -0.269 OA
ATOM      6  H   UNL A   1      36.268  23.677  23.323  1.00  0.00     0.163 HD
BRANCH   4   7
ATOM      7  C   UNL A   1      33.192  24.309  24.638  1.00  0.00     0.047 A 
ATOM      8  C   UNL A   1      32.223  23.299  24.866  1.00  0.00    -0.005 A 
ATOM      9  C   UNL A   1      31.200  23.552  25.817  1.00  0.00     0.009 A 
ATOM     10  C   UNL A   1      31.133  24.741  26.540  1.00  0.00     0.001 A 
ATOM     11  C   UNL A   1      33.105  25.502  25.398  1.00  0.00     0.014 A 
ATOM     12  C   UNL A   1      32.091  25.717  26.334  1.00  0.00     0.001 A 
BRANCH   8  13
ATOM     13  C   UNL A   1      32.180  21.985  24.208  1.00  0.00    -0.014 A 
ATOM     14  C   UNL A   1      32.518  19.576  24.233  1.00  0.00     0.063 A 
ATOM     15  C   UNL A   1      32.334  19.515  22.847  1.00  0.00     0.055 A 
ATOM     16  C   UNL A   1      32.418  20.800  24.915  1.00  0.00     0.024 A 
ATOM     17  C   UNL A   1      32.031  20.680  22.160  1.00  0.00     0.124 A 
ATOM     18  F   UNL A   1      31.888  20.649  20.830  1.00  0.00    -0.207 F 
ATOM     19  C   UNL A   1      31.939  21.900  22.823  1.00  0.00     0.048 A 
BRANCH  14  20
ATOM     20  C   UNL A   1      32.902  18.386  25.019  1.00  0.00     0.337 C 
ATOM     21  O   UNL A   1      32.466  18.143  26.132  1.00  0.00    -0.246 OA
BRANCH  20  22
ATOM     22  O   UNL A   1      33.882  17.715  24.369  1.00  0.00    -0.465 OA
ATOM     23  C   UNL A   1      34.268  16.501  25.009  1.00  0.00     0.282 C 
ENDBRANCH  20  22
ENDBRANCH  14  20
ENDBRANCH   8  13
ENDBRANCH   4   7
ENDBRANCH   2   3
ENDBRANCH   1   2
BRANCH   1  24
ATOM     24  C   UNL A   1      37.425  21.088  25.092  1.00  0.00     0.023 C 
BRANCH  24  25
ATOM     25  C   UNL A   1      38.783  21.210  25.785  1.00  0.00     0.116 C 
BRANCH  25  26
ATOM     26  N   UNL A   1      39.676  20.070  25.651  1.00  0.00    -0.352 N 
ATOM     27  C   UNL A   1      40.991  19.938  26.054  1.00  0.00     0.251 C 
ATOM     28  H   UNL A   1      39.288  19.279  25.210  1.00  0.00     0.163 HD
ATOM     29  O   UNL A   1      41.569  18.865  25.908  1.00  0.00    -0.269 OA
BRANCH  27  30
ATOM     30  C   UNL A   1      41.738  21.105  26.586  1.00  0.00     0.039 A 
ATOM     31  C   UNL A   1      42.356  21.973  25.678  1.00  0.00     0.014 A 
ATOM     32  C   UNL A   1      41.781  21.390  27.952  1.00  0.00     0.014 A 
ATOM     33  C   UNL A   1      42.886  23.189  26.121  1.00  0.00     0.010 A 
ATOM     34  C   UNL A   1      42.257  22.625  28.390  1.00  0.00     0.010 A 
ATOM     35  C   UNL A   1      42.772  23.552  27.472  1.00  0.00    -0.014 A 
BRANCH  35  36
ATOM     36  C   UNL A   1      43.055  24.932  27.934  1.00  0.00     0.031 A 
ATOM     37  C   UNL A   1      44.427  25.324  28.396  1.00  0.00     0.074 A 
ATOM     38  C   UNL A   1      42.022  25.786  28.077  1.00  0.00     0.049 A 
ATOM     39  N   UNL A   1      44.826  26.450  28.932  1.00  0.00    -0.248 NA
ATOM     40  C   UNL A   1      45.483  24.309  28.263  1.00  0.00     0.031 C 
ATOM     41  C   UNL A   1      40.626  25.493  27.736  1.00  0.00     0.029 A 
ATOM     42  N   UNL A   1      41.977  27.064  28.578  1.00  0.00    -0.354 N 
ATOM     43  C   UNL A   1      46.174  26.276  29.214  1.00  0.00     0.074 A 
ATOM     44  C   UNL A   1      46.515  24.923  28.825  1.00  0.00     0.031 C 
ATOM     45  C   UNL A   1      39.865  26.556  28.037  1.00  0.00     0.029 A 
ATOM     46  C   UNL A   1      40.710  27.594  28.616  1.00  0.00     0.049 A 
ATOM     47  H   UNL A   1      42.776  27.552  28.881  1.00  0.00     0.167 HD
ATOM     48  C   UNL A   1      47.049  27.167  29.740  1.00  0.00     0.031 A 
ATOM     49  C   UNL A   1      40.272  28.781  29.074  1.00  0.00     0.031 A 
ATOM     50  C   UNL A   1      46.701  28.508  30.130  1.00  0.00     0.049 A 
ATOM     51  C   UNL A   1      41.263  29.758  29.634  1.00  0.00     0.074 A 
ATOM     52  C   UNL A   1      47.529  29.513  30.602  1.00  0.00     0.029 A 
ATOM     53  N   UNL A   1      45.417  29.029  30.100  1.00  0.00    -0.354 N 
ATOM     54  N   UNL A   1      42.556  29.614  29.803  1.00  0.00    -0.248 NA
ATOM     55  C   UNL A   1      40.741  31.067  30.048  1.00  0.00     0.031 C 
ATOM     56  C   UNL A   1      46.737  30.629  30.897  1.00  0.00     0.029 A 
ATOM     57  C   UNL A   1      45.425  30.334  30.564  1.00  0.00     0.049 A 
ATOM     58  H   UNL A   1      44.616  28.544  29.794  1.00  0.00     0.167 HD
ATOM     59  C   UNL A   1      43.006  30.822  30.316  1.00  0.00     0.074 A 
ATOM     60  C   UNL A   1      41.850  31.690  30.422  1.00  0.00     0.031 C 
ATOM     61  C   UNL A   1      44.265  31.180  30.665  1.00  0.00     0.031 A 
BRANCH  48  62
ATOM     62  C   UNL A   1      48.469  26.712  29.927  1.00  0.00    -0.014 A 
ATOM     63  C   UNL A   1      48.876  26.073  31.110  1.00  0.00     0.009 A 
ATOM     64  C   UNL A   1      49.404  26.891  28.897  1.00  0.00     0.009 A 
ATOM     65  C   UNL A   1      50.199  25.659  31.271  1.00  0.00     0.001 A 
ATOM     66  C   UNL A   1      50.721  26.453  29.051  1.00  0.00     0.001 A 
ATOM     67  C   UNL A   1      51.121  25.846  30.242  1.00  0.00     0.000 A 
ENDBRANCH  48  62
BRANCH  49  68
ATOM     68  C   UNL A   1      38.829  29.119  28.987  1.00  0.00    -0.014 A 
ATOM     69  C   UNL A   1      38.000  28.972  30.109  1.00  0.00     0.009 A 
ATOM     70  C   UNL A   1      38.278  29.613  27.794  1.00  0.00     0.009 A 
ATOM     71  C   UNL A   1      36.642  29.293  30.033  1.00  0.00     0.001 A 
ATOM     72  C   UNL A   1      36.926  29.955  27.728  1.00  0.00     0.001 A 
ATOM     73  C   UNL A   1      36.108  29.789  28.844  1.00  0.00     0.000 A 
ENDBRANCH  49  68
BRANCH  61  74
ATOM     74  C   UNL A   1      44.459  32.584  31.162  1.00  0.00    -0.014 A 
ATOM     75  C   UNL A   1      44.420  32.880  32.533  1.00  0.00     0.009 A 
ATOM     76  C   UNL A   1      44.716  33.614  30.246  1.00  0.00     0.009 A 
ATOM     77  C   UNL A   1      44.606  34.192  32.974  1.00  0.00     0.001 A 
ATOM     78  C   UNL A   1      44.926  34.920  30.692  1.00  0.00     0.001 A 
ATOM     79  C   UNL A   1      44.862  35.208  32.055  1.00  0.00     0.000 A 
ENDBRANCH  61  74
ENDBRANCH  35  36
ENDBRANCH  27  30
ENDBRANCH  25  26
ENDBRANCH  24  25
ENDBRANCH   1  24
TORSDOF 14
ENDMDL
MODEL 3
REMARK VINA RESULT:     -11.4      3.440      8.602
REMARK SMILES COC(=O)c1cc(F)cc(-c2ccccc2C(=O)NCCCCNC(=O)c2ccc(-c3c4nc(c(-c5ccccc5)c5ccc([nH]5)c(-c5ccccc5)c5nc(c(-c6ccccc6)c6ccc3[nH]6)C=C5)C=C4)cc2)c1
REMARK SMILES IDX 21 1 20 2 19 3 17 4 18 5 16 7 11 8 12 9 13 10 15 11 14 12
REMARK SMILES IDX 10 13 5 14 6 15 75 16 7 17 8 18 9 19 3 20 4 21 2 22 1 23
REMARK SMILES IDX 22 24 23 25 24 26 25 27 26 29 27 30 28 31 74 32 29 33 73 34
REMARK SMILES IDX 30 35 31 36 32 37 67 38 33 39 72 40 66 41 68 42 34 43 71 44
REMARK SMILES IDX 65 45 64 46 35 48 57 49 42 50 56 51 43 52 46 53 55 54 69 55
REMARK SMILES IDX 44 56 45 57 54 59 70 60 47 61 36 62 37 63 41 64 38 65 40 66
REMARK SMILES IDX 39 67 58 68 59 69 63 70 60 71 62 72 61 73 48 74 49 75 53 76
REMARK SMILES IDX 50 77 52 78 51 79
REMARK H PARENT 19 6 24 28 68 47 46 58
REMARK Flexibility Score: inf
ROOT
ATOM      1  C   UNL A   1      32.761  28.525  27.303  1.00  0.00     0.023 C 
ENDROOT
BRANCH   1   2
ATOM      2  C   UNL A   1      32.674  27.491  26.192  1.00  0.00     0.116 C 
BRANCH   2   3
ATOM      3  N   UNL A   1      33.177  27.866  24.897  1.00  0.00    -0.352 N 
ATOM      4  C   UNL A   1      32.507  28.264  23.760  1.00  0.00     0.251 C 
ATOM      5  O   UNL A   1      33.210  28.650  22.821  1.00  0.00    -0.269 OA
ATOM      6  H   UNL A   1      34.157  27.834  24.810  1.00  0.00     0.163 HD
BRANCH   4   7
ATOM      7  C   UNL A   1      31.020  28.181  23.531  1.00  0.00     0.047 A 
ATOM      8  C   UNL A   1      30.165  27.054  23.626  1.00  0.00    -0.005 A 
ATOM      9  C   UNL A   1      28.773  27.249  23.427  1.00  0.00     0.009 A 
ATOM     10  C   UNL A   1      28.226  28.503  23.165  1.00  0.00     0.001 A 
ATOM     11  C   UNL A   1      30.433  29.446  23.277  1.00  0.00     0.014 A 
ATOM     12  C   UNL A   1      29.058  29.607  23.095  1.00  0.00     0.001 A 
BRANCH   8  13
ATOM     13  C   UNL A   1      30.586  25.678  23.928  1.00  0.00    -0.014 A 
ATOM     14  C   UNL A   1      30.973  23.863  25.499  1.00  0.00     0.063 A 
ATOM     15  C   UNL A   1      31.641  23.125  24.516  1.00  0.00     0.055 A 
ATOM     16  C   UNL A   1      30.427  25.123  25.202  1.00  0.00     0.024 A 
ATOM     17  C   UNL A   1      31.736  23.649  23.236  1.00  0.00     0.124 A 
ATOM     18  F   UNL A   1      32.403  22.975  22.290  1.00  0.00    -0.207 F 
ATOM     19  C   UNL A   1      31.208  24.899  22.931  1.00  0.00     0.048 A 
BRANCH  14  20
ATOM     20  C   UNL A   1      30.887  23.394  26.897  1.00  0.00     0.337 C 
ATOM     21  O   UNL A   1      31.799  22.828  27.477  1.00  0.00    -0.246 OA
BRANCH  20  22
ATOM     22  O   UNL A   1      29.626  23.577  27.355  1.00  0.00    -0.465 OA
ATOM     23  C   UNL A   1      28.881  22.368  27.486  1.00  0.00     0.282 C 
ENDBRANCH  20  22
ENDBRANCH  14  20
ENDBRANCH   8  13
ENDBRANCH   4   7
ENDBRANCH   2   3
ENDBRANCH   1   2
BRANCH   1  24
ATOM     24  C   UNL A   1      32.200  29.921  27.040  1.00  0.00     0.023 C 
BRANCH  24  25
ATOM     25  C   UNL A   1      33.148  31.119  27.103  1.00  0.00     0.116 C 
BRANCH  25  26
ATOM     26  N   UNL A   1      32.540  32.403  27.417  1.00  0.00    -0.352 N 
ATOM     27  C   UNL A   1      33.082  33.487  28.079  1.00  0.00     0.251 C 
ATOM     28  H   UNL A   1      31.610  32.515  27.114  1.00  0.00     0.163 HD
ATOM     29  O   UNL A   1      32.428  34.520  28.197  1.00  0.00    -0.269 OA
BRANCH  27  30
ATOM     30  C   UNL A   1      34.417  33.389  28.722  1.00  0.00     0.039 A 
ATOM     31  C   UNL A   1      34.512  32.766  29.972  1.00  0.00     0.014 A 
ATOM     32  C   UNL A   1      35.575  33.840  28.085  1.00  0.00     0.014 A 
ATOM     33  C   UNL A   1      35.766  32.467  30.512  1.00  0.00     0.010 A 
ATOM     34  C   UNL A   1      36.826  33.494  28.592  1.00  0.00     0.010 A 
ATOM     35  C   UNL A   1      36.930  32.766  29.786  1.00  0.00    -0.014 A 
BRANCH  35  36
ATOM     36  C   UNL A   1      38.252  32.220  30.176  1.00  0.00     0.031 A 
ATOM     37  C   UNL A   1      38.729  30.901  29.645  1.00  0.00     0.074 A 
ATOM     38  C   UNL A   1      38.953  32.858  31.135  1.00  0.00     0.049 A 
ATOM     39  N   UNL A   1      39.805  30.225  29.962  1.00  0.00    -0.248 NA
ATOM     40  C   UNL A   1      37.872  30.241  28.648  1.00  0.00     0.031 C 
ATOM     41  C   UNL A   1      38.554  34.110  31.784  1.00  0.00     0.029 A 
ATOM     42  N   UNL A   1      40.132  32.527  31.755  1.00  0.00    -0.354 N 
ATOM     43  C   UNL A   1      39.748  29.055  29.217  1.00  0.00     0.074 A 
ATOM     44  C   UNL A   1      38.513  29.096  28.461  1.00  0.00     0.031 C 
ATOM     45  C   UNL A   1      39.469  34.439  32.710  1.00  0.00     0.029 A 
ATOM     46  C   UNL A   1      40.503  33.411  32.739  1.00  0.00     0.049 A 
ATOM     47  H   UNL A   1      40.661  31.730  31.519  1.00  0.00     0.167 HD
ATOM     48  C   UNL A   1      40.649  28.044  29.161  1.00  0.00     0.031 A 
ATOM     49  C   UNL A   1      41.553  33.395  33.579  1.00  0.00     0.031 A 
ATOM     50  C   UNL A   1      41.871  28.007  29.920  1.00  0.00     0.049 A 
ATOM     51  C   UNL A   1      42.547  32.276  33.485  1.00  0.00     0.074 A 
ATOM     52  C   UNL A   1      42.886  27.066  29.878  1.00  0.00     0.029 A 
ATOM     53  N   UNL A   1      42.240  28.952  30.865  1.00  0.00    -0.354 N 
ATOM     54  N   UNL A   1      42.530  31.223  32.702  1.00  0.00    -0.248 NA
ATOM     55  C   UNL A   1      43.714  32.349  34.373  1.00  0.00     0.031 C 
ATOM     56  C   UNL A   1      43.849  27.420  30.829  1.00  0.00     0.029 A 
ATOM     57  C   UNL A   1      43.457  28.606  31.429  1.00  0.00     0.049 A 
ATOM     58  H   UNL A   1      41.715  29.751  31.101  1.00  0.00     0.167 HD
ATOM     59  C   UNL A   1      43.695  30.525  32.983  1.00  0.00     0.074 A 
ATOM     60  C   UNL A   1      44.400  31.277  34.000  1.00  0.00     0.031 C 
ATOM     61  C   UNL A   1      44.142  29.366  32.442  1.00  0.00     0.031 A 
BRANCH  48  62
ATOM     62  C   UNL A   1      40.337  26.893  28.247  1.00  0.00    -0.014 A 
ATOM     63  C   UNL A   1      40.886  26.822  26.956  1.00  0.00     0.009 A 
ATOM     64  C   UNL A   1      39.514  25.847  28.691  1.00  0.00     0.009 A 
ATOM     65  C   UNL A   1      40.585  25.749  26.116  1.00  0.00     0.001 A 
ATOM     66  C   UNL A   1      39.235  24.761  27.858  1.00  0.00     0.001 A 
ATOM     67  C   UNL A   1      39.762  24.718  26.568  1.00  0.00     0.000 A 
ENDBRANCH  48  62
BRANCH  49  68
ATOM     68  C   UNL A   1      41.733  34.497  34.558  1.00  0.00    -0.014 A 
ATOM     69  C   UNL A   1      41.258  34.360  35.871  1.00  0.00     0.009 A 
ATOM     70  C   UNL A   1      42.398  35.678  34.195  1.00  0.00     0.009 A 
ATOM     71  C   UNL A   1      41.429  35.392  36.797  1.00  0.00     0.001 A 
ATOM     72  C   UNL A   1      42.587  36.700  35.129  1.00  0.00     0.001 A 
ATOM     73  C   UNL A   1      42.098  36.558  36.426  1.00  0.00     0.000 A 
ENDBRANCH  49  68
BRANCH  61  74
ATOM     74  C   UNL A   1      45.472  28.861  32.922  1.00  0.00    -0.014 A 
ATOM     75  C   UNL A   1      45.565  27.977  34.008  1.00  0.00     0.009 A 
ATOM     76  C   UNL A   1      46.643  29.250  32.254  1.00  0.00     0.009 A 
ATOM     77  C   UNL A   1      46.812  27.518  34.435  1.00  0.00     0.001 A 
ATOM     78  C   UNL A   1      47.885  28.770  32.669  1.00  0.00     0.001 A 
ATOM     79  C   UNL A   1      47.969  27.911  33.764  1.00  0.00     0.000 A 
ENDBRANCH  61  74
ENDBRANCH  35  36
ENDBRANCH  27  30
ENDBRANCH  25  26
ENDBRANCH  24  25
ENDBRANCH   1  24
TORSDOF 14
ENDMDL
