MODEL 1
REMARK VINA RESULT:     -12.0      0.000      0.000
REMARK SMILES O=C(NCCCCNC(=O)c1cc(NC(=S)NC(=O)c2ccccc2F)ccc1Cl)c1ccc(-c2c3nc(c(-c4ccccc4)c4ccc([nH]4)c(-c4ccccc4)c4nc(c(-c5ccccc5)c5ccc2[nH]5)C=C4)C=C3)cc1
REMARK SMILES IDX 6 1 5 2 4 3 3 4 1 5 2 6 31 8 32 9 78 10 33 11 77 12 34 13
REMARK SMILES IDX 35 14 36 15 71 16 37 17 76 18 70 19 72 20 38 21 75 22 69 23
REMARK SMILES IDX 68 24 39 26 61 27 46 28 60 29 47 30 50 31 59 32 73 33 48 34
REMARK SMILES IDX 49 35 58 37 74 38 51 39 40 40 41 41 45 42 42 43 44 44 43 45
REMARK SMILES IDX 62 46 63 47 67 48 64 49 66 50 65 51 52 52 53 53 57 54 54 55
REMARK SMILES IDX 56 56 55 57 7 58 8 59 9 60 10 62 11 63 12 64 29 65 13 66
REMARK SMILES IDX 28 67 30 68 27 69 14 70 15 72 16 73 17 74 18 75 19 77 20 78
REMARK SMILES IDX 21 79 25 80 22 81 24 82 26 83 23 84
REMARK H PARENT 3 7 72 25 50 36 8 61 14 71 17 76
REMARK Flexibility Score: inf
ROOT
ATOM      1  C   UNL A   1      36.948  21.021  24.599  1.00  0.00     0.023 C 
ENDROOT
BRANCH   1   2
ATOM      2  C   UNL A   1      37.944  19.892  24.861  1.00  0.00     0.023 C 
BRANCH   2   3
ATOM      3  C   UNL A   1      39.059  20.259  25.828  1.00  0.00     0.116 C 
BRANCH   3   4
ATOM      4  N   UNL A   1      40.108  19.250  25.874  1.00  0.00    -0.352 N 
ATOM      5  O   UNL A   1      42.236  18.494  25.998  1.00  0.00    -0.269 OA
ATOM      6  C   UNL A   1      41.442  19.414  26.146  1.00  0.00     0.251 C 
ATOM      7  H   UNL A   1      39.822  18.327  25.686  1.00  0.00     0.163 HD
BRANCH   6   8
ATOM      8  C   UNL A   1      41.897  20.740  26.592  1.00  0.00     0.039 A 
ATOM      9  C   UNL A   1      41.835  21.070  27.947  1.00  0.00     0.014 A 
ATOM     10  C   UNL A   1      42.305  21.676  25.643  1.00  0.00     0.014 A 
ATOM     11  C   UNL A   1      42.019  22.385  28.334  1.00  0.00     0.010 A 
ATOM     12  C   UNL A   1      42.614  22.972  26.055  1.00  0.00     0.010 A 
ATOM     13  C   UNL A   1      42.449  23.341  27.400  1.00  0.00    -0.014 A 
BRANCH  13  14
ATOM     14  C   UNL A   1      42.819  24.692  27.878  1.00  0.00     0.031 A 
ATOM     15  C   UNL A   1      41.782  25.739  28.161  1.00  0.00     0.074 A 
ATOM     16  C   UNL A   1      44.127  24.957  28.066  1.00  0.00     0.049 A 
ATOM     17  N   UNL A   1      41.953  26.968  28.576  1.00  0.00    -0.248 NA
ATOM     18  C   UNL A   1      40.375  25.367  27.944  1.00  0.00     0.031 C 
ATOM     19  C   UNL A   1      45.223  24.011  27.827  1.00  0.00     0.029 A 
ATOM     20  N   UNL A   1      44.758  26.084  28.518  1.00  0.00    -0.354 N 
ATOM     21  C   UNL A   1      40.683  27.524  28.653  1.00  0.00     0.074 A 
ATOM     22  C   UNL A   1      39.752  26.508  28.211  1.00  0.00     0.031 C 
ATOM     23  C   UNL A   1      46.381  24.578  28.187  1.00  0.00     0.029 A 
ATOM     24  C   UNL A   1      46.122  25.953  28.592  1.00  0.00     0.049 A 
ATOM     25  H   UNL A   1      44.280  26.910  28.764  1.00  0.00     0.167 HD
ATOM     26  C   UNL A   1      40.330  28.767  29.060  1.00  0.00     0.031 A 
ATOM     27  C   UNL A   1      47.071  26.846  28.919  1.00  0.00     0.031 A 
ATOM     28  C   UNL A   1      41.269  29.776  29.480  1.00  0.00     0.049 A 
ATOM     29  C   UNL A   1      46.652  28.237  29.290  1.00  0.00     0.074 A 
ATOM     30  C   UNL A   1      41.010  31.060  29.931  1.00  0.00     0.029 A 
ATOM     31  N   UNL A   1      42.648  29.623  29.488  1.00  0.00    -0.354 N 
ATOM     32  N   UNL A   1      45.445  28.736  29.394  1.00  0.00    -0.248 NA
ATOM     33  C   UNL A   1      47.729  29.187  29.593  1.00  0.00     0.031 C 
ATOM     34  C   UNL A   1      42.233  31.707  30.137  1.00  0.00     0.029 A 
ATOM     35  C   UNL A   1      43.253  30.800  29.901  1.00  0.00     0.049 A 
ATOM     36  H   UNL A   1      43.127  28.799  29.238  1.00  0.00     0.167 HD
ATOM     37  C   UNL A   1      45.615  30.051  29.804  1.00  0.00     0.074 A 
ATOM     38  C   UNL A   1      47.041  30.260  29.952  1.00  0.00     0.031 C 
ATOM     39  C   UNL A   1      44.674  30.997  30.039  1.00  0.00     0.031 A 
BRANCH  26  40
ATOM     40  C   UNL A   1      38.867  29.124  29.033  1.00  0.00    -0.014 A 
ATOM     41  C   UNL A   1      38.046  28.948  30.158  1.00  0.00     0.009 A 
ATOM     42  C   UNL A   1      38.311  29.694  27.875  1.00  0.00     0.009 A 
ATOM     43  C   UNL A   1      36.694  29.300  30.112  1.00  0.00     0.001 A 
ATOM     44  C   UNL A   1      36.969  30.077  27.843  1.00  0.00     0.001 A 
ATOM     45  C   UNL A   1      36.159  29.870  28.958  1.00  0.00     0.000 A 
ENDBRANCH  26  40
BRANCH  27  46
ATOM     46  C   UNL A   1      48.504  26.457  28.879  1.00  0.00    -0.014 A 
ATOM     47  C   UNL A   1      49.235  26.539  27.684  1.00  0.00     0.009 A 
ATOM     48  C   UNL A   1      49.150  25.996  30.039  1.00  0.00     0.009 A 
ATOM     49  C   UNL A   1      50.570  26.133  27.644  1.00  0.00     0.001 A 
ATOM     50  C   UNL A   1      50.496  25.629  30.004  1.00  0.00     0.001 A 
ATOM     51  C   UNL A   1      51.200  25.683  28.804  1.00  0.00     0.000 A 
ENDBRANCH  27  46
BRANCH  39  52
ATOM     52  C   UNL A   1      45.158  32.335  30.529  1.00  0.00    -0.014 A 
ATOM     53  C   UNL A   1      45.196  32.650  31.897  1.00  0.00     0.009 A 
ATOM     54  C   UNL A   1      45.609  33.288  29.602  1.00  0.00     0.009 A 
ATOM     55  C   UNL A   1      45.635  33.905  32.321  1.00  0.00     0.001 A 
ATOM     56  C   UNL A   1      46.086  34.527  30.031  1.00  0.00     0.001 A 
ATOM     57  C   UNL A   1      46.086  34.839  31.389  1.00  0.00     0.000 A 
ENDBRANCH  39  52
ENDBRANCH  13  14
ENDBRANCH   6   8
ENDBRANCH   3   4
ENDBRANCH   2   3
ENDBRANCH   1   2
BRANCH   1  58
ATOM     58  C   UNL A   1      35.534  20.719  25.088  1.00  0.00     0.116 C 
BRANCH  58  59
ATOM     59  N   UNL A   1      35.154  21.616  26.153  1.00  0.00    -0.352 N 
ATOM     60  C   UNL A   1      34.414  22.759  26.139  1.00  0.00     0.252 C 
ATOM     61  H   UNL A   1      35.488  21.358  27.042  1.00  0.00     0.163 HD
ATOM     62  O   UNL A   1      34.157  23.286  27.218  1.00  0.00    -0.269 OA
BRANCH  60  63
ATOM     63  C   UNL A   1      33.840  23.310  24.838  1.00  0.00     0.060 A 
ATOM     64  C   UNL A   1      34.337  24.749  23.517  1.00  0.00     0.041 A 
ATOM     65  C   UNL A   1      32.176  22.618  24.627  1.00  0.00     0.053 A 
ATOM     66  C   UNL A   1      33.248  25.389  22.380  1.00  0.00     0.041 A 
ATOM     67  C   UNL A   1      31.148  23.282  23.323  1.00  0.00     0.023 A 
ATOM     68  Cl  UNL A   1      31.544  21.366  25.620  1.00  0.00    -0.083 Cl
ATOM     69  C   UNL A   1      31.674  24.632  22.253  1.00  0.00     0.028 A 
BRANCH  66  70
ATOM     70  N   UNL A   1      33.673  26.675  22.009  1.00  0.00    -0.332 N 
ATOM     71  H   UNL A   1      34.408  26.698  21.354  1.00  0.00     0.169 HD
BRANCH  70  72
ATOM     72  C   UNL A   1      33.216  27.917  22.422  1.00  0.00     0.177 C 
ATOM     73  S   UNL A   1      34.241  28.778  23.441  1.00  0.00    -0.040 S 
BRANCH  72  74
ATOM     74  N   UNL A   1      31.979  28.585  22.088  1.00  0.00    -0.299 N 
ATOM     75  C   UNL A   1      30.594  29.120  22.352  1.00  0.00     0.260 C 
ATOM     76  H   UNL A   1      32.125  28.835  21.148  1.00  0.00     0.172 HD
ATOM     77  O   UNL A   1      30.007  29.725  21.459  1.00  0.00    -0.269 OA
BRANCH  75  78
ATOM     78  C   UNL A   1      29.913  28.953  23.702  1.00  0.00     0.075 A 
ATOM     79  C   UNL A   1      29.032  27.447  23.533  1.00  0.00     0.017 A 
ATOM     80  C   UNL A   1      31.065  29.277  25.049  1.00  0.00     0.135 A 
ATOM     81  C   UNL A   1      29.497  26.093  24.578  1.00  0.00     0.001 A 
ATOM     82  C   UNL A   1      31.641  28.007  26.165  1.00  0.00     0.040 A 
ATOM     83  F   UNL A   1      31.854  30.362  24.947  1.00  0.00    -0.206 F 
ATOM     84  C   UNL A   1      30.945  26.345  25.972  1.00  0.00     0.003 A 
ENDBRANCH  75  78
ENDBRANCH  72  74
ENDBRANCH  70  72
ENDBRANCH  66  70
ENDBRANCH  60  63
ENDBRANCH  58  59
ENDBRANCH   1  58
TORSDOF 15
ENDMDL
MODEL 2
REMARK VINA RESULT:     -11.8      1.897      2.606
REMARK SMILES O=C(NCCCCNC(=O)c1cc(NC(=S)NC(=O)c2ccccc2F)ccc1Cl)c1ccc(-c2c3nc(c(-c4ccccc4)c4ccc([nH]4)c(-c4ccccc4)c4nc(c(-c5ccccc5)c5ccc2[nH]5)C=C4)C=C3)cc1
REMARK SMILES IDX 6 1 5 2 4 3 3 4 1 5 2 6 31 8 32 9 78 10 33 11 77 12 34 13
REMARK SMILES IDX 35 14 36 15 71 16 37 17 76 18 70 19 72 20 38 21 75 22 69 23
REMARK SMILES IDX 68 24 39 26 61 27 46 28 60 29 47 30 50 31 59 32 73 33 48 34
REMARK SMILES IDX 49 35 58 37 74 38 51 39 40 40 41 41 45 42 42 43 44 44 43 45
REMARK SMILES IDX 62 46 63 47 67 48 64 49 66 50 65 51 52 52 53 53 57 54 54 55
REMARK SMILES IDX 56 56 55 57 7 58 8 59 9 60 10 62 11 63 12 64 29 65 13 66
REMARK SMILES IDX 28 67 30 68 27 69 14 70 15 72 16 73 17 74 18 75 19 77 20 78
REMARK SMILES IDX 21 79 25 80 22 81 24 82 26 83 23 84
REMARK H PARENT 3 7 72 25 50 36 8 61 14 71 17 76
REMARK Flexibility Score: inf
ROOT
ATOM      1  C   UNL A   1      39.212  22.642  26.508  1.00  0.00     0.023 C 
ENDROOT
BRANCH   1   2
ATOM      2  C   UNL A   1      39.491  21.286  25.863  1.00  0.00     0.023 C 
BRANCH   2   3
ATOM      3  C   UNL A   1      40.274  20.327  26.745  1.00  0.00     0.116 C 
BRANCH   3   4
ATOM      4  N   UNL A   1      41.423  19.752  26.058  1.00  0.00    -0.352 N 
ATOM      5  O   UNL A   1      43.437  19.785  25.031  1.00  0.00    -0.269 OA
ATOM      6  C   UNL A   1      42.619  20.346  25.749  1.00  0.00     0.251 C 
ATOM      7  H   UNL A   1      41.328  18.813  25.779  1.00  0.00     0.163 HD
BRANCH   6   8
ATOM      8  C   UNL A   1      42.880  21.692  26.281  1.00  0.00     0.039 A 
ATOM      9  C   UNL A   1      42.943  21.887  27.662  1.00  0.00     0.014 A 
ATOM     10  C   UNL A   1      42.975  22.768  25.399  1.00  0.00     0.014 A 
ATOM     11  C   UNL A   1      42.934  23.175  28.167  1.00  0.00     0.010 A 
ATOM     12  C   UNL A   1      43.094  24.059  25.911  1.00  0.00     0.010 A 
ATOM     13  C   UNL A   1      43.049  24.273  27.299  1.00  0.00    -0.014 A 
BRANCH  13  14
ATOM     14  C   UNL A   1      43.227  25.625  27.875  1.00  0.00     0.031 A 
ATOM     15  C   UNL A   1      42.058  26.526  28.141  1.00  0.00     0.074 A 
ATOM     16  C   UNL A   1      44.479  26.024  28.168  1.00  0.00     0.049 A 
ATOM     17  N   UNL A   1      42.056  27.739  28.635  1.00  0.00    -0.248 NA
ATOM     18  C   UNL A   1      40.721  26.011  27.807  1.00  0.00     0.031 C 
ATOM     19  C   UNL A   1      45.693  25.226  27.955  1.00  0.00     0.029 A 
ATOM     20  N   UNL A   1      44.944  27.186  28.724  1.00  0.00    -0.354 N 
ATOM     21  C   UNL A   1      40.727  28.140  28.654  1.00  0.00     0.074 A 
ATOM     22  C   UNL A   1      39.952  27.054  28.092  1.00  0.00     0.031 C 
ATOM     23  C   UNL A   1      46.750  25.897  28.426  1.00  0.00     0.029 A 
ATOM     24  C   UNL A   1      46.307  27.206  28.886  1.00  0.00     0.049 A 
ATOM     25  H   UNL A   1      44.357  27.934  28.981  1.00  0.00     0.167 HD
ATOM     26  C   UNL A   1      40.205  29.307  29.102  1.00  0.00     0.031 A 
ATOM     27  C   UNL A   1      47.121  28.179  29.328  1.00  0.00     0.031 A 
ATOM     28  C   UNL A   1      40.991  30.388  29.642  1.00  0.00     0.049 A 
ATOM     29  C   UNL A   1      46.519  29.487  29.745  1.00  0.00     0.074 A 
ATOM     30  C   UNL A   1      40.554  31.603  30.144  1.00  0.00     0.029 A 
ATOM     31  N   UNL A   1      42.375  30.393  29.738  1.00  0.00    -0.354 N 
ATOM     32  N   UNL A   1      45.257  29.838  29.791  1.00  0.00    -0.248 NA
ATOM     33  C   UNL A   1      47.455  30.533  30.174  1.00  0.00     0.031 C 
ATOM     34  C   UNL A   1      41.677  32.371  30.470  1.00  0.00     0.029 A 
ATOM     35  C   UNL A   1      42.809  31.603  30.256  1.00  0.00     0.049 A 
ATOM     36  H   UNL A   1      42.962  29.646  29.477  1.00  0.00     0.167 HD
ATOM     37  C   UNL A   1      45.244  31.135  30.284  1.00  0.00     0.074 A 
ATOM     38  C   UNL A   1      46.624  31.496  30.542  1.00  0.00     0.031 C 
ATOM     39  C   UNL A   1      44.186  31.952  30.504  1.00  0.00     0.031 A 
BRANCH  26  40
ATOM     40  C   UNL A   1      38.714  29.496  28.993  1.00  0.00    -0.014 A 
ATOM     41  C   UNL A   1      38.105  29.853  27.780  1.00  0.00     0.009 A 
ATOM     42  C   UNL A   1      37.900  29.263  30.114  1.00  0.00     0.009 A 
ATOM     43  C   UNL A   1      36.718  30.008  27.701  1.00  0.00     0.001 A 
ATOM     44  C   UNL A   1      36.512  29.385  30.024  1.00  0.00     0.001 A 
ATOM     45  C   UNL A   1      35.923  29.768  28.821  1.00  0.00     0.000 A 
ENDBRANCH  26  40
BRANCH  27  46
ATOM     46  C   UNL A   1      48.590  27.959  29.367  1.00  0.00    -0.014 A 
ATOM     47  C   UNL A   1      49.388  28.262  28.254  1.00  0.00     0.009 A 
ATOM     48  C   UNL A   1      49.202  27.440  30.520  1.00  0.00     0.009 A 
ATOM     49  C   UNL A   1      50.762  28.014  28.283  1.00  0.00     0.001 A 
ATOM     50  C   UNL A   1      50.581  27.231  30.560  1.00  0.00     0.001 A 
ATOM     51  C   UNL A   1      51.357  27.503  29.436  1.00  0.00     0.000 A 
ENDBRANCH  27  46
BRANCH  39  52
ATOM     52  C   UNL A   1      44.477  33.302  31.100  1.00  0.00    -0.014 A 
ATOM     53  C   UNL A   1      44.695  34.433  30.296  1.00  0.00     0.009 A 
ATOM     54  C   UNL A   1      44.507  33.448  32.496  1.00  0.00     0.009 A 
ATOM     55  C   UNL A   1      44.979  35.669  30.878  1.00  0.00     0.001 A 
ATOM     56  C   UNL A   1      44.749  34.694  33.076  1.00  0.00     0.001 A 
ATOM     57  C   UNL A   1      44.998  35.800  32.266  1.00  0.00     0.000 A 
ENDBRANCH  39  52
ENDBRANCH  13  14
ENDBRANCH   6   8
ENDBRANCH   3   4
ENDBRANCH   2   3
ENDBRANCH   1   2
BRANCH   1  58
ATOM     58  C   UNL A   1      37.935  23.312  26.007  1.00  0.00     0.116 C 
BRANCH  58  59
ATOM     59  N   UNL A   1      37.762  23.096  24.590  1.00  0.00    -0.352 N 
ATOM     60  C   UNL A   1      36.636  22.995  23.832  1.00  0.00     0.252 C 
ATOM     61  H   UNL A   1      38.603  23.006  24.086  1.00  0.00     0.163 HD
ATOM     62  O   UNL A   1      36.773  22.906  22.615  1.00  0.00    -0.269 OA
BRANCH  60  63
ATOM     63  C   UNL A   1      35.250  23.091  24.461  1.00  0.00     0.060 A 
ATOM     64  C   UNL A   1      33.917  24.555  24.841  1.00  0.00     0.041 A 
ATOM     65  C   UNL A   1      34.889  21.501  25.257  1.00  0.00     0.053 A 
ATOM     66  C   UNL A   1      32.631  24.385  25.938  1.00  0.00     0.041 A 
ATOM     67  C   UNL A   1      33.442  21.393  26.303  1.00  0.00     0.023 A 
ATOM     68  Cl  UNL A   1      35.871  20.105  25.060  1.00  0.00    -0.083 Cl
ATOM     69  C   UNL A   1      32.367  22.800  26.635  1.00  0.00     0.028 A 
BRANCH  66  70
ATOM     70  N   UNL A   1      32.242  25.655  26.391  1.00  0.00    -0.332 N 
ATOM     71  H   UNL A   1      32.763  26.004  27.151  1.00  0.00     0.169 HD
BRANCH  70  72
ATOM     72  C   UNL A   1      31.238  26.495  25.933  1.00  0.00     0.177 C 
ATOM     73  S   UNL A   1      29.757  25.764  25.609  1.00  0.00    -0.040 S 
BRANCH  72  74
ATOM     74  N   UNL A   1      31.281  27.921  25.706  1.00  0.00    -0.299 N 
ATOM     75  C   UNL A   1      31.406  29.174  24.876  1.00  0.00     0.260 C 
ATOM     76  H   UNL A   1      31.159  28.280  26.613  1.00  0.00     0.172 HD
ATOM     77  O   UNL A   1      31.303  30.268  25.427  1.00  0.00    -0.269 OA
BRANCH  75  78
ATOM     78  C   UNL A   1      31.629  29.123  23.372  1.00  0.00     0.075 A 
ATOM     79  C   UNL A   1      33.374  29.083  23.219  1.00  0.00     0.017 A 
ATOM     80  C   UNL A   1      30.541  27.911  22.601  1.00  0.00     0.135 A 
ATOM     81  C   UNL A   1      34.110  27.640  22.500  1.00  0.00     0.001 A 
ATOM     82  C   UNL A   1      31.138  26.401  21.859  1.00  0.00     0.040 A 
ATOM     83  F   UNL A   1      29.251  27.903  22.978  1.00  0.00    -0.206 F 
ATOM     84  C   UNL A   1      32.931  26.144  21.808  1.00  0.00     0.003 A 
ENDBRANCH  75  78
ENDBRANCH  72  74
ENDBRANCH  70  72
ENDBRANCH  66  70
ENDBRANCH  60  63
ENDBRANCH  58  59
ENDBRANCH   1  58
TORSDOF 15
ENDMDL
MODEL 3
REMARK VINA RESULT:     -11.4      3.470      7.995
REMARK SMILES O=C(NCCCCNC(=O)c1cc(NC(=S)NC(=O)c2ccccc2F)ccc1Cl)c1ccc(-c2c3nc(c(-c4ccccc4)c4ccc([nH]4)c(-c4ccccc4)c4nc(c(-c5ccccc5)c5ccc2[nH]5)C=C4)C=C3)cc1
REMARK SMILES IDX 6 1 5 2 4 3 3 4 1 5 2 6 31 8 32 9 78 10 33 11 77 12 34 13
REMARK SMILES IDX 35 14 36 15 71 16 37 17 76 18 70 19 72 20 38 21 75 22 69 23
REMARK SMILES IDX 68 24 39 26 61 27 46 28 60 29 47 30 50 31 59 32 73 33 48 34
REMARK SMILES IDX 49 35 58 37 74 38 51 39 40 40 41 41 45 42 42 43 44 44 43 45
REMARK SMILES IDX 62 46 63 47 67 48 64 49 66 50 65 51 52 52 53 53 57 54 54 55
REMARK SMILES IDX 56 56 55 57 7 58 8 59 9 60 10 62 11 63 12 64 29 65 13 66
REMARK SMILES IDX 28 67 30 68 27 69 14 70 15 72 16 73 17 74 18 75 19 77 20 78
REMARK SMILES IDX 21 79 25 80 22 81 24 82 26 83 23 84
REMARK H PARENT 3 7 72 25 50 36 8 61 14 71 17 76
REMARK Flexibility Score: inf
ROOT
ATOM      1  C   UNL A   1      33.411  27.142  25.205  1.00  0.00     0.023 C 
ENDROOT
BRANCH   1   2
ATOM      2  C   UNL A   1      33.902  28.577  25.392  1.00  0.00     0.023 C 
BRANCH   2   3
ATOM      3  C   UNL A   1      34.301  28.916  26.819  1.00  0.00     0.116 C 
BRANCH   3   4
ATOM      4  N   UNL A   1      33.976  30.291  27.175  1.00  0.00    -0.352 N 
ATOM      5  O   UNL A   1      34.138  32.203  28.371  1.00  0.00    -0.269 OA
ATOM      6  C   UNL A   1      34.617  31.121  28.058  1.00  0.00     0.251 C 
ATOM      7  H   UNL A   1      33.192  30.676  26.720  1.00  0.00     0.163 HD
BRANCH   6   8
ATOM      8  C   UNL A   1      35.884  30.658  28.644  1.00  0.00     0.039 A 
ATOM      9  C   UNL A   1      37.093  31.019  28.045  1.00  0.00     0.014 A 
ATOM     10  C   UNL A   1      35.855  29.796  29.740  1.00  0.00     0.014 A 
ATOM     11  C   UNL A   1      38.259  30.387  28.437  1.00  0.00     0.010 A 
ATOM     12  C   UNL A   1      37.050  29.258  30.214  1.00  0.00     0.010 A 
ATOM     13  C   UNL A   1      38.257  29.531  29.550  1.00  0.00    -0.014 A 
BRANCH  13  14
ATOM     14  C   UNL A   1      39.549  29.018  30.060  1.00  0.00     0.031 A 
ATOM     15  C   UNL A   1      40.211  29.615  31.267  1.00  0.00     0.074 A 
ATOM     16  C   UNL A   1      40.117  27.984  29.410  1.00  0.00     0.049 A 
ATOM     17  N   UNL A   1      41.346  29.279  31.827  1.00  0.00    -0.248 NA
ATOM     18  C   UNL A   1      39.521  30.733  31.929  1.00  0.00     0.031 C 
ATOM     19  C   UNL A   1      39.559  27.322  28.225  1.00  0.00     0.029 A 
ATOM     20  N   UNL A   1      41.272  27.293  29.659  1.00  0.00    -0.354 N 
ATOM     21  C   UNL A   1      41.517  30.153  32.893  1.00  0.00     0.074 A 
ATOM     22  C   UNL A   1      40.385  31.055  32.883  1.00  0.00     0.031 C 
ATOM     23  C   UNL A   1      40.340  26.290  27.887  1.00  0.00     0.029 A 
ATOM     24  C   UNL A   1      41.500  26.274  28.768  1.00  0.00     0.049 A 
ATOM     25  H   UNL A   1      41.881  27.508  30.403  1.00  0.00     0.167 HD
ATOM     26  C   UNL A   1      42.526  30.193  33.796  1.00  0.00     0.031 A 
ATOM     27  C   UNL A   1      42.541  25.432  28.649  1.00  0.00     0.031 A 
ATOM     28  C   UNL A   1      43.658  29.300  33.783  1.00  0.00     0.049 A 
ATOM     29  C   UNL A   1      43.678  25.553  29.618  1.00  0.00     0.074 A 
ATOM     30  C   UNL A   1      44.722  29.245  34.667  1.00  0.00     0.029 A 
ATOM     31  N   UNL A   1      43.881  28.316  32.830  1.00  0.00    -0.354 N 
ATOM     32  N   UNL A   1      43.809  26.361  30.642  1.00  0.00    -0.248 NA
ATOM     33  C   UNL A   1      44.812  24.643  29.415  1.00  0.00     0.031 C 
ATOM     34  C   UNL A   1      45.625  28.282  34.206  1.00  0.00     0.029 A 
ATOM     35  C   UNL A   1      45.083  27.674  33.086  1.00  0.00     0.049 A 
ATOM     36  H   UNL A   1      43.274  28.104  32.084  1.00  0.00     0.167 HD
ATOM     37  C   UNL A   1      45.025  26.035  31.226  1.00  0.00     0.074 A 
ATOM     38  C   UNL A   1      45.579  24.941  30.453  1.00  0.00     0.031 C 
ATOM     39  C   UNL A   1      45.626  26.591  32.305  1.00  0.00     0.031 A 
BRANCH  26  40
ATOM     40  C   UNL A   1      42.476  31.263  34.855  1.00  0.00    -0.014 A 
ATOM     41  C   UNL A   1      43.013  32.541  34.635  1.00  0.00     0.009 A 
ATOM     42  C   UNL A   1      41.835  31.002  36.078  1.00  0.00     0.009 A 
ATOM     43  C   UNL A   1      42.941  33.521  35.629  1.00  0.00     0.001 A 
ATOM     44  C   UNL A   1      41.735  31.993  37.055  1.00  0.00     0.001 A 
ATOM     45  C   UNL A   1      42.297  33.248  36.835  1.00  0.00     0.000 A 
ENDBRANCH  26  40
BRANCH  27  46
ATOM     46  C   UNL A   1      42.564  24.429  27.554  1.00  0.00    -0.014 A 
ATOM     47  C   UNL A   1      43.001  24.782  26.269  1.00  0.00     0.009 A 
ATOM     48  C   UNL A   1      42.144  23.108  27.788  1.00  0.00     0.009 A 
ATOM     49  C   UNL A   1      42.981  23.845  25.234  1.00  0.00     0.001 A 
ATOM     50  C   UNL A   1      42.164  22.164  26.762  1.00  0.00     0.001 A 
ATOM     51  C   UNL A   1      42.567  22.537  25.482  1.00  0.00     0.000 A 
ENDBRANCH  27  46
BRANCH  39  52
ATOM     52  C   UNL A   1      46.933  25.989  32.744  1.00  0.00    -0.014 A 
ATOM     53  C   UNL A   1      48.162  26.444  32.239  1.00  0.00     0.009 A 
ATOM     54  C   UNL A   1      46.933  24.963  33.704  1.00  0.00     0.009 A 
ATOM     55  C   UNL A   1      49.358  25.855  32.654  1.00  0.00     0.001 A 
ATOM     56  C   UNL A   1      48.132  24.405  34.147  1.00  0.00     0.001 A 
ATOM     57  C   UNL A   1      49.343  24.843  33.611  1.00  0.00     0.000 A 
ENDBRANCH  39  52
ENDBRANCH  13  14
ENDBRANCH   6   8
ENDBRANCH   3   4
ENDBRANCH   2   3
ENDBRANCH   1   2
BRANCH   1  58
ATOM     58  C   UNL A   1      32.379  26.705  26.243  1.00  0.00     0.116 C 
BRANCH  58  59
ATOM     59  N   UNL A   1      31.038  26.853  25.730  1.00  0.00    -0.352 N 
ATOM     60  C   UNL A   1      30.303  26.058  24.904  1.00  0.00     0.252 C 
ATOM     61  H   UNL A   1      30.575  27.669  26.028  1.00  0.00     0.163 HD
ATOM     62  O   UNL A   1      29.134  26.374  24.698  1.00  0.00    -0.269 OA
BRANCH  60  63
ATOM     63  C   UNL A   1      30.880  24.767  24.334  1.00  0.00     0.060 A 
ATOM     64  C   UNL A   1      31.255  22.908  25.020  1.00  0.00     0.041 A 
ATOM     65  C   UNL A   1      31.608  25.148  22.717  1.00  0.00     0.053 A 
ATOM     66  C   UNL A   1      32.293  21.816  24.236  1.00  0.00     0.041 A 
ATOM     67  C   UNL A   1      32.592  23.885  21.919  1.00  0.00     0.023 A 
ATOM     68  Cl  UNL A   1      31.404  26.658  21.924  1.00  0.00    -0.083 Cl
ATOM     69  C   UNL A   1      32.927  22.283  22.672  1.00  0.00     0.028 A 
BRANCH  66  70
ATOM     70  N   UNL A   1      32.772  20.884  25.172  1.00  0.00    -0.332 N 
ATOM     71  H   UNL A   1      32.148  20.154  25.389  1.00  0.00     0.169 HD
BRANCH  70  72
ATOM     72  C   UNL A   1      33.989  20.834  25.834  1.00  0.00     0.177 C 
ATOM     73  S   UNL A   1      34.074  21.682  27.285  1.00  0.00    -0.040 S 
BRANCH  72  74
ATOM     74  N   UNL A   1      35.199  20.140  25.458  1.00  0.00    -0.299 N 
ATOM     75  C   UNL A   1      36.606  20.025  24.928  1.00  0.00     0.260 C 
ATOM     76  H   UNL A   1      34.976  19.204  25.669  1.00  0.00     0.172 HD
ATOM     77  O   UNL A   1      37.147  18.922  24.903  1.00  0.00    -0.269 OA
BRANCH  75  78
ATOM     78  C   UNL A   1      37.384  21.240  24.446  1.00  0.00     0.075 A 
ATOM     79  C   UNL A   1      36.131  22.337  23.899  1.00  0.00     0.017 A 
ATOM     80  C   UNL A   1      38.654  21.705  25.636  1.00  0.00     0.135 A 
ATOM     81  C   UNL A   1      35.949  23.879  24.754  1.00  0.00     0.001 A 
ATOM     82  C   UNL A   1      38.590  23.214  26.588  1.00  0.00     0.040 A 
ATOM     83  F   UNL A   1      39.411  20.722  26.156  1.00  0.00    -0.206 F 
ATOM     84  C   UNL A   1      37.226  24.358  26.253  1.00  0.00     0.003 A 
ENDBRANCH  75  78
ENDBRANCH  72  74
ENDBRANCH  70  72
ENDBRANCH  66  70
ENDBRANCH  60  63
ENDBRANCH  58  59
ENDBRANCH   1  58
TORSDOF 15
ENDMDL
