MODEL 1
REMARK VINA RESULT:     -13.8      0.000      0.000
REMARK SMILES Cc1c(NC(=O)c2cccc(-c3cc4ccccc4oc3=O)c2)cccc1C(=O)NCCCCNC(=O)c1ccc(-c2c3nc(c(-c4ccccc4)c4ccc([nH]4)c(-c4ccccc4)c4nc(c(-c5ccccc5)c5ccc2[nH]5)C=C4)C=C3)cc1
REMARK SMILES IDX 32 1 31 2 30 3 28 4 29 5 27 7 1 8 2 9 3 10 24 11 26 12 25 13
REMARK SMILES IDX 4 14 5 15 6 17 7 18 8 19 23 20 9 21 11 22 10 23 12 24 13 25
REMARK SMILES IDX 21 26 14 27 20 28 22 29 15 30 19 31 16 32 18 33 17 34 33 35
REMARK SMILES IDX 34 36 35 37 36 38 37 40 38 41 39 42 85 43 40 44 84 45 41 46
REMARK SMILES IDX 42 47 43 48 78 49 44 50 83 51 77 52 79 53 45 54 82 55 76 56
REMARK SMILES IDX 75 57 46 59 68 60 53 61 67 62 54 63 57 64 66 65 80 66 55 67
REMARK SMILES IDX 56 68 65 70 81 71 58 72 47 73 48 74 52 75 49 76 51 77 50 78
REMARK SMILES IDX 69 79 70 80 74 81 71 82 73 83 72 84 59 85 60 86 64 87 61 88
REMARK SMILES IDX 63 89 62 90
REMARK H PARENT 30 6 4 16 35 39 79 58 57 69
REMARK Flexibility Score: inf
ROOT
ATOM      1  C   UNL A   1      43.123  18.816  25.753  1.00  0.00     0.023 C 
ENDROOT
BRANCH   1   2
ATOM      2  C   UNL A   1      41.731  19.471  25.668  1.00  0.00     0.116 C 
BRANCH   2   3
ATOM      3  N   UNL A   1      41.581  20.541  26.637  1.00  0.00    -0.352 N 
ATOM      4  C   UNL A   1      40.669  21.494  26.998  1.00  0.00     0.251 C 
ATOM      5  O   UNL A   1      41.082  22.177  27.950  1.00  0.00    -0.269 OA
ATOM      6  H   UNL A   1      42.378  20.597  27.210  1.00  0.00     0.163 HD
BRANCH   4   7
ATOM      7  C   UNL A   1      39.302  21.853  26.437  1.00  0.00     0.044 A 
ATOM      8  C   UNL A   1      38.444  19.613  25.520  1.00  0.00     0.047 C 
ATOM      9  C   UNL A   1      38.314  21.081  25.776  1.00  0.00    -0.015 A 
ATOM     10  C   UNL A   1      37.156  21.724  25.233  1.00  0.00     0.045 A 
ATOM     11  C   UNL A   1      36.977  23.103  25.336  1.00  0.00     0.026 A 
ATOM     12  C   UNL A   1      39.059  23.252  26.519  1.00  0.00     0.014 A 
ATOM     13  C   UNL A   1      37.932  23.869  25.976  1.00  0.00     0.003 A 
BRANCH  10  14
ATOM     14  N   UNL A   1      36.164  20.940  24.612  1.00  0.00    -0.322 N 
ATOM     15  C   UNL A   1      34.828  20.753  24.879  1.00  0.00     0.255 C 
ATOM     16  H   UNL A   1      36.490  20.427  23.838  1.00  0.00     0.170 HD
ATOM     17  O   UNL A   1      34.254  19.810  24.330  1.00  0.00    -0.269 OA
BRANCH  15  18
ATOM     18  C   UNL A   1      34.016  21.710  25.684  1.00  0.00     0.040 A 
ATOM     19  C   UNL A   1      33.944  21.500  27.067  1.00  0.00     0.014 A 
ATOM     20  C   UNL A   1      33.215  22.703  25.107  1.00  0.00     0.022 A 
ATOM     21  C   UNL A   1      33.123  22.299  27.861  1.00  0.00     0.001 A 
ATOM     22  C   UNL A   1      32.390  23.524  25.895  1.00  0.00    -0.010 A 
ATOM     23  C   UNL A   1      32.358  23.310  27.279  1.00  0.00     0.009 A 
BRANCH  22  24
ATOM     24  C   UNL A   1      31.446  24.525  25.327  1.00  0.00     0.068 A 
ATOM     25  C   UNL A   1      30.933  25.550  26.043  1.00  0.00     0.028 A 
ATOM     26  C   UNL A   1      31.812  24.988  23.949  1.00  0.00     0.344 A 
ATOM     27  C   UNL A   1      31.859  26.701  26.125  1.00  0.00     0.018 A 
ATOM     28  O   UNL A   1      32.726  26.045  23.945  1.00  0.00    -0.422 OA
ATOM     29  O   UNL A   1      31.423  24.427  22.933  1.00  0.00    -0.246 OA
ATOM     30  C   UNL A   1      31.856  27.591  27.195  1.00  0.00     0.012 A 
ATOM     31  C   UNL A   1      32.802  26.853  25.100  1.00  0.00     0.138 A 
ATOM     32  C   UNL A   1      32.833  28.587  27.251  1.00  0.00     0.001 A 
ATOM     33  C   UNL A   1      33.805  27.809  25.171  1.00  0.00     0.048 A 
ATOM     34  C   UNL A   1      33.820  28.676  26.262  1.00  0.00     0.004 A 
ENDBRANCH  22  24
ENDBRANCH  15  18
ENDBRANCH  10  14
ENDBRANCH   4   7
ENDBRANCH   2   3
ENDBRANCH   1   2
BRANCH   1  35
ATOM     35  C   UNL A   1      44.139  19.249  24.698  1.00  0.00     0.023 C 
BRANCH  35  36
ATOM     36  C   UNL A   1      45.542  19.406  25.258  1.00  0.00     0.116 C 
BRANCH  36  37
ATOM     37  N   UNL A   1      46.321  20.511  24.705  1.00  0.00    -0.352 N 
ATOM     38  C   UNL A   1      45.983  21.852  24.594  1.00  0.00     0.251 C 
ATOM     39  H   UNL A   1      47.212  20.271  24.362  1.00  0.00     0.163 HD
ATOM     40  O   UNL A   1      46.738  22.631  24.016  1.00  0.00    -0.269 OA
BRANCH  38  41
ATOM     41  C   UNL A   1      44.795  22.377  25.317  1.00  0.00     0.039 A 
ATOM     42  C   UNL A   1      44.017  23.335  24.657  1.00  0.00     0.014 A 
ATOM     43  C   UNL A   1      44.666  22.205  26.689  1.00  0.00     0.014 A 
ATOM     44  C   UNL A   1      43.392  24.327  25.404  1.00  0.00     0.010 A 
ATOM     45  C   UNL A   1      44.184  23.267  27.426  1.00  0.00     0.010 A 
ATOM     46  C   UNL A   1      43.632  24.373  26.774  1.00  0.00    -0.014 A 
BRANCH  46  47
ATOM     47  C   UNL A   1      43.491  25.592  27.565  1.00  0.00     0.031 A 
ATOM     48  C   UNL A   1      42.212  26.335  27.556  1.00  0.00     0.074 A 
ATOM     49  C   UNL A   1      44.504  25.990  28.374  1.00  0.00     0.049 A 
ATOM     50  N   UNL A   1      42.092  27.589  27.838  1.00  0.00    -0.248 NA
ATOM     51  C   UNL A   1      40.948  25.719  27.161  1.00  0.00     0.031 C 
ATOM     52  C   UNL A   1      44.445  27.024  29.407  1.00  0.00     0.029 A 
ATOM     53  N   UNL A   1      45.870  25.686  28.302  1.00  0.00    -0.354 N 
ATOM     54  C   UNL A   1      40.748  27.848  27.996  1.00  0.00     0.074 A 
ATOM     55  C   UNL A   1      40.081  26.694  27.444  1.00  0.00     0.031 C 
ATOM     56  C   UNL A   1      45.688  27.487  29.624  1.00  0.00     0.029 A 
ATOM     57  C   UNL A   1      46.547  26.874  28.625  1.00  0.00     0.049 A 
ATOM     58  H   UNL A   1      46.272  24.818  28.070  1.00  0.00     0.167 HD
ATOM     59  C   UNL A   1      40.355  28.929  28.729  1.00  0.00     0.031 A 
ATOM     60  C   UNL A   1      47.342  27.563  27.752  1.00  0.00     0.031 A 
ATOM     61  C   UNL A   1      41.493  29.779  29.084  1.00  0.00     0.049 A 
ATOM     62  C   UNL A   1      46.888  28.997  27.528  1.00  0.00     0.074 A 
ATOM     63  C   UNL A   1      42.205  29.966  30.258  1.00  0.00     0.029 A 
ATOM     64  N   UNL A   1      42.239  30.376  28.073  1.00  0.00    -0.354 N 
ATOM     65  N   UNL A   1      45.707  29.441  27.859  1.00  0.00    -0.248 NA
ATOM     66  C   UNL A   1      47.692  30.018  26.858  1.00  0.00     0.031 C 
ATOM     67  C   UNL A   1      43.434  30.598  29.928  1.00  0.00     0.029 A 
ATOM     68  C   UNL A   1      43.450  30.825  28.563  1.00  0.00     0.049 A 
ATOM     69  H   UNL A   1      41.945  30.465  27.138  1.00  0.00     0.167 HD
ATOM     70  C   UNL A   1      45.575  30.747  27.468  1.00  0.00     0.074 A 
ATOM     71  C   UNL A   1      46.850  31.068  26.853  1.00  0.00     0.031 C 
ATOM     72  C   UNL A   1      44.419  31.444  27.668  1.00  0.00     0.031 A 
BRANCH  59  73
ATOM     73  C   UNL A   1      38.990  29.051  29.381  1.00  0.00    -0.014 A 
ATOM     74  C   UNL A   1      37.879  29.422  28.599  1.00  0.00     0.009 A 
ATOM     75  C   UNL A   1      38.736  28.908  30.756  1.00  0.00     0.009 A 
ATOM     76  C   UNL A   1      36.630  29.724  29.165  1.00  0.00     0.001 A 
ATOM     77  C   UNL A   1      37.500  29.232  31.336  1.00  0.00     0.001 A 
ATOM     78  C   UNL A   1      36.450  29.656  30.540  1.00  0.00     0.000 A 
ENDBRANCH  59  73
BRANCH  60  79
ATOM     79  C   UNL A   1      47.999  26.725  26.713  1.00  0.00    -0.014 A 
ATOM     80  C   UNL A   1      47.314  26.499  25.503  1.00  0.00     0.009 A 
ATOM     81  C   UNL A   1      49.375  26.464  26.763  1.00  0.00     0.009 A 
ATOM     82  C   UNL A   1      48.009  26.140  24.344  1.00  0.00     0.001 A 
ATOM     83  C   UNL A   1      50.066  26.096  25.600  1.00  0.00     0.001 A 
ATOM     84  C   UNL A   1      49.390  25.973  24.387  1.00  0.00     0.000 A 
ENDBRANCH  60  79
BRANCH  72  85
ATOM     85  C   UNL A   1      44.091  32.799  27.093  1.00  0.00    -0.014 A 
ATOM     86  C   UNL A   1      43.991  33.071  25.723  1.00  0.00     0.009 A 
ATOM     87  C   UNL A   1      43.713  33.837  27.975  1.00  0.00     0.009 A 
ATOM     88  C   UNL A   1      43.577  34.328  25.259  1.00  0.00     0.001 A 
ATOM     89  C   UNL A   1      43.257  35.076  27.518  1.00  0.00     0.001 A 
ATOM     90  C   UNL A   1      43.200  35.325  26.156  1.00  0.00     0.000 A 
ENDBRANCH  72  85
ENDBRANCH  46  47
ENDBRANCH  38  41
ENDBRANCH  36  37
ENDBRANCH  35  36
ENDBRANCH   1  35
TORSDOF 14
ENDMDL
MODEL 2
REMARK VINA RESULT:     -13.8      3.404      9.195
REMARK SMILES Cc1c(NC(=O)c2cccc(-c3cc4ccccc4oc3=O)c2)cccc1C(=O)NCCCCNC(=O)c1ccc(-c2c3nc(c(-c4ccccc4)c4ccc([nH]4)c(-c4ccccc4)c4nc(c(-c5ccccc5)c5ccc2[nH]5)C=C4)C=C3)cc1
REMARK SMILES IDX 32 1 31 2 30 3 28 4 29 5 27 7 1 8 2 9 3 10 24 11 26 12 25 13
REMARK SMILES IDX 4 14 5 15 6 17 7 18 8 19 23 20 9 21 11 22 10 23 12 24 13 25
REMARK SMILES IDX 21 26 14 27 20 28 22 29 15 30 19 31 16 32 18 33 17 34 33 35
REMARK SMILES IDX 34 36 35 37 36 38 37 40 38 41 39 42 85 43 40 44 84 45 41 46
REMARK SMILES IDX 42 47 43 48 78 49 44 50 83 51 77 52 79 53 45 54 82 55 76 56
REMARK SMILES IDX 75 57 46 59 68 60 53 61 67 62 54 63 57 64 66 65 80 66 55 67
REMARK SMILES IDX 56 68 65 70 81 71 58 72 47 73 48 74 52 75 49 76 51 77 50 78
REMARK SMILES IDX 69 79 70 80 74 81 71 82 73 83 72 84 59 85 60 86 64 87 61 88
REMARK SMILES IDX 63 89 62 90
REMARK H PARENT 30 6 4 16 35 39 79 58 57 69
REMARK Flexibility Score: inf
ROOT
ATOM      1  C   UNL A   1      33.130  30.172  27.183  1.00  0.00     0.023 C 
ENDROOT
BRANCH   1   2
ATOM      2  C   UNL A   1      32.124  30.345  26.028  1.00  0.00     0.116 C 
BRANCH   2   3
ATOM      3  N   UNL A   1      32.671  29.882  24.766  1.00  0.00    -0.352 N 
ATOM      4  C   UNL A   1      32.566  28.812  23.920  1.00  0.00     0.251 C 
ATOM      5  O   UNL A   1      33.301  28.947  22.928  1.00  0.00    -0.269 OA
ATOM      6  H   UNL A   1      33.312  30.537  24.410  1.00  0.00     0.163 HD
BRANCH   4   7
ATOM      7  C   UNL A   1      31.750  27.532  24.001  1.00  0.00     0.044 A 
ATOM      8  C   UNL A   1      31.371  27.243  26.524  1.00  0.00     0.047 C 
ATOM      9  C   UNL A   1      31.226  26.807  25.101  1.00  0.00    -0.015 A 
ATOM     10  C   UNL A   1      30.595  25.541  24.881  1.00  0.00     0.045 A 
ATOM     11  C   UNL A   1      30.486  24.997  23.602  1.00  0.00     0.026 A 
ATOM     12  C   UNL A   1      31.600  26.930  22.721  1.00  0.00     0.014 A 
ATOM     13  C   UNL A   1      30.993  25.690  22.520  1.00  0.00     0.003 A 
BRANCH  10  14
ATOM     14  N   UNL A   1      30.046  24.850  25.978  1.00  0.00    -0.322 N 
ATOM     15  C   UNL A   1      30.487  23.773  26.711  1.00  0.00     0.255 C 
ATOM     16  H   UNL A   1      29.178  25.205  26.279  1.00  0.00     0.170 HD
ATOM     17  O   UNL A   1      29.683  23.211  27.457  1.00  0.00    -0.269 OA
BRANCH  15  18
ATOM     18  C   UNL A   1      31.914  23.343  26.749  1.00  0.00     0.040 A 
ATOM     19  C   UNL A   1      32.336  22.580  27.846  1.00  0.00     0.014 A 
ATOM     20  C   UNL A   1      32.869  23.789  25.826  1.00  0.00     0.022 A 
ATOM     21  C   UNL A   1      33.678  22.232  27.990  1.00  0.00     0.001 A 
ATOM     22  C   UNL A   1      34.224  23.437  25.951  1.00  0.00    -0.010 A 
ATOM     23  C   UNL A   1      34.614  22.650  27.043  1.00  0.00     0.009 A 
BRANCH  22  24
ATOM     24  C   UNL A   1      35.293  23.963  25.059  1.00  0.00     0.068 A 
ATOM     25  C   UNL A   1      36.585  24.081  25.440  1.00  0.00     0.028 A 
ATOM     26  C   UNL A   1      35.213  23.451  23.652  1.00  0.00     0.344 A 
ATOM     27  C   UNL A   1      37.328  22.808  25.322  1.00  0.00     0.018 A 
ATOM     28  O   UNL A   1      35.853  22.221  23.474  1.00  0.00    -0.422 OA
ATOM     29  O   UNL A   1      34.566  24.010  22.777  1.00  0.00    -0.246 OA
ATOM     30  C   UNL A   1      38.420  22.499  26.128  1.00  0.00     0.012 A 
ATOM     31  C   UNL A   1      36.867  21.868  24.390  1.00  0.00     0.138 A 
ATOM     32  C   UNL A   1      39.000  21.233  26.029  1.00  0.00     0.001 A 
ATOM     33  C   UNL A   1      37.406  20.592  24.318  1.00  0.00     0.048 A 
ATOM     34  C   UNL A   1      38.476  20.275  25.152  1.00  0.00     0.004 A 
ENDBRANCH  22  24
ENDBRANCH  15  18
ENDBRANCH  10  14
ENDBRANCH   4   7
ENDBRANCH   2   3
ENDBRANCH   1   2
BRANCH   1  35
ATOM     35  C   UNL A   1      34.252  31.206  27.262  1.00  0.00     0.023 C 
BRANCH  35  36
ATOM     36  C   UNL A   1      34.576  31.619  28.687  1.00  0.00     0.116 C 
BRANCH  36  37
ATOM     37  N   UNL A   1      35.796  32.407  28.851  1.00  0.00    -0.352 N 
ATOM     38  C   UNL A   1      37.101  31.973  29.032  1.00  0.00     0.251 C 
ATOM     39  H   UNL A   1      35.674  33.383  28.832  1.00  0.00     0.163 HD
ATOM     40  O   UNL A   1      37.997  32.788  29.241  1.00  0.00    -0.269 OA
BRANCH  38  41
ATOM     41  C   UNL A   1      37.444  30.544  28.804  1.00  0.00     0.039 A 
ATOM     42  C   UNL A   1      37.532  29.721  29.933  1.00  0.00     0.014 A 
ATOM     43  C   UNL A   1      37.994  30.130  27.599  1.00  0.00     0.014 A 
ATOM     44  C   UNL A   1      38.452  28.679  29.937  1.00  0.00     0.010 A 
ATOM     45  C   UNL A   1      39.015  29.203  27.646  1.00  0.00     0.010 A 
ATOM     46  C   UNL A   1      39.305  28.546  28.844  1.00  0.00    -0.014 A 
BRANCH  46  47
ATOM     47  C   UNL A   1      40.601  27.879  28.925  1.00  0.00     0.031 A 
ATOM     48  C   UNL A   1      40.706  26.432  28.635  1.00  0.00     0.074 A 
ATOM     49  C   UNL A   1      41.718  28.606  29.177  1.00  0.00     0.049 A 
ATOM     50  N   UNL A   1      41.649  25.665  29.071  1.00  0.00    -0.248 NA
ATOM     51  C   UNL A   1      39.699  25.710  27.863  1.00  0.00     0.031 C 
ATOM     52  C   UNL A   1      43.104  28.156  29.048  1.00  0.00     0.029 A 
ATOM     53  N   UNL A   1      41.842  29.852  29.804  1.00  0.00    -0.354 N 
ATOM     54  C   UNL A   1      41.566  24.478  28.376  1.00  0.00     0.074 A 
ATOM     55  C   UNL A   1      40.273  24.511  27.738  1.00  0.00     0.031 C 
ATOM     56  C   UNL A   1      43.878  28.915  29.839  1.00  0.00     0.029 A 
ATOM     57  C   UNL A   1      42.989  29.764  30.613  1.00  0.00     0.049 A 
ATOM     58  H   UNL A   1      41.247  30.630  29.701  1.00  0.00     0.167 HD
ATOM     59  C   UNL A   1      42.668  23.679  28.280  1.00  0.00     0.031 A 
ATOM     60  C   UNL A   1      42.968  29.833  31.978  1.00  0.00     0.031 A 
ATOM     61  C   UNL A   1      43.755  24.158  29.136  1.00  0.00     0.049 A 
ATOM     62  C   UNL A   1      43.554  28.602  32.651  1.00  0.00     0.074 A 
ATOM     63  C   UNL A   1      44.935  24.837  28.878  1.00  0.00     0.029 A 
ATOM     64  N   UNL A   1      43.562  24.216  30.513  1.00  0.00    -0.354 N 
ATOM     65  N   UNL A   1      43.757  27.470  32.037  1.00  0.00    -0.248 NA
ATOM     66  C   UNL A   1      43.891  28.524  34.072  1.00  0.00     0.031 C 
ATOM     67  C   UNL A   1      45.401  25.386  30.103  1.00  0.00     0.029 A 
ATOM     68  C   UNL A   1      44.524  25.010  31.106  1.00  0.00     0.049 A 
ATOM     69  H   UNL A   1      42.840  23.754  30.998  1.00  0.00     0.167 HD
ATOM     70  C   UNL A   1      44.226  26.537  32.922  1.00  0.00     0.074 A 
ATOM     71  C   UNL A   1      44.303  27.248  34.185  1.00  0.00     0.031 C 
ATOM     72  C   UNL A   1      44.492  25.254  32.542  1.00  0.00     0.031 A 
BRANCH  59  73
ATOM     73  C   UNL A   1      42.865  22.647  27.185  1.00  0.00    -0.014 A 
ATOM     74  C   UNL A   1      42.284  21.371  27.322  1.00  0.00     0.009 A 
ATOM     75  C   UNL A   1      43.673  22.821  26.048  1.00  0.00     0.009 A 
ATOM     76  C   UNL A   1      42.570  20.318  26.439  1.00  0.00     0.001 A 
ATOM     77  C   UNL A   1      43.986  21.769  25.174  1.00  0.00     0.001 A 
ATOM     78  C   UNL A   1      43.446  20.511  25.379  1.00  0.00     0.000 A 
ENDBRANCH  59  73
BRANCH  60  79
ATOM     79  C   UNL A   1      41.856  30.643  32.545  1.00  0.00    -0.014 A 
ATOM     80  C   UNL A   1      41.905  32.043  32.396  1.00  0.00     0.009 A 
ATOM     81  C   UNL A   1      40.636  30.048  32.893  1.00  0.00     0.009 A 
ATOM     82  C   UNL A   1      40.739  32.811  32.473  1.00  0.00     0.001 A 
ATOM     83  C   UNL A   1      39.472  30.823  32.977  1.00  0.00     0.001 A 
ATOM     84  C   UNL A   1      39.518  32.195  32.729  1.00  0.00     0.000 A 
ENDBRANCH  60  79
BRANCH  72  85
ATOM     85  C   UNL A   1      44.801  24.102  33.465  1.00  0.00    -0.014 A 
ATOM     86  C   UNL A   1      43.834  23.258  34.024  1.00  0.00     0.009 A 
ATOM     87  C   UNL A   1      46.153  23.744  33.675  1.00  0.00     0.009 A 
ATOM     88  C   UNL A   1      44.197  22.139  34.788  1.00  0.00     0.001 A 
ATOM     89  C   UNL A   1      46.520  22.607  34.399  1.00  0.00     0.001 A 
ATOM     90  C   UNL A   1      45.539  21.809  34.965  1.00  0.00     0.000 A 
ENDBRANCH  72  85
ENDBRANCH  46  47
ENDBRANCH  38  41
ENDBRANCH  36  37
ENDBRANCH  35  36
ENDBRANCH   1  35
TORSDOF 14
ENDMDL
MODEL 3
REMARK VINA RESULT:     -13.5      4.702      9.907
REMARK SMILES Cc1c(NC(=O)c2cccc(-c3cc4ccccc4oc3=O)c2)cccc1C(=O)NCCCCNC(=O)c1ccc(-c2c3nc(c(-c4ccccc4)c4ccc([nH]4)c(-c4ccccc4)c4nc(c(-c5ccccc5)c5ccc2[nH]5)C=C4)C=C3)cc1
REMARK SMILES IDX 32 1 31 2 30 3 28 4 29 5 27 7 1 8 2 9 3 10 24 11 26 12 25 13
REMARK SMILES IDX 4 14 5 15 6 17 7 18 8 19 23 20 9 21 11 22 10 23 12 24 13 25
REMARK SMILES IDX 21 26 14 27 20 28 22 29 15 30 19 31 16 32 18 33 17 34 33 35
REMARK SMILES IDX 34 36 35 37 36 38 37 40 38 41 39 42 85 43 40 44 84 45 41 46
REMARK SMILES IDX 42 47 43 48 78 49 44 50 83 51 77 52 79 53 45 54 82 55 76 56
REMARK SMILES IDX 75 57 46 59 68 60 53 61 67 62 54 63 57 64 66 65 80 66 55 67
REMARK SMILES IDX 56 68 65 70 81 71 58 72 47 73 48 74 52 75 49 76 51 77 50 78
REMARK SMILES IDX 69 79 70 80 74 81 71 82 73 83 72 84 59 85 60 86 64 87 61 88
REMARK SMILES IDX 63 89 62 90
REMARK H PARENT 30 6 4 16 35 39 79 58 57 69
REMARK Flexibility Score: inf
ROOT
ATOM      1  C   UNL A   1      34.554  29.400  27.552  1.00  0.00     0.023 C 
ENDROOT
BRANCH   1   2
ATOM      2  C   UNL A   1      34.614  28.426  26.359  1.00  0.00     0.116 C 
BRANCH   2   3
ATOM      3  N   UNL A   1      33.830  28.904  25.235  1.00  0.00    -0.352 N 
ATOM      4  C   UNL A   1      32.767  28.511  24.470  1.00  0.00     0.251 C 
ATOM      5  O   UNL A   1      32.501  29.355  23.599  1.00  0.00    -0.269 OA
ATOM      6  H   UNL A   1      34.164  29.778  24.932  1.00  0.00     0.163 HD
BRANCH   4   7
ATOM      7  C   UNL A   1      31.908  27.256  24.496  1.00  0.00     0.044 A 
ATOM      8  C   UNL A   1      31.414  26.941  26.996  1.00  0.00     0.047 C 
ATOM      9  C   UNL A   1      31.316  26.532  25.561  1.00  0.00    -0.015 A 
ATOM     10  C   UNL A   1      30.655  25.291  25.294  1.00  0.00     0.045 A 
ATOM     11  C   UNL A   1      30.583  24.770  24.003  1.00  0.00     0.026 A 
ATOM     12  C   UNL A   1      31.793  26.679  23.200  1.00  0.00     0.014 A 
ATOM     13  C   UNL A   1      31.156  25.463  22.955  1.00  0.00     0.003 A 
BRANCH  10  14
ATOM     14  N   UNL A   1      30.038  24.601  26.356  1.00  0.00    -0.322 N 
ATOM     15  C   UNL A   1      30.263  23.364  26.913  1.00  0.00     0.255 C 
ATOM     16  H   UNL A   1      29.304  25.100  26.782  1.00  0.00     0.170 HD
ATOM     17  O   UNL A   1      29.405  22.904  27.668  1.00  0.00    -0.269 OA
BRANCH  15  18
ATOM     18  C   UNL A   1      31.546  22.621  26.756  1.00  0.00     0.040 A 
ATOM     19  C   UNL A   1      32.511  22.768  27.761  1.00  0.00     0.014 A 
ATOM     20  C   UNL A   1      31.880  21.913  25.594  1.00  0.00     0.022 A 
ATOM     21  C   UNL A   1      33.767  22.179  27.625  1.00  0.00     0.001 A 
ATOM     22  C   UNL A   1      33.138  21.305  25.446  1.00  0.00    -0.010 A 
ATOM     23  C   UNL A   1      34.075  21.445  26.479  1.00  0.00     0.009 A 
BRANCH  22  24
ATOM     24  C   UNL A   1      33.580  20.629  24.197  1.00  0.00     0.068 A 
ATOM     25  C   UNL A   1      34.538  19.675  24.169  1.00  0.00     0.028 A 
ATOM     26  C   UNL A   1      32.454  20.258  23.278  1.00  0.00     0.344 A 
ATOM     27  C   UNL A   1      34.016  18.338  24.523  1.00  0.00     0.018 A 
ATOM     28  O   UNL A   1      31.875  19.024  23.584  1.00  0.00    -0.422 OA
ATOM     29  O   UNL A   1      32.027  21.011  22.413  1.00  0.00    -0.246 OA
ATOM     30  C   UNL A   1      34.808  17.353  25.107  1.00  0.00     0.012 A 
ATOM     31  C   UNL A   1      32.654  18.090  24.300  1.00  0.00     0.138 A 
ATOM     32  C   UNL A   1      34.214  16.156  25.511  1.00  0.00     0.001 A 
ATOM     33  C   UNL A   1      32.047  16.923  24.740  1.00  0.00     0.048 A 
ATOM     34  C   UNL A   1      32.837  15.955  25.357  1.00  0.00     0.004 A 
ENDBRANCH  22  24
ENDBRANCH  15  18
ENDBRANCH  10  14
ENDBRANCH   4   7
ENDBRANCH   2   3
ENDBRANCH   1   2
BRANCH   1  35
ATOM     35  C   UNL A   1      33.937  30.770  27.276  1.00  0.00     0.023 C 
BRANCH  35  36
ATOM     36  C   UNL A   1      34.652  31.898  27.998  1.00  0.00     0.116 C 
BRANCH  36  37
ATOM     37  N   UNL A   1      33.789  32.940  28.549  1.00  0.00    -0.352 N 
ATOM     38  C   UNL A   1      34.060  33.864  29.548  1.00  0.00     0.251 C 
ATOM     39  H   UNL A   1      32.889  32.995  28.155  1.00  0.00     0.163 HD
ATOM     40  O   UNL A   1      33.173  34.618  29.945  1.00  0.00    -0.269 OA
BRANCH  38  41
ATOM     41  C   UNL A   1      35.457  34.058  30.018  1.00  0.00     0.039 A 
ATOM     42  C   UNL A   1      36.407  34.430  29.060  1.00  0.00     0.014 A 
ATOM     43  C   UNL A   1      35.868  33.557  31.245  1.00  0.00     0.014 A 
ATOM     44  C   UNL A   1      37.715  33.977  29.198  1.00  0.00     0.010 A 
ATOM     45  C   UNL A   1      37.117  32.975  31.314  1.00  0.00     0.010 A 
ATOM     46  C   UNL A   1      38.007  33.107  30.245  1.00  0.00    -0.014 A 
BRANCH  46  47
ATOM     47  C   UNL A   1      39.133  32.179  30.215  1.00  0.00     0.031 A 
ATOM     48  C   UNL A   1      38.909  30.757  29.875  1.00  0.00     0.074 A 
ATOM     49  C   UNL A   1      40.393  32.642  30.412  1.00  0.00     0.049 A 
ATOM     50  N   UNL A   1      39.692  29.790  30.221  1.00  0.00    -0.248 NA
ATOM     51  C   UNL A   1      37.726  30.298  29.153  1.00  0.00     0.031 C 
ATOM     52  C   UNL A   1      41.640  31.916  30.173  1.00  0.00     0.029 A 
ATOM     53  N   UNL A   1      40.818  33.805  31.066  1.00  0.00    -0.354 N 
ATOM     54  C   UNL A   1      39.315  28.678  29.498  1.00  0.00     0.074 A 
ATOM     55  C   UNL A   1      38.022  29.012  28.953  1.00  0.00     0.031 C 
ATOM     56  C   UNL A   1      42.606  32.459  30.932  1.00  0.00     0.029 A 
ATOM     57  C   UNL A   1      41.967  33.441  31.790  1.00  0.00     0.049 A 
ATOM     58  H   UNL A   1      40.398  34.695  31.028  1.00  0.00     0.167 HD
ATOM     59  C   UNL A   1      40.212  27.670  29.303  1.00  0.00     0.031 A 
ATOM     60  C   UNL A   1      42.045  33.452  33.155  1.00  0.00     0.031 A 
ATOM     61  C   UNL A   1      41.427  27.871  30.095  1.00  0.00     0.049 A 
ATOM     62  C   UNL A   1      42.395  32.097  33.749  1.00  0.00     0.074 A 
ATOM     63  C   UNL A   1      42.707  28.296  29.777  1.00  0.00     0.029 A 
ATOM     64  N   UNL A   1      41.336  27.907  31.483  1.00  0.00    -0.354 N 
ATOM     65  N   UNL A   1      42.314  30.976  33.087  1.00  0.00    -0.248 NA
ATOM     66  C   UNL A   1      42.794  31.887  35.140  1.00  0.00     0.031 C 
ATOM     67  C   UNL A   1      43.353  28.680  30.982  1.00  0.00     0.029 A 
ATOM     68  C   UNL A   1      42.480  28.453  32.032  1.00  0.00     0.049 A 
ATOM     69  H   UNL A   1      40.563  27.587  32.003  1.00  0.00     0.167 HD
ATOM     70  C   UNL A   1      42.626  29.927  33.910  1.00  0.00     0.074 A 
ATOM     71  C   UNL A   1      42.930  30.549  35.185  1.00  0.00     0.031 C 
ATOM     72  C   UNL A   1      42.588  28.634  33.473  1.00  0.00     0.031 A 
BRANCH  59  73
ATOM     73  C   UNL A   1      40.118  26.669  28.165  1.00  0.00    -0.014 A 
ATOM     74  C   UNL A   1      39.467  25.439  28.378  1.00  0.00     0.009 A 
ATOM     75  C   UNL A   1      40.714  26.824  26.902  1.00  0.00     0.009 A 
ATOM     76  C   UNL A   1      39.497  24.401  27.433  1.00  0.00     0.001 A 
ATOM     77  C   UNL A   1      40.772  25.785  25.960  1.00  0.00     0.001 A 
ATOM     78  C   UNL A   1      40.175  24.566  26.233  1.00  0.00     0.000 A 
ENDBRANCH  59  73
BRANCH  60  79
ATOM     79  C   UNL A   1      41.169  34.453  33.822  1.00  0.00    -0.014 A 
ATOM     80  C   UNL A   1      39.890  34.046  34.247  1.00  0.00     0.009 A 
ATOM     81  C   UNL A   1      41.700  35.644  34.339  1.00  0.00     0.009 A 
ATOM     82  C   UNL A   1      39.214  34.745  35.252  1.00  0.00     0.001 A 
ATOM     83  C   UNL A   1      41.014  36.345  35.340  1.00  0.00     0.001 A 
ATOM     84  C   UNL A   1      39.793  35.875  35.821  1.00  0.00     0.000 A 
ENDBRANCH  60  79
BRANCH  72  85
ATOM     85  C   UNL A   1      42.700  27.403  34.337  1.00  0.00    -0.014 A 
ATOM     86  C   UNL A   1      43.857  26.622  34.451  1.00  0.00     0.009 A 
ATOM     87  C   UNL A   1      41.631  27.083  35.205  1.00  0.00     0.009 A 
ATOM     88  C   UNL A   1      43.927  25.552  35.355  1.00  0.00     0.001 A 
ATOM     89  C   UNL A   1      41.712  26.047  36.138  1.00  0.00     0.001 A 
ATOM     90  C   UNL A   1      42.860  25.273  36.205  1.00  0.00     0.000 A 
ENDBRANCH  72  85
ENDBRANCH  46  47
ENDBRANCH  38  41
ENDBRANCH  36  37
ENDBRANCH  35  36
ENDBRANCH   1  35
TORSDOF 14
ENDMDL
