MODEL 1
REMARK VINA RESULT:     -11.5      0.000      0.000
REMARK SMILES COc1ccc(C(=O)c2ccccc2)cc1[C@@H](C)C(=O)NCCCCNC(=O)c1ccc(-c2c3nc(c(-c4ccccc4)c4ccc([nH]4)c(-c4ccccc4)c4nc(c(-c5ccccc5)c5ccc2[nH]5)C=C4)C=C3)cc1
REMARK SMILES IDX 23 1 22 2 21 3 19 4 20 5 17 7 18 8 16 9 3 10 4 11 5 12 15 13
REMARK SMILES IDX 6 14 2 15 1 16 7 17 8 18 9 19 10 20 14 21 11 22 13 23 12 24
REMARK SMILES IDX 24 25 25 26 26 27 27 28 28 30 29 31 30 32 76 33 31 34 75 35
REMARK SMILES IDX 32 36 33 37 34 38 69 39 35 40 74 41 68 42 70 43 36 44 73 45
REMARK SMILES IDX 67 46 66 47 37 49 59 50 44 51 58 52 45 53 48 54 57 55 71 56
REMARK SMILES IDX 46 57 47 58 56 60 72 61 49 62 38 63 39 64 43 65 40 66 42 67
REMARK SMILES IDX 41 68 60 69 61 70 65 71 62 72 64 73 63 74 50 75 51 76 55 77
REMARK SMILES IDX 52 78 54 79 53 80
REMARK H PARENT 21 6 26 29 70 48 48 59
REMARK Flexibility Score: inf
ROOT
ATOM      1  C   UNL A   1      31.826  28.789  27.449  1.00  0.00     0.023 C 
ENDROOT
BRANCH   1   2
ATOM      2  C   UNL A   1      32.311  27.454  26.889  1.00  0.00     0.116 C 
BRANCH   2   3
ATOM      3  N   UNL A   1      31.271  26.452  26.936  1.00  0.00    -0.356 N 
ATOM      4  C   UNL A   1      30.259  26.148  26.079  1.00  0.00     0.227 C 
ATOM      5  O   UNL A   1      29.459  25.292  26.479  1.00  0.00    -0.274 OA
ATOM      6  H   UNL A   1      31.300  25.882  27.739  1.00  0.00     0.163 HD
BRANCH   4   7
ATOM      7  C   UNL A   1      30.055  26.804  24.698  1.00  0.00     0.109 C 
ATOM      8  C   UNL A   1      28.751  26.473  23.978  1.00  0.00     0.023 C 
BRANCH   7   9
ATOM      9  C   UNL A   1      31.301  26.756  23.821  1.00  0.00     0.007 A 
ATOM     10  C   UNL A   1      31.876  27.918  23.283  1.00  0.00     0.122 A 
ATOM     11  C   UNL A   1      33.068  27.858  22.554  1.00  0.00     0.047 A 
ATOM     12  C   UNL A   1      33.719  26.638  22.363  1.00  0.00     0.016 A 
ATOM     13  C   UNL A   1      31.939  25.530  23.545  1.00  0.00     0.020 A 
ATOM     14  C   UNL A   1      33.152  25.455  22.842  1.00  0.00     0.023 A 
BRANCH  10  15
ATOM     15  O   UNL A   1      31.225  29.124  23.291  1.00  0.00    -0.496 OA
ATOM     16  C   UNL A   1      30.455  29.359  22.113  1.00  0.00     0.278 C 
ENDBRANCH  10  15
BRANCH  14  17
ATOM     17  C   UNL A   1      33.910  24.180  22.650  1.00  0.00     0.193 C 
ATOM     18  O   UNL A   1      33.673  23.483  21.665  1.00  0.00    -0.289 OA
BRANCH  17  19
ATOM     19  C   UNL A   1      34.991  23.730  23.560  1.00  0.00     0.022 A 
ATOM     20  C   UNL A   1      35.021  24.258  24.859  1.00  0.00     0.012 A 
ATOM     21  C   UNL A   1      35.990  22.841  23.148  1.00  0.00     0.012 A 
ATOM     22  C   UNL A   1      36.022  23.873  25.751  1.00  0.00     0.001 A 
ATOM     23  C   UNL A   1      36.989  22.455  24.047  1.00  0.00     0.001 A 
ATOM     24  C   UNL A   1      37.004  22.972  25.343  1.00  0.00     0.000 A 
ENDBRANCH  17  19
ENDBRANCH  14  17
ENDBRANCH   7   9
ENDBRANCH   4   7
ENDBRANCH   2   3
ENDBRANCH   1   2
BRANCH   1  25
ATOM     25  C   UNL A   1      32.158  30.018  26.618  1.00  0.00     0.023 C 
BRANCH  25  26
ATOM     26  C   UNL A   1      33.058  31.033  27.307  1.00  0.00     0.116 C 
BRANCH  26  27
ATOM     27  N   UNL A   1      32.474  32.365  27.437  1.00  0.00    -0.352 N 
ATOM     28  C   UNL A   1      33.011  33.473  28.050  1.00  0.00     0.251 C 
ATOM     29  H   UNL A   1      31.583  32.485  27.036  1.00  0.00     0.163 HD
ATOM     30  O   UNL A   1      32.414  34.543  28.099  1.00  0.00    -0.269 OA
BRANCH  28  31
ATOM     31  C   UNL A   1      34.323  33.330  28.693  1.00  0.00     0.039 A 
ATOM     32  C   UNL A   1      34.414  32.650  29.908  1.00  0.00     0.014 A 
ATOM     33  C   UNL A   1      35.460  33.747  28.001  1.00  0.00     0.014 A 
ATOM     34  C   UNL A   1      35.671  32.304  30.399  1.00  0.00     0.010 A 
ATOM     35  C   UNL A   1      36.702  33.331  28.448  1.00  0.00     0.010 A 
ATOM     36  C   UNL A   1      36.815  32.601  29.644  1.00  0.00    -0.014 A 
BRANCH  36  37
ATOM     37  C   UNL A   1      38.172  32.184  30.060  1.00  0.00     0.031 A 
ATOM     38  C   UNL A   1      38.725  30.903  29.512  1.00  0.00     0.074 A 
ATOM     39  C   UNL A   1      38.816  32.864  31.027  1.00  0.00     0.049 A 
ATOM     40  N   UNL A   1      39.747  30.201  29.921  1.00  0.00    -0.248 NA
ATOM     41  C   UNL A   1      37.990  30.306  28.383  1.00  0.00     0.031 C 
ATOM     42  C   UNL A   1      38.355  34.110  31.647  1.00  0.00     0.029 A 
ATOM     43  N   UNL A   1      39.984  32.579  31.685  1.00  0.00    -0.354 N 
ATOM     44  C   UNL A   1      39.749  29.058  29.132  1.00  0.00     0.074 A 
ATOM     45  C   UNL A   1      38.608  29.143  28.249  1.00  0.00     0.031 C 
ATOM     46  C   UNL A   1      39.233  34.480  32.594  1.00  0.00     0.029 A 
ATOM     47  C   UNL A   1      40.284  33.473  32.684  1.00  0.00     0.049 A 
ATOM     48  H   UNL A   1      40.554  31.807  31.463  1.00  0.00     0.167 HD
ATOM     49  C   UNL A   1      40.632  28.033  29.142  1.00  0.00     0.031 A 
ATOM     50  C   UNL A   1      41.280  33.460  33.590  1.00  0.00     0.031 A 
ATOM     51  C   UNL A   1      41.775  27.980  30.011  1.00  0.00     0.049 A 
ATOM     52  C   UNL A   1      42.248  32.311  33.582  1.00  0.00     0.074 A 
ATOM     53  C   UNL A   1      42.778  27.028  30.061  1.00  0.00     0.029 A 
ATOM     54  N   UNL A   1      42.068  28.928  30.980  1.00  0.00    -0.354 N 
ATOM     55  N   UNL A   1      42.270  31.256  32.801  1.00  0.00    -0.248 NA
ATOM     56  C   UNL A   1      43.326  32.346  34.580  1.00  0.00     0.031 C 
ATOM     57  C   UNL A   1      43.654  27.380  31.093  1.00  0.00     0.029 A 
ATOM     58  C   UNL A   1      43.224  28.573  31.652  1.00  0.00     0.049 A 
ATOM     59  H   UNL A   1      41.532  29.733  31.163  1.00  0.00     0.167 HD
ATOM     60  C   UNL A   1      43.371  30.512  33.202  1.00  0.00     0.074 A 
ATOM     61  C   UNL A   1      44.001  31.245  34.283  1.00  0.00     0.031 C 
ATOM     62  C   UNL A   1      43.820  29.325  32.725  1.00  0.00     0.031 A 
BRANCH  49  63
ATOM     63  C   UNL A   1      40.379  26.895  28.195  1.00  0.00    -0.014 A 
ATOM     64  C   UNL A   1      40.941  26.875  26.909  1.00  0.00     0.009 A 
ATOM     65  C   UNL A   1      39.570  25.821  28.598  1.00  0.00     0.009 A 
ATOM     66  C   UNL A   1      40.662  25.825  26.030  1.00  0.00     0.001 A 
ATOM     67  C   UNL A   1      39.316  24.758  27.728  1.00  0.00     0.001 A 
ATOM     68  C   UNL A   1      39.853  24.767  26.442  1.00  0.00     0.000 A 
ENDBRANCH  49  63
BRANCH  50  69
ATOM     69  C   UNL A   1      41.403  34.562  34.580  1.00  0.00    -0.014 A 
ATOM     70  C   UNL A   1      40.772  34.465  35.829  1.00  0.00     0.009 A 
ATOM     71  C   UNL A   1      42.157  35.711  34.291  1.00  0.00     0.009 A 
ATOM     72  C   UNL A   1      40.878  35.500  36.761  1.00  0.00     0.001 A 
ATOM     73  C   UNL A   1      42.285  36.733  35.235  1.00  0.00     0.001 A 
ATOM     74  C   UNL A   1      41.640  36.630  36.466  1.00  0.00     0.000 A 
ENDBRANCH  50  69
BRANCH  62  75
ATOM     75  C   UNL A   1      45.060  28.763  33.357  1.00  0.00    -0.014 A 
ATOM     76  C   UNL A   1      46.328  29.027  32.819  1.00  0.00     0.009 A 
ATOM     77  C   UNL A   1      44.958  28.009  34.537  1.00  0.00     0.009 A 
ATOM     78  C   UNL A   1      47.473  28.527  33.442  1.00  0.00     0.001 A 
ATOM     79  C   UNL A   1      46.106  27.534  35.170  1.00  0.00     0.001 A 
ATOM     80  C   UNL A   1      47.360  27.788  34.619  1.00  0.00     0.000 A 
ENDBRANCH  62  75
ENDBRANCH  36  37
ENDBRANCH  28  31
ENDBRANCH  26  27
ENDBRANCH  25  26
ENDBRANCH   1  25
TORSDOF 15
ENDMDL
MODEL 2
REMARK VINA RESULT:     -11.3      1.927      4.227
REMARK SMILES COc1ccc(C(=O)c2ccccc2)cc1[C@@H](C)C(=O)NCCCCNC(=O)c1ccc(-c2c3nc(c(-c4ccccc4)c4ccc([nH]4)c(-c4ccccc4)c4nc(c(-c5ccccc5)c5ccc2[nH]5)C=C4)C=C3)cc1
REMARK SMILES IDX 23 1 22 2 21 3 19 4 20 5 17 7 18 8 16 9 3 10 4 11 5 12 15 13
REMARK SMILES IDX 6 14 2 15 1 16 7 17 8 18 9 19 10 20 14 21 11 22 13 23 12 24
REMARK SMILES IDX 24 25 25 26 26 27 27 28 28 30 29 31 30 32 76 33 31 34 75 35
REMARK SMILES IDX 32 36 33 37 34 38 69 39 35 40 74 41 68 42 70 43 36 44 73 45
REMARK SMILES IDX 67 46 66 47 37 49 59 50 44 51 58 52 45 53 48 54 57 55 71 56
REMARK SMILES IDX 46 57 47 58 56 60 72 61 49 62 38 63 39 64 43 65 40 66 42 67
REMARK SMILES IDX 41 68 60 69 61 70 65 71 62 72 64 73 63 74 50 75 51 76 55 77
REMARK SMILES IDX 52 78 54 79 53 80
REMARK H PARENT 21 6 26 29 70 48 48 59
REMARK Flexibility Score: inf
ROOT
ATOM      1  C   UNL A   1      31.529  30.013  26.328  1.00  0.00     0.023 C 
ENDROOT
BRANCH   1   2
ATOM      2  C   UNL A   1      32.862  29.500  25.787  1.00  0.00     0.116 C 
BRANCH   2   3
ATOM      3  N   UNL A   1      32.983  29.738  24.367  1.00  0.00    -0.356 N 
ATOM      4  C   UNL A   1      32.961  28.899  23.297  1.00  0.00     0.227 C 
ATOM      5  O   UNL A   1      33.212  29.421  22.203  1.00  0.00    -0.274 OA
ATOM      6  H   UNL A   1      33.105  30.686  24.130  1.00  0.00     0.163 HD
BRANCH   4   7
ATOM      7  C   UNL A   1      32.670  27.386  23.377  1.00  0.00     0.109 C 
ATOM      8  C   UNL A   1      33.377  26.506  22.350  1.00  0.00     0.023 C 
BRANCH   7   9
ATOM      9  C   UNL A   1      31.193  27.070  23.583  1.00  0.00     0.007 A 
ATOM     10  C   UNL A   1      30.767  25.892  24.217  1.00  0.00     0.122 A 
ATOM     11  C   UNL A   1      29.411  25.664  24.473  1.00  0.00     0.047 A 
ATOM     12  C   UNL A   1      28.455  26.617  24.115  1.00  0.00     0.016 A 
ATOM     13  C   UNL A   1      30.198  27.976  23.163  1.00  0.00     0.020 A 
ATOM     14  C   UNL A   1      28.836  27.778  23.439  1.00  0.00     0.023 A 
BRANCH  10  15
ATOM     15  O   UNL A   1      31.618  24.846  24.458  1.00  0.00    -0.496 OA
ATOM     16  C   UNL A   1      30.943  23.633  24.790  1.00  0.00     0.278 C 
ENDBRANCH  10  15
BRANCH  14  17
ATOM     17  C   UNL A   1      27.780  28.787  23.118  1.00  0.00     0.193 C 
ATOM     18  O   UNL A   1      26.597  28.493  23.285  1.00  0.00    -0.289 OA
BRANCH  17  19
ATOM     19  C   UNL A   1      28.082  30.165  22.659  1.00  0.00     0.022 A 
ATOM     20  C   UNL A   1      28.368  31.135  23.631  1.00  0.00     0.012 A 
ATOM     21  C   UNL A   1      28.048  30.524  21.307  1.00  0.00     0.012 A 
ATOM     22  C   UNL A   1      28.650  32.447  23.251  1.00  0.00     0.001 A 
ATOM     23  C   UNL A   1      28.336  31.840  20.931  1.00  0.00     0.001 A 
ATOM     24  C   UNL A   1      28.634  32.797  21.902  1.00  0.00     0.000 A 
ENDBRANCH  17  19
ENDBRANCH  14  17
ENDBRANCH   7   9
ENDBRANCH   4   7
ENDBRANCH   2   3
ENDBRANCH   1   2
BRANCH   1  25
ATOM     25  C   UNL A   1      31.372  31.524  26.380  1.00  0.00     0.023 C 
BRANCH  25  26
ATOM     26  C   UNL A   1      32.602  32.279  26.861  1.00  0.00     0.116 C 
BRANCH  26  27
ATOM     27  N   UNL A   1      32.309  33.534  27.549  1.00  0.00    -0.352 N 
ATOM     28  C   UNL A   1      33.096  34.215  28.447  1.00  0.00     0.251 C 
ATOM     29  H   UNL A   1      31.437  33.943  27.345  1.00  0.00     0.163 HD
ATOM     30  O   UNL A   1      32.732  35.265  28.965  1.00  0.00    -0.269 OA
BRANCH  28  31
ATOM     31  C   UNL A   1      34.391  33.625  28.807  1.00  0.00     0.039 A 
ATOM     32  C   UNL A   1      35.565  34.275  28.423  1.00  0.00     0.014 A 
ATOM     33  C   UNL A   1      34.413  32.514  29.651  1.00  0.00     0.014 A 
ATOM     34  C   UNL A   1      36.780  33.856  28.962  1.00  0.00     0.010 A 
ATOM     35  C   UNL A   1      35.609  32.154  30.247  1.00  0.00     0.010 A 
ATOM     36  C   UNL A   1      36.797  32.826  29.913  1.00  0.00    -0.014 A 
BRANCH  36  37
ATOM     37  C   UNL A   1      38.037  32.392  30.592  1.00  0.00     0.031 A 
ATOM     38  C   UNL A   1      38.767  31.200  30.051  1.00  0.00     0.074 A 
ATOM     39  C   UNL A   1      38.401  32.964  31.755  1.00  0.00     0.049 A 
ATOM     40  N   UNL A   1      39.699  30.476  30.611  1.00  0.00    -0.248 NA
ATOM     41  C   UNL A   1      38.349  30.727  28.720  1.00  0.00     0.031 C 
ATOM     42  C   UNL A   1      37.745  34.115  32.383  1.00  0.00     0.029 A 
ATOM     43  N   UNL A   1      39.395  32.627  32.637  1.00  0.00    -0.354 N 
ATOM     44  C   UNL A   1      39.944  29.437  29.722  1.00  0.00     0.074 A 
ATOM     45  C   UNL A   1      39.039  29.604  28.607  1.00  0.00     0.031 C 
ATOM     46  C   UNL A   1      38.357  34.387  33.547  1.00  0.00     0.029 A 
ATOM     47  C   UNL A   1      39.407  33.400  33.772  1.00  0.00     0.049 A 
ATOM     48  H   UNL A   1      40.039  31.901  32.472  1.00  0.00     0.167 HD
ATOM     49  C   UNL A   1      40.851  28.439  29.827  1.00  0.00     0.031 A 
ATOM     50  C   UNL A   1      40.162  33.300  34.882  1.00  0.00     0.031 A 
ATOM     51  C   UNL A   1      41.760  28.306  30.933  1.00  0.00     0.049 A 
ATOM     52  C   UNL A   1      41.162  32.182  34.977  1.00  0.00     0.074 A 
ATOM     53  C   UNL A   1      42.769  27.379  31.114  1.00  0.00     0.029 A 
ATOM     54  N   UNL A   1      41.768  29.136  32.044  1.00  0.00    -0.354 N 
ATOM     55  N   UNL A   1      41.419  31.231  34.110  1.00  0.00    -0.248 NA
ATOM     56  C   UNL A   1      41.972  32.121  36.201  1.00  0.00     0.031 C 
ATOM     57  C   UNL A   1      43.360  27.622  32.358  1.00  0.00     0.029 A 
ATOM     58  C   UNL A   1      42.751  28.728  32.928  1.00  0.00     0.049 A 
ATOM     59  H   UNL A   1      41.164  29.901  32.183  1.00  0.00     0.167 HD
ATOM     60  C   UNL A   1      42.432  30.468  34.676  1.00  0.00     0.074 A 
ATOM     61  C   UNL A   1      42.753  31.078  35.952  1.00  0.00     0.031 C 
ATOM     62  C   UNL A   1      43.040  29.358  34.190  1.00  0.00     0.031 A 
BRANCH  49  63
ATOM     63  C   UNL A   1      40.885  27.418  28.726  1.00  0.00    -0.014 A 
ATOM     64  C   UNL A   1      41.733  27.567  27.617  1.00  0.00     0.009 A 
ATOM     65  C   UNL A   1      40.059  26.287  28.800  1.00  0.00     0.009 A 
ATOM     66  C   UNL A   1      41.722  26.626  26.585  1.00  0.00     0.001 A 
ATOM     67  C   UNL A   1      40.071  25.331  27.781  1.00  0.00     0.001 A 
ATOM     68  C   UNL A   1      40.893  25.508  26.670  1.00  0.00     0.000 A 
ENDBRANCH  49  63
BRANCH  50  69
ATOM     69  C   UNL A   1      39.994  34.277  35.991  1.00  0.00    -0.014 A 
ATOM     70  C   UNL A   1      39.157  33.977  37.076  1.00  0.00     0.009 A 
ATOM     71  C   UNL A   1      40.672  35.506  35.978  1.00  0.00     0.009 A 
ATOM     72  C   UNL A   1      38.989  34.893  38.118  1.00  0.00     0.001 A 
ATOM     73  C   UNL A   1      40.524  36.409  37.034  1.00  0.00     0.001 A 
ATOM     74  C   UNL A   1      39.678  36.105  38.099  1.00  0.00     0.000 A 
ENDBRANCH  50  69
BRANCH  62  75
ATOM     75  C   UNL A   1      44.124  28.751  35.032  1.00  0.00    -0.014 A 
ATOM     76  C   UNL A   1      45.451  29.191  34.927  1.00  0.00     0.009 A 
ATOM     77  C   UNL A   1      43.798  27.770  35.982  1.00  0.00     0.009 A 
ATOM     78  C   UNL A   1      46.440  28.641  35.746  1.00  0.00     0.001 A 
ATOM     79  C   UNL A   1      44.784  27.243  36.816  1.00  0.00     0.001 A 
ATOM     80  C   UNL A   1      46.103  27.674  36.692  1.00  0.00     0.000 A 
ENDBRANCH  62  75
ENDBRANCH  36  37
ENDBRANCH  28  31
ENDBRANCH  26  27
ENDBRANCH  25  26
ENDBRANCH   1  25
TORSDOF 15
ENDMDL
MODEL 3
REMARK VINA RESULT:     -11.3      1.635      7.142
REMARK SMILES COc1ccc(C(=O)c2ccccc2)cc1[C@@H](C)C(=O)NCCCCNC(=O)c1ccc(-c2c3nc(c(-c4ccccc4)c4ccc([nH]4)c(-c4ccccc4)c4nc(c(-c5ccccc5)c5ccc2[nH]5)C=C4)C=C3)cc1
REMARK SMILES IDX 23 1 22 2 21 3 19 4 20 5 17 7 18 8 16 9 3 10 4 11 5 12 15 13
REMARK SMILES IDX 6 14 2 15 1 16 7 17 8 18 9 19 10 20 14 21 11 22 13 23 12 24
REMARK SMILES IDX 24 25 25 26 26 27 27 28 28 30 29 31 30 32 76 33 31 34 75 35
REMARK SMILES IDX 32 36 33 37 34 38 69 39 35 40 74 41 68 42 70 43 36 44 73 45
REMARK SMILES IDX 67 46 66 47 37 49 59 50 44 51 58 52 45 53 48 54 57 55 71 56
REMARK SMILES IDX 46 57 47 58 56 60 72 61 49 62 38 63 39 64 43 65 40 66 42 67
REMARK SMILES IDX 41 68 60 69 61 70 65 71 62 72 64 73 63 74 50 75 51 76 55 77
REMARK SMILES IDX 52 78 54 79 53 80
REMARK H PARENT 21 6 26 29 70 48 48 59
REMARK Flexibility Score: inf
ROOT
ATOM      1  C   UNL A   1      32.009  29.959  26.682  1.00  0.00     0.023 C 
ENDROOT
BRANCH   1   2
ATOM      2  C   UNL A   1      33.234  29.486  25.901  1.00  0.00     0.116 C 
BRANCH   2   3
ATOM      3  N   UNL A   1      33.095  29.751  24.488  1.00  0.00    -0.356 N 
ATOM      4  C   UNL A   1      32.881  28.933  23.423  1.00  0.00     0.227 C 
ATOM      5  O   UNL A   1      32.928  29.477  22.312  1.00  0.00    -0.274 OA
ATOM      6  H   UNL A   1      33.168  30.705  24.251  1.00  0.00     0.163 HD
BRANCH   4   7
ATOM      7  C   UNL A   1      32.615  27.416  23.525  1.00  0.00     0.109 C 
ATOM      8  C   UNL A   1      33.409  26.525  22.575  1.00  0.00     0.023 C 
BRANCH   7   9
ATOM      9  C   UNL A   1      31.133  27.075  23.636  1.00  0.00     0.007 A 
ATOM     10  C   UNL A   1      30.690  25.846  24.149  1.00  0.00     0.122 A 
ATOM     11  C   UNL A   1      29.327  25.588  24.323  1.00  0.00     0.047 A 
ATOM     12  C   UNL A   1      28.378  26.562  24.002  1.00  0.00     0.016 A 
ATOM     13  C   UNL A   1      30.149  28.006  23.248  1.00  0.00     0.020 A 
ATOM     14  C   UNL A   1      28.778  27.778  23.444  1.00  0.00     0.023 A 
BRANCH  10  15
ATOM     15  O   UNL A   1      31.540  24.788  24.341  1.00  0.00    -0.496 OA
ATOM     16  C   UNL A   1      31.125  23.601  23.667  1.00  0.00     0.278 C 
ENDBRANCH  10  15
BRANCH  14  17
ATOM     17  C   UNL A   1      27.727  28.804  23.159  1.00  0.00     0.193 C 
ATOM     18  O   UNL A   1      26.549  28.539  23.394  1.00  0.00    -0.289 OA
BRANCH  17  19
ATOM     19  C   UNL A   1      28.033  30.166  22.659  1.00  0.00     0.022 A 
ATOM     20  C   UNL A   1      28.264  31.178  23.603  1.00  0.00     0.012 A 
ATOM     21  C   UNL A   1      28.054  30.471  21.293  1.00  0.00     0.012 A 
ATOM     22  C   UNL A   1      28.547  32.478  23.183  1.00  0.00     0.001 A 
ATOM     23  C   UNL A   1      28.344  31.775  20.878  1.00  0.00     0.001 A 
ATOM     24  C   UNL A   1      28.587  32.774  21.821  1.00  0.00     0.000 A 
ENDBRANCH  17  19
ENDBRANCH  14  17
ENDBRANCH   7   9
ENDBRANCH   4   7
ENDBRANCH   2   3
ENDBRANCH   1   2
BRANCH   1  25
ATOM     25  C   UNL A   1      31.772  31.460  26.699  1.00  0.00     0.023 C 
BRANCH  25  26
ATOM     26  C   UNL A   1      32.894  32.278  27.319  1.00  0.00     0.116 C 
BRANCH  26  27
ATOM     27  N   UNL A   1      32.546  33.670  27.594  1.00  0.00    -0.352 N 
ATOM     28  C   UNL A   1      33.175  34.553  28.439  1.00  0.00     0.251 C 
ATOM     29  H   UNL A   1      31.761  34.019  27.113  1.00  0.00     0.163 HD
ATOM     30  O   UNL A   1      32.779  35.704  28.590  1.00  0.00    -0.269 OA
BRANCH  28  31
ATOM     31  C   UNL A   1      34.330  34.065  29.202  1.00  0.00     0.039 A 
ATOM     32  C   UNL A   1      34.114  33.406  30.414  1.00  0.00     0.014 A 
ATOM     33  C   UNL A   1      35.598  34.141  28.626  1.00  0.00     0.014 A 
ATOM     34  C   UNL A   1      35.175  32.735  31.019  1.00  0.00     0.010 A 
ATOM     35  C   UNL A   1      36.628  33.406  29.186  1.00  0.00     0.010 A 
ATOM     36  C   UNL A   1      36.423  32.693  30.380  1.00  0.00    -0.014 A 
BRANCH  36  37
ATOM     37  C   UNL A   1      37.566  31.926  30.919  1.00  0.00     0.031 A 
ATOM     38  C   UNL A   1      38.354  32.518  32.048  1.00  0.00     0.074 A 
ATOM     39  C   UNL A   1      37.972  30.802  30.299  1.00  0.00     0.049 A 
ATOM     40  N   UNL A   1      39.532  32.180  32.502  1.00  0.00    -0.248 NA
ATOM     41  C   UNL A   1      37.757  33.686  32.719  1.00  0.00     0.031 C 
ATOM     42  C   UNL A   1      37.292  30.153  29.175  1.00  0.00     0.029 A 
ATOM     43  N   UNL A   1      39.083  30.026  30.507  1.00  0.00    -0.354 N 
ATOM     44  C   UNL A   1      39.835  33.121  33.478  1.00  0.00     0.074 A 
ATOM     45  C   UNL A   1      38.738  34.062  33.524  1.00  0.00     0.031 C 
ATOM     46  C   UNL A   1      38.001  29.077  28.795  1.00  0.00     0.029 A 
ATOM     47  C   UNL A   1      39.208  28.994  29.609  1.00  0.00     0.049 A 
ATOM     48  H   UNL A   1      39.730  30.192  31.231  1.00  0.00     0.167 HD
ATOM     49  C   UNL A   1      40.930  33.186  34.269  1.00  0.00     0.031 A 
ATOM     50  C   UNL A   1      40.202  28.102  29.445  1.00  0.00     0.031 A 
ATOM     51  C   UNL A   1      41.998  32.225  34.226  1.00  0.00     0.049 A 
ATOM     52  C   UNL A   1      41.410  28.194  30.336  1.00  0.00     0.074 A 
ATOM     53  C   UNL A   1      43.122  32.147  35.028  1.00  0.00     0.029 A 
ATOM     54  N   UNL A   1      42.065  31.169  33.330  1.00  0.00    -0.354 N 
ATOM     55  N   UNL A   1      41.667  29.060  31.287  1.00  0.00    -0.248 NA
ATOM     56  C   UNL A   1      42.463  27.192  30.128  1.00  0.00     0.031 C 
ATOM     57  C   UNL A   1      43.892  31.067  34.586  1.00  0.00     0.029 A 
ATOM     58  C   UNL A   1      43.225  30.445  33.543  1.00  0.00     0.049 A 
ATOM     59  H   UNL A   1      41.389  30.965  32.645  1.00  0.00     0.167 HD
ATOM     60  C   UNL A   1      42.904  28.697  31.804  1.00  0.00     0.074 A 
ATOM     61  C   UNL A   1      43.335  27.522  31.071  1.00  0.00     0.031 C 
ATOM     62  C   UNL A   1      43.624  29.283  32.792  1.00  0.00     0.031 A 
BRANCH  49  63
ATOM     63  C   UNL A   1      41.021  34.338  35.229  1.00  0.00    -0.014 A 
ATOM     64  C   UNL A   1      41.667  35.534  34.876  1.00  0.00     0.009 A 
ATOM     65  C   UNL A   1      40.447  34.230  36.505  1.00  0.00     0.009 A 
ATOM     66  C   UNL A   1      41.774  36.580  35.795  1.00  0.00     0.001 A 
ATOM     67  C   UNL A   1      40.529  35.288  37.412  1.00  0.00     0.001 A 
ATOM     68  C   UNL A   1      41.202  36.456  37.061  1.00  0.00     0.000 A 
ENDBRANCH  49  63
BRANCH  50  69
ATOM     69  C   UNL A   1      40.102  27.056  28.393  1.00  0.00    -0.014 A 
ATOM     70  C   UNL A   1      40.658  27.274  27.123  1.00  0.00     0.009 A 
ATOM     71  C   UNL A   1      39.462  25.833  28.650  1.00  0.00     0.009 A 
ATOM     72  C   UNL A   1      40.560  26.299  26.128  1.00  0.00     0.001 A 
ATOM     73  C   UNL A   1      39.390  24.848  27.662  1.00  0.00     0.001 A 
ATOM     74  C   UNL A   1      39.932  25.084  26.400  1.00  0.00     0.000 A 
ENDBRANCH  50  69
BRANCH  62  75
ATOM     75  C   UNL A   1      44.937  28.650  33.146  1.00  0.00    -0.014 A 
ATOM     76  C   UNL A   1      46.129  29.075  32.544  1.00  0.00     0.009 A 
ATOM     77  C   UNL A   1      44.984  27.656  34.136  1.00  0.00     0.009 A 
ATOM     78  C   UNL A   1      47.347  28.500  32.913  1.00  0.00     0.001 A 
ATOM     79  C   UNL A   1      46.205  27.103  34.521  1.00  0.00     0.001 A 
ATOM     80  C   UNL A   1      47.383  27.520  33.904  1.00  0.00     0.000 A 
ENDBRANCH  62  75
ENDBRANCH  36  37
ENDBRANCH  28  31
ENDBRANCH  26  27
ENDBRANCH  25  26
ENDBRANCH   1  25
TORSDOF 15
ENDMDL
