MODEL 1
REMARK VINA RESULT:     -10.8      0.000      0.000
REMARK SMILES O=C(C[N@@H+]1C[C@@]2([N+](=O)[O-])CC=C(Cl)[C@@]([N+](=O)[O-])(C1)C2)NCCCCNC(=O)c1ccc(-c2c3nc(c(-c4ccccc4)c4ccc([nH]4)c(-c4ccccc4)c4nc(c(-c5ccccc5)c5ccc2[nH]5)C=C4)C=C3)cc1
REMARK SMILES IDX 22 1 21 2 20 3 1 4 2 5 3 7 4 8 5 9 18 10 6 12 14 13 10 14
REMARK SMILES IDX 19 15 12 16 11 17 13 18 7 19 8 20 9 21 15 22 16 23 17 24
REMARK SMILES IDX 23 25 24 26 25 27 26 28 27 30 28 31 29 32 75 33 30 34 74 35
REMARK SMILES IDX 31 36 32 37 33 38 68 39 34 40 73 41 67 42 69 43 35 44 72 45
REMARK SMILES IDX 66 46 65 47 36 49 58 50 43 51 57 52 44 53 47 54 56 55 70 56
REMARK SMILES IDX 45 57 46 58 55 60 71 61 48 62 37 63 38 64 42 65 39 66 41 67
REMARK SMILES IDX 40 68 59 69 60 70 64 71 61 72 63 73 62 74 49 75 50 76 54 77
REMARK SMILES IDX 51 78 53 79 52 80
REMARK H PARENT 20 6 4 11 25 29 69 48 47 59
REMARK Flexibility Score: inf
ROOT
ATOM      1  C   UNL A   1      34.879  33.794  28.994  1.00  0.00     0.023 C 
ENDROOT
BRANCH   1   2
ATOM      2  C   UNL A   1      35.050  32.512  28.175  1.00  0.00     0.116 C 
BRANCH   2   3
ATOM      3  N   UNL A   1      33.812  31.767  28.063  1.00  0.00    -0.351 N 
ATOM      4  O   UNL A   1      34.653  30.038  26.817  1.00  0.00    -0.269 OA
ATOM      5  C   UNL A   1      33.698  30.584  27.368  1.00  0.00     0.275 C 
ATOM      6  H   UNL A   1      33.010  32.127  28.506  1.00  0.00     0.163 HD
BRANCH   5   7
ATOM      7  C   UNL A   1      32.269  30.025  27.233  1.00  0.00     0.363 C 
BRANCH   7   8
ATOM      8  N   UNL A   1      32.142  29.106  26.076  1.00  0.00    -0.315 N 
ATOM      9  C   UNL A   1      31.261  29.677  25.026  1.00  0.00     0.350 C 
ATOM     10  C   UNL A   1      31.670  27.750  26.465  1.00  0.00     0.356 C 
ATOM     11  H   UNL A   1      33.083  29.000  25.695  1.00  0.00     0.348 HD
ATOM     12  C   UNL A   1      31.123  28.753  23.787  1.00  0.00     0.280 C 
ATOM     13  C   UNL A   1      31.643  26.802  25.233  1.00  0.00     0.311 C 
ATOM     14  C   UNL A   1      32.451  28.575  23.003  1.00  0.00     0.121 C 
ATOM     15  C   UNL A   1      30.618  27.365  24.222  1.00  0.00     0.191 C 
ATOM     16  C   UNL A   1      33.025  26.721  24.596  1.00  0.00     0.097 C 
ATOM     17  C   UNL A   1      33.380  27.530  23.580  1.00  0.00     0.004 C 
ATOM     18  Cl  UNL A   1      34.209  25.663  25.284  1.00  0.00    -0.081 Cl
BRANCH  12  19
ATOM     19  N   UNL A   1      30.086  29.412  22.889  1.00  0.00     0.032 N 
ATOM     20  O   UNL A   1      29.501  30.414  23.316  1.00  0.00    -0.264 OA
ATOM     21  O   UNL A   1      29.856  28.868  21.801  1.00  0.00    -0.264 OA
ENDBRANCH  12  19
BRANCH  13  22
ATOM     22  N   UNL A   1      31.178  25.414  25.651  1.00  0.00     0.038 N 
ATOM     23  O   UNL A   1      31.117  25.165  26.863  1.00  0.00    -0.263 OA
ATOM     24  O   UNL A   1      30.880  24.618  24.750  1.00  0.00    -0.263 OA
ENDBRANCH  13  22
ENDBRANCH   7   8
ENDBRANCH   5   7
ENDBRANCH   2   3
ENDBRANCH   1   2
BRANCH   1  25
ATOM     25  C   UNL A   1      33.485  34.428  28.933  1.00  0.00     0.023 C 
BRANCH  25  26
ATOM     26  C   UNL A   1      33.402  35.882  29.389  1.00  0.00     0.116 C 
BRANCH  26  27
ATOM     27  N   UNL A   1      32.504  36.078  30.514  1.00  0.00    -0.352 N 
ATOM     28  C   UNL A   1      32.613  35.645  31.814  1.00  0.00     0.251 C 
ATOM     29  H   UNL A   1      31.695  36.602  30.316  1.00  0.00     0.163 HD
ATOM     30  O   UNL A   1      31.674  35.807  32.591  1.00  0.00    -0.269 OA
BRANCH  28  31
ATOM     31  C   UNL A   1      33.836  34.953  32.283  1.00  0.00     0.039 A 
ATOM     32  C   UNL A   1      33.726  33.638  32.744  1.00  0.00     0.014 A 
ATOM     33  C   UNL A   1      35.081  35.587  32.285  1.00  0.00     0.014 A 
ATOM     34  C   UNL A   1      34.870  32.937  33.136  1.00  0.00     0.010 A 
ATOM     35  C   UNL A   1      36.230  34.864  32.603  1.00  0.00     0.010 A 
ATOM     36  C   UNL A   1      36.139  33.530  33.030  1.00  0.00    -0.014 A 
BRANCH  36  37
ATOM     37  C   UNL A   1      37.375  32.766  33.342  1.00  0.00     0.031 A 
ATOM     38  C   UNL A   1      38.122  33.011  34.626  1.00  0.00     0.074 A 
ATOM     39  C   UNL A   1      37.863  31.888  32.443  1.00  0.00     0.049 A 
ATOM     40  N   UNL A   1      39.245  32.479  35.043  1.00  0.00    -0.248 NA
ATOM     41  C   UNL A   1      37.544  33.997  35.553  1.00  0.00     0.031 C 
ATOM     42  C   UNL A   1      37.258  31.578  31.146  1.00  0.00     0.029 A 
ATOM     43  N   UNL A   1      38.986  31.098  32.481  1.00  0.00    -0.354 N 
ATOM     44  C   UNL A   1      39.512  33.074  36.270  1.00  0.00     0.074 A 
ATOM     45  C   UNL A   1      38.464  34.043  36.506  1.00  0.00     0.031 C 
ATOM     46  C   UNL A   1      38.001  30.649  30.524  1.00  0.00     0.029 A 
ATOM     47  C   UNL A   1      39.159  30.331  31.354  1.00  0.00     0.049 A 
ATOM     48  H   UNL A   1      39.609  31.083  33.243  1.00  0.00     0.167 HD
ATOM     49  C   UNL A   1      40.526  32.825  37.133  1.00  0.00     0.031 A 
ATOM     50  C   UNL A   1      40.144  29.477  31.016  1.00  0.00     0.031 A 
ATOM     51  C   UNL A   1      41.574  31.864  36.900  1.00  0.00     0.049 A 
ATOM     52  C   UNL A   1      41.279  29.244  31.975  1.00  0.00     0.074 A 
ATOM     53  C   UNL A   1      42.618  31.510  37.735  1.00  0.00     0.029 A 
ATOM     54  N   UNL A   1      41.713  31.113  35.743  1.00  0.00    -0.354 N 
ATOM     55  N   UNL A   1      41.479  29.765  33.161  1.00  0.00    -0.248 NA
ATOM     56  C   UNL A   1      42.318  28.296  31.551  1.00  0.00     0.031 C 
ATOM     57  C   UNL A   1      43.425  30.588  37.059  1.00  0.00     0.029 A 
ATOM     58  C   UNL A   1      42.845  30.317  35.832  1.00  0.00     0.049 A 
ATOM     59  H   UNL A   1      41.101  31.140  34.973  1.00  0.00     0.167 HD
ATOM     60  C   UNL A   1      42.649  29.186  33.636  1.00  0.00     0.074 A 
ATOM     61  C   UNL A   1      43.103  28.261  32.619  1.00  0.00     0.031 C 
ATOM     62  C   UNL A   1      43.289  29.401  34.813  1.00  0.00     0.031 A 
BRANCH  49  63
ATOM     63  C   UNL A   1      40.558  33.617  38.412  1.00  0.00    -0.014 A 
ATOM     64  C   UNL A   1      39.925  33.151  39.575  1.00  0.00     0.009 A 
ATOM     65  C   UNL A   1      41.262  34.831  38.466  1.00  0.00     0.009 A 
ATOM     66  C   UNL A   1      39.960  33.902  40.752  1.00  0.00     0.001 A 
ATOM     67  C   UNL A   1      41.323  35.564  39.652  1.00  0.00     0.001 A 
ATOM     68  C   UNL A   1      40.665  35.105  40.791  1.00  0.00     0.000 A 
ENDBRANCH  49  63
BRANCH  50  69
ATOM     69  C   UNL A   1      40.102  28.770  29.708  1.00  0.00    -0.014 A 
ATOM     70  C   UNL A   1      40.643  29.362  28.557  1.00  0.00     0.009 A 
ATOM     71  C   UNL A   1      39.510  27.501  29.602  1.00  0.00     0.009 A 
ATOM     72  C   UNL A   1      40.566  28.713  27.323  1.00  0.00     0.001 A 
ATOM     73  C   UNL A   1      39.465  26.839  28.373  1.00  0.00     0.001 A 
ATOM     74  C   UNL A   1      39.982  27.450  27.232  1.00  0.00     0.000 A 
ENDBRANCH  50  69
BRANCH  62  75
ATOM     75  C   UNL A   1      44.528  28.592  35.082  1.00  0.00    -0.014 A 
ATOM     76  C   UNL A   1      45.803  29.066  34.739  1.00  0.00     0.009 A 
ATOM     77  C   UNL A   1      44.418  27.350  35.727  1.00  0.00     0.009 A 
ATOM     78  C   UNL A   1      46.938  28.297  35.003  1.00  0.00     0.001 A 
ATOM     79  C   UNL A   1      45.556  26.598  36.020  1.00  0.00     0.001 A 
ATOM     80  C   UNL A   1      46.814  27.067  35.648  1.00  0.00     0.000 A 
ENDBRANCH  62  75
ENDBRANCH  36  37
ENDBRANCH  28  31
ENDBRANCH  26  27
ENDBRANCH  25  26
ENDBRANCH   1  25
TORSDOF 14
ENDMDL
MODEL 2
REMARK VINA RESULT:     -10.8      5.347     10.185
REMARK SMILES O=C(C[N@@H+]1C[C@@]2([N+](=O)[O-])CC=C(Cl)[C@@]([N+](=O)[O-])(C1)C2)NCCCCNC(=O)c1ccc(-c2c3nc(c(-c4ccccc4)c4ccc([nH]4)c(-c4ccccc4)c4nc(c(-c5ccccc5)c5ccc2[nH]5)C=C4)C=C3)cc1
REMARK SMILES IDX 22 1 21 2 20 3 1 4 2 5 3 7 4 8 5 9 18 10 6 12 14 13 10 14
REMARK SMILES IDX 19 15 12 16 11 17 13 18 7 19 8 20 9 21 15 22 16 23 17 24
REMARK SMILES IDX 23 25 24 26 25 27 26 28 27 30 28 31 29 32 75 33 30 34 74 35
REMARK SMILES IDX 31 36 32 37 33 38 68 39 34 40 73 41 67 42 69 43 35 44 72 45
REMARK SMILES IDX 66 46 65 47 36 49 58 50 43 51 57 52 44 53 47 54 56 55 70 56
REMARK SMILES IDX 45 57 46 58 55 60 71 61 48 62 37 63 38 64 42 65 39 66 41 67
REMARK SMILES IDX 40 68 59 69 60 70 64 71 61 72 63 73 62 74 49 75 50 76 54 77
REMARK SMILES IDX 51 78 53 79 52 80
REMARK H PARENT 20 6 4 11 25 29 69 48 47 59
REMARK Flexibility Score: inf
ROOT
ATOM      1  C   UNL A   1      36.376  20.883  25.025  1.00  0.00     0.023 C 
ENDROOT
BRANCH   1   2
ATOM      2  C   UNL A   1      35.090  20.056  25.096  1.00  0.00     0.116 C 
BRANCH   2   3
ATOM      3  N   UNL A   1      33.920  20.885  25.305  1.00  0.00    -0.351 N 
ATOM      4  O   UNL A   1      32.363  19.284  24.791  1.00  0.00    -0.269 OA
ATOM      5  C   UNL A   1      32.630  20.439  25.115  1.00  0.00     0.275 C 
ATOM      6  H   UNL A   1      34.053  21.815  25.597  1.00  0.00     0.163 HD
BRANCH   5   7
ATOM      7  C   UNL A   1      31.531  21.512  25.238  1.00  0.00     0.363 C 
BRANCH   7   8
ATOM      8  N   UNL A   1      32.057  22.874  24.979  1.00  0.00    -0.315 N 
ATOM      9  C   UNL A   1      31.138  23.916  25.503  1.00  0.00     0.350 C 
ATOM     10  C   UNL A   1      32.347  23.118  23.541  1.00  0.00     0.356 C 
ATOM     11  H   UNL A   1      32.944  22.934  25.481  1.00  0.00     0.348 HD
ATOM     12  C   UNL A   1      31.666  25.357  25.273  1.00  0.00     0.280 C 
ATOM     13  C   UNL A   1      32.981  24.523  23.339  1.00  0.00     0.311 C 
ATOM     14  C   UNL A   1      32.962  25.669  26.069  1.00  0.00     0.121 C 
ATOM     15  C   UNL A   1      31.942  25.581  23.776  1.00  0.00     0.191 C 
ATOM     16  C   UNL A   1      34.253  24.657  24.168  1.00  0.00     0.097 C 
ATOM     17  C   UNL A   1      34.233  25.182  25.407  1.00  0.00     0.004 C 
ATOM     18  Cl  UNL A   1      35.729  23.991  23.559  1.00  0.00    -0.081 Cl
BRANCH  12  19
ATOM     19  N   UNL A   1      30.553  26.288  25.730  1.00  0.00     0.032 N 
ATOM     20  O   UNL A   1      30.716  26.915  26.783  1.00  0.00    -0.264 OA
ATOM     21  O   UNL A   1      29.526  26.320  25.039  1.00  0.00    -0.264 OA
ENDBRANCH  12  19
BRANCH  13  22
ATOM     22  N   UNL A   1      33.291  24.749  21.865  1.00  0.00     0.038 N 
ATOM     23  O   UNL A   1      33.594  25.896  21.506  1.00  0.00    -0.263 OA
ATOM     24  O   UNL A   1      33.229  23.767  21.114  1.00  0.00    -0.263 OA
ENDBRANCH  13  22
ENDBRANCH   7   8
ENDBRANCH   5   7
ENDBRANCH   2   3
ENDBRANCH   1   2
BRANCH   1  25
ATOM     25  C   UNL A   1      37.664  20.076  24.826  1.00  0.00     0.023 C 
BRANCH  25  26
ATOM     26  C   UNL A   1      38.827  20.456  25.737  1.00  0.00     0.116 C 
BRANCH  26  27
ATOM     27  N   UNL A   1      39.885  19.459  25.758  1.00  0.00    -0.352 N 
ATOM     28  C   UNL A   1      41.212  19.590  26.088  1.00  0.00     0.251 C 
ATOM     29  H   UNL A   1      39.607  18.551  25.497  1.00  0.00     0.163 HD
ATOM     30  O   UNL A   1      41.979  18.643  25.915  1.00  0.00    -0.269 OA
BRANCH  28  31
ATOM     31  C   UNL A   1      41.740  20.869  26.616  1.00  0.00     0.039 A 
ATOM     32  C   UNL A   1      42.210  21.824  25.710  1.00  0.00     0.014 A 
ATOM     33  C   UNL A   1      41.789  21.130  27.988  1.00  0.00     0.014 A 
ATOM     34  C   UNL A   1      42.658  23.065  26.174  1.00  0.00     0.010 A 
ATOM     35  C   UNL A   1      42.163  22.393  28.443  1.00  0.00     0.010 A 
ATOM     36  C   UNL A   1      42.600  23.376  27.542  1.00  0.00    -0.014 A 
BRANCH  36  37
ATOM     37  C   UNL A   1      42.973  24.726  28.041  1.00  0.00     0.031 A 
ATOM     38  C   UNL A   1      41.917  25.772  28.282  1.00  0.00     0.074 A 
ATOM     39  C   UNL A   1      44.273  25.035  28.224  1.00  0.00     0.049 A 
ATOM     40  N   UNL A   1      42.061  27.017  28.663  1.00  0.00    -0.248 NA
ATOM     41  C   UNL A   1      40.522  25.373  28.043  1.00  0.00     0.031 C 
ATOM     42  C   UNL A   1      45.400  24.128  27.997  1.00  0.00     0.029 A 
ATOM     43  N   UNL A   1      44.866  26.203  28.637  1.00  0.00    -0.354 N 
ATOM     44  C   UNL A   1      40.778  27.552  28.697  1.00  0.00     0.074 A 
ATOM     45  C   UNL A   1      39.877  26.513  28.248  1.00  0.00     0.031 C 
ATOM     46  C   UNL A   1      46.543  24.763  28.297  1.00  0.00     0.029 A 
ATOM     47  C   UNL A   1      46.238  26.135  28.691  1.00  0.00     0.049 A 
ATOM     48  H   UNL A   1      44.357  27.012  28.872  1.00  0.00     0.167 HD
ATOM     49  C   UNL A   1      40.382  28.788  29.084  1.00  0.00     0.031 A 
ATOM     50  C   UNL A   1      47.151  27.072  29.009  1.00  0.00     0.031 A 
ATOM     51  C   UNL A   1      41.276  29.826  29.527  1.00  0.00     0.049 A 
ATOM     52  C   UNL A   1      46.689  28.449  29.399  1.00  0.00     0.074 A 
ATOM     53  C   UNL A   1      40.965  31.095  29.981  1.00  0.00     0.029 A 
ATOM     54  N   UNL A   1      42.658  29.717  29.561  1.00  0.00    -0.354 N 
ATOM     55  N   UNL A   1      45.467  28.916  29.492  1.00  0.00    -0.248 NA
ATOM     56  C   UNL A   1      47.733  29.425  29.740  1.00  0.00     0.031 C 
ATOM     57  C   UNL A   1      42.161  31.776  30.233  1.00  0.00     0.029 A 
ATOM     58  C   UNL A   1      43.214  30.907  30.002  1.00  0.00     0.049 A 
ATOM     59  H   UNL A   1      43.169  28.914  29.309  1.00  0.00     0.167 HD
ATOM     60  C   UNL A   1      45.596  30.228  29.930  1.00  0.00     0.074 A 
ATOM     61  C   UNL A   1      47.012  30.476  30.102  1.00  0.00     0.031 C 
ATOM     62  C   UNL A   1      44.625  31.144  30.169  1.00  0.00     0.031 A 
BRANCH  49  63
ATOM     63  C   UNL A   1      38.909  29.091  29.033  1.00  0.00    -0.014 A 
ATOM     64  C   UNL A   1      38.102  28.981  30.177  1.00  0.00     0.009 A 
ATOM     65  C   UNL A   1      38.325  29.528  27.834  1.00  0.00     0.009 A 
ATOM     66  C   UNL A   1      36.735  29.261  30.111  1.00  0.00     0.001 A 
ATOM     67  C   UNL A   1      36.965  29.839  27.778  1.00  0.00     0.001 A 
ATOM     68  C   UNL A   1      36.169  29.696  28.913  1.00  0.00     0.000 A 
ENDBRANCH  49  63
BRANCH  50  69
ATOM     69  C   UNL A   1      48.601  26.742  28.975  1.00  0.00    -0.014 A 
ATOM     70  C   UNL A   1      49.356  26.952  27.811  1.00  0.00     0.009 A 
ATOM     71  C   UNL A   1      49.237  26.205  30.106  1.00  0.00     0.009 A 
ATOM     72  C   UNL A   1      50.708  26.604  27.771  1.00  0.00     0.001 A 
ATOM     73  C   UNL A   1      50.596  25.889  30.074  1.00  0.00     0.001 A 
ATOM     74  C   UNL A   1      51.328  26.077  28.904  1.00  0.00     0.000 A 
ENDBRANCH  50  69
BRANCH  62  75
ATOM     75  C   UNL A   1      45.059  32.490  30.683  1.00  0.00    -0.014 A 
ATOM     76  C   UNL A   1      45.327  33.557  29.812  1.00  0.00     0.009 A 
ATOM     77  C   UNL A   1      45.161  32.702  32.067  1.00  0.00     0.009 A 
ATOM     78  C   UNL A   1      45.725  34.798  30.316  1.00  0.00     0.001 A 
ATOM     79  C   UNL A   1      45.527  33.952  32.570  1.00  0.00     0.001 A 
ATOM     80  C   UNL A   1      45.819  34.995  31.693  1.00  0.00     0.000 A 
ENDBRANCH  62  75
ENDBRANCH  36  37
ENDBRANCH  28  31
ENDBRANCH  26  27
ENDBRANCH  25  26
ENDBRANCH   1  25
TORSDOF 14
ENDMDL
MODEL 3
REMARK VINA RESULT:     -10.7      5.020     10.006
REMARK SMILES O=C(C[N@@H+]1C[C@@]2([N+](=O)[O-])CC=C(Cl)[C@@]([N+](=O)[O-])(C1)C2)NCCCCNC(=O)c1ccc(-c2c3nc(c(-c4ccccc4)c4ccc([nH]4)c(-c4ccccc4)c4nc(c(-c5ccccc5)c5ccc2[nH]5)C=C4)C=C3)cc1
REMARK SMILES IDX 22 1 21 2 20 3 1 4 2 5 3 7 4 8 5 9 18 10 6 12 14 13 10 14
REMARK SMILES IDX 19 15 12 16 11 17 13 18 7 19 8 20 9 21 15 22 16 23 17 24
REMARK SMILES IDX 23 25 24 26 25 27 26 28 27 30 28 31 29 32 75 33 30 34 74 35
REMARK SMILES IDX 31 36 32 37 33 38 68 39 34 40 73 41 67 42 69 43 35 44 72 45
REMARK SMILES IDX 66 46 65 47 36 49 58 50 43 51 57 52 44 53 47 54 56 55 70 56
REMARK SMILES IDX 45 57 46 58 55 60 71 61 48 62 37 63 38 64 42 65 39 66 41 67
REMARK SMILES IDX 40 68 59 69 60 70 64 71 61 72 63 73 62 74 49 75 50 76 54 77
REMARK SMILES IDX 51 78 53 79 52 80
REMARK H PARENT 20 6 4 11 25 29 69 48 47 59
REMARK Flexibility Score: inf
ROOT
ATOM      1  C   UNL A   1      36.169  19.639  25.043  1.00  0.00     0.023 C 
ENDROOT
BRANCH   1   2
ATOM      2  C   UNL A   1      35.033  20.595  24.670  1.00  0.00     0.116 C 
BRANCH   2   3
ATOM      3  N   UNL A   1      35.460  21.980  24.685  1.00  0.00    -0.351 N 
ATOM      4  O   UNL A   1      34.888  22.412  26.861  1.00  0.00    -0.269 OA
ATOM      5  C   UNL A   1      35.336  22.801  25.784  1.00  0.00     0.275 C 
ATOM      6  H   UNL A   1      35.858  22.354  23.866  1.00  0.00     0.163 HD
BRANCH   5   7
ATOM      7  C   UNL A   1      35.701  24.280  25.555  1.00  0.00     0.363 C 
BRANCH   7   8
ATOM      8  N   UNL A   1      34.503  25.108  25.275  1.00  0.00    -0.315 N 
ATOM      9  C   UNL A   1      33.337  24.659  26.077  1.00  0.00     0.350 C 
ATOM     10  C   UNL A   1      34.152  25.146  23.831  1.00  0.00     0.356 C 
ATOM     11  H   UNL A   1      34.747  26.060  25.552  1.00  0.00     0.348 HD
ATOM     12  C   UNL A   1      32.069  25.518  25.830  1.00  0.00     0.280 C 
ATOM     13  C   UNL A   1      32.949  26.099  23.582  1.00  0.00     0.311 C 
ATOM     14  C   UNL A   1      32.218  26.986  26.310  1.00  0.00     0.121 C 
ATOM     15  C   UNL A   1      31.725  25.524  24.329  1.00  0.00     0.191 C 
ATOM     16  C   UNL A   1      33.268  27.500  24.088  1.00  0.00     0.097 C 
ATOM     17  C   UNL A   1      32.929  27.894  25.329  1.00  0.00     0.004 C 
ATOM     18  Cl  UNL A   1      34.211  28.560  23.096  1.00  0.00    -0.081 Cl
BRANCH  12  19
ATOM     19  N   UNL A   1      30.948  24.841  26.605  1.00  0.00     0.032 N 
ATOM     20  O   UNL A   1      31.225  23.830  27.261  1.00  0.00    -0.264 OA
ATOM     21  O   UNL A   1      29.812  25.319  26.487  1.00  0.00    -0.264 OA
ENDBRANCH  12  19
BRANCH  13  22
ATOM     22  N   UNL A   1      32.616  26.143  22.097  1.00  0.00     0.038 N 
ATOM     23  O   UNL A   1      31.511  26.594  21.764  1.00  0.00    -0.263 OA
ATOM     24  O   UNL A   1      33.477  25.730  21.308  1.00  0.00    -0.263 OA
ENDBRANCH  13  22
ENDBRANCH   7   8
ENDBRANCH   5   7
ENDBRANCH   2   3
ENDBRANCH   1   2
BRANCH   1  25
ATOM     25  C   UNL A   1      37.564  20.063  24.569  1.00  0.00     0.023 C 
BRANCH  25  26
ATOM     26  C   UNL A   1      38.578  20.343  25.673  1.00  0.00     0.116 C 
BRANCH  26  27
ATOM     27  N   UNL A   1      39.680  19.395  25.691  1.00  0.00    -0.352 N 
ATOM     28  C   UNL A   1      40.996  19.580  26.040  1.00  0.00     0.251 C 
ATOM     29  H   UNL A   1      39.447  18.480  25.413  1.00  0.00     0.163 HD
ATOM     30  O   UNL A   1      41.806  18.672  25.862  1.00  0.00    -0.269 OA
BRANCH  28  31
ATOM     31  C   UNL A   1      41.459  20.873  26.596  1.00  0.00     0.039 A 
ATOM     32  C   UNL A   1      42.011  21.817  25.725  1.00  0.00     0.014 A 
ATOM     33  C   UNL A   1      41.367  21.158  27.960  1.00  0.00     0.014 A 
ATOM     34  C   UNL A   1      42.401  23.069  26.208  1.00  0.00     0.010 A 
ATOM     35  C   UNL A   1      41.685  22.432  28.428  1.00  0.00     0.010 A 
ATOM     36  C   UNL A   1      42.204  23.404  27.558  1.00  0.00    -0.014 A 
BRANCH  36  37
ATOM     37  C   UNL A   1      42.515  24.765  28.067  1.00  0.00     0.031 A 
ATOM     38  C   UNL A   1      43.912  25.117  28.506  1.00  0.00     0.074 A 
ATOM     39  C   UNL A   1      41.528  25.674  28.191  1.00  0.00     0.049 A 
ATOM     40  N   UNL A   1      44.357  26.234  29.026  1.00  0.00    -0.248 NA
ATOM     41  C   UNL A   1      44.936  24.070  28.361  1.00  0.00     0.031 C 
ATOM     42  C   UNL A   1      40.124  25.456  27.834  1.00  0.00     0.029 A 
ATOM     43  N   UNL A   1      41.553  26.965  28.659  1.00  0.00    -0.354 N 
ATOM     44  C   UNL A   1      45.706  26.020  29.281  1.00  0.00     0.074 A 
ATOM     45  C   UNL A   1      45.994  24.652  28.908  1.00  0.00     0.031 C 
ATOM     46  C   UNL A   1      39.430  26.580  28.072  1.00  0.00     0.029 A 
ATOM     47  C   UNL A   1      40.325  27.582  28.642  1.00  0.00     0.049 A 
ATOM     48  H   UNL A   1      42.373  27.408  28.976  1.00  0.00     0.167 HD
ATOM     49  C   UNL A   1      46.628  26.886  29.765  1.00  0.00     0.031 A 
ATOM     50  C   UNL A   1      39.954  28.811  29.049  1.00  0.00     0.031 A 
ATOM     51  C   UNL A   1      46.345  28.247  30.141  1.00  0.00     0.049 A 
ATOM     52  C   UNL A   1      40.988  29.743  29.617  1.00  0.00     0.074 A 
ATOM     53  C   UNL A   1      47.222  29.215  30.598  1.00  0.00     0.029 A 
ATOM     54  N   UNL A   1      45.087  28.829  30.112  1.00  0.00    -0.354 N 
ATOM     55  N   UNL A   1      42.273  29.546  29.787  1.00  0.00    -0.248 NA
ATOM     56  C   UNL A   1      40.522  31.071  30.038  1.00  0.00     0.031 C 
ATOM     57  C   UNL A   1      46.485  30.364  30.905  1.00  0.00     0.029 A 
ATOM     58  C   UNL A   1      45.161  30.135  30.572  1.00  0.00     0.049 A 
ATOM     59  H   UNL A   1      44.264  28.382  29.812  1.00  0.00     0.167 HD
ATOM     60  C   UNL A   1      42.772  30.735  30.307  1.00  0.00     0.074 A 
ATOM     61  C   UNL A   1      41.655  31.651  30.405  1.00  0.00     0.031 C 
ATOM     62  C   UNL A   1      44.043  31.038  30.668  1.00  0.00     0.031 A 
BRANCH  49  63
ATOM     63  C   UNL A   1      48.037  26.381  29.926  1.00  0.00    -0.014 A 
ATOM     64  C   UNL A   1      48.975  26.491  28.887  1.00  0.00     0.009 A 
ATOM     65  C   UNL A   1      48.444  25.820  31.146  1.00  0.00     0.009 A 
ATOM     66  C   UNL A   1      50.276  26.012  29.051  1.00  0.00     0.001 A 
ATOM     67  C   UNL A   1      49.755  25.372  31.320  1.00  0.00     0.001 A 
ATOM     68  C   UNL A   1      50.667  25.459  30.270  1.00  0.00     0.000 A 
ENDBRANCH  49  63
BRANCH  50  69
ATOM     69  C   UNL A   1      38.533  29.238  28.933  1.00  0.00    -0.014 A 
ATOM     70  C   UNL A   1      38.034  29.740  27.723  1.00  0.00     0.009 A 
ATOM     71  C   UNL A   1      37.671  29.154  30.038  1.00  0.00     0.009 A 
ATOM     72  C   UNL A   1      36.710  30.178  27.629  1.00  0.00     0.001 A 
ATOM     73  C   UNL A   1      36.340  29.561  29.933  1.00  0.00     0.001 A 
ATOM     74  C   UNL A   1      35.863  30.083  28.732  1.00  0.00     0.000 A 
ENDBRANCH  50  69
BRANCH  62  75
ATOM     75  C   UNL A   1      44.305  32.434  31.166  1.00  0.00    -0.014 A 
ATOM     76  C   UNL A   1      44.616  33.481  30.286  1.00  0.00     0.009 A 
ATOM     77  C   UNL A   1      44.197  32.710  32.538  1.00  0.00     0.009 A 
ATOM     78  C   UNL A   1      44.851  34.768  30.774  1.00  0.00     0.001 A 
ATOM     79  C   UNL A   1      44.399  34.004  33.020  1.00  0.00     0.001 A 
ATOM     80  C   UNL A   1      44.737  35.030  32.138  1.00  0.00     0.000 A 
ENDBRANCH  62  75
ENDBRANCH  36  37
ENDBRANCH  28  31
ENDBRANCH  26  27
ENDBRANCH  25  26
ENDBRANCH   1  25
TORSDOF 14
ENDMDL
