MODEL 1
REMARK VINA RESULT:     -10.9      0.000      0.000
REMARK SMILES C#CCNC(=O)[C@H](C)S(=O)(=O)c1ccc(C(=O)NCCCCNC(=O)c2ccc(-c3c4nc(c(-c5ccccc5)c5ccc([nH]5)c(-c5ccccc5)c5nc(c(-c6ccccc6)c6ccc3[nH]6)C=C5)C=C4)cc2)cc1F
REMARK SMILES IDX 19 1 18 2 16 3 17 4 15 6 12 7 13 8 75 9 14 10 74 11 76 12
REMARK SMILES IDX 9 13 10 14 11 15 7 16 8 17 5 18 4 19 6 21 3 22 2 23 1 24
REMARK SMILES IDX 20 25 21 26 22 27 23 28 24 29 25 31 26 32 27 33 73 34 28 35
REMARK SMILES IDX 72 36 29 37 30 38 31 39 66 40 32 41 71 42 65 43 67 44 33 45
REMARK SMILES IDX 70 46 64 47 63 48 34 50 56 51 41 52 55 53 42 54 45 55 54 56
REMARK SMILES IDX 68 57 43 58 44 59 53 61 69 62 46 63 35 64 36 65 40 66 37 67
REMARK SMILES IDX 39 68 38 69 57 70 58 71 62 72 59 73 61 74 60 75 47 76 48 77
REMARK SMILES IDX 52 78 49 79 51 80 50 81
REMARK H PARENT 18 5 4 20 23 30 67 49 45 60
REMARK Flexibility Score: inf
ROOT
ATOM      1  C   UNL A   1      32.975  30.019  26.054  1.00  0.00     0.116 C 
ENDROOT
BRANCH   1   2
ATOM      2  N   UNL A   1      32.705  29.666  24.668  1.00  0.00    -0.352 N 
ATOM      3  C   UNL A   1      32.513  28.450  24.063  1.00  0.00     0.251 C 
ATOM      4  O   UNL A   1      32.433  28.390  22.839  1.00  0.00    -0.269 OA
ATOM      5  H   UNL A   1      32.650  30.436  24.058  1.00  0.00     0.163 HD
BRANCH   3   6
ATOM      6  C   UNL A   1      32.439  27.196  24.842  1.00  0.00     0.042 A 
ATOM      7  C   UNL A   1      32.180  24.767  26.210  1.00  0.00     0.103 A 
ATOM      8  C   UNL A   1      31.053  25.560  25.989  1.00  0.00     0.024 A 
ATOM      9  C   UNL A   1      33.442  25.278  25.894  1.00  0.00     0.142 A 
ATOM     10  C   UNL A   1      31.185  26.768  25.296  1.00  0.00     0.015 A 
ATOM     11  C   UNL A   1      33.579  26.479  25.200  1.00  0.00     0.054 A 
ATOM     12  F   UNL A   1      34.562  24.594  26.158  1.00  0.00    -0.206 F 
BRANCH   7  13
ATOM     13  S   UNL A   1      32.018  23.108  26.837  1.00  0.00     0.192 S 
ATOM     14  O   UNL A   1      30.696  23.071  27.424  1.00  0.00    -0.223 OA
ATOM     15  O   UNL A   1      33.176  22.822  27.674  1.00  0.00    -0.223 OA
BRANCH  13  16
ATOM     16  C   UNL A   1      32.054  21.927  25.536  1.00  0.00     0.199 C 
ATOM     17  C   UNL A   1      32.092  22.514  24.127  1.00  0.00     0.036 C 
BRANCH  16  18
ATOM     18  C   UNL A   1      32.907  20.677  25.583  1.00  0.00     0.239 C 
ATOM     19  N   UNL A   1      34.243  20.526  25.588  1.00  0.00    -0.344 N 
ATOM     20  H   UNL A   1      34.518  19.598  25.410  1.00  0.00     0.164 HD
ATOM     21  O   UNL A   1      32.309  19.590  25.477  1.00  0.00    -0.274 OA
BRANCH  19  22
ATOM     22  C   UNL A   1      35.365  21.398  25.791  1.00  0.00     0.206 C 
BRANCH  22  23
ATOM     23  C   UNL A   1      35.685  22.168  24.520  1.00  0.00    -0.085 C 
ATOM     24  C   UNL A   1      35.960  22.828  23.430  1.00  0.00     0.006 C 
ENDBRANCH  22  23
ENDBRANCH  19  22
ENDBRANCH  16  18
ENDBRANCH  13  16
ENDBRANCH   7  13
ENDBRANCH   3   6
ENDBRANCH   1   2
BRANCH   1  25
ATOM     25  C   UNL A   1      31.720  30.471  26.806  1.00  0.00     0.023 C 
BRANCH  25  26
ATOM     26  C   UNL A   1      31.494  31.984  26.906  1.00  0.00     0.023 C 
BRANCH  26  27
ATOM     27  C   UNL A   1      32.743  32.849  27.050  1.00  0.00     0.116 C 
BRANCH  27  28
ATOM     28  N   UNL A   1      32.487  34.136  27.676  1.00  0.00    -0.352 N 
ATOM     29  C   UNL A   1      33.174  34.783  28.677  1.00  0.00     0.251 C 
ATOM     30  H   UNL A   1      31.703  34.619  27.329  1.00  0.00     0.163 HD
ATOM     31  O   UNL A   1      32.729  35.834  29.131  1.00  0.00    -0.269 OA
BRANCH  29  32
ATOM     32  C   UNL A   1      34.421  34.213  29.245  1.00  0.00     0.039 A 
ATOM     33  C   UNL A   1      34.337  33.476  30.432  1.00  0.00     0.014 A 
ATOM     34  C   UNL A   1      35.665  34.415  28.643  1.00  0.00     0.014 A 
ATOM     35  C   UNL A   1      35.481  32.879  30.970  1.00  0.00     0.010 A 
ATOM     36  C   UNL A   1      36.796  33.772  29.148  1.00  0.00     0.010 A 
ATOM     37  C   UNL A   1      36.715  32.990  30.312  1.00  0.00    -0.014 A 
BRANCH  37  38
ATOM     38  C   UNL A   1      37.921  32.277  30.807  1.00  0.00     0.031 A 
ATOM     39  C   UNL A   1      38.732  32.839  31.941  1.00  0.00     0.074 A 
ATOM     40  C   UNL A   1      38.332  31.155  30.184  1.00  0.00     0.049 A 
ATOM     41  N   UNL A   1      39.853  32.394  32.454  1.00  0.00    -0.248 NA
ATOM     42  C   UNL A   1      38.234  34.074  32.563  1.00  0.00     0.031 C 
ATOM     43  C   UNL A   1      37.664  30.522  29.046  1.00  0.00     0.029 A 
ATOM     44  N   UNL A   1      39.423  30.353  30.417  1.00  0.00    -0.354 N 
ATOM     45  C   UNL A   1      40.205  33.305  33.441  1.00  0.00     0.074 A 
ATOM     46  C   UNL A   1      39.197  34.345  33.433  1.00  0.00     0.031 C 
ATOM     47  C   UNL A   1      38.349  29.421  28.692  1.00  0.00     0.029 A 
ATOM     48  C   UNL A   1      39.519  29.289  29.554  1.00  0.00     0.049 A 
ATOM     49  H   UNL A   1      40.075  30.525  31.136  1.00  0.00     0.167 HD
ATOM     50  C   UNL A   1      41.263  33.275  34.287  1.00  0.00     0.031 A 
ATOM     51  C   UNL A   1      40.446  28.318  29.460  1.00  0.00     0.031 A 
ATOM     52  C   UNL A   1      42.258  32.237  34.314  1.00  0.00     0.049 A 
ATOM     53  C   UNL A   1      41.603  28.300  30.416  1.00  0.00     0.074 A 
ATOM     54  C   UNL A   1      43.329  32.092  35.179  1.00  0.00     0.029 A 
ATOM     55  N   UNL A   1      42.304  31.164  33.439  1.00  0.00    -0.354 N 
ATOM     56  N   UNL A   1      41.887  29.138  31.384  1.00  0.00    -0.248 NA
ATOM     57  C   UNL A   1      42.562  27.195  30.273  1.00  0.00     0.031 C 
ATOM     58  C   UNL A   1      44.044  30.949  34.804  1.00  0.00     0.029 A 
ATOM     59  C   UNL A   1      43.394  30.363  33.731  1.00  0.00     0.049 A 
ATOM     60  H   UNL A   1      41.656  30.998  32.716  1.00  0.00     0.167 HD
ATOM     61  C   UNL A   1      43.042  28.649  31.978  1.00  0.00     0.074 A 
ATOM     62  C   UNL A   1      43.401  27.437  31.271  1.00  0.00     0.031 C 
ATOM     63  C   UNL A   1      43.742  29.161  33.019  1.00  0.00     0.031 A 
BRANCH  50  64
ATOM     64  C   UNL A   1      41.402  34.418  35.252  1.00  0.00    -0.014 A 
ATOM     65  C   UNL A   1      40.764  34.393  36.502  1.00  0.00     0.009 A 
ATOM     66  C   UNL A   1      42.205  35.519  34.920  1.00  0.00     0.009 A 
ATOM     67  C   UNL A   1      40.896  35.467  37.385  1.00  0.00     0.001 A 
ATOM     68  C   UNL A   1      42.354  36.581  35.814  1.00  0.00     0.001 A 
ATOM     69  C   UNL A   1      41.693  36.559  37.041  1.00  0.00     0.000 A 
ENDBRANCH  50  64
BRANCH  51  70
ATOM     70  C   UNL A   1      40.306  27.261  28.426  1.00  0.00    -0.014 A 
ATOM     71  C   UNL A   1      40.897  27.424  27.164  1.00  0.00     0.009 A 
ATOM     72  C   UNL A   1      39.584  26.088  28.696  1.00  0.00     0.009 A 
ATOM     73  C   UNL A   1      40.751  26.439  26.185  1.00  0.00     0.001 A 
ATOM     74  C   UNL A   1      39.461  25.096  27.722  1.00  0.00     0.001 A 
ATOM     75  C   UNL A   1      40.037  25.275  26.466  1.00  0.00     0.000 A 
ENDBRANCH  51  70
BRANCH  63  76
ATOM     76  C   UNL A   1      44.949  28.395  33.474  1.00  0.00    -0.014 A 
ATOM     77  C   UNL A   1      44.844  27.375  34.432  1.00  0.00     0.009 A 
ATOM     78  C   UNL A   1      46.204  28.676  32.911  1.00  0.00     0.009 A 
ATOM     79  C   UNL A   1      45.978  26.669  34.837  1.00  0.00     0.001 A 
ATOM     80  C   UNL A   1      47.333  27.954  33.304  1.00  0.00     0.001 A 
ATOM     81  C   UNL A   1      47.220  26.956  34.271  1.00  0.00     0.000 A 
ENDBRANCH  63  76
ENDBRANCH  37  38
ENDBRANCH  29  32
ENDBRANCH  27  28
ENDBRANCH  26  27
ENDBRANCH  25  26
ENDBRANCH   1  25
TORSDOF 16
ENDMDL
MODEL 2
REMARK VINA RESULT:     -10.6      0.943      5.995
REMARK SMILES C#CCNC(=O)[C@H](C)S(=O)(=O)c1ccc(C(=O)NCCCCNC(=O)c2ccc(-c3c4nc(c(-c5ccccc5)c5ccc([nH]5)c(-c5ccccc5)c5nc(c(-c6ccccc6)c6ccc3[nH]6)C=C5)C=C4)cc2)cc1F
REMARK SMILES IDX 19 1 18 2 16 3 17 4 15 6 12 7 13 8 75 9 14 10 74 11 76 12
REMARK SMILES IDX 9 13 10 14 11 15 7 16 8 17 5 18 4 19 6 21 3 22 2 23 1 24
REMARK SMILES IDX 20 25 21 26 22 27 23 28 24 29 25 31 26 32 27 33 73 34 28 35
REMARK SMILES IDX 72 36 29 37 30 38 31 39 66 40 32 41 71 42 65 43 67 44 33 45
REMARK SMILES IDX 70 46 64 47 63 48 34 50 56 51 41 52 55 53 42 54 45 55 54 56
REMARK SMILES IDX 68 57 43 58 44 59 53 61 69 62 46 63 35 64 36 65 40 66 37 67
REMARK SMILES IDX 39 68 38 69 57 70 58 71 62 72 59 73 61 74 60 75 47 76 48 77
REMARK SMILES IDX 52 78 49 79 51 80 50 81
REMARK H PARENT 18 5 4 20 23 30 67 49 45 60
REMARK Flexibility Score: inf
ROOT
ATOM      1  C   UNL A   1      32.667  30.014  26.110  1.00  0.00     0.116 C 
ENDROOT
BRANCH   1   2
ATOM      2  N   UNL A   1      32.588  29.664  24.700  1.00  0.00    -0.352 N 
ATOM      3  C   UNL A   1      32.472  28.451  24.071  1.00  0.00     0.251 C 
ATOM      4  O   UNL A   1      32.561  28.393  22.847  1.00  0.00    -0.269 OA
ATOM      5  H   UNL A   1      32.622  30.436  24.089  1.00  0.00     0.163 HD
BRANCH   3   6
ATOM      6  C   UNL A   1      32.284  27.196  24.829  1.00  0.00     0.042 A 
ATOM      7  C   UNL A   1      31.814  24.771  26.147  1.00  0.00     0.103 A 
ATOM      8  C   UNL A   1      30.742  25.607  25.835  1.00  0.00     0.024 A 
ATOM      9  C   UNL A   1      33.118  25.235  25.948  1.00  0.00     0.142 A 
ATOM     10  C   UNL A   1      30.979  26.814  25.168  1.00  0.00     0.015 A 
ATOM     11  C   UNL A   1      33.360  26.434  25.279  1.00  0.00     0.054 A 
ATOM     12  F   UNL A   1      34.183  24.508  26.303  1.00  0.00    -0.206 F 
BRANCH   7  13
ATOM     13  S   UNL A   1      31.537  23.116  26.743  1.00  0.00     0.192 S 
ATOM     14  O   UNL A   1      30.096  22.987  26.792  1.00  0.00    -0.223 OA
ATOM     15  O   UNL A   1      32.309  22.935  27.965  1.00  0.00    -0.223 OA
BRANCH  13  16
ATOM     16  C   UNL A   1      32.137  21.918  25.604  1.00  0.00     0.199 C 
ATOM     17  C   UNL A   1      32.217  22.384  24.153  1.00  0.00     0.036 C 
BRANCH  16  18
ATOM     18  C   UNL A   1      33.313  21.014  25.908  1.00  0.00     0.239 C 
ATOM     19  N   UNL A   1      33.387  19.675  26.013  1.00  0.00    -0.344 N 
ATOM     20  H   UNL A   1      34.229  19.377  26.426  1.00  0.00     0.164 HD
ATOM     21  O   UNL A   1      34.374  21.574  26.241  1.00  0.00    -0.274 OA
BRANCH  19  22
ATOM     22  C   UNL A   1      32.528  18.579  25.668  1.00  0.00     0.206 C 
BRANCH  22  23
ATOM     23  C   UNL A   1      32.541  18.338  24.167  1.00  0.00    -0.085 C 
ATOM     24  C   UNL A   1      32.552  18.131  22.880  1.00  0.00     0.006 C 
ENDBRANCH  22  23
ENDBRANCH  19  22
ENDBRANCH  16  18
ENDBRANCH  13  16
ENDBRANCH   7  13
ENDBRANCH   3   6
ENDBRANCH   1   2
BRANCH   1  25
ATOM     25  C   UNL A   1      31.373  30.635  26.641  1.00  0.00     0.023 C 
BRANCH  25  26
ATOM     26  C   UNL A   1      31.293  32.166  26.619  1.00  0.00     0.023 C 
BRANCH  26  27
ATOM     27  C   UNL A   1      32.589  32.917  26.914  1.00  0.00     0.116 C 
BRANCH  27  28
ATOM     28  N   UNL A   1      32.410  34.052  27.806  1.00  0.00    -0.352 N 
ATOM     29  C   UNL A   1      33.189  34.482  28.855  1.00  0.00     0.251 C 
ATOM     30  H   UNL A   1      31.609  34.596  27.632  1.00  0.00     0.163 HD
ATOM     31  O   UNL A   1      32.804  35.420  29.547  1.00  0.00    -0.269 OA
BRANCH  29  32
ATOM     32  C   UNL A   1      34.468  33.807  29.188  1.00  0.00     0.039 A 
ATOM     33  C   UNL A   1      35.630  34.212  28.520  1.00  0.00     0.014 A 
ATOM     34  C   UNL A   1      34.535  32.772  30.124  1.00  0.00     0.014 A 
ATOM     35  C   UNL A   1      36.863  33.638  28.844  1.00  0.00     0.010 A 
ATOM     36  C   UNL A   1      35.773  32.240  30.488  1.00  0.00     0.010 A 
ATOM     37  C   UNL A   1      36.951  32.673  29.858  1.00  0.00    -0.014 A 
BRANCH  37  38
ATOM     38  C   UNL A   1      38.263  32.127  30.292  1.00  0.00     0.031 A 
ATOM     39  C   UNL A   1      38.775  30.828  29.735  1.00  0.00     0.074 A 
ATOM     40  C   UNL A   1      38.965  32.764  31.250  1.00  0.00     0.049 A 
ATOM     41  N   UNL A   1      39.859  30.164  30.052  1.00  0.00    -0.248 NA
ATOM     42  C   UNL A   1      37.951  30.178  28.705  1.00  0.00     0.031 C 
ATOM     43  C   UNL A   1      38.567  34.010  31.907  1.00  0.00     0.029 A 
ATOM     44  N   UNL A   1      40.159  32.441  31.846  1.00  0.00    -0.354 N 
ATOM     45  C   UNL A   1      39.835  29.010  29.280  1.00  0.00     0.074 A 
ATOM     46  C   UNL A   1      38.613  29.048  28.503  1.00  0.00     0.031 C 
ATOM     47  C   UNL A   1      39.508  34.355  32.802  1.00  0.00     0.029 A 
ATOM     48  C   UNL A   1      40.557  33.341  32.804  1.00  0.00     0.049 A 
ATOM     49  H   UNL A   1      40.681  31.640  31.608  1.00  0.00     0.167 HD
ATOM     50  C   UNL A   1      40.750  28.013  29.211  1.00  0.00     0.031 A 
ATOM     51  C   UNL A   1      41.641  33.348  33.602  1.00  0.00     0.031 A 
ATOM     52  C   UNL A   1      41.975  27.976  29.965  1.00  0.00     0.049 A 
ATOM     53  C   UNL A   1      42.647  32.239  33.500  1.00  0.00     0.074 A 
ATOM     54  C   UNL A   1      42.992  27.038  29.912  1.00  0.00     0.029 A 
ATOM     55  N   UNL A   1      42.351  28.920  30.906  1.00  0.00    -0.354 N 
ATOM     56  N   UNL A   1      42.637  31.186  32.720  1.00  0.00    -0.248 NA
ATOM     57  C   UNL A   1      43.820  32.326  34.383  1.00  0.00     0.031 C 
ATOM     58  C   UNL A   1      43.968  27.396  30.849  1.00  0.00     0.029 A 
ATOM     59  C   UNL A   1      43.576  28.578  31.455  1.00  0.00     0.049 A 
ATOM     60  H   UNL A   1      41.825  29.716  31.149  1.00  0.00     0.167 HD
ATOM     61  C   UNL A   1      43.811  30.498  33.000  1.00  0.00     0.074 A 
ATOM     62  C   UNL A   1      44.513  31.258  34.014  1.00  0.00     0.031 C 
ATOM     63  C   UNL A   1      44.264  29.340  32.464  1.00  0.00     0.031 A 
BRANCH  50  64
ATOM     64  C   UNL A   1      40.449  26.867  28.288  1.00  0.00    -0.014 A 
ATOM     65  C   UNL A   1      39.685  25.770  28.718  1.00  0.00     0.009 A 
ATOM     66  C   UNL A   1      40.911  26.897  26.964  1.00  0.00     0.009 A 
ATOM     67  C   UNL A   1      39.422  24.709  27.850  1.00  0.00     0.001 A 
ATOM     68  C   UNL A   1      40.626  25.846  26.091  1.00  0.00     0.001 A 
ATOM     69  C   UNL A   1      39.890  24.749  26.537  1.00  0.00     0.000 A 
ENDBRANCH  50  64
BRANCH  51  70
ATOM     70  C   UNL A   1      41.844  34.464  34.562  1.00  0.00    -0.014 A 
ATOM     71  C   UNL A   1      41.364  34.362  35.877  1.00  0.00     0.009 A 
ATOM     72  C   UNL A   1      42.517  35.631  34.169  1.00  0.00     0.009 A 
ATOM     73  C   UNL A   1      41.538  35.416  36.775  1.00  0.00     0.001 A 
ATOM     74  C   UNL A   1      42.709  36.674  35.077  1.00  0.00     0.001 A 
ATOM     75  C   UNL A   1      42.213  36.569  36.375  1.00  0.00     0.000 A 
ENDBRANCH  51  70
BRANCH  63  76
ATOM     76  C   UNL A   1      45.595  28.840  32.941  1.00  0.00    -0.014 A 
ATOM     77  C   UNL A   1      45.692  27.954  34.025  1.00  0.00     0.009 A 
ATOM     78  C   UNL A   1      46.766  29.233  32.275  1.00  0.00     0.009 A 
ATOM     79  C   UNL A   1      46.939  27.493  34.449  1.00  0.00     0.001 A 
ATOM     80  C   UNL A   1      48.011  28.755  32.689  1.00  0.00     0.001 A 
ATOM     81  C   UNL A   1      48.097  27.891  33.780  1.00  0.00     0.000 A 
ENDBRANCH  63  76
ENDBRANCH  37  38
ENDBRANCH  29  32
ENDBRANCH  27  28
ENDBRANCH  26  27
ENDBRANCH  25  26
ENDBRANCH   1  25
TORSDOF 16
ENDMDL
MODEL 3
REMARK VINA RESULT:     -10.5      3.403      9.218
REMARK SMILES C#CCNC(=O)[C@H](C)S(=O)(=O)c1ccc(C(=O)NCCCCNC(=O)c2ccc(-c3c4nc(c(-c5ccccc5)c5ccc([nH]5)c(-c5ccccc5)c5nc(c(-c6ccccc6)c6ccc3[nH]6)C=C5)C=C4)cc2)cc1F
REMARK SMILES IDX 19 1 18 2 16 3 17 4 15 6 12 7 13 8 75 9 14 10 74 11 76 12
REMARK SMILES IDX 9 13 10 14 11 15 7 16 8 17 5 18 4 19 6 21 3 22 2 23 1 24
REMARK SMILES IDX 20 25 21 26 22 27 23 28 24 29 25 31 26 32 27 33 73 34 28 35
REMARK SMILES IDX 72 36 29 37 30 38 31 39 66 40 32 41 71 42 65 43 67 44 33 45
REMARK SMILES IDX 70 46 64 47 63 48 34 50 56 51 41 52 55 53 42 54 45 55 54 56
REMARK SMILES IDX 68 57 43 58 44 59 53 61 69 62 46 63 35 64 36 65 40 66 37 67
REMARK SMILES IDX 39 68 38 69 57 70 58 71 62 72 59 73 61 74 60 75 47 76 48 77
REMARK SMILES IDX 52 78 49 79 51 80 50 81
REMARK H PARENT 18 5 4 20 23 30 67 49 45 60
REMARK Flexibility Score: inf
ROOT
ATOM      1  C   UNL A   1      35.898  21.326  25.601  1.00  0.00     0.116 C 
ENDROOT
BRANCH   1   2
ATOM      2  N   UNL A   1      34.765  20.427  25.438  1.00  0.00    -0.352 N 
ATOM      3  C   UNL A   1      33.429  20.676  25.250  1.00  0.00     0.251 C 
ATOM      4  O   UNL A   1      32.631  19.743  25.274  1.00  0.00    -0.269 OA
ATOM      5  H   UNL A   1      35.000  19.472  25.467  1.00  0.00     0.163 HD
BRANCH   3   6
ATOM      6  C   UNL A   1      32.912  22.048  25.059  1.00  0.00     0.042 A 
ATOM      7  C   UNL A   1      31.780  24.579  24.670  1.00  0.00     0.103 A 
ATOM      8  C   UNL A   1      31.624  23.594  23.694  1.00  0.00     0.024 A 
ATOM      9  C   UNL A   1      32.641  24.339  25.744  1.00  0.00     0.142 A 
ATOM     10  C   UNL A   1      32.182  22.327  23.896  1.00  0.00     0.015 A 
ATOM     11  C   UNL A   1      33.197  23.077  25.953  1.00  0.00     0.054 A 
ATOM     12  F   UNL A   1      32.891  25.276  26.666  1.00  0.00    -0.206 F 
BRANCH   7  13
ATOM     13  S   UNL A   1      30.863  26.103  24.582  1.00  0.00     0.192 S 
ATOM     14  O   UNL A   1      30.168  26.179  25.850  1.00  0.00    -0.223 OA
ATOM     15  O   UNL A   1      30.090  26.099  23.347  1.00  0.00    -0.223 OA
BRANCH  13  16
ATOM     16  C   UNL A   1      31.937  27.490  24.482  1.00  0.00     0.199 C 
ATOM     17  C   UNL A   1      33.015  27.400  23.404  1.00  0.00     0.036 C 
BRANCH  16  18
ATOM     18  C   UNL A   1      31.446  28.918  24.585  1.00  0.00     0.239 C 
ATOM     19  N   UNL A   1      30.778  29.683  23.704  1.00  0.00    -0.344 N 
ATOM     20  H   UNL A   1      30.777  30.634  23.956  1.00  0.00     0.164 HD
ATOM     21  O   UNL A   1      31.811  29.561  25.587  1.00  0.00    -0.274 OA
BRANCH  19  22
ATOM     22  C   UNL A   1      30.066  29.441  22.481  1.00  0.00     0.206 C 
BRANCH  22  23
ATOM     23  C   UNL A   1      28.591  29.201  22.757  1.00  0.00    -0.085 C 
ATOM     24  C   UNL A   1      27.325  28.995  22.994  1.00  0.00     0.006 C 
ENDBRANCH  22  23
ENDBRANCH  19  22
ENDBRANCH  16  18
ENDBRANCH  13  16
ENDBRANCH   7  13
ENDBRANCH   3   6
ENDBRANCH   1   2
BRANCH   1  25
ATOM     25  C   UNL A   1      36.997  21.089  24.562  1.00  0.00     0.023 C 
BRANCH  25  26
ATOM     26  C   UNL A   1      37.959  19.929  24.841  1.00  0.00     0.023 C 
BRANCH  26  27
ATOM     27  C   UNL A   1      39.002  20.158  25.932  1.00  0.00     0.116 C 
BRANCH  27  28
ATOM     28  N   UNL A   1      40.172  19.306  25.803  1.00  0.00    -0.352 N 
ATOM     29  C   UNL A   1      41.498  19.585  26.038  1.00  0.00     0.251 C 
ATOM     30  H   UNL A   1      39.987  18.387  25.502  1.00  0.00     0.163 HD
ATOM     31  O   UNL A   1      42.349  18.739  25.774  1.00  0.00    -0.269 OA
BRANCH  29  32
ATOM     32  C   UNL A   1      41.923  20.904  26.569  1.00  0.00     0.039 A 
ATOM     33  C   UNL A   1      42.287  21.904  25.660  1.00  0.00     0.014 A 
ATOM     34  C   UNL A   1      41.989  21.161  27.941  1.00  0.00     0.014 A 
ATOM     35  C   UNL A   1      42.642  23.176  26.118  1.00  0.00     0.010 A 
ATOM     36  C   UNL A   1      42.287  22.446  28.396  1.00  0.00     0.010 A 
ATOM     37  C   UNL A   1      42.608  23.469  27.490  1.00  0.00    -0.014 A 
BRANCH  37  38
ATOM     38  C   UNL A   1      42.878  24.842  27.992  1.00  0.00     0.031 A 
ATOM     39  C   UNL A   1      44.266  25.251  28.397  1.00  0.00     0.074 A 
ATOM     40  C   UNL A   1      41.854  25.703  28.156  1.00  0.00     0.049 A 
ATOM     41  N   UNL A   1      44.673  26.379  28.926  1.00  0.00    -0.248 NA
ATOM     42  C   UNL A   1      45.332  24.257  28.206  1.00  0.00     0.031 C 
ATOM     43  C   UNL A   1      40.451  25.424  27.843  1.00  0.00     0.029 A 
ATOM     44  N   UNL A   1      41.837  26.988  28.641  1.00  0.00    -0.354 N 
ATOM     45  C   UNL A   1      46.034  26.221  29.152  1.00  0.00     0.074 A 
ATOM     46  C   UNL A   1      46.378  24.878  28.733  1.00  0.00     0.031 C 
ATOM     47  C   UNL A   1      39.713  26.510  28.126  1.00  0.00     0.029 A 
ATOM     48  C   UNL A   1      40.584  27.549  28.670  1.00  0.00     0.049 A 
ATOM     49  H   UNL A   1      42.647  27.462  28.938  1.00  0.00     0.167 HD
ATOM     50  C   UNL A   1      46.922  27.115  29.651  1.00  0.00     0.031 A 
ATOM     51  C   UNL A   1      40.175  28.760  29.092  1.00  0.00     0.031 A 
ATOM     52  C   UNL A   1      46.593  28.456  30.051  1.00  0.00     0.049 A 
ATOM     53  C   UNL A   1      41.180  29.737  29.630  1.00  0.00     0.074 A 
ATOM     54  C   UNL A   1      47.440  29.452  30.507  1.00  0.00     0.029 A 
ATOM     55  N   UNL A   1      45.316  28.992  30.041  1.00  0.00    -0.354 N 
ATOM     56  N   UNL A   1      42.474  29.591  29.780  1.00  0.00    -0.248 NA
ATOM     57  C   UNL A   1      40.668  31.050  30.047  1.00  0.00     0.031 C 
ATOM     58  C   UNL A   1      46.669  30.581  30.808  1.00  0.00     0.029 A 
ATOM     59  C   UNL A   1      45.348  30.299  30.500  1.00  0.00     0.049 A 
ATOM     60  H   UNL A   1      44.506  28.514  29.751  1.00  0.00     0.167 HD
ATOM     61  C   UNL A   1      42.933  30.800  30.286  1.00  0.00     0.074 A 
ATOM     62  C   UNL A   1      41.782  31.671  30.408  1.00  0.00     0.031 C 
ATOM     63  C   UNL A   1      44.197  31.154  30.619  1.00  0.00     0.031 A 
BRANCH  50  64
ATOM     64  C   UNL A   1      48.345  26.657  29.801  1.00  0.00    -0.014 A 
ATOM     65  C   UNL A   1      48.781  26.010  30.968  1.00  0.00     0.009 A 
ATOM     66  C   UNL A   1      49.254  26.849  28.750  1.00  0.00     0.009 A 
ATOM     67  C   UNL A   1      50.109  25.599  31.095  1.00  0.00     0.001 A 
ATOM     68  C   UNL A   1      50.576  26.415  28.869  1.00  0.00     0.001 A 
ATOM     69  C   UNL A   1      51.004  25.800  30.045  1.00  0.00     0.000 A 
ENDBRANCH  50  64
BRANCH  51  70
ATOM     70  C   UNL A   1      38.739  29.127  29.003  1.00  0.00    -0.014 A 
ATOM     71  C   UNL A   1      38.207  29.612  27.798  1.00  0.00     0.009 A 
ATOM     72  C   UNL A   1      37.897  28.996  30.117  1.00  0.00     0.009 A 
ATOM     73  C   UNL A   1      36.861  29.975  27.717  1.00  0.00     0.001 A 
ATOM     74  C   UNL A   1      36.547  29.338  30.025  1.00  0.00     0.001 A 
ATOM     75  C   UNL A   1      36.032  29.835  28.829  1.00  0.00     0.000 A 
ENDBRANCH  51  70
BRANCH  63  76
ATOM     76  C   UNL A   1      44.406  32.553  31.119  1.00  0.00    -0.014 A 
ATOM     77  C   UNL A   1      44.341  32.852  32.489  1.00  0.00     0.009 A 
ATOM     78  C   UNL A   1      44.705  33.580  30.210  1.00  0.00     0.009 A 
ATOM     79  C   UNL A   1      44.546  34.159  32.935  1.00  0.00     0.001 A 
ATOM     80  C   UNL A   1      44.930  34.882  30.662  1.00  0.00     0.001 A 
ATOM     81  C   UNL A   1      44.843  35.171  32.023  1.00  0.00     0.000 A 
ENDBRANCH  63  76
ENDBRANCH  37  38
ENDBRANCH  29  32
ENDBRANCH  27  28
ENDBRANCH  26  27
ENDBRANCH  25  26
ENDBRANCH   1  25
TORSDOF 16
ENDMDL
