MODEL 1
REMARK VINA RESULT:     -12.8      0.000      0.000
REMARK SMILES Cc1cc(C)cc(Oc2nc3ccccn3c(=O)c2/C=C2\SC(=S)N(CCC(=O)NCCCCNC(=O)c3ccc(-c4c5nc(c(-c6ccccc6)c6ccc([nH]6)c(-c6ccccc6)c6nc(c(-c7ccccc7)c7ccc4[nH]7)C=C6)C=C5)cc3)C2=O)c1
REMARK SMILES IDX 31 1 30 2 28 3 29 4 27 6 26 7 25 8 20 9 21 10 22 11 86 12
REMARK SMILES IDX 23 13 87 14 24 15 19 16 9 17 10 18 11 19 17 20 12 21 16 22
REMARK SMILES IDX 18 23 13 24 15 25 14 26 8 27 7 28 1 29 2 30 3 31 88 32 4 33
REMARK SMILES IDX 5 34 6 35 32 36 33 37 34 38 35 39 36 40 37 42 38 43 39 44
REMARK SMILES IDX 85 45 40 46 84 47 41 48 42 49 43 50 78 51 44 52 83 53 77 54
REMARK SMILES IDX 79 55 45 56 82 57 76 58 75 59 46 61 68 62 53 63 67 64 54 65
REMARK SMILES IDX 57 66 66 67 80 68 55 69 56 70 65 72 81 73 58 74 47 75 48 76
REMARK SMILES IDX 52 77 49 78 51 79 50 80 69 81 70 82 74 83 71 84 73 85 72 86
REMARK SMILES IDX 59 87 60 88 64 89 61 90 63 91 62 92
REMARK H PARENT 30 5 35 41 79 60 57 71
REMARK Flexibility Score: inf
ROOT
ATOM      1  C   UNL A   1      35.408  22.415  25.942  1.00  0.00     0.116 C 
ENDROOT
BRANCH   1   2
ATOM      2  N   UNL A   1      34.731  21.129  26.066  1.00  0.00    -0.356 N 
ATOM      3  C   UNL A   1      33.810  20.533  25.261  1.00  0.00     0.221 C 
ATOM      4  O   UNL A   1      33.356  19.436  25.585  1.00  0.00    -0.275 OA
ATOM      5  H   UNL A   1      34.982  20.606  26.863  1.00  0.00     0.163 HD
BRANCH   3   6
ATOM      6  C   UNL A   1      33.373  21.202  23.975  1.00  0.00     0.122 C 
BRANCH   6   7
ATOM      7  C   UNL A   1      32.068  22.007  24.138  1.00  0.00     0.137 C 
BRANCH   7   8
ATOM      8  N   UNL A   1      32.222  23.439  24.493  1.00  0.00    -0.292 N 
ATOM      9  C   UNL A   1      31.559  26.711  23.290  1.00  0.00     0.041 C 
ATOM     10  C   UNL A   1      32.183  25.755  24.030  1.00  0.00     0.081 C 
ATOM     11  S   UNL A   1      32.463  25.680  25.737  1.00  0.00    -0.054 SA
ATOM     12  C   UNL A   1      32.450  24.376  23.477  1.00  0.00     0.266 C 
ATOM     13  C   UNL A   1      32.148  23.940  25.779  1.00  0.00     0.148 C 
ATOM     14  O   UNL A   1      32.694  24.160  22.329  1.00  0.00    -0.268 OA
ATOM     15  S   UNL A   1      31.728  23.142  27.182  1.00  0.00    -0.052 S 
BRANCH   9  16
ATOM     16  C   UNL A   1      31.103  28.031  23.759  1.00  0.00     0.104 A 
ATOM     17  C   UNL A   1      31.685  29.065  24.485  1.00  0.00     0.234 A 
ATOM     18  N   UNL A   1      30.834  30.159  24.766  1.00  0.00    -0.194 NA
ATOM     19  C   UNL A   1      29.796  30.433  24.015  1.00  0.00     0.143 A 
ATOM     20  C   UNL A   1      29.660  28.248  23.306  1.00  0.00     0.269 A 
ATOM     21  C   UNL A   1      29.070  31.765  24.020  1.00  0.00     0.048 A 
ATOM     22  N   UNL A   1      29.252  29.534  23.139  1.00  0.00    -0.267 N 
ATOM     23  O   UNL A   1      28.921  27.284  23.079  1.00  0.00    -0.268 OA
ATOM     24  C   UNL A   1      28.118  32.062  23.126  1.00  0.00     0.005 A 
ATOM     25  C   UNL A   1      28.190  29.835  22.285  1.00  0.00     0.096 A 
ATOM     26  C   UNL A   1      27.652  31.059  22.221  1.00  0.00     0.019 A 
BRANCH  17  27
ATOM     27  O   UNL A   1      33.118  29.072  25.161  1.00  0.00    -0.438 OA
BRANCH  27  28
ATOM     28  C   UNL A   1      33.787  29.751  26.341  1.00  0.00     0.130 A 
ATOM     29  C   UNL A   1      33.871  33.185  28.204  1.00  0.00     0.044 C 
ATOM     30  C   UNL A   1      34.288  31.762  27.891  1.00  0.00    -0.047 A 
ATOM     31  C   UNL A   1      35.551  31.311  28.123  1.00  0.00     0.007 A 
ATOM     32  C   UNL A   1      33.429  30.891  27.171  1.00  0.00     0.050 A 
ATOM     33  C   UNL A   1      35.901  30.034  27.647  1.00  0.00    -0.047 A 
ATOM     34  C   UNL A   1      37.222  29.532  28.157  1.00  0.00     0.044 C 
ATOM     35  C   UNL A   1      35.071  29.296  26.706  1.00  0.00     0.050 A 
ENDBRANCH  27  28
ENDBRANCH  17  27
ENDBRANCH   9  16
ENDBRANCH   7   8
ENDBRANCH   6   7
ENDBRANCH   3   6
ENDBRANCH   1   2
BRANCH   1  36
ATOM     36  C   UNL A   1      36.641  22.341  25.022  1.00  0.00     0.023 C 
BRANCH  36  37
ATOM     37  C   UNL A   1      37.947  21.920  25.680  1.00  0.00     0.023 C 
BRANCH  37  38
ATOM     38  C   UNL A   1      38.996  22.927  26.453  1.00  0.00     0.116 C 
BRANCH  38  39
ATOM     39  N   UNL A   1      39.772  24.389  26.006  1.00  0.00    -0.352 N 
ATOM     40  C   UNL A   1      40.421  25.715  26.322  1.00  0.00     0.251 C 
ATOM     41  H   UNL A   1      39.818  24.337  25.024  1.00  0.00     0.163 HD
ATOM     42  O   UNL A   1      41.183  26.083  25.411  1.00  0.00    -0.269 OA
BRANCH  40  43
ATOM     43  C   UNL A   1      40.248  26.835  27.508  1.00  0.00     0.039 A 
ATOM     44  C   UNL A   1      39.482  26.516  28.644  1.00  0.00     0.014 A 
ATOM     45  C   UNL A   1      40.688  28.152  27.606  1.00  0.00     0.014 A 
ATOM     46  C   UNL A   1      39.578  27.160  29.914  1.00  0.00     0.010 A 
ATOM     47  C   UNL A   1      40.870  28.804  28.874  1.00  0.00     0.010 A 
ATOM     48  C   UNL A   1      40.381  28.276  30.082  1.00  0.00    -0.014 A 
BRANCH  48  49
ATOM     49  C   UNL A   1      40.525  28.992  31.412  1.00  0.00     0.031 A 
ATOM     50  C   UNL A   1      39.450  29.970  31.837  1.00  0.00     0.074 A 
ATOM     51  C   UNL A   1      41.562  28.834  32.276  1.00  0.00     0.049 A 
ATOM     52  N   UNL A   1      39.421  30.810  32.845  1.00  0.00    -0.248 NA
ATOM     53  C   UNL A   1      38.254  30.017  30.985  1.00  0.00     0.031 C 
ATOM     54  C   UNL A   1      42.698  27.927  32.114  1.00  0.00     0.029 A 
ATOM     55  N   UNL A   1      41.823  29.456  33.490  1.00  0.00    -0.354 N 
ATOM     56  C   UNL A   1      38.242  31.532  32.699  1.00  0.00     0.074 A 
ATOM     57  C   UNL A   1      37.613  31.059  31.484  1.00  0.00     0.031 C 
ATOM     58  C   UNL A   1      43.510  28.034  33.186  1.00  0.00     0.029 A 
ATOM     59  C   UNL A   1      42.986  29.045  34.107  1.00  0.00     0.049 A 
ATOM     60  H   UNL A   1      41.225  30.136  33.879  1.00  0.00     0.167 HD
ATOM     61  C   UNL A   1      37.693  32.479  33.497  1.00  0.00     0.031 A 
ATOM     62  C   UNL A   1      43.573  29.430  35.266  1.00  0.00     0.031 A 
ATOM     63  C   UNL A   1      38.224  32.930  34.752  1.00  0.00     0.049 A 
ATOM     64  C   UNL A   1      42.964  30.511  36.137  1.00  0.00     0.074 A 
ATOM     65  C   UNL A   1      37.680  33.852  35.633  1.00  0.00     0.029 A 
ATOM     66  N   UNL A   1      39.401  32.482  35.319  1.00  0.00    -0.354 N 
ATOM     67  N   UNL A   1      41.845  31.171  35.980  1.00  0.00    -0.248 NA
ATOM     68  C   UNL A   1      43.708  30.895  37.355  1.00  0.00     0.031 C 
ATOM     69  C   UNL A   1      38.546  33.982  36.724  1.00  0.00     0.029 A 
ATOM     70  C   UNL A   1      39.605  33.112  36.537  1.00  0.00     0.049 A 
ATOM     71  H   UNL A   1      40.005  31.815  34.919  1.00  0.00     0.167 HD
ATOM     72  C   UNL A   1      41.730  32.003  37.092  1.00  0.00     0.074 A 
ATOM     73  C   UNL A   1      42.893  31.777  37.918  1.00  0.00     0.031 C 
ATOM     74  C   UNL A   1      40.735  32.871  37.394  1.00  0.00     0.031 A 
BRANCH  61  75
ATOM     75  C   UNL A   1      36.424  33.110  32.999  1.00  0.00    -0.014 A 
ATOM     76  C   UNL A   1      36.437  34.035  31.943  1.00  0.00     0.009 A 
ATOM     77  C   UNL A   1      35.209  32.806  33.630  1.00  0.00     0.009 A 
ATOM     78  C   UNL A   1      35.267  34.700  31.579  1.00  0.00     0.001 A 
ATOM     79  C   UNL A   1      34.034  33.445  33.238  1.00  0.00     0.001 A 
ATOM     80  C   UNL A   1      34.068  34.406  32.227  1.00  0.00     0.000 A 
ENDBRANCH  61  75
BRANCH  62  81
ATOM     81  C   UNL A   1      44.838  28.790  35.738  1.00  0.00    -0.014 A 
ATOM     82  C   UNL A   1      44.789  27.712  36.640  1.00  0.00     0.009 A 
ATOM     83  C   UNL A   1      46.090  29.315  35.384  1.00  0.00     0.009 A 
ATOM     84  C   UNL A   1      45.963  27.192  37.195  1.00  0.00     0.001 A 
ATOM     85  C   UNL A   1      47.263  28.776  35.924  1.00  0.00     0.001 A 
ATOM     86  C   UNL A   1      47.199  27.723  36.835  1.00  0.00     0.000 A 
ENDBRANCH  62  81
BRANCH  74  87
ATOM     87  C   UNL A   1      40.785  33.604  38.707  1.00  0.00    -0.014 A 
ATOM     88  C   UNL A   1      41.297  34.906  38.806  1.00  0.00     0.009 A 
ATOM     89  C   UNL A   1      40.208  33.016  39.846  1.00  0.00     0.009 A 
ATOM     90  C   UNL A   1      41.237  35.600  40.020  1.00  0.00     0.001 A 
ATOM     91  C   UNL A   1      40.131  33.718  41.051  1.00  0.00     0.001 A 
ATOM     92  C   UNL A   1      40.647  35.009  41.138  1.00  0.00     0.000 A 
ENDBRANCH  74  87
ENDBRANCH  48  49
ENDBRANCH  40  43
ENDBRANCH  38  39
ENDBRANCH  37  38
ENDBRANCH  36  37
ENDBRANCH   1  36
TORSDOF 16
ENDMDL
MODEL 2
REMARK VINA RESULT:     -12.2      5.569     11.175
REMARK SMILES Cc1cc(C)cc(Oc2nc3ccccn3c(=O)c2/C=C2\SC(=S)N(CCC(=O)NCCCCNC(=O)c3ccc(-c4c5nc(c(-c6ccccc6)c6ccc([nH]6)c(-c6ccccc6)c6nc(c(-c7ccccc7)c7ccc4[nH]7)C=C6)C=C5)cc3)C2=O)c1
REMARK SMILES IDX 31 1 30 2 28 3 29 4 27 6 26 7 25 8 20 9 21 10 22 11 86 12
REMARK SMILES IDX 23 13 87 14 24 15 19 16 9 17 10 18 11 19 17 20 12 21 16 22
REMARK SMILES IDX 18 23 13 24 15 25 14 26 8 27 7 28 1 29 2 30 3 31 88 32 4 33
REMARK SMILES IDX 5 34 6 35 32 36 33 37 34 38 35 39 36 40 37 42 38 43 39 44
REMARK SMILES IDX 85 45 40 46 84 47 41 48 42 49 43 50 78 51 44 52 83 53 77 54
REMARK SMILES IDX 79 55 45 56 82 57 76 58 75 59 46 61 68 62 53 63 67 64 54 65
REMARK SMILES IDX 57 66 66 67 80 68 55 69 56 70 65 72 81 73 58 74 47 75 48 76
REMARK SMILES IDX 52 77 49 78 51 79 50 80 69 81 70 82 74 83 71 84 73 85 72 86
REMARK SMILES IDX 59 87 60 88 64 89 61 90 63 91 62 92
REMARK H PARENT 30 5 35 41 79 60 57 71
REMARK Flexibility Score: inf
ROOT
ATOM      1  C   UNL A   1      32.089  29.206  26.164  1.00  0.00     0.116 C 
ENDROOT
BRANCH   1   2
ATOM      2  N   UNL A   1      31.199  29.388  25.022  1.00  0.00    -0.356 N 
ATOM      3  C   UNL A   1      31.208  28.803  23.792  1.00  0.00     0.221 C 
ATOM      4  O   UNL A   1      30.356  29.135  22.969  1.00  0.00    -0.275 OA
ATOM      5  H   UNL A   1      30.474  30.039  25.163  1.00  0.00     0.163 HD
BRANCH   3   6
ATOM      6  C   UNL A   1      32.236  27.744  23.458  1.00  0.00     0.122 C 
BRANCH   6   7
ATOM      7  C   UNL A   1      31.928  26.386  24.122  1.00  0.00     0.137 C 
BRANCH   7   8
ATOM      8  N   UNL A   1      32.916  25.305  23.891  1.00  0.00    -0.292 N 
ATOM      9  C   UNL A   1      34.219  22.342  25.346  1.00  0.00     0.041 C 
ATOM     10  C   UNL A   1      34.212  23.440  24.544  1.00  0.00     0.081 C 
ATOM     11  S   UNL A   1      34.509  23.575  22.844  1.00  0.00    -0.054 SA
ATOM     12  C   UNL A   1      33.581  24.739  24.986  1.00  0.00     0.266 C 
ATOM     13  C   UNL A   1      33.237  24.789  22.651  1.00  0.00     0.148 C 
ATOM     14  O   UNL A   1      33.574  25.118  26.118  1.00  0.00    -0.268 OA
ATOM     15  S   UNL A   1      32.525  25.109  21.176  1.00  0.00    -0.052 S 
BRANCH   9  16
ATOM     16  C   UNL A   1      34.657  20.984  24.978  1.00  0.00     0.104 A 
ATOM     17  C   UNL A   1      35.891  20.382  24.757  1.00  0.00     0.234 A 
ATOM     18  N   UNL A   1      35.837  19.028  24.352  1.00  0.00    -0.194 NA
ATOM     19  C   UNL A   1      34.814  18.262  24.642  1.00  0.00     0.143 A 
ATOM     20  C   UNL A   1      33.427  20.090  24.824  1.00  0.00     0.269 A 
ATOM     21  C   UNL A   1      34.839  16.748  24.579  1.00  0.00     0.048 A 
ATOM     22  N   UNL A   1      33.601  18.759  25.038  1.00  0.00    -0.267 N 
ATOM     23  O   UNL A   1      32.326  20.578  24.547  1.00  0.00    -0.268 OA
ATOM     24  C   UNL A   1      33.828  15.998  25.037  1.00  0.00     0.005 A 
ATOM     25  C   UNL A   1      32.525  17.955  25.415  1.00  0.00     0.096 A 
ATOM     26  C   UNL A   1      32.617  16.621  25.470  1.00  0.00     0.019 A 
BRANCH  17  27
ATOM     27  O   UNL A   1      37.311  21.083  24.748  1.00  0.00    -0.438 OA
BRANCH  27  28
ATOM     28  C   UNL A   1      38.221  21.763  25.753  1.00  0.00     0.130 A 
ATOM     29  C   UNL A   1      39.244  25.332  26.973  1.00  0.00     0.044 C 
ATOM     30  C   UNL A   1      39.301  23.820  26.895  1.00  0.00    -0.047 A 
ATOM     31  C   UNL A   1      40.447  23.126  27.135  1.00  0.00     0.007 A 
ATOM     32  C   UNL A   1      38.206  23.073  26.387  1.00  0.00     0.050 A 
ATOM     33  C   UNL A   1      40.457  21.743  26.873  1.00  0.00    -0.047 A 
ATOM     34  C   UNL A   1      41.674  21.031  27.393  1.00  0.00     0.044 C 
ATOM     35  C   UNL A   1      39.399  21.082  26.123  1.00  0.00     0.050 A 
ENDBRANCH  27  28
ENDBRANCH  17  27
ENDBRANCH   9  16
ENDBRANCH   7   8
ENDBRANCH   6   7
ENDBRANCH   3   6
ENDBRANCH   1   2
BRANCH   1  36
ATOM     36  C   UNL A   1      33.303  30.151  26.116  1.00  0.00     0.023 C 
BRANCH  36  37
ATOM     37  C   UNL A   1      33.620  30.905  27.399  1.00  0.00     0.023 C 
BRANCH  37  38
ATOM     38  C   UNL A   1      35.084  30.935  28.154  1.00  0.00     0.116 C 
BRANCH  38  39
ATOM     39  N   UNL A   1      35.825  29.929  29.327  1.00  0.00    -0.352 N 
ATOM     40  C   UNL A   1      37.027  29.292  29.982  1.00  0.00     0.251 C 
ATOM     41  H   UNL A   1      35.066  29.585  29.851  1.00  0.00     0.163 HD
ATOM     42  O   UNL A   1      36.789  28.958  31.156  1.00  0.00    -0.269 OA
BRANCH  40  43
ATOM     43  C   UNL A   1      38.509  28.814  29.465  1.00  0.00     0.039 A 
ATOM     44  C   UNL A   1      38.922  29.152  28.163  1.00  0.00     0.014 A 
ATOM     45  C   UNL A   1      39.493  28.038  30.072  1.00  0.00     0.014 A 
ATOM     46  C   UNL A   1      40.275  29.208  27.714  1.00  0.00     0.010 A 
ATOM     47  C   UNL A   1      40.876  28.128  29.695  1.00  0.00     0.010 A 
ATOM     48  C   UNL A   1      41.311  28.791  28.534  1.00  0.00    -0.014 A 
BRANCH  48  49
ATOM     49  C   UNL A   1      42.766  28.839  28.107  1.00  0.00     0.031 A 
ATOM     50  C   UNL A   1      43.362  27.637  27.406  1.00  0.00     0.074 A 
ATOM     51  C   UNL A   1      43.605  29.888  28.308  1.00  0.00     0.049 A 
ATOM     52  N   UNL A   1      44.608  27.377  27.084  1.00  0.00    -0.248 NA
ATOM     53  C   UNL A   1      42.417  26.572  27.043  1.00  0.00     0.031 C 
ATOM     54  C   UNL A   1      43.263  31.169  28.924  1.00  0.00     0.029 A 
ATOM     55  N   UNL A   1      44.952  30.032  28.003  1.00  0.00    -0.354 N 
ATOM     56  C   UNL A   1      44.599  26.093  26.552  1.00  0.00     0.074 A 
ATOM     57  C   UNL A   1      43.234  25.616  26.639  1.00  0.00     0.031 C 
ATOM     58  C   UNL A   1      44.351  31.967  28.930  1.00  0.00     0.029 A 
ATOM     59  C   UNL A   1      45.493  31.252  28.354  1.00  0.00     0.049 A 
ATOM     60  H   UNL A   1      45.480  29.322  27.570  1.00  0.00     0.167 HD
ATOM     61  C   UNL A   1      45.604  25.365  26.008  1.00  0.00     0.031 A 
ATOM     62  C   UNL A   1      46.749  31.745  28.238  1.00  0.00     0.031 A 
ATOM     63  C   UNL A   1      46.955  25.810  25.818  1.00  0.00     0.049 A 
ATOM     64  C   UNL A   1      47.873  30.912  27.654  1.00  0.00     0.074 A 
ATOM     65  C   UNL A   1      48.007  25.133  25.220  1.00  0.00     0.029 A 
ATOM     66  N   UNL A   1      47.440  27.047  26.196  1.00  0.00    -0.354 N 
ATOM     67  N   UNL A   1      47.835  29.703  27.152  1.00  0.00    -0.248 NA
ATOM     68  C   UNL A   1      49.218  31.522  27.619  1.00  0.00     0.031 C 
ATOM     69  C   UNL A   1      49.139  25.953  25.262  1.00  0.00     0.029 A 
ATOM     70  C   UNL A   1      48.778  27.153  25.849  1.00  0.00     0.049 A 
ATOM     71  H   UNL A   1      46.915  27.749  26.644  1.00  0.00     0.167 HD
ATOM     72  C   UNL A   1      49.127  29.434  26.702  1.00  0.00     0.074 A 
ATOM     73  C   UNL A   1      49.933  30.596  26.995  1.00  0.00     0.031 C 
ATOM     74  C   UNL A   1      49.588  28.315  26.094  1.00  0.00     0.031 A 
BRANCH  61  75
ATOM     75  C   UNL A   1      45.255  23.966  25.585  1.00  0.00    -0.014 A 
ATOM     76  C   UNL A   1      44.655  23.710  24.342  1.00  0.00     0.009 A 
ATOM     77  C   UNL A   1      45.491  22.901  26.466  1.00  0.00     0.009 A 
ATOM     78  C   UNL A   1      44.228  22.422  24.022  1.00  0.00     0.001 A 
ATOM     79  C   UNL A   1      45.096  21.608  26.127  1.00  0.00     0.001 A 
ATOM     80  C   UNL A   1      44.448  21.373  24.915  1.00  0.00     0.000 A 
ENDBRANCH  61  75
BRANCH  62  81
ATOM     81  C   UNL A   1      47.072  33.138  28.671  1.00  0.00    -0.014 A 
ATOM     82  C   UNL A   1      47.004  34.197  27.747  1.00  0.00     0.009 A 
ATOM     83  C   UNL A   1      47.553  33.402  29.962  1.00  0.00     0.009 A 
ATOM     84  C   UNL A   1      47.432  35.481  28.100  1.00  0.00     0.001 A 
ATOM     85  C   UNL A   1      47.960  34.693  30.317  1.00  0.00     0.001 A 
ATOM     86  C   UNL A   1      47.909  35.729  29.385  1.00  0.00     0.000 A 
ENDBRANCH  62  81
BRANCH  74  87
ATOM     87  C   UNL A   1      51.014  28.288  25.614  1.00  0.00    -0.014 A 
ATOM     88  C   UNL A   1      52.059  27.835  26.433  1.00  0.00     0.009 A 
ATOM     89  C   UNL A   1      51.298  28.620  24.278  1.00  0.00     0.009 A 
ATOM     90  C   UNL A   1      53.359  27.724  25.926  1.00  0.00     0.001 A 
ATOM     91  C   UNL A   1      52.592  28.490  23.769  1.00  0.00     0.001 A 
ATOM     92  C   UNL A   1      53.622  28.043  24.593  1.00  0.00     0.000 A 
ENDBRANCH  74  87
ENDBRANCH  48  49
ENDBRANCH  40  43
ENDBRANCH  38  39
ENDBRANCH  37  38
ENDBRANCH  36  37
ENDBRANCH   1  36
TORSDOF 16
ENDMDL
MODEL 3
REMARK VINA RESULT:     -11.7      3.423      8.092
REMARK SMILES Cc1cc(C)cc(Oc2nc3ccccn3c(=O)c2/C=C2\SC(=S)N(CCC(=O)NCCCCNC(=O)c3ccc(-c4c5nc(c(-c6ccccc6)c6ccc([nH]6)c(-c6ccccc6)c6nc(c(-c7ccccc7)c7ccc4[nH]7)C=C6)C=C5)cc3)C2=O)c1
REMARK SMILES IDX 31 1 30 2 28 3 29 4 27 6 26 7 25 8 20 9 21 10 22 11 86 12
REMARK SMILES IDX 23 13 87 14 24 15 19 16 9 17 10 18 11 19 17 20 12 21 16 22
REMARK SMILES IDX 18 23 13 24 15 25 14 26 8 27 7 28 1 29 2 30 3 31 88 32 4 33
REMARK SMILES IDX 5 34 6 35 32 36 33 37 34 38 35 39 36 40 37 42 38 43 39 44
REMARK SMILES IDX 85 45 40 46 84 47 41 48 42 49 43 50 78 51 44 52 83 53 77 54
REMARK SMILES IDX 79 55 45 56 82 57 76 58 75 59 46 61 68 62 53 63 67 64 54 65
REMARK SMILES IDX 57 66 66 67 80 68 55 69 56 70 65 72 81 73 58 74 47 75 48 76
REMARK SMILES IDX 52 77 49 78 51 79 50 80 69 81 70 82 74 83 71 84 73 85 72 86
REMARK SMILES IDX 59 87 60 88 64 89 61 90 63 91 62 92
REMARK H PARENT 30 5 35 41 79 60 57 71
REMARK Flexibility Score: inf
ROOT
ATOM      1  C   UNL A   1      31.627  29.651  25.377  1.00  0.00     0.116 C 
ENDROOT
BRANCH   1   2
ATOM      2  N   UNL A   1      31.348  29.571  23.948  1.00  0.00    -0.356 N 
ATOM      3  C   UNL A   1      30.641  28.651  23.235  1.00  0.00     0.221 C 
ATOM      4  O   UNL A   1      30.558  28.780  22.014  1.00  0.00    -0.275 OA
ATOM      5  H   UNL A   1      31.733  30.301  23.411  1.00  0.00     0.163 HD
BRANCH   3   6
ATOM      6  C   UNL A   1      29.951  27.504  23.941  1.00  0.00     0.122 C 
BRANCH   6   7
ATOM      7  C   UNL A   1      30.134  26.159  23.208  1.00  0.00     0.137 C 
BRANCH   7   8
ATOM      8  N   UNL A   1      31.377  25.412  23.513  1.00  0.00    -0.292 N 
ATOM      9  C   UNL A   1      32.559  22.475  25.117  1.00  0.00     0.041 C 
ATOM     10  C   UNL A   1      32.630  23.735  24.609  1.00  0.00     0.081 C 
ATOM     11  S   UNL A   1      33.751  24.415  23.479  1.00  0.00    -0.054 SA
ATOM     12  C   UNL A   1      31.469  24.696  24.713  1.00  0.00     0.266 C 
ATOM     13  C   UNL A   1      32.480  25.353  22.683  1.00  0.00     0.148 C 
ATOM     14  O   UNL A   1      30.712  24.720  25.635  1.00  0.00    -0.268 OA
ATOM     15  S   UNL A   1      32.644  25.940  21.130  1.00  0.00    -0.052 S 
BRANCH   9  16
ATOM     16  C   UNL A   1      33.551  21.399  24.946  1.00  0.00     0.104 A 
ATOM     17  C   UNL A   1      34.899  21.254  25.257  1.00  0.00     0.234 A 
ATOM     18  N   UNL A   1      35.485  20.034  24.846  1.00  0.00    -0.194 NA
ATOM     19  C   UNL A   1      34.768  18.952  24.665  1.00  0.00     0.143 A 
ATOM     20  C   UNL A   1      32.876  20.204  24.273  1.00  0.00     0.269 A 
ATOM     21  C   UNL A   1      35.344  17.551  24.593  1.00  0.00     0.048 A 
ATOM     22  N   UNL A   1      33.407  18.977  24.519  1.00  0.00    -0.267 N 
ATOM     23  O   UNL A   1      31.876  20.363  23.566  1.00  0.00    -0.268 OA
ATOM     24  C   UNL A   1      34.566  16.461  24.569  1.00  0.00     0.005 A 
ATOM     25  C   UNL A   1      32.625  17.828  24.394  1.00  0.00     0.096 A 
ATOM     26  C   UNL A   1      33.148  16.598  24.461  1.00  0.00     0.019 A 
BRANCH  17  27
ATOM     27  O   UNL A   1      35.867  22.353  25.860  1.00  0.00    -0.438 OA
BRANCH  27  28
ATOM     28  C   UNL A   1      37.363  22.586  25.954  1.00  0.00     0.130 A 
ATOM     29  C   UNL A   1      40.688  20.645  26.624  1.00  0.00     0.044 C 
ATOM     30  C   UNL A   1      39.809  21.855  26.379  1.00  0.00    -0.047 A 
ATOM     31  C   UNL A   1      40.130  23.090  26.853  1.00  0.00     0.007 A 
ATOM     32  C   UNL A   1      38.520  21.717  25.802  1.00  0.00     0.050 A 
ATOM     33  C   UNL A   1      39.179  24.120  26.730  1.00  0.00    -0.047 A 
ATOM     34  C   UNL A   1      39.711  25.486  27.058  1.00  0.00     0.044 C 
ATOM     35  C   UNL A   1      37.794  23.865  26.364  1.00  0.00     0.050 A 
ENDBRANCH  27  28
ENDBRANCH  17  27
ENDBRANCH   9  16
ENDBRANCH   7   8
ENDBRANCH   6   7
ENDBRANCH   3   6
ENDBRANCH   1   2
BRANCH   1  36
ATOM     36  C   UNL A   1      33.127  29.831  25.672  1.00  0.00     0.023 C 
BRANCH  36  37
ATOM     37  C   UNL A   1      33.513  29.976  27.137  1.00  0.00     0.023 C 
BRANCH  37  38
ATOM     38  C   UNL A   1      34.927  30.611  27.695  1.00  0.00     0.116 C 
BRANCH  38  39
ATOM     39  N   UNL A   1      36.487  29.954  27.966  1.00  0.00    -0.352 N 
ATOM     40  C   UNL A   1      37.739  29.765  28.788  1.00  0.00     0.251 C 
ATOM     41  H   UNL A   1      36.656  29.417  27.158  1.00  0.00     0.163 HD
ATOM     42  O   UNL A   1      38.337  28.719  28.482  1.00  0.00    -0.269 OA
BRANCH  40  43
ATOM     43  C   UNL A   1      38.558  30.680  29.876  1.00  0.00     0.039 A 
ATOM     44  C   UNL A   1      38.100  31.979  30.161  1.00  0.00     0.014 A 
ATOM     45  C   UNL A   1      39.732  30.440  30.586  1.00  0.00     0.014 A 
ATOM     46  C   UNL A   1      38.402  32.722  31.341  1.00  0.00     0.010 A 
ATOM     47  C   UNL A   1      40.028  31.115  31.820  1.00  0.00     0.010 A 
ATOM     48  C   UNL A   1      39.310  32.238  32.269  1.00  0.00    -0.014 A 
BRANCH  48  49
ATOM     49  C   UNL A   1      39.659  32.983  33.543  1.00  0.00     0.031 A 
ATOM     50  C   UNL A   1      40.725  34.057  33.494  1.00  0.00     0.074 A 
ATOM     51  C   UNL A   1      39.088  32.765  34.757  1.00  0.00     0.049 A 
ATOM     52  N   UNL A   1      41.303  34.721  34.469  1.00  0.00    -0.248 NA
ATOM     53  C   UNL A   1      41.222  34.406  32.157  1.00  0.00     0.031 C 
ATOM     54  C   UNL A   1      38.017  31.816  35.056  1.00  0.00     0.029 A 
ATOM     55  N   UNL A   1      39.349  33.348  35.990  1.00  0.00    -0.354 N 
ATOM     56  C   UNL A   1      42.277  35.505  33.863  1.00  0.00     0.074 A 
ATOM     57  C   UNL A   1      42.239  35.198  32.449  1.00  0.00     0.031 C 
ATOM     58  C   UNL A   1      37.700  31.898  36.365  1.00  0.00     0.029 A 
ATOM     59  C   UNL A   1      38.567  32.877  37.024  1.00  0.00     0.049 A 
ATOM     60  H   UNL A   1      40.037  34.042  36.117  1.00  0.00     0.167 HD
ATOM     61  C   UNL A   1      43.116  36.425  34.398  1.00  0.00     0.031 A 
ATOM     62  C   UNL A   1      38.543  33.183  38.344  1.00  0.00     0.031 A 
ATOM     63  C   UNL A   1      43.146  36.833  35.773  1.00  0.00     0.049 A 
ATOM     64  C   UNL A   1      39.506  34.192  38.938  1.00  0.00     0.074 A 
ATOM     65  C   UNL A   1      43.941  37.803  36.364  1.00  0.00     0.029 A 
ATOM     66  N   UNL A   1      42.337  36.320  36.769  1.00  0.00    -0.354 N 
ATOM     67  N   UNL A   1      40.412  34.925  38.341  1.00  0.00    -0.248 NA
ATOM     68  C   UNL A   1      39.434  34.416  40.397  1.00  0.00     0.031 C 
ATOM     69  C   UNL A   1      43.631  37.857  37.727  1.00  0.00     0.029 A 
ATOM     70  C   UNL A   1      42.616  36.949  37.972  1.00  0.00     0.049 A 
ATOM     71  H   UNL A   1      41.662  35.614  36.643  1.00  0.00     0.167 HD
ATOM     72  C   UNL A   1      40.976  35.722  39.335  1.00  0.00     0.074 A 
ATOM     73  C   UNL A   1      40.322  35.385  40.578  1.00  0.00     0.031 C 
ATOM     74  C   UNL A   1      41.949  36.657  39.212  1.00  0.00     0.031 A 
BRANCH  61  75
ATOM     75  C   UNL A   1      44.104  37.049  33.454  1.00  0.00    -0.014 A 
ATOM     76  C   UNL A   1      43.802  38.233  32.763  1.00  0.00     0.009 A 
ATOM     77  C   UNL A   1      45.332  36.414  33.223  1.00  0.00     0.009 A 
ATOM     78  C   UNL A   1      44.681  38.727  31.801  1.00  0.00     0.001 A 
ATOM     79  C   UNL A   1      46.226  36.932  32.287  1.00  0.00     0.001 A 
ATOM     80  C   UNL A   1      45.891  38.075  31.563  1.00  0.00     0.000 A 
ENDBRANCH  61  75
BRANCH  62  81
ATOM     81  C   UNL A   1      37.554  32.544  39.264  1.00  0.00    -0.014 A 
ATOM     82  C   UNL A   1      36.190  32.873  39.170  1.00  0.00     0.009 A 
ATOM     83  C   UNL A   1      37.972  31.698  40.303  1.00  0.00     0.009 A 
ATOM     84  C   UNL A   1      35.272  32.389  40.109  1.00  0.00     0.001 A 
ATOM     85  C   UNL A   1      37.048  31.199  41.227  1.00  0.00     0.001 A 
ATOM     86  C   UNL A   1      35.702  31.551  41.135  1.00  0.00     0.000 A 
ENDBRANCH  62  81
BRANCH  74  87
ATOM     87  C   UNL A   1      42.338  37.462  40.422  1.00  0.00    -0.014 A 
ATOM     88  C   UNL A   1      43.369  37.054  41.280  1.00  0.00     0.009 A 
ATOM     89  C   UNL A   1      41.729  38.710  40.644  1.00  0.00     0.009 A 
ATOM     90  C   UNL A   1      43.777  37.873  42.338  1.00  0.00     0.001 A 
ATOM     91  C   UNL A   1      42.151  39.535  41.689  1.00  0.00     0.001 A 
ATOM     92  C   UNL A   1      43.174  39.116  42.536  1.00  0.00     0.000 A 
ENDBRANCH  74  87
ENDBRANCH  48  49
ENDBRANCH  40  43
ENDBRANCH  38  39
ENDBRANCH  37  38
ENDBRANCH  36  37
ENDBRANCH   1  36
TORSDOF 16
ENDMDL
