MODEL 1
REMARK VINA RESULT:     -11.5      0.000      0.000
REMARK SMILES COc1cccc(CSc2nc3ccccc3c(=O)n2CCC(=O)NCCCCNC(=O)c2ccc(-c3c4nc(c(-c5ccccc5)c5ccc([nH]5)c(-c5ccccc5)c5nc(c(-c6ccccc6)c6ccc3[nH]6)C=C5)C=C4)cc2)c1
REMARK SMILES IDX 23 1 24 2 25 3 22 5 21 6 20 7 10 8 11 9 12 10 18 11 13 12
REMARK SMILES IDX 17 13 19 14 14 15 16 16 15 17 9 18 8 19 7 20 3 21 4 22 81 23
REMARK SMILES IDX 5 24 6 25 2 26 1 27 26 28 27 29 28 30 29 31 30 32 31 33
REMARK SMILES IDX 32 35 33 36 34 37 80 38 35 39 79 40 36 41 37 42 38 43 73 44
REMARK SMILES IDX 39 45 78 46 72 47 74 48 40 49 77 50 71 51 70 52 41 54 63 55
REMARK SMILES IDX 48 56 62 57 49 58 52 59 61 60 75 61 50 62 51 63 60 65 76 66
REMARK SMILES IDX 53 67 42 68 43 69 47 70 44 71 46 72 45 73 64 74 65 75 69 76
REMARK SMILES IDX 66 77 68 78 67 79 54 80 55 81 59 82 56 83 58 84 57 85
REMARK H PARENT 25 4 30 34 74 53 52 64
REMARK Flexibility Score: inf
ROOT
ATOM      1  C   UNL A   1      33.465  25.247  25.987  1.00  0.00     0.221 C 
ATOM      2  O   UNL A   1      32.777  24.932  26.959  1.00  0.00    -0.275 OA
ATOM      3  N   UNL A   1      34.267  24.298  25.417  1.00  0.00    -0.356 N 
ATOM      4  H   UNL A   1      34.152  23.379  25.751  1.00  0.00     0.163 HD
ENDROOT
BRANCH   1   5
ATOM      5  C   UNL A   1      33.430  26.660  25.426  1.00  0.00     0.122 C 
BRANCH   5   6
ATOM      6  C   UNL A   1      32.027  27.275  25.577  1.00  0.00     0.138 C 
BRANCH   6   7
ATOM      7  N   UNL A   1      31.547  27.891  24.337  1.00  0.00    -0.287 N 
ATOM      8  C   UNL A   1      31.058  27.231  23.225  1.00  0.00     0.171 A 
ATOM      9  N   UNL A   1      30.048  27.701  22.553  1.00  0.00    -0.224 NA
ATOM     10  C   UNL A   1      29.473  28.914  22.949  1.00  0.00     0.079 A 
ATOM     11  C   UNL A   1      31.365  29.276  24.425  1.00  0.00     0.262 A 
ATOM     12  C   UNL A   1      28.179  29.255  22.548  1.00  0.00     0.029 A 
ATOM     13  C   UNL A   1      30.166  29.803  23.759  1.00  0.00     0.066 A 
ATOM     14  O   UNL A   1      32.065  30.027  25.099  1.00  0.00    -0.269 OA
ATOM     15  C   UNL A   1      27.612  30.476  22.932  1.00  0.00     0.002 A 
ATOM     16  C   UNL A   1      29.646  31.059  24.089  1.00  0.00     0.016 A 
ATOM     17  C   UNL A   1      28.359  31.393  23.673  1.00  0.00     0.001 A 
BRANCH   8  18
ATOM     18  S   UNL A   1      31.599  25.681  22.606  1.00  0.00    -0.083 SA
BRANCH  18  19
ATOM     19  C   UNL A   1      30.487  24.320  22.944  1.00  0.00     0.113 C 
BRANCH  19  20
ATOM     20  C   UNL A   1      31.085  23.226  23.782  1.00  0.00    -0.034 A 
ATOM     21  C   UNL A   1      32.368  21.169  23.955  1.00  0.00     0.119 A 
ATOM     22  C   UNL A   1      32.034  21.089  25.307  1.00  0.00     0.046 A 
ATOM     23  C   UNL A   1      31.940  22.268  23.215  1.00  0.00     0.051 A 
ATOM     24  C   UNL A   1      31.263  22.082  25.909  1.00  0.00     0.004 A 
ATOM     25  C   UNL A   1      30.781  23.141  25.147  1.00  0.00     0.005 A 
BRANCH  21  26
ATOM     26  O   UNL A   1      33.104  20.126  23.466  1.00  0.00    -0.497 OA
ATOM     27  C   UNL A   1      32.439  18.869  23.378  1.00  0.00     0.278 C 
ENDBRANCH  21  26
ENDBRANCH  19  20
ENDBRANCH  18  19
ENDBRANCH   8  18
ENDBRANCH   6   7
ENDBRANCH   5   6
ENDBRANCH   1   5
BRANCH   3  28
ATOM     28  C   UNL A   1      35.271  24.476  24.378  1.00  0.00     0.116 C 
BRANCH  28  29
ATOM     29  C   UNL A   1      35.412  23.193  23.574  1.00  0.00     0.023 C 
BRANCH  29  30
ATOM     30  C   UNL A   1      36.707  22.405  23.735  1.00  0.00     0.023 C 
BRANCH  30  31
ATOM     31  C   UNL A   1      37.004  22.074  25.181  1.00  0.00     0.116 C 
BRANCH  31  32
ATOM     32  N   UNL A   1      38.108  21.134  25.345  1.00  0.00    -0.352 N 
ATOM     33  C   UNL A   1      39.267  21.252  26.078  1.00  0.00     0.251 C 
ATOM     34  H   UNL A   1      38.008  20.285  24.858  1.00  0.00     0.163 HD
ATOM     35  O   UNL A   1      40.076  20.336  26.106  1.00  0.00    -0.269 OA
BRANCH  33  36
ATOM     36  C   UNL A   1      39.577  22.549  26.718  1.00  0.00     0.039 A 
ATOM     37  C   UNL A   1      40.627  22.594  27.639  1.00  0.00     0.014 A 
ATOM     38  C   UNL A   1      38.958  23.724  26.305  1.00  0.00     0.014 A 
ATOM     39  C   UNL A   1      41.133  23.830  28.039  1.00  0.00     0.010 A 
ATOM     40  C   UNL A   1      39.560  24.939  26.574  1.00  0.00     0.010 A 
ATOM     41  C   UNL A   1      40.652  25.007  27.450  1.00  0.00    -0.014 A 
BRANCH  41  42
ATOM     42  C   UNL A   1      41.251  26.330  27.737  1.00  0.00     0.031 A 
ATOM     43  C   UNL A   1      42.572  26.694  27.115  1.00  0.00     0.074 A 
ATOM     44  C   UNL A   1      40.663  27.151  28.628  1.00  0.00     0.049 A 
ATOM     45  N   UNL A   1      43.328  27.738  27.333  1.00  0.00    -0.248 NA
ATOM     46  C   UNL A   1      43.151  25.723  26.170  1.00  0.00     0.031 C 
ATOM     47  C   UNL A   1      39.426  26.871  29.367  1.00  0.00     0.029 A 
ATOM     48  N   UNL A   1      41.029  28.398  29.065  1.00  0.00    -0.354 N 
ATOM     49  C   UNL A   1      44.487  27.515  26.601  1.00  0.00     0.074 A 
ATOM     50  C   UNL A   1      44.366  26.212  25.993  1.00  0.00     0.031 C 
ATOM     51  C   UNL A   1      39.106  27.942  30.113  1.00  0.00     0.029 A 
ATOM     52  C   UNL A   1      40.130  28.964  29.936  1.00  0.00     0.049 A 
ATOM     53  H   UNL A   1      41.858  28.846  28.780  1.00  0.00     0.167 HD
ATOM     54  C   UNL A   1      45.544  28.340  26.416  1.00  0.00     0.031 A 
ATOM     55  C   UNL A   1      40.128  30.181  30.508  1.00  0.00     0.031 A 
ATOM     56  C   UNL A   1      45.618  29.667  26.957  1.00  0.00     0.049 A 
ATOM     57  C   UNL A   1      41.253  31.126  30.194  1.00  0.00     0.074 A 
ATOM     58  C   UNL A   1      46.600  30.624  26.777  1.00  0.00     0.029 A 
ATOM     59  N   UNL A   1      44.641  30.236  27.760  1.00  0.00    -0.354 N 
ATOM     60  N   UNL A   1      42.319  30.924  29.457  1.00  0.00    -0.248 NA
ATOM     61  C   UNL A   1      41.161  32.475  30.769  1.00  0.00     0.031 C 
ATOM     62  C   UNL A   1      46.218  31.773  27.479  1.00  0.00     0.029 A 
ATOM     63  C   UNL A   1      44.985  31.538  28.068  1.00  0.00     0.049 A 
ATOM     64  H   UNL A   1      43.823  29.779  28.064  1.00  0.00     0.167 HD
ATOM     65  C   UNL A   1      43.008  32.129  29.452  1.00  0.00     0.074 A 
ATOM     66  C   UNL A   1      42.232  33.057  30.250  1.00  0.00     0.031 C 
ATOM     67  C   UNL A   1      44.178  32.440  28.845  1.00  0.00     0.031 A 
BRANCH  54  68
ATOM     68  C   UNL A   1      46.675  27.822  25.574  1.00  0.00    -0.014 A 
ATOM     69  C   UNL A   1      46.691  28.017  24.182  1.00  0.00     0.009 A 
ATOM     70  C   UNL A   1      47.724  27.106  26.170  1.00  0.00     0.009 A 
ATOM     71  C   UNL A   1      47.701  27.456  23.399  1.00  0.00     0.001 A 
ATOM     72  C   UNL A   1      48.751  26.575  25.388  1.00  0.00     0.001 A 
ATOM     73  C   UNL A   1      48.731  26.737  24.003  1.00  0.00     0.000 A 
ENDBRANCH  54  68
BRANCH  55  74
ATOM     74  C   UNL A   1      38.992  30.604  31.367  1.00  0.00    -0.014 A 
ATOM     75  C   UNL A   1      39.054  30.416  32.757  1.00  0.00     0.009 A 
ATOM     76  C   UNL A   1      37.846  31.191  30.812  1.00  0.00     0.009 A 
ATOM     77  C   UNL A   1      37.979  30.778  33.571  1.00  0.00     0.001 A 
ATOM     78  C   UNL A   1      36.781  31.574  31.633  1.00  0.00     0.001 A 
ATOM     79  C   UNL A   1      36.843  31.358  33.008  1.00  0.00     0.000 A 
ENDBRANCH  55  74
BRANCH  67  80
ATOM     80  C   UNL A   1      44.655  33.855  28.976  1.00  0.00    -0.014 A 
ATOM     81  C   UNL A   1      45.515  34.240  30.016  1.00  0.00     0.009 A 
ATOM     82  C   UNL A   1      44.268  34.804  28.018  1.00  0.00     0.009 A 
ATOM     83  C   UNL A   1      45.956  35.560  30.109  1.00  0.00     0.001 A 
ATOM     84  C   UNL A   1      44.730  36.118  28.101  1.00  0.00     0.001 A 
ATOM     85  C   UNL A   1      45.566  36.496  29.150  1.00  0.00     0.000 A 
ENDBRANCH  67  80
ENDBRANCH  41  42
ENDBRANCH  33  36
ENDBRANCH  31  32
ENDBRANCH  30  31
ENDBRANCH  29  30
ENDBRANCH  28  29
ENDBRANCH   3  28
TORSDOF 17
ENDMDL
MODEL 2
REMARK VINA RESULT:     -11.5      1.679      3.963
REMARK SMILES COc1cccc(CSc2nc3ccccc3c(=O)n2CCC(=O)NCCCCNC(=O)c2ccc(-c3c4nc(c(-c5ccccc5)c5ccc([nH]5)c(-c5ccccc5)c5nc(c(-c6ccccc6)c6ccc3[nH]6)C=C5)C=C4)cc2)c1
REMARK SMILES IDX 23 1 24 2 25 3 22 5 21 6 20 7 10 8 11 9 12 10 18 11 13 12
REMARK SMILES IDX 17 13 19 14 14 15 16 16 15 17 9 18 8 19 7 20 3 21 4 22 81 23
REMARK SMILES IDX 5 24 6 25 2 26 1 27 26 28 27 29 28 30 29 31 30 32 31 33
REMARK SMILES IDX 32 35 33 36 34 37 80 38 35 39 79 40 36 41 37 42 38 43 73 44
REMARK SMILES IDX 39 45 78 46 72 47 74 48 40 49 77 50 71 51 70 52 41 54 63 55
REMARK SMILES IDX 48 56 62 57 49 58 52 59 61 60 75 61 50 62 51 63 60 65 76 66
REMARK SMILES IDX 53 67 42 68 43 69 47 70 44 71 46 72 45 73 64 74 65 75 69 76
REMARK SMILES IDX 66 77 68 78 67 79 54 80 55 81 59 82 56 83 58 84 57 85
REMARK H PARENT 25 4 30 34 74 53 52 64
REMARK Flexibility Score: inf
ROOT
ATOM      1  C   UNL A   1      32.639  24.312  24.120  1.00  0.00     0.221 C 
ATOM      2  O   UNL A   1      31.734  24.300  24.955  1.00  0.00    -0.275 OA
ATOM      3  N   UNL A   1      33.130  23.119  23.669  1.00  0.00    -0.356 N 
ATOM      4  H   UNL A   1      32.641  22.314  23.957  1.00  0.00     0.163 HD
ENDROOT
BRANCH   1   5
ATOM      5  C   UNL A   1      33.204  25.622  23.594  1.00  0.00     0.122 C 
BRANCH   5   6
ATOM      6  C   UNL A   1      32.140  26.397  22.796  1.00  0.00     0.138 C 
BRANCH   6   7
ATOM      7  N   UNL A   1      31.387  27.338  23.629  1.00  0.00    -0.287 N 
ATOM      8  C   UNL A   1      31.878  28.485  24.225  1.00  0.00     0.171 A 
ATOM      9  N   UNL A   1      31.165  29.572  24.281  1.00  0.00    -0.224 NA
ATOM     10  C   UNL A   1      29.867  29.563  23.757  1.00  0.00     0.079 A 
ATOM     11  C   UNL A   1      30.001  27.145  23.592  1.00  0.00     0.262 A 
ATOM     12  C   UNL A   1      29.225  30.757  23.422  1.00  0.00     0.029 A 
ATOM     13  C   UNL A   1      29.190  28.370  23.547  1.00  0.00     0.066 A 
ATOM     14  O   UNL A   1      29.455  26.051  23.485  1.00  0.00    -0.269 OA
ATOM     15  C   UNL A   1      27.921  30.746  22.912  1.00  0.00     0.002 A 
ATOM     16  C   UNL A   1      27.860  28.344  23.112  1.00  0.00     0.016 A 
ATOM     17  C   UNL A   1      27.226  29.542  22.791  1.00  0.00     0.001 A 
BRANCH   8  18
ATOM     18  S   UNL A   1      33.488  28.716  24.882  1.00  0.00    -0.083 SA
BRANCH  18  19
ATOM     19  C   UNL A   1      33.566  28.706  26.670  1.00  0.00     0.113 C 
BRANCH  19  20
ATOM     20  C   UNL A   1      34.299  29.874  27.264  1.00  0.00    -0.034 A 
ATOM     21  C   UNL A   1      34.330  32.197  27.978  1.00  0.00     0.119 A 
ATOM     22  C   UNL A   1      35.706  32.102  28.188  1.00  0.00     0.046 A 
ATOM     23  C   UNL A   1      33.626  31.066  27.574  1.00  0.00     0.051 A 
ATOM     24  C   UNL A   1      36.376  30.898  27.974  1.00  0.00     0.004 A 
ATOM     25  C   UNL A   1      35.677  29.792  27.504  1.00  0.00     0.005 A 
BRANCH  21  26
ATOM     26  O   UNL A   1      33.785  33.432  28.193  1.00  0.00    -0.497 OA
ATOM     27  C   UNL A   1      34.626  34.551  27.922  1.00  0.00     0.278 C 
ENDBRANCH  21  26
ENDBRANCH  19  20
ENDBRANCH  18  19
ENDBRANCH   8  18
ENDBRANCH   6   7
ENDBRANCH   5   6
ENDBRANCH   1   5
BRANCH   3  28
ATOM     28  C   UNL A   1      34.287  22.888  22.817  1.00  0.00     0.116 C 
BRANCH  28  29
ATOM     29  C   UNL A   1      35.555  22.900  23.655  1.00  0.00     0.023 C 
BRANCH  29  30
ATOM     30  C   UNL A   1      35.858  21.658  24.486  1.00  0.00     0.023 C 
BRANCH  30  31
ATOM     31  C   UNL A   1      36.849  21.934  25.595  1.00  0.00     0.116 C 
BRANCH  31  32
ATOM     32  N   UNL A   1      38.029  21.078  25.543  1.00  0.00    -0.352 N 
ATOM     33  C   UNL A   1      39.279  21.264  26.088  1.00  0.00     0.251 C 
ATOM     34  H   UNL A   1      37.914  20.239  25.043  1.00  0.00     0.163 HD
ATOM     35  O   UNL A   1      40.147  20.414  25.950  1.00  0.00    -0.269 OA
BRANCH  33  36
ATOM     36  C   UNL A   1      39.593  22.562  26.725  1.00  0.00     0.039 A 
ATOM     37  C   UNL A   1      40.634  22.603  27.657  1.00  0.00     0.014 A 
ATOM     38  C   UNL A   1      38.989  23.740  26.299  1.00  0.00     0.014 A 
ATOM     39  C   UNL A   1      41.146  23.836  28.057  1.00  0.00     0.010 A 
ATOM     40  C   UNL A   1      39.598  24.952  26.569  1.00  0.00     0.010 A 
ATOM     41  C   UNL A   1      40.681  25.014  27.456  1.00  0.00    -0.014 A 
BRANCH  41  42
ATOM     42  C   UNL A   1      41.289  26.334  27.743  1.00  0.00     0.031 A 
ATOM     43  C   UNL A   1      42.599  26.700  27.100  1.00  0.00     0.074 A 
ATOM     44  C   UNL A   1      40.719  27.149  28.652  1.00  0.00     0.049 A 
ATOM     45  N   UNL A   1      43.361  27.741  27.312  1.00  0.00    -0.248 NA
ATOM     46  C   UNL A   1      43.158  25.736  26.136  1.00  0.00     0.031 C 
ATOM     47  C   UNL A   1      39.495  26.866  29.410  1.00  0.00     0.029 A 
ATOM     48  N   UNL A   1      41.096  28.391  29.091  1.00  0.00    -0.354 N 
ATOM     49  C   UNL A   1      44.506  27.522  26.557  1.00  0.00     0.074 A 
ATOM     50  C   UNL A   1      44.371  26.224  25.940  1.00  0.00     0.031 C 
ATOM     51  C   UNL A   1      39.191  27.931  30.171  1.00  0.00     0.029 A 
ATOM     52  C   UNL A   1      40.214  28.952  29.983  1.00  0.00     0.049 A 
ATOM     53  H   UNL A   1      41.920  28.841  28.795  1.00  0.00     0.167 HD
ATOM     54  C   UNL A   1      45.561  28.346  26.360  1.00  0.00     0.031 A 
ATOM     55  C   UNL A   1      40.225  30.164  30.566  1.00  0.00     0.031 A 
ATOM     56  C   UNL A   1      45.648  29.669  26.910  1.00  0.00     0.049 A 
ATOM     57  C   UNL A   1      41.346  31.110  30.238  1.00  0.00     0.074 A 
ATOM     58  C   UNL A   1      46.629  30.625  26.720  1.00  0.00     0.029 A 
ATOM     59  N   UNL A   1      44.686  30.233  27.735  1.00  0.00    -0.354 N 
ATOM     60  N   UNL A   1      42.398  30.911  29.480  1.00  0.00    -0.248 NA
ATOM     61  C   UNL A   1      41.267  32.454  30.826  1.00  0.00     0.031 C 
ATOM     62  C   UNL A   1      46.262  31.769  27.438  1.00  0.00     0.029 A 
ATOM     63  C   UNL A   1      45.039  31.532  28.047  1.00  0.00     0.049 A 
ATOM     64  H   UNL A   1      43.874  29.775  28.051  1.00  0.00     0.167 HD
ATOM     65  C   UNL A   1      43.089  32.115  29.472  1.00  0.00     0.074 A 
ATOM     66  C   UNL A   1      42.330  33.039  30.292  1.00  0.00     0.031 C 
ATOM     67  C   UNL A   1      44.249  32.429  28.847  1.00  0.00     0.031 A 
BRANCH  54  68
ATOM     68  C   UNL A   1      46.675  27.833  25.493  1.00  0.00    -0.014 A 
ATOM     69  C   UNL A   1      46.689  28.080  24.109  1.00  0.00     0.009 A 
ATOM     70  C   UNL A   1      47.708  27.069  26.056  1.00  0.00     0.009 A 
ATOM     71  C   UNL A   1      47.682  27.524  23.300  1.00  0.00     0.001 A 
ATOM     72  C   UNL A   1      48.719  26.543  25.248  1.00  0.00     0.001 A 
ATOM     73  C   UNL A   1      48.697  26.758  23.871  1.00  0.00     0.000 A 
ENDBRANCH  54  68
BRANCH  55  74
ATOM     74  C   UNL A   1      39.106  30.583  31.448  1.00  0.00    -0.014 A 
ATOM     75  C   UNL A   1      39.115  30.233  32.809  1.00  0.00     0.009 A 
ATOM     76  C   UNL A   1      38.028  31.325  30.946  1.00  0.00     0.009 A 
ATOM     77  C   UNL A   1      38.053  30.590  33.641  1.00  0.00     0.001 A 
ATOM     78  C   UNL A   1      36.977  31.702  31.788  1.00  0.00     0.001 A 
ATOM     79  C   UNL A   1      36.985  31.326  33.130  1.00  0.00     0.000 A 
ENDBRANCH  55  74
BRANCH  67  80
ATOM     80  C   UNL A   1      44.731  33.842  28.980  1.00  0.00    -0.014 A 
ATOM     81  C   UNL A   1      45.497  34.248  30.083  1.00  0.00     0.009 A 
ATOM     82  C   UNL A   1      44.448  34.766  27.964  1.00  0.00     0.009 A 
ATOM     83  C   UNL A   1      45.945  35.565  30.179  1.00  0.00     0.001 A 
ATOM     84  C   UNL A   1      44.918  36.076  28.051  1.00  0.00     0.001 A 
ATOM     85  C   UNL A   1      45.659  36.477  29.161  1.00  0.00     0.000 A 
ENDBRANCH  67  80
ENDBRANCH  41  42
ENDBRANCH  33  36
ENDBRANCH  31  32
ENDBRANCH  30  31
ENDBRANCH  29  30
ENDBRANCH  28  29
ENDBRANCH   3  28
TORSDOF 17
ENDMDL
MODEL 3
REMARK VINA RESULT:     -11.5      2.080      7.964
REMARK SMILES COc1cccc(CSc2nc3ccccc3c(=O)n2CCC(=O)NCCCCNC(=O)c2ccc(-c3c4nc(c(-c5ccccc5)c5ccc([nH]5)c(-c5ccccc5)c5nc(c(-c6ccccc6)c6ccc3[nH]6)C=C5)C=C4)cc2)c1
REMARK SMILES IDX 23 1 24 2 25 3 22 5 21 6 20 7 10 8 11 9 12 10 18 11 13 12
REMARK SMILES IDX 17 13 19 14 14 15 16 16 15 17 9 18 8 19 7 20 3 21 4 22 81 23
REMARK SMILES IDX 5 24 6 25 2 26 1 27 26 28 27 29 28 30 29 31 30 32 31 33
REMARK SMILES IDX 32 35 33 36 34 37 80 38 35 39 79 40 36 41 37 42 38 43 73 44
REMARK SMILES IDX 39 45 78 46 72 47 74 48 40 49 77 50 71 51 70 52 41 54 63 55
REMARK SMILES IDX 48 56 62 57 49 58 52 59 61 60 75 61 50 62 51 63 60 65 76 66
REMARK SMILES IDX 53 67 42 68 43 69 47 70 44 71 46 72 45 73 64 74 65 75 69 76
REMARK SMILES IDX 66 77 68 78 67 79 54 80 55 81 59 82 56 83 58 84 57 85
REMARK H PARENT 25 4 30 34 74 53 52 64
REMARK Flexibility Score: inf
ROOT
ATOM      1  C   UNL A   1      32.199  26.833  26.683  1.00  0.00     0.221 C 
ATOM      2  O   UNL A   1      30.997  26.700  26.912  1.00  0.00    -0.275 OA
ATOM      3  N   UNL A   1      32.802  28.015  27.013  1.00  0.00    -0.356 N 
ATOM      4  H   UNL A   1      32.253  28.649  27.529  1.00  0.00     0.163 HD
ENDROOT
BRANCH   1   5
ATOM      5  C   UNL A   1      33.006  25.713  26.046  1.00  0.00     0.122 C 
BRANCH   5   6
ATOM      6  C   UNL A   1      32.113  24.839  25.146  1.00  0.00     0.138 C 
BRANCH   6   7
ATOM      7  N   UNL A   1      32.888  24.040  24.193  1.00  0.00    -0.287 N 
ATOM      8  C   UNL A   1      33.606  24.516  23.112  1.00  0.00     0.171 A 
ATOM      9  N   UNL A   1      34.759  24.005  22.791  1.00  0.00    -0.224 NA
ATOM     10  C   UNL A   1      35.259  22.933  23.539  1.00  0.00     0.079 A 
ATOM     11  C   UNL A   1      33.084  22.713  24.592  1.00  0.00     0.262 A 
ATOM     12  C   UNL A   1      36.620  22.620  23.514  1.00  0.00     0.029 A 
ATOM     13  C   UNL A   1      34.421  22.161  24.331  1.00  0.00     0.066 A 
ATOM     14  O   UNL A   1      32.267  22.051  25.225  1.00  0.00    -0.269 OA
ATOM     15  C   UNL A   1      37.115  21.537  24.251  1.00  0.00     0.002 A 
ATOM     16  C   UNL A   1      34.884  21.030  25.011  1.00  0.00     0.016 A 
ATOM     17  C   UNL A   1      36.242  20.720  24.970  1.00  0.00     0.001 A 
BRANCH   8  18
ATOM     18  S   UNL A   1      33.182  25.881  22.093  1.00  0.00    -0.083 SA
BRANCH  18  19
ATOM     19  C   UNL A   1      31.429  26.226  22.010  1.00  0.00     0.113 C 
BRANCH  19  20
ATOM     20  C   UNL A   1      31.012  27.484  22.716  1.00  0.00    -0.034 A 
ATOM     21  C   UNL A   1      29.359  29.218  23.129  1.00  0.00     0.119 A 
ATOM     22  C   UNL A   1      30.302  29.922  23.878  1.00  0.00     0.046 A 
ATOM     23  C   UNL A   1      29.702  27.975  22.603  1.00  0.00     0.051 A 
ATOM     24  C   UNL A   1      31.580  29.403  24.080  1.00  0.00     0.004 A 
ATOM     25  C   UNL A   1      31.937  28.194  23.492  1.00  0.00     0.005 A 
BRANCH  21  26
ATOM     26  O   UNL A   1      28.149  29.834  22.975  1.00  0.00    -0.497 OA
ATOM     27  C   UNL A   1      27.955  30.551  21.758  1.00  0.00     0.278 C 
ENDBRANCH  21  26
ENDBRANCH  19  20
ENDBRANCH  18  19
ENDBRANCH   8  18
ENDBRANCH   6   7
ENDBRANCH   5   6
ENDBRANCH   1   5
BRANCH   3  28
ATOM     28  C   UNL A   1      34.153  28.454  26.698  1.00  0.00     0.116 C 
BRANCH  28  29
ATOM     29  C   UNL A   1      34.571  29.562  27.651  1.00  0.00     0.023 C 
BRANCH  29  30
ATOM     30  C   UNL A   1      33.790  30.870  27.590  1.00  0.00     0.023 C 
BRANCH  30  31
ATOM     31  C   UNL A   1      34.538  32.018  28.230  1.00  0.00     0.116 C 
BRANCH  31  32
ATOM     32  N   UNL A   1      34.164  32.250  29.622  1.00  0.00    -0.352 N 
ATOM     33  C   UNL A   1      34.953  32.330  30.746  1.00  0.00     0.251 C 
ATOM     34  H   UNL A   1      33.200  32.369  29.780  1.00  0.00     0.163 HD
ATOM     35  O   UNL A   1      34.451  32.551  31.839  1.00  0.00    -0.269 OA
BRANCH  33  36
ATOM     36  C   UNL A   1      36.393  32.013  30.631  1.00  0.00     0.039 A 
ATOM     37  C   UNL A   1      36.936  31.081  31.520  1.00  0.00     0.014 A 
ATOM     38  C   UNL A   1      37.156  32.496  29.574  1.00  0.00     0.014 A 
ATOM     39  C   UNL A   1      38.197  30.545  31.265  1.00  0.00     0.010 A 
ATOM     40  C   UNL A   1      38.331  31.851  29.233  1.00  0.00     0.010 A 
ATOM     41  C   UNL A   1      38.868  30.871  30.079  1.00  0.00    -0.014 A 
BRANCH  41  42
ATOM     42  C   UNL A   1      40.143  30.223  29.695  1.00  0.00     0.031 A 
ATOM     43  C   UNL A   1      41.429  30.996  29.808  1.00  0.00     0.074 A 
ATOM     44  C   UNL A   1      40.130  28.989  29.156  1.00  0.00     0.049 A 
ATOM     45  N   UNL A   1      42.629  30.665  29.409  1.00  0.00    -0.248 NA
ATOM     46  C   UNL A   1      41.342  32.347  30.390  1.00  0.00     0.031 C 
ATOM     47  C   UNL A   1      38.935  28.172  28.911  1.00  0.00     0.029 A 
ATOM     48  N   UNL A   1      41.161  28.200  28.716  1.00  0.00    -0.354 N 
ATOM     49  C   UNL A   1      43.417  31.787  29.637  1.00  0.00     0.074 A 
ATOM     50  C   UNL A   1      42.550  32.825  30.140  1.00  0.00     0.031 C 
ATOM     51  C   UNL A   1      39.310  26.977  28.426  1.00  0.00     0.029 A 
ATOM     52  C   UNL A   1      40.761  26.956  28.290  1.00  0.00     0.049 A 
ATOM     53  H   UNL A   1      42.099  28.496  28.707  1.00  0.00     0.167 HD
ATOM     54  C   UNL A   1      44.753  31.929  29.480  1.00  0.00     0.031 A 
ATOM     55  C   UNL A   1      41.492  25.913  27.859  1.00  0.00     0.031 A 
ATOM     56  C   UNL A   1      45.620  30.865  29.059  1.00  0.00     0.049 A 
ATOM     57  C   UNL A   1      42.987  26.053  27.807  1.00  0.00     0.074 A 
ATOM     58  C   UNL A   1      46.998  30.865  28.936  1.00  0.00     0.029 A 
ATOM     59  N   UNL A   1      45.183  29.592  28.726  1.00  0.00    -0.354 N 
ATOM     60  N   UNL A   1      43.726  27.102  28.075  1.00  0.00    -0.248 NA
ATOM     61  C   UNL A   1      43.748  24.859  27.417  1.00  0.00     0.031 C 
ATOM     62  C   UNL A   1      47.394  29.589  28.521  1.00  0.00     0.029 A 
ATOM     63  C   UNL A   1      46.266  28.790  28.417  1.00  0.00     0.049 A 
ATOM     64  H   UNL A   1      44.242  29.302  28.712  1.00  0.00     0.167 HD
ATOM     65  C   UNL A   1      45.041  26.686  27.920  1.00  0.00     0.074 A 
ATOM     66  C   UNL A   1      44.995  25.287  27.545  1.00  0.00     0.031 C 
ATOM     67  C   UNL A   1      46.185  27.396  28.070  1.00  0.00     0.031 A 
BRANCH  54  68
ATOM     68  C   UNL A   1      45.338  33.276  29.797  1.00  0.00    -0.014 A 
ATOM     69  C   UNL A   1      45.599  33.659  31.124  1.00  0.00     0.009 A 
ATOM     70  C   UNL A   1      45.606  34.185  28.763  1.00  0.00     0.009 A 
ATOM     71  C   UNL A   1      46.060  34.944  31.413  1.00  0.00     0.001 A 
ATOM     72  C   UNL A   1      46.100  35.459  29.053  1.00  0.00     0.001 A 
ATOM     73  C   UNL A   1      46.311  35.843  30.377  1.00  0.00     0.000 A 
ENDBRANCH  54  68
BRANCH  55  74
ATOM     74  C   UNL A   1      40.833  24.625  27.521  1.00  0.00    -0.014 A 
ATOM     75  C   UNL A   1      41.317  23.424  28.067  1.00  0.00     0.009 A 
ATOM     76  C   UNL A   1      39.728  24.581  26.660  1.00  0.00     0.009 A 
ATOM     77  C   UNL A   1      40.729  22.203  27.730  1.00  0.00     0.001 A 
ATOM     78  C   UNL A   1      39.126  23.359  26.344  1.00  0.00     0.001 A 
ATOM     79  C   UNL A   1      39.632  22.172  26.870  1.00  0.00     0.000 A 
ENDBRANCH  55  74
BRANCH  67  80
ATOM     80  C   UNL A   1      47.474  26.655  27.885  1.00  0.00    -0.014 A 
ATOM     81  C   UNL A   1      48.097  26.582  26.630  1.00  0.00     0.009 A 
ATOM     82  C   UNL A   1      48.091  26.057  28.994  1.00  0.00     0.009 A 
ATOM     83  C   UNL A   1      49.304  25.897  26.485  1.00  0.00     0.001 A 
ATOM     84  C   UNL A   1      49.309  25.394  28.850  1.00  0.00     0.001 A 
ATOM     85  C   UNL A   1      49.910  25.307  27.596  1.00  0.00     0.000 A 
ENDBRANCH  67  80
ENDBRANCH  41  42
ENDBRANCH  33  36
ENDBRANCH  31  32
ENDBRANCH  30  31
ENDBRANCH  29  30
ENDBRANCH  28  29
ENDBRANCH   3  28
TORSDOF 17
ENDMDL
