MODEL 1
REMARK VINA RESULT:     -10.6      0.000      0.000
REMARK SMILES O=C(CNC(=O)c1ccc(N2CCCC2)cc1)NCCCCNC(=O)c1ccc(-c2c3nc(c(-c4ccccc4)c4ccc([nH]4)c(-c4ccccc4)c4nc(c(-c5ccccc5)c5ccc2[nH]5)C=C4)C=C3)cc1
REMARK SMILES IDX 20 1 19 2 18 3 1 4 2 5 3 7 4 8 5 9 6 11 7 12 8 13 17 14 9 15
REMARK SMILES IDX 16 16 10 17 11 18 12 19 15 20 13 21 14 22 21 23 22 24 23 25
REMARK SMILES IDX 24 26 25 28 26 29 27 30 73 31 28 32 72 33 29 34 30 35 31 36
REMARK SMILES IDX 66 37 32 38 71 39 65 40 67 41 33 42 70 43 64 44 63 45 34 47
REMARK SMILES IDX 56 48 41 49 55 50 42 51 45 52 54 53 68 54 43 55 44 56 53 58
REMARK SMILES IDX 69 59 46 60 35 61 36 62 40 63 37 64 39 65 38 66 57 67 58 68
REMARK SMILES IDX 62 69 59 70 61 71 60 72 47 73 48 74 52 75 49 76 51 77 50 78
REMARK H PARENT 18 6 4 10 23 27 67 46 45 57
REMARK Flexibility Score: inf
ROOT
ATOM      1  C   UNL A   1      32.195  29.689  25.203  1.00  0.00     0.023 C 
ENDROOT
BRANCH   1   2
ATOM      2  C   UNL A   1      31.046  29.168  24.338  1.00  0.00     0.116 C 
BRANCH   2   3
ATOM      3  N   UNL A   1      30.962  27.721  24.336  1.00  0.00    -0.355 N 
ATOM      4  O   UNL A   1      30.619  27.525  22.075  1.00  0.00    -0.273 OA
ATOM      5  C   UNL A   1      30.780  26.999  23.174  1.00  0.00     0.239 C 
ATOM      6  H   UNL A   1      31.038  27.238  25.190  1.00  0.00     0.163 HD
BRANCH   5   7
ATOM      7  C   UNL A   1      30.578  25.496  23.380  1.00  0.00     0.216 C 
BRANCH   7   8
ATOM      8  N   UNL A   1      30.091  25.159  24.714  1.00  0.00    -0.343 N 
ATOM      9  C   UNL A   1      30.714  24.543  25.767  1.00  0.00     0.251 C 
ATOM     10  H   UNL A   1      29.157  25.417  24.887  1.00  0.00     0.164 HD
ATOM     11  O   UNL A   1      30.059  24.234  26.758  1.00  0.00    -0.269 OA
BRANCH   9  12
ATOM     12  C   UNL A   1      32.146  24.183  25.699  1.00  0.00     0.039 A 
ATOM     13  C   UNL A   1      32.476  22.863  25.392  1.00  0.00     0.016 A 
ATOM     14  C   UNL A   1      33.158  25.102  25.965  1.00  0.00     0.016 A 
ATOM     15  C   UNL A   1      33.818  22.494  25.259  1.00  0.00     0.027 A 
ATOM     16  C   UNL A   1      34.498  24.716  25.837  1.00  0.00     0.027 A 
ATOM     17  C   UNL A   1      34.857  23.414  25.461  1.00  0.00     0.037 A 
BRANCH  17  18
ATOM     18  N   UNL A   1      36.164  23.044  25.267  1.00  0.00    -0.372 N 
ATOM     19  C   UNL A   1      36.605  21.863  24.537  1.00  0.00     0.116 C 
ATOM     20  C   UNL A   1      37.233  23.608  26.089  1.00  0.00     0.116 C 
ATOM     21  C   UNL A   1      37.851  21.426  25.298  1.00  0.00     0.023 C 
ATOM     22  C   UNL A   1      38.452  22.745  25.763  1.00  0.00     0.023 C 
ENDBRANCH  17  18
ENDBRANCH   9  12
ENDBRANCH   7   8
ENDBRANCH   5   7
ENDBRANCH   2   3
ENDBRANCH   1   2
BRANCH   1  23
ATOM     23  C   UNL A   1      33.132  28.611  25.754  1.00  0.00     0.023 C 
BRANCH  23  24
ATOM     24  C   UNL A   1      33.497  28.746  27.228  1.00  0.00     0.116 C 
BRANCH  24  25
ATOM     25  N   UNL A   1      33.537  30.125  27.688  1.00  0.00    -0.352 N 
ATOM     26  C   UNL A   1      34.557  30.815  28.300  1.00  0.00     0.251 C 
ATOM     27  H   UNL A   1      32.712  30.641  27.539  1.00  0.00     0.163 HD
ATOM     28  O   UNL A   1      34.359  31.951  28.728  1.00  0.00    -0.269 OA
BRANCH  26  29
ATOM     29  C   UNL A   1      35.884  30.185  28.483  1.00  0.00     0.039 A 
ATOM     30  C   UNL A   1      36.794  30.215  27.422  1.00  0.00     0.014 A 
ATOM     31  C   UNL A   1      36.237  29.570  29.687  1.00  0.00     0.014 A 
ATOM     32  C   UNL A   1      38.081  29.698  27.595  1.00  0.00     0.010 A 
ATOM     33  C   UNL A   1      37.543  29.125  29.882  1.00  0.00     0.010 A 
ATOM     34  C   UNL A   1      38.481  29.188  28.840  1.00  0.00    -0.014 A 
BRANCH  34  35
ATOM     35  C   UNL A   1      39.876  28.731  29.074  1.00  0.00     0.031 A 
ATOM     36  C   UNL A   1      40.896  29.666  29.665  1.00  0.00     0.074 A 
ATOM     37  C   UNL A   1      40.245  27.492  28.696  1.00  0.00     0.049 A 
ATOM     38  N   UNL A   1      42.170  29.463  29.889  1.00  0.00    -0.248 NA
ATOM     39  C   UNL A   1      40.428  31.012  30.033  1.00  0.00     0.031 C 
ATOM     40  C   UNL A   1      39.367  26.496  28.077  1.00  0.00     0.029 A 
ATOM     41  N   UNL A   1      41.462  26.858  28.770  1.00  0.00    -0.354 N 
ATOM     42  C   UNL A   1      42.657  30.657  30.410  1.00  0.00     0.074 A 
ATOM     43  C   UNL A   1      41.555  31.593  30.419  1.00  0.00     0.031 C 
ATOM     44  C   UNL A   1      40.066  25.372  27.852  1.00  0.00     0.029 A 
ATOM     45  C   UNL A   1      41.449  25.580  28.267  1.00  0.00     0.049 A 
ATOM     46  H   UNL A   1      42.267  27.282  29.148  1.00  0.00     0.167 HD
ATOM     47  C   UNL A   1      43.903  30.942  30.860  1.00  0.00     0.031 A 
ATOM     48  C   UNL A   1      42.441  24.677  28.142  1.00  0.00     0.031 A 
ATOM     49  C   UNL A   1      45.002  30.014  30.849  1.00  0.00     0.049 A 
ATOM     50  C   UNL A   1      43.823  25.028  28.618  1.00  0.00     0.074 A 
ATOM     51  C   UNL A   1      46.290  30.196  31.325  1.00  0.00     0.029 A 
ATOM     52  N   UNL A   1      44.947  28.730  30.330  1.00  0.00    -0.354 N 
ATOM     53  N   UNL A   1      44.249  26.138  29.171  1.00  0.00    -0.248 NA
ATOM     54  C   UNL A   1      44.858  23.996  28.465  1.00  0.00     0.031 C 
ATOM     55  C   UNL A   1      47.029  29.044  31.041  1.00  0.00     0.029 A 
ATOM     56  C   UNL A   1      46.185  28.118  30.448  1.00  0.00     0.049 A 
ATOM     57  H   UNL A   1      44.147  28.313  29.935  1.00  0.00     0.167 HD
ATOM     58  C   UNL A   1      45.592  25.928  29.456  1.00  0.00     0.074 A 
ATOM     59  C   UNL A   1      45.904  24.579  29.033  1.00  0.00     0.031 C 
ATOM     60  C   UNL A   1      46.486  26.776  30.021  1.00  0.00     0.031 A 
BRANCH  47  61
ATOM     61  C   UNL A   1      44.144  32.329  31.393  1.00  0.00    -0.014 A 
ATOM     62  C   UNL A   1      44.557  33.372  30.548  1.00  0.00     0.009 A 
ATOM     63  C   UNL A   1      43.922  32.605  32.751  1.00  0.00     0.009 A 
ATOM     64  C   UNL A   1      44.785  34.651  31.061  1.00  0.00     0.001 A 
ATOM     65  C   UNL A   1      44.118  33.893  33.254  1.00  0.00     0.001 A 
ATOM     66  C   UNL A   1      44.560  34.912  32.411  1.00  0.00     0.000 A 
ENDBRANCH  47  61
BRANCH  48  67
ATOM     67  C   UNL A   1      42.162  23.344  27.542  1.00  0.00    -0.014 A 
ATOM     68  C   UNL A   1      41.591  22.319  28.311  1.00  0.00     0.009 A 
ATOM     69  C   UNL A   1      42.475  23.089  26.197  1.00  0.00     0.009 A 
ATOM     70  C   UNL A   1      41.365  21.058  27.755  1.00  0.00     0.001 A 
ATOM     71  C   UNL A   1      42.217  21.836  25.635  1.00  0.00     0.001 A 
ATOM     72  C   UNL A   1      41.672  20.820  26.416  1.00  0.00     0.000 A 
ENDBRANCH  48  67
BRANCH  60  73
ATOM     73  C   UNL A   1      47.880  26.260  30.249  1.00  0.00    -0.014 A 
ATOM     74  C   UNL A   1      48.851  26.298  29.236  1.00  0.00     0.009 A 
ATOM     75  C   UNL A   1      48.235  25.761  31.512  1.00  0.00     0.009 A 
ATOM     76  C   UNL A   1      50.140  25.816  29.475  1.00  0.00     0.001 A 
ATOM     77  C   UNL A   1      49.533  25.310  31.757  1.00  0.00     0.001 A 
ATOM     78  C   UNL A   1      50.481  25.328  30.737  1.00  0.00     0.000 A 
ENDBRANCH  60  73
ENDBRANCH  34  35
ENDBRANCH  26  29
ENDBRANCH  24  25
ENDBRANCH  23  24
ENDBRANCH   1  23
TORSDOF 14
ENDMDL
MODEL 2
REMARK VINA RESULT:     -10.4      3.605      6.164
REMARK SMILES O=C(CNC(=O)c1ccc(N2CCCC2)cc1)NCCCCNC(=O)c1ccc(-c2c3nc(c(-c4ccccc4)c4ccc([nH]4)c(-c4ccccc4)c4nc(c(-c5ccccc5)c5ccc2[nH]5)C=C4)C=C3)cc1
REMARK SMILES IDX 20 1 19 2 18 3 1 4 2 5 3 7 4 8 5 9 6 11 7 12 8 13 17 14 9 15
REMARK SMILES IDX 16 16 10 17 11 18 12 19 15 20 13 21 14 22 21 23 22 24 23 25
REMARK SMILES IDX 24 26 25 28 26 29 27 30 73 31 28 32 72 33 29 34 30 35 31 36
REMARK SMILES IDX 66 37 32 38 71 39 65 40 67 41 33 42 70 43 64 44 63 45 34 47
REMARK SMILES IDX 56 48 41 49 55 50 42 51 45 52 54 53 68 54 43 55 44 56 53 58
REMARK SMILES IDX 69 59 46 60 35 61 36 62 40 63 37 64 39 65 38 66 57 67 58 68
REMARK SMILES IDX 62 69 59 70 61 71 60 72 47 73 48 74 52 75 49 76 51 77 50 78
REMARK H PARENT 18 6 4 10 23 27 67 46 45 57
REMARK Flexibility Score: inf
ROOT
ATOM      1  C   UNL A   1      31.538  30.705  26.022  1.00  0.00     0.023 C 
ENDROOT
BRANCH   1   2
ATOM      2  C   UNL A   1      32.209  29.779  27.038  1.00  0.00     0.116 C 
BRANCH   2   3
ATOM      3  N   UNL A   1      31.757  28.407  26.925  1.00  0.00    -0.355 N 
ATOM      4  O   UNL A   1      33.772  27.571  26.212  1.00  0.00    -0.273 OA
ATOM      5  C   UNL A   1      32.602  27.386  26.540  1.00  0.00     0.239 C 
ATOM      6  H   UNL A   1      30.818  28.196  27.129  1.00  0.00     0.163 HD
BRANCH   5   7
ATOM      7  C   UNL A   1      31.919  26.030  26.342  1.00  0.00     0.216 C 
BRANCH   7   8
ATOM      8  N   UNL A   1      32.322  25.356  25.112  1.00  0.00    -0.343 N 
ATOM      9  C   UNL A   1      32.007  25.613  23.804  1.00  0.00     0.251 C 
ATOM     10  H   UNL A   1      32.921  24.587  25.244  1.00  0.00     0.164 HD
ATOM     11  O   UNL A   1      32.353  24.820  22.934  1.00  0.00    -0.269 OA
BRANCH   9  12
ATOM     12  C   UNL A   1      31.196  26.792  23.434  1.00  0.00     0.039 A 
ATOM     13  C   UNL A   1      29.809  26.693  23.535  1.00  0.00     0.016 A 
ATOM     14  C   UNL A   1      31.770  27.970  22.959  1.00  0.00     0.016 A 
ATOM     15  C   UNL A   1      29.009  27.804  23.252  1.00  0.00     0.027 A 
ATOM     16  C   UNL A   1      30.955  29.072  22.670  1.00  0.00     0.027 A 
ATOM     17  C   UNL A   1      29.563  29.021  22.831  1.00  0.00     0.037 A 
BRANCH  17  18
ATOM     18  N   UNL A   1      28.763  30.114  22.616  1.00  0.00    -0.372 N 
ATOM     19  C   UNL A   1      28.056  30.409  21.377  1.00  0.00     0.116 C 
ATOM     20  C   UNL A   1      28.835  31.281  23.494  1.00  0.00     0.116 C 
ATOM     21  C   UNL A   1      28.103  31.931  21.300  1.00  0.00     0.023 C 
ATOM     22  C   UNL A   1      28.027  32.352  22.761  1.00  0.00     0.023 C 
ENDBRANCH  17  18
ENDBRANCH   9  12
ENDBRANCH   7   8
ENDBRANCH   5   7
ENDBRANCH   2   3
ENDBRANCH   1   2
BRANCH   1  23
ATOM     23  C   UNL A   1      31.346  32.150  26.489  1.00  0.00     0.023 C 
BRANCH  23  24
ATOM     24  C   UNL A   1      32.543  32.777  27.198  1.00  0.00     0.116 C 
BRANCH  24  25
ATOM     25  N   UNL A   1      32.308  34.148  27.622  1.00  0.00    -0.352 N 
ATOM     26  C   UNL A   1      32.969  34.898  28.566  1.00  0.00     0.251 C 
ATOM     27  H   UNL A   1      31.566  34.607  27.166  1.00  0.00     0.163 HD
ATOM     28  O   UNL A   1      32.543  36.010  28.874  1.00  0.00    -0.269 OA
BRANCH  26  29
ATOM     29  C   UNL A   1      34.169  34.360  29.245  1.00  0.00     0.039 A 
ATOM     30  C   UNL A   1      34.015  33.721  30.478  1.00  0.00     0.014 A 
ATOM     31  C   UNL A   1      35.440  34.480  28.677  1.00  0.00     0.014 A 
ATOM     32  C   UNL A   1      35.119  33.134  31.102  1.00  0.00     0.010 A 
ATOM     33  C   UNL A   1      36.526  33.829  29.261  1.00  0.00     0.010 A 
ATOM     34  C   UNL A   1      36.377  33.146  30.478  1.00  0.00    -0.014 A 
BRANCH  34  35
ATOM     35  C   UNL A   1      37.540  32.437  31.073  1.00  0.00     0.031 A 
ATOM     36  C   UNL A   1      38.166  32.933  32.349  1.00  0.00     0.074 A 
ATOM     37  C   UNL A   1      38.076  31.380  30.433  1.00  0.00     0.049 A 
ATOM     38  N   UNL A   1      39.216  32.479  32.984  1.00  0.00    -0.248 NA
ATOM     39  C   UNL A   1      37.541  34.106  32.981  1.00  0.00     0.031 C 
ATOM     40  C   UNL A   1      37.592  30.817  29.170  1.00  0.00     0.029 A 
ATOM     41  N   UNL A   1      39.155  30.592  30.753  1.00  0.00    -0.354 N 
ATOM     42  C   UNL A   1      39.387  33.316  34.080  1.00  0.00     0.074 A 
ATOM     43  C   UNL A   1      38.364  34.336  33.994  1.00  0.00     0.031 C 
ATOM     44  C   UNL A   1      38.353  29.762  28.838  1.00  0.00     0.029 A 
ATOM     45  C   UNL A   1      39.405  29.600  29.836  1.00  0.00     0.049 A 
ATOM     46  H   UNL A   1      39.698  30.726  31.564  1.00  0.00     0.167 HD
ATOM     47  C   UNL A   1      40.297  33.233  35.080  1.00  0.00     0.031 A 
ATOM     48  C   UNL A   1      40.378  28.670  29.794  1.00  0.00     0.031 A 
ATOM     49  C   UNL A   1      41.317  32.222  35.167  1.00  0.00     0.049 A 
ATOM     50  C   UNL A   1      41.397  28.617  30.898  1.00  0.00     0.074 A 
ATOM     51  C   UNL A   1      42.257  32.028  36.166  1.00  0.00     0.029 A 
ATOM     52  N   UNL A   1      41.536  31.237  34.217  1.00  0.00    -0.354 N 
ATOM     53  N   UNL A   1      41.501  29.376  31.963  1.00  0.00    -0.248 NA
ATOM     54  C   UNL A   1      42.425  27.571  30.801  1.00  0.00     0.031 C 
ATOM     55  C   UNL A   1      43.081  30.963  35.791  1.00  0.00     0.029 A 
ATOM     56  C   UNL A   1      42.614  30.450  34.591  1.00  0.00     0.049 A 
ATOM     57  H   UNL A   1      41.006  31.114  33.397  1.00  0.00     0.167 HD
ATOM     58  C   UNL A   1      42.587  28.882  32.675  1.00  0.00     0.074 A 
ATOM     59  C   UNL A   1      43.095  27.748  31.930  1.00  0.00     0.031 C 
ATOM     60  C   UNL A   1      43.114  29.326  33.842  1.00  0.00     0.031 A 
BRANCH  47  61
ATOM     61  C   UNL A   1      40.235  34.280  36.160  1.00  0.00    -0.014 A 
ATOM     62  C   UNL A   1      40.943  35.488  36.044  1.00  0.00     0.009 A 
ATOM     63  C   UNL A   1      39.432  34.072  37.291  1.00  0.00     0.009 A 
ATOM     64  C   UNL A   1      40.882  36.445  37.059  1.00  0.00     0.001 A 
ATOM     65  C   UNL A   1      39.346  35.045  38.289  1.00  0.00     0.001 A 
ATOM     66  C   UNL A   1      40.079  36.226  38.178  1.00  0.00     0.000 A 
ENDBRANCH  47  61
BRANCH  48  67
ATOM     67  C   UNL A   1      40.434  27.701  28.665  1.00  0.00    -0.014 A 
ATOM     68  C   UNL A   1      39.767  26.469  28.746  1.00  0.00     0.009 A 
ATOM     69  C   UNL A   1      41.162  28.004  27.503  1.00  0.00     0.009 A 
ATOM     70  C   UNL A   1      39.852  25.548  27.700  1.00  0.00     0.001 A 
ATOM     71  C   UNL A   1      41.217  27.093  26.445  1.00  0.00     0.001 A 
ATOM     72  C   UNL A   1      40.572  25.864  26.548  1.00  0.00     0.000 A 
ENDBRANCH  48  67
BRANCH  60  73
ATOM     73  C   UNL A   1      44.280  28.564  34.408  1.00  0.00    -0.014 A 
ATOM     74  C   UNL A   1      45.604  28.924  34.114  1.00  0.00     0.009 A 
ATOM     75  C   UNL A   1      44.047  27.490  35.281  1.00  0.00     0.009 A 
ATOM     76  C   UNL A   1      46.670  28.202  34.657  1.00  0.00     0.001 A 
ATOM     77  C   UNL A   1      45.114  26.791  35.848  1.00  0.00     0.001 A 
ATOM     78  C   UNL A   1      46.423  27.140  35.527  1.00  0.00     0.000 A 
ENDBRANCH  60  73
ENDBRANCH  34  35
ENDBRANCH  26  29
ENDBRANCH  24  25
ENDBRANCH  23  24
ENDBRANCH   1  23
TORSDOF 14
ENDMDL
MODEL 3
REMARK VINA RESULT:     -10.4      2.584      7.498
REMARK SMILES O=C(CNC(=O)c1ccc(N2CCCC2)cc1)NCCCCNC(=O)c1ccc(-c2c3nc(c(-c4ccccc4)c4ccc([nH]4)c(-c4ccccc4)c4nc(c(-c5ccccc5)c5ccc2[nH]5)C=C4)C=C3)cc1
REMARK SMILES IDX 20 1 19 2 18 3 1 4 2 5 3 7 4 8 5 9 6 11 7 12 8 13 17 14 9 15
REMARK SMILES IDX 16 16 10 17 11 18 12 19 15 20 13 21 14 22 21 23 22 24 23 25
REMARK SMILES IDX 24 26 25 28 26 29 27 30 73 31 28 32 72 33 29 34 30 35 31 36
REMARK SMILES IDX 66 37 32 38 71 39 65 40 67 41 33 42 70 43 64 44 63 45 34 47
REMARK SMILES IDX 56 48 41 49 55 50 42 51 45 52 54 53 68 54 43 55 44 56 53 58
REMARK SMILES IDX 69 59 46 60 35 61 36 62 40 63 37 64 39 65 38 66 57 67 58 68
REMARK SMILES IDX 62 69 59 70 61 71 60 72 47 73 48 74 52 75 49 76 51 77 50 78
REMARK H PARENT 18 6 4 10 23 27 67 46 45 57
REMARK Flexibility Score: inf
ROOT
ATOM      1  C   UNL A   1      36.536  20.745  24.977  1.00  0.00     0.023 C 
ENDROOT
BRANCH   1   2
ATOM      2  C   UNL A   1      36.844  22.209  24.659  1.00  0.00     0.116 C 
BRANCH   2   3
ATOM      3  N   UNL A   1      35.865  22.805  23.774  1.00  0.00    -0.355 N 
ATOM      4  O   UNL A   1      35.263  24.489  25.213  1.00  0.00    -0.273 OA
ATOM      5  C   UNL A   1      35.157  23.939  24.118  1.00  0.00     0.239 C 
ATOM      6  H   UNL A   1      35.697  22.388  22.898  1.00  0.00     0.163 HD
BRANCH   5   7
ATOM      7  C   UNL A   1      34.070  24.343  23.120  1.00  0.00     0.216 C 
BRANCH   7   8
ATOM      8  N   UNL A   1      32.771  24.573  23.745  1.00  0.00    -0.343 N 
ATOM      9  C   UNL A   1      31.902  23.705  24.349  1.00  0.00     0.251 C 
ATOM     10  H   UNL A   1      32.469  25.509  23.729  1.00  0.00     0.164 HD
ATOM     11  O   UNL A   1      30.789  24.102  24.685  1.00  0.00    -0.269 OA
BRANCH   9  12
ATOM     12  C   UNL A   1      32.254  22.282  24.539  1.00  0.00     0.039 A 
ATOM     13  C   UNL A   1      32.117  21.422  23.450  1.00  0.00     0.016 A 
ATOM     14  C   UNL A   1      32.678  21.778  25.766  1.00  0.00     0.016 A 
ATOM     15  C   UNL A   1      32.496  20.081  23.570  1.00  0.00     0.027 A 
ATOM     16  C   UNL A   1      33.046  20.431  25.874  1.00  0.00     0.027 A 
ATOM     17  C   UNL A   1      32.985  19.561  24.776  1.00  0.00     0.037 A 
BRANCH  17  18
ATOM     18  N   UNL A   1      33.406  18.257  24.854  1.00  0.00    -0.372 N 
ATOM     19  C   UNL A   1      34.523  17.687  24.112  1.00  0.00     0.116 C 
ATOM     20  C   UNL A   1      32.542  17.222  25.419  1.00  0.00     0.116 C 
ATOM     21  C   UNL A   1      34.064  16.262  23.828  1.00  0.00     0.023 C 
ATOM     22  C   UNL A   1      33.243  15.911  25.062  1.00  0.00     0.023 C 
ENDBRANCH  17  18
ENDBRANCH   9  12
ENDBRANCH   7   8
ENDBRANCH   5   7
ENDBRANCH   2   3
ENDBRANCH   1   2
BRANCH   1  23
ATOM     23  C   UNL A   1      37.749  19.810  24.968  1.00  0.00     0.023 C 
BRANCH  23  24
ATOM     24  C   UNL A   1      38.975  20.315  25.722  1.00  0.00     0.116 C 
BRANCH  24  25
ATOM     25  N   UNL A   1      40.066  19.354  25.757  1.00  0.00    -0.352 N 
ATOM     26  C   UNL A   1      41.384  19.537  26.106  1.00  0.00     0.251 C 
ATOM     27  H   UNL A   1      39.826  18.437  25.493  1.00  0.00     0.163 HD
ATOM     28  O   UNL A   1      42.191  18.622  25.956  1.00  0.00    -0.269 OA
BRANCH  26  29
ATOM     29  C   UNL A   1      41.847  20.843  26.626  1.00  0.00     0.039 A 
ATOM     30  C   UNL A   1      42.321  21.798  25.721  1.00  0.00     0.014 A 
ATOM     31  C   UNL A   1      41.817  21.135  27.992  1.00  0.00     0.014 A 
ATOM     32  C   UNL A   1      42.689  23.066  26.175  1.00  0.00     0.010 A 
ATOM     33  C   UNL A   1      42.111  22.424  28.434  1.00  0.00     0.010 A 
ATOM     34  C   UNL A   1      42.547  23.405  27.530  1.00  0.00    -0.014 A 
BRANCH  34  35
ATOM     35  C   UNL A   1      42.832  24.781  28.016  1.00  0.00     0.031 A 
ATOM     36  C   UNL A   1      44.230  25.179  28.405  1.00  0.00     0.074 A 
ATOM     37  C   UNL A   1      41.821  25.658  28.168  1.00  0.00     0.049 A 
ATOM     38  N   UNL A   1      44.658  26.312  28.901  1.00  0.00    -0.248 NA
ATOM     39  C   UNL A   1      45.281  24.162  28.234  1.00  0.00     0.031 C 
ATOM     40  C   UNL A   1      40.413  25.391  27.864  1.00  0.00     0.029 A 
ATOM     41  N   UNL A   1      41.821  26.953  28.625  1.00  0.00    -0.354 N 
ATOM     42  C   UNL A   1      46.021  26.141  29.113  1.00  0.00     0.074 A 
ATOM     43  C   UNL A   1      46.338  24.779  28.743  1.00  0.00     0.031 C 
ATOM     44  C   UNL A   1      39.692  26.495  28.118  1.00  0.00     0.029 A 
ATOM     45  C   UNL A   1      40.574  27.531  28.644  1.00  0.00     0.049 A 
ATOM     46  H   UNL A   1      42.637  27.423  28.911  1.00  0.00     0.167 HD
ATOM     47  C   UNL A   1      46.932  27.041  29.556  1.00  0.00     0.031 A 
ATOM     48  C   UNL A   1      40.180  28.753  29.050  1.00  0.00     0.031 A 
ATOM     49  C   UNL A   1      46.620  28.395  29.929  1.00  0.00     0.049 A 
ATOM     50  C   UNL A   1      41.204  29.723  29.569  1.00  0.00     0.074 A 
ATOM     51  C   UNL A   1      47.482  29.396  30.346  1.00  0.00     0.029 A 
ATOM     52  N   UNL A   1      45.345  28.939  29.935  1.00  0.00    -0.354 N 
ATOM     53  N   UNL A   1      42.499  29.567  29.699  1.00  0.00    -0.248 NA
ATOM     54  C   UNL A   1      40.713  31.045  29.985  1.00  0.00     0.031 C 
ATOM     55  C   UNL A   1      46.721  30.526  30.661  1.00  0.00     0.029 A 
ATOM     56  C   UNL A   1      45.393  30.252  30.376  1.00  0.00     0.049 A 
ATOM     57  H   UNL A   1      44.526  28.464  29.666  1.00  0.00     0.167 HD
ATOM     58  C   UNL A   1      42.980  30.776  30.185  1.00  0.00     0.074 A 
ATOM     59  C   UNL A   1      41.840  31.661  30.308  1.00  0.00     0.031 C 
ATOM     60  C   UNL A   1      44.252  31.123  30.498  1.00  0.00     0.031 A 
BRANCH  47  61
ATOM     61  C   UNL A   1      48.359  26.579  29.674  1.00  0.00    -0.014 A 
ATOM     62  C   UNL A   1      49.283  26.796  28.638  1.00  0.00     0.009 A 
ATOM     63  C   UNL A   1      48.796  25.947  30.849  1.00  0.00     0.009 A 
ATOM     64  C   UNL A   1      50.602  26.352  28.759  1.00  0.00     0.001 A 
ATOM     65  C   UNL A   1      50.124  25.534  30.981  1.00  0.00     0.001 A 
ATOM     66  C   UNL A   1      51.022  25.727  29.932  1.00  0.00     0.000 A 
ENDBRANCH  47  61
BRANCH  48  67
ATOM     67  C   UNL A   1      38.744  29.134  28.978  1.00  0.00    -0.014 A 
ATOM     68  C   UNL A   1      37.914  29.012  30.102  1.00  0.00     0.009 A 
ATOM     69  C   UNL A   1      38.194  29.616  27.779  1.00  0.00     0.009 A 
ATOM     70  C   UNL A   1      36.558  29.336  30.021  1.00  0.00     0.001 A 
ATOM     71  C   UNL A   1      36.845  29.971  27.710  1.00  0.00     0.001 A 
ATOM     72  C   UNL A   1      36.026  29.821  28.826  1.00  0.00     0.000 A 
ENDBRANCH  48  67
BRANCH  60  73
ATOM     73  C   UNL A   1      44.489  32.531  30.970  1.00  0.00    -0.014 A 
ATOM     74  C   UNL A   1      44.467  32.861  32.334  1.00  0.00     0.009 A 
ATOM     75  C   UNL A   1      44.774  33.537  30.033  1.00  0.00     0.009 A 
ATOM     76  C   UNL A   1      44.693  34.176  32.747  1.00  0.00     0.001 A 
ATOM     77  C   UNL A   1      45.033  34.843  30.451  1.00  0.00     0.001 A 
ATOM     78  C   UNL A   1      44.981  35.164  31.805  1.00  0.00     0.000 A 
ENDBRANCH  60  73
ENDBRANCH  34  35
ENDBRANCH  26  29
ENDBRANCH  24  25
ENDBRANCH  23  24
ENDBRANCH   1  23
TORSDOF 14
ENDMDL
