MODEL 1
REMARK VINA RESULT:      -9.4      0.000      0.000
REMARK SMILES [NH3+][C@H](CSCc1ccco1)C(=O)NCCCCNC(=O)c1ccc(-c2c3nc(c(-c4ccccc4)c4ccc([nH]4)c(-c4ccccc4)c4nc(c(-c5ccccc5)c5ccc2[nH]5)C=C4)C=C3)cc1
REMARK SMILES IDX 14 1 13 2 11 3 12 4 2 6 1 7 3 11 4 12 5 13 6 14 7 15 10 16
REMARK SMILES IDX 8 17 9 18 15 19 16 20 17 21 18 22 19 23 20 25 21 26 22 27
REMARK SMILES IDX 68 28 23 29 67 30 24 31 25 32 26 33 61 34 27 35 66 36 60 37
REMARK SMILES IDX 62 38 28 39 65 40 59 41 58 42 29 44 51 45 36 46 50 47 37 48
REMARK SMILES IDX 40 49 49 50 63 51 38 52 39 53 48 55 64 56 41 57 30 58 31 59
REMARK SMILES IDX 35 60 32 61 34 62 33 63 52 64 53 65 57 66 54 67 56 68 55 69
REMARK SMILES IDX 42 70 43 71 47 72 44 73 46 74 45 75
REMARK H PARENT 13 5 1 8 1 9 1 10 18 24 62 43 40 54
REMARK Flexibility Score: inf
ROOT
ATOM      1  C   UNL A   1      37.224  22.238  25.413  1.00  0.00     0.116 C 
ENDROOT
BRANCH   1   2
ATOM      2  N   UNL A   1      36.121  22.597  26.292  1.00  0.00    -0.351 N 
ATOM      3  C   UNL A   1      34.901  23.163  26.067  1.00  0.00     0.279 C 
ATOM      4  O   UNL A   1      34.232  23.447  27.068  1.00  0.00    -0.268 OA
ATOM      5  H   UNL A   1      36.289  22.389  27.239  1.00  0.00     0.163 HD
BRANCH   3   6
ATOM      6  C   UNL A   1      34.375  23.510  24.667  1.00  0.00     0.280 C 
BRANCH   6   7
ATOM      7  N   UNL A   1      33.871  24.898  24.575  1.00  0.00    -0.347 N 
ATOM      8  H   UNL A   1      32.949  24.954  25.008  1.00  0.00     0.345 HD
ATOM      9  H   UNL A   1      33.801  25.170  23.594  1.00  0.00     0.345 HD
ATOM     10  H   UNL A   1      34.513  25.527  25.057  1.00  0.00     0.345 HD
ENDBRANCH   6   7
BRANCH   6  11
ATOM     11  C   UNL A   1      33.543  22.418  23.958  1.00  0.00     0.145 C 
BRANCH  11  12
ATOM     12  S   UNL A   1      32.381  21.349  24.864  1.00  0.00    -0.147 SA
BRANCH  12  13
ATOM     13  C   UNL A   1      33.464  19.978  25.409  1.00  0.00     0.145 C 
BRANCH  13  14
ATOM     14  C   UNL A   1      33.593  18.883  24.427  1.00  0.00     0.113 A 
ATOM     15  C   UNL A   1      34.449  17.808  24.306  1.00  0.00     0.046 A 
ATOM     16  O   UNL A   1      32.633  18.823  23.459  1.00  0.00    -0.468 OA
ATOM     17  C   UNL A   1      33.999  17.064  23.191  1.00  0.00     0.042 A 
ATOM     18  C   UNL A   1      32.888  17.718  22.715  1.00  0.00     0.195 A 
ENDBRANCH  13  14
ENDBRANCH  12  13
ENDBRANCH  11  12
ENDBRANCH   6  11
ENDBRANCH   3   6
ENDBRANCH   1   2
BRANCH   1  19
ATOM     19  C   UNL A   1      37.031  20.906  24.682  1.00  0.00     0.023 C 
BRANCH  19  20
ATOM     20  C   UNL A   1      38.106  19.852  24.921  1.00  0.00     0.023 C 
BRANCH  20  21
ATOM     21  C   UNL A   1      39.200  20.307  25.870  1.00  0.00     0.116 C 
BRANCH  21  22
ATOM     22  N   UNL A   1      40.295  19.349  25.923  1.00  0.00    -0.352 N 
ATOM     23  C   UNL A   1      41.639  19.568  26.088  1.00  0.00     0.251 C 
ATOM     24  H   UNL A   1      40.032  18.405  25.826  1.00  0.00     0.163 HD
ATOM     25  O   UNL A   1      42.445  18.679  25.843  1.00  0.00    -0.269 OA
BRANCH  23  26
ATOM     26  C   UNL A   1      42.103  20.885  26.564  1.00  0.00     0.039 A 
ATOM     27  C   UNL A   1      42.532  21.837  25.638  1.00  0.00     0.014 A 
ATOM     28  C   UNL A   1      42.118  21.169  27.932  1.00  0.00     0.014 A 
ATOM     29  C   UNL A   1      42.928  23.097  26.086  1.00  0.00     0.010 A 
ATOM     30  C   UNL A   1      42.409  22.453  28.365  1.00  0.00     0.010 A 
ATOM     31  C   UNL A   1      42.841  23.422  27.450  1.00  0.00    -0.014 A 
BRANCH  31  32
ATOM     32  C   UNL A   1      43.231  24.757  27.958  1.00  0.00     0.031 A 
ATOM     33  C   UNL A   1      42.167  25.785  28.237  1.00  0.00     0.074 A 
ATOM     34  C   UNL A   1      44.534  25.065  28.094  1.00  0.00     0.049 A 
ATOM     35  N   UNL A   1      42.301  27.031  28.609  1.00  0.00    -0.248 NA
ATOM     36  C   UNL A   1      40.768  25.367  28.037  1.00  0.00     0.031 C 
ATOM     37  C   UNL A   1      45.655  24.167  27.808  1.00  0.00     0.029 A 
ATOM     38  N   UNL A   1      45.136  26.227  28.504  1.00  0.00    -0.354 N 
ATOM     39  C   UNL A   1      41.012  27.549  28.656  1.00  0.00     0.074 A 
ATOM     40  C   UNL A   1      40.116  26.503  28.222  1.00  0.00     0.031 C 
ATOM     41  C   UNL A   1      46.806  24.798  28.088  1.00  0.00     0.029 A 
ATOM     42  C   UNL A   1      46.508  26.156  28.527  1.00  0.00     0.049 A 
ATOM     43  H   UNL A   1      44.633  27.035  28.756  1.00  0.00     0.167 HD
ATOM     44  C   UNL A   1      40.609  28.779  29.051  1.00  0.00     0.031 A 
ATOM     45  C   UNL A   1      47.420  27.086  28.866  1.00  0.00     0.031 A 
ATOM     46  C   UNL A   1      41.504  29.805  29.508  1.00  0.00     0.049 A 
ATOM     47  C   UNL A   1      46.945  28.444  29.303  1.00  0.00     0.074 A 
ATOM     48  C   UNL A   1      41.196  31.062  29.998  1.00  0.00     0.029 A 
ATOM     49  N   UNL A   1      42.886  29.690  29.533  1.00  0.00    -0.354 N 
ATOM     50  N   UNL A   1      45.719  28.895  29.415  1.00  0.00    -0.248 NA
ATOM     51  C   UNL A   1      47.982  29.417  29.671  1.00  0.00     0.031 C 
ATOM     52  C   UNL A   1      42.397  31.727  30.269  1.00  0.00     0.029 A 
ATOM     53  C   UNL A   1      43.448  30.862  30.005  1.00  0.00     0.049 A 
ATOM     54  H   UNL A   1      43.391  28.892  29.255  1.00  0.00     0.167 HD
ATOM     55  C   UNL A   1      45.835  30.192  29.895  1.00  0.00     0.074 A 
ATOM     56  C   UNL A   1      47.251  30.448  30.068  1.00  0.00     0.031 C 
ATOM     57  C   UNL A   1      44.859  31.093  30.170  1.00  0.00     0.031 A 
BRANCH  44  58
ATOM     58  C   UNL A   1      39.136  29.076  29.000  1.00  0.00    -0.014 A 
ATOM     59  C   UNL A   1      38.311  28.883  30.121  1.00  0.00     0.009 A 
ATOM     60  C   UNL A   1      38.566  29.581  27.820  1.00  0.00     0.009 A 
ATOM     61  C   UNL A   1      36.942  29.151  30.050  1.00  0.00     0.001 A 
ATOM     62  C   UNL A   1      37.203  29.880  27.762  1.00  0.00     0.001 A 
ATOM     63  C   UNL A   1      36.391  29.655  28.872  1.00  0.00     0.000 A 
ENDBRANCH  44  58
BRANCH  45  64
ATOM     64  C   UNL A   1      48.870  26.759  28.830  1.00  0.00    -0.014 A 
ATOM     65  C   UNL A   1      49.514  26.269  29.977  1.00  0.00     0.009 A 
ATOM     66  C   UNL A   1      49.618  26.938  27.656  1.00  0.00     0.009 A 
ATOM     67  C   UNL A   1      50.883  25.995  29.958  1.00  0.00     0.001 A 
ATOM     68  C   UNL A   1      50.980  26.634  27.632  1.00  0.00     0.001 A 
ATOM     69  C   UNL A   1      51.614  26.173  28.785  1.00  0.00     0.000 A 
ENDBRANCH  45  64
BRANCH  57  70
ATOM     70  C   UNL A   1      45.289  32.420  30.723  1.00  0.00    -0.014 A 
ATOM     71  C   UNL A   1      45.452  32.621  32.102  1.00  0.00     0.009 A 
ATOM     72  C   UNL A   1      45.578  33.475  29.841  1.00  0.00     0.009 A 
ATOM     73  C   UNL A   1      45.863  33.862  32.590  1.00  0.00     0.001 A 
ATOM     74  C   UNL A   1      46.019  34.705  30.330  1.00  0.00     0.001 A 
ATOM     75  C   UNL A   1      46.152  34.900  31.703  1.00  0.00     0.000 A 
ENDBRANCH  57  70
ENDBRANCH  31  32
ENDBRANCH  23  26
ENDBRANCH  21  22
ENDBRANCH  20  21
ENDBRANCH  19  20
ENDBRANCH   1  19
TORSDOF 16
ENDMDL
MODEL 2
REMARK VINA RESULT:      -9.0      3.140      7.798
REMARK SMILES [NH3+][C@H](CSCc1ccco1)C(=O)NCCCCNC(=O)c1ccc(-c2c3nc(c(-c4ccccc4)c4ccc([nH]4)c(-c4ccccc4)c4nc(c(-c5ccccc5)c5ccc2[nH]5)C=C4)C=C3)cc1
REMARK SMILES IDX 14 1 13 2 11 3 12 4 2 6 1 7 3 11 4 12 5 13 6 14 7 15 10 16
REMARK SMILES IDX 8 17 9 18 15 19 16 20 17 21 18 22 19 23 20 25 21 26 22 27
REMARK SMILES IDX 68 28 23 29 67 30 24 31 25 32 26 33 61 34 27 35 66 36 60 37
REMARK SMILES IDX 62 38 28 39 65 40 59 41 58 42 29 44 51 45 36 46 50 47 37 48
REMARK SMILES IDX 40 49 49 50 63 51 38 52 39 53 48 55 64 56 41 57 30 58 31 59
REMARK SMILES IDX 35 60 32 61 34 62 33 63 52 64 53 65 57 66 54 67 56 68 55 69
REMARK SMILES IDX 42 70 43 71 47 72 44 73 46 74 45 75
REMARK H PARENT 13 5 1 8 1 9 1 10 18 24 62 43 40 54
REMARK Flexibility Score: inf
ROOT
ATOM      1  C   UNL A   1      32.450  29.320  24.170  1.00  0.00     0.116 C 
ENDROOT
BRANCH   1   2
ATOM      2  N   UNL A   1      31.341  29.453  23.238  1.00  0.00    -0.351 N 
ATOM      3  C   UNL A   1      30.650  28.553  22.482  1.00  0.00     0.279 C 
ATOM      4  O   UNL A   1      29.821  29.019  21.691  1.00  0.00    -0.268 OA
ATOM      5  H   UNL A   1      31.025  30.379  23.132  1.00  0.00     0.163 HD
BRANCH   3   6
ATOM      6  C   UNL A   1      30.904  27.039  22.527  1.00  0.00     0.280 C 
BRANCH   6   7
ATOM      7  N   UNL A   1      30.340  26.402  23.737  1.00  0.00    -0.347 N 
ATOM      8  H   UNL A   1      30.539  26.982  24.551  1.00  0.00     0.345 HD
ATOM      9  H   UNL A   1      30.762  25.482  23.864  1.00  0.00     0.345 HD
ATOM     10  H   UNL A   1      29.331  26.301  23.630  1.00  0.00     0.345 HD
ENDBRANCH   6   7
BRANCH   6  11
ATOM     11  C   UNL A   1      32.305  26.567  22.079  1.00  0.00     0.145 C 
BRANCH  11  12
ATOM     12  S   UNL A   1      32.797  24.815  22.132  1.00  0.00    -0.147 SA
BRANCH  12  13
ATOM     13  C   UNL A   1      33.788  24.739  23.668  1.00  0.00     0.145 C 
BRANCH  13  14
ATOM     14  C   UNL A   1      33.029  24.290  24.854  1.00  0.00     0.113 A 
ATOM     15  C   UNL A   1      33.285  24.304  26.209  1.00  0.00     0.046 A 
ATOM     16  O   UNL A   1      31.764  23.835  24.625  1.00  0.00    -0.468 OA
ATOM     17  C   UNL A   1      32.119  23.811  26.839  1.00  0.00     0.042 A 
ATOM     18  C   UNL A   1      31.221  23.546  25.833  1.00  0.00     0.195 A 
ENDBRANCH  13  14
ENDBRANCH  12  13
ENDBRANCH  11  12
ENDBRANCH   6  11
ENDBRANCH   3   6
ENDBRANCH   1   2
BRANCH   1  19
ATOM     19  C   UNL A   1      32.022  29.076  25.620  1.00  0.00     0.023 C 
BRANCH  19  20
ATOM     20  C   UNL A   1      32.750  27.955  26.352  1.00  0.00     0.023 C 
BRANCH  20  21
ATOM     21  C   UNL A   1      33.862  28.448  27.260  1.00  0.00     0.116 C 
BRANCH  21  22
ATOM     22  N   UNL A   1      33.716  29.864  27.565  1.00  0.00    -0.352 N 
ATOM     23  C   UNL A   1      34.556  30.699  28.256  1.00  0.00     0.251 C 
ATOM     24  H   UNL A   1      32.892  30.284  27.226  1.00  0.00     0.163 HD
ATOM     25  O   UNL A   1      34.159  31.789  28.650  1.00  0.00    -0.269 OA
BRANCH  23  26
ATOM     26  C   UNL A   1      35.944  30.272  28.521  1.00  0.00     0.039 A 
ATOM     27  C   UNL A   1      36.267  29.723  29.763  1.00  0.00     0.014 A 
ATOM     28  C   UNL A   1      36.922  30.423  27.535  1.00  0.00     0.014 A 
ATOM     29  C   UNL A   1      37.569  29.277  29.995  1.00  0.00     0.010 A 
ATOM     30  C   UNL A   1      38.184  29.885  27.730  1.00  0.00     0.010 A 
ATOM     31  C   UNL A   1      38.527  29.329  28.970  1.00  0.00    -0.014 A 
BRANCH  31  32
ATOM     32  C   UNL A   1      39.911  28.844  29.174  1.00  0.00     0.031 A 
ATOM     33  C   UNL A   1      40.941  29.765  29.771  1.00  0.00     0.074 A 
ATOM     34  C   UNL A   1      40.254  27.611  28.754  1.00  0.00     0.049 A 
ATOM     35  N   UNL A   1      42.219  29.563  29.960  1.00  0.00    -0.248 NA
ATOM     36  C   UNL A   1      40.480  31.104  30.179  1.00  0.00     0.031 C 
ATOM     37  C   UNL A   1      39.354  26.648  28.118  1.00  0.00     0.029 A 
ATOM     38  N   UNL A   1      41.461  26.961  28.797  1.00  0.00    -0.354 N 
ATOM     39  C   UNL A   1      42.715  30.754  30.475  1.00  0.00     0.074 A 
ATOM     40  C   UNL A   1      41.616  31.691  30.518  1.00  0.00     0.031 C 
ATOM     41  C   UNL A   1      40.030  25.516  27.865  1.00  0.00     0.029 A 
ATOM     42  C   UNL A   1      41.417  25.690  28.278  1.00  0.00     0.049 A 
ATOM     43  H   UNL A   1      42.279  27.366  29.165  1.00  0.00     0.167 HD
ATOM     44  C   UNL A   1      43.969  31.035  30.899  1.00  0.00     0.031 A 
ATOM     45  C   UNL A   1      42.392  24.770  28.151  1.00  0.00     0.031 A 
ATOM     46  C   UNL A   1      45.050  30.088  30.879  1.00  0.00     0.049 A 
ATOM     47  C   UNL A   1      43.776  25.106  28.632  1.00  0.00     0.074 A 
ATOM     48  C   UNL A   1      46.341  30.245  31.351  1.00  0.00     0.029 A 
ATOM     49  N   UNL A   1      44.963  28.806  30.361  1.00  0.00    -0.354 N 
ATOM     50  N   UNL A   1      44.212  26.211  29.187  1.00  0.00    -0.248 NA
ATOM     51  C   UNL A   1      44.798  24.062  28.478  1.00  0.00     0.031 C 
ATOM     52  C   UNL A   1      47.051  29.074  31.067  1.00  0.00     0.029 A 
ATOM     53  C   UNL A   1      46.184  28.167  30.476  1.00  0.00     0.049 A 
ATOM     54  H   UNL A   1      44.152  28.409  29.968  1.00  0.00     0.167 HD
ATOM     55  C   UNL A   1      45.551  25.985  29.478  1.00  0.00     0.074 A 
ATOM     56  C   UNL A   1      45.848  24.632  29.051  1.00  0.00     0.031 C 
ATOM     57  C   UNL A   1      46.455  26.820  30.046  1.00  0.00     0.031 A 
BRANCH  44  58
ATOM     58  C   UNL A   1      44.233  32.422  31.416  1.00  0.00    -0.014 A 
ATOM     59  C   UNL A   1      44.079  32.738  32.777  1.00  0.00     0.009 A 
ATOM     60  C   UNL A   1      44.668  33.424  30.534  1.00  0.00     0.009 A 
ATOM     61  C   UNL A   1      44.314  34.036  33.235  1.00  0.00     0.001 A 
ATOM     62  C   UNL A   1      44.935  34.713  31.001  1.00  0.00     0.001 A 
ATOM     63  C   UNL A   1      44.748  35.020  32.347  1.00  0.00     0.000 A 
ENDBRANCH  44  58
BRANCH  45  64
ATOM     64  C   UNL A   1      42.089  23.437  27.566  1.00  0.00    -0.014 A 
ATOM     65  C   UNL A   1      41.575  22.410  28.373  1.00  0.00     0.009 A 
ATOM     66  C   UNL A   1      42.316  23.180  26.205  1.00  0.00     0.009 A 
ATOM     67  C   UNL A   1      41.323  21.145  27.836  1.00  0.00     0.001 A 
ATOM     68  C   UNL A   1      42.035  21.924  25.665  1.00  0.00     0.001 A 
ATOM     69  C   UNL A   1      41.549  20.905  26.483  1.00  0.00     0.000 A 
ENDBRANCH  45  64
BRANCH  57  70
ATOM     70  C   UNL A   1      47.837  26.279  30.275  1.00  0.00    -0.014 A 
ATOM     71  C   UNL A   1      48.220  25.752  31.518  1.00  0.00     0.009 A 
ATOM     72  C   UNL A   1      48.756  26.259  29.213  1.00  0.00     0.009 A 
ATOM     73  C   UNL A   1      49.507  25.246  31.702  1.00  0.00     0.001 A 
ATOM     74  C   UNL A   1      50.031  25.723  29.391  1.00  0.00     0.001 A 
ATOM     75  C   UNL A   1      50.409  25.227  30.637  1.00  0.00     0.000 A 
ENDBRANCH  57  70
ENDBRANCH  31  32
ENDBRANCH  23  26
ENDBRANCH  21  22
ENDBRANCH  20  21
ENDBRANCH  19  20
ENDBRANCH   1  19
TORSDOF 16
ENDMDL
MODEL 3
REMARK VINA RESULT:      -8.9      1.809      6.991
REMARK SMILES [NH3+][C@H](CSCc1ccco1)C(=O)NCCCCNC(=O)c1ccc(-c2c3nc(c(-c4ccccc4)c4ccc([nH]4)c(-c4ccccc4)c4nc(c(-c5ccccc5)c5ccc2[nH]5)C=C4)C=C3)cc1
REMARK SMILES IDX 14 1 13 2 11 3 12 4 2 6 1 7 3 11 4 12 5 13 6 14 7 15 10 16
REMARK SMILES IDX 8 17 9 18 15 19 16 20 17 21 18 22 19 23 20 25 21 26 22 27
REMARK SMILES IDX 68 28 23 29 67 30 24 31 25 32 26 33 61 34 27 35 66 36 60 37
REMARK SMILES IDX 62 38 28 39 65 40 59 41 58 42 29 44 51 45 36 46 50 47 37 48
REMARK SMILES IDX 40 49 49 50 63 51 38 52 39 53 48 55 64 56 41 57 30 58 31 59
REMARK SMILES IDX 35 60 32 61 34 62 33 63 52 64 53 65 57 66 54 67 56 68 55 69
REMARK SMILES IDX 42 70 43 71 47 72 44 73 46 74 45 75
REMARK H PARENT 13 5 1 8 1 9 1 10 18 24 62 43 40 54
REMARK Flexibility Score: inf
ROOT
ATOM      1  C   UNL A   1      35.970  21.446  25.209  1.00  0.00     0.116 C 
ENDROOT
BRANCH   1   2
ATOM      2  N   UNL A   1      35.433  21.734  26.529  1.00  0.00    -0.351 N 
ATOM      3  C   UNL A   1      34.176  22.009  26.981  1.00  0.00     0.279 C 
ATOM      4  O   UNL A   1      34.076  22.327  28.172  1.00  0.00    -0.268 OA
ATOM      5  H   UNL A   1      36.113  21.728  27.241  1.00  0.00     0.163 HD
BRANCH   3   6
ATOM      6  C   UNL A   1      32.933  22.004  26.078  1.00  0.00     0.280 C 
BRANCH   6   7
ATOM      7  N   UNL A   1      32.566  20.646  25.620  1.00  0.00    -0.347 N 
ATOM      8  H   UNL A   1      31.582  20.473  25.824  1.00  0.00     0.345 HD
ATOM      9  H   UNL A   1      33.139  19.957  26.106  1.00  0.00     0.345 HD
ATOM     10  H   UNL A   1      32.723  20.571  24.615  1.00  0.00     0.345 HD
ENDBRANCH   6   7
BRANCH   6  11
ATOM     11  C   UNL A   1      32.840  23.140  25.036  1.00  0.00     0.145 C 
BRANCH  11  12
ATOM     12  S   UNL A   1      31.632  24.494  25.187  1.00  0.00    -0.147 SA
BRANCH  12  13
ATOM     13  C   UNL A   1      32.597  25.938  24.613  1.00  0.00     0.145 C 
BRANCH  13  14
ATOM     14  C   UNL A   1      32.405  27.155  25.428  1.00  0.00     0.113 A 
ATOM     15  C   UNL A   1      32.821  27.533  26.688  1.00  0.00     0.046 A 
ATOM     16  O   UNL A   1      31.760  28.193  24.821  1.00  0.00    -0.468 OA
ATOM     17  C   UNL A   1      32.386  28.867  26.867  1.00  0.00     0.042 A 
ATOM     18  C   UNL A   1      31.752  29.225  25.701  1.00  0.00     0.195 A 
ENDBRANCH  13  14
ENDBRANCH  12  13
ENDBRANCH  11  12
ENDBRANCH   6  11
ENDBRANCH   3   6
ENDBRANCH   1   2
BRANCH   1  19
ATOM     19  C   UNL A   1      36.346  19.978  24.993  1.00  0.00     0.023 C 
BRANCH  19  20
ATOM     20  C   UNL A   1      37.802  19.706  24.634  1.00  0.00     0.023 C 
BRANCH  20  21
ATOM     21  C   UNL A   1      38.784  20.179  25.690  1.00  0.00     0.116 C 
BRANCH  21  22
ATOM     22  N   UNL A   1      39.910  19.265  25.821  1.00  0.00    -0.352 N 
ATOM     23  C   UNL A   1      41.230  19.538  26.077  1.00  0.00     0.251 C 
ATOM     24  H   UNL A   1      39.692  18.311  25.710  1.00  0.00     0.163 HD
ATOM     25  O   UNL A   1      42.086  18.681  25.891  1.00  0.00    -0.269 OA
BRANCH  23  26
ATOM     26  C   UNL A   1      41.608  20.872  26.579  1.00  0.00     0.039 A 
ATOM     27  C   UNL A   1      42.087  21.831  25.684  1.00  0.00     0.014 A 
ATOM     28  C   UNL A   1      41.493  21.167  27.940  1.00  0.00     0.014 A 
ATOM     29  C   UNL A   1      42.401  23.107  26.153  1.00  0.00     0.010 A 
ATOM     30  C   UNL A   1      41.704  22.462  28.384  1.00  0.00     0.010 A 
ATOM     31  C   UNL A   1      42.184  23.438  27.500  1.00  0.00    -0.014 A 
BRANCH  31  32
ATOM     32  C   UNL A   1      42.484  24.789  28.027  1.00  0.00     0.031 A 
ATOM     33  C   UNL A   1      43.887  25.124  28.457  1.00  0.00     0.074 A 
ATOM     34  C   UNL A   1      41.487  25.680  28.188  1.00  0.00     0.049 A 
ATOM     35  N   UNL A   1      44.341  26.216  29.015  1.00  0.00    -0.248 NA
ATOM     36  C   UNL A   1      44.909  24.080  28.267  1.00  0.00     0.031 C 
ATOM     37  C   UNL A   1      40.080  25.451  27.851  1.00  0.00     0.029 A 
ATOM     38  N   UNL A   1      41.507  26.959  28.681  1.00  0.00    -0.354 N 
ATOM     39  C   UNL A   1      45.686  25.977  29.269  1.00  0.00     0.074 A 
ATOM     40  C   UNL A   1      45.963  24.620  28.857  1.00  0.00     0.031 C 
ATOM     41  C   UNL A   1      39.379  26.566  28.113  1.00  0.00     0.029 A 
ATOM     42  C   UNL A   1      40.276  27.568  28.676  1.00  0.00     0.049 A 
ATOM     43  H   UNL A   1      42.325  27.397  29.009  1.00  0.00     0.167 HD
ATOM     44  C   UNL A   1      46.615  26.820  29.775  1.00  0.00     0.031 A 
ATOM     45  C   UNL A   1      39.915  28.800  29.082  1.00  0.00     0.031 A 
ATOM     46  C   UNL A   1      46.338  28.178  30.156  1.00  0.00     0.049 A 
ATOM     47  C   UNL A   1      40.966  29.718  29.640  1.00  0.00     0.074 A 
ATOM     48  C   UNL A   1      47.219  29.142  30.614  1.00  0.00     0.029 A 
ATOM     49  N   UNL A   1      45.082  28.764  30.121  1.00  0.00    -0.354 N 
ATOM     50  N   UNL A   1      42.249  29.503  29.803  1.00  0.00    -0.248 NA
ATOM     51  C   UNL A   1      40.518  31.054  30.058  1.00  0.00     0.031 C 
ATOM     52  C   UNL A   1      46.485  30.295  30.907  1.00  0.00     0.029 A 
ATOM     53  C   UNL A   1      45.158  30.069  30.573  1.00  0.00     0.049 A 
ATOM     54  H   UNL A   1      44.258  28.317  29.819  1.00  0.00     0.167 HD
ATOM     55  C   UNL A   1      42.768  30.686  30.313  1.00  0.00     0.074 A 
ATOM     56  C   UNL A   1      41.663  31.617  30.417  1.00  0.00     0.031 C 
ATOM     57  C   UNL A   1      44.045  30.977  30.665  1.00  0.00     0.031 A 
BRANCH  44  58
ATOM     58  C   UNL A   1      48.012  26.294  29.947  1.00  0.00    -0.014 A 
ATOM     59  C   UNL A   1      48.943  26.330  28.895  1.00  0.00     0.009 A 
ATOM     60  C   UNL A   1      48.415  25.774  31.187  1.00  0.00     0.009 A 
ATOM     61  C   UNL A   1      50.232  25.822  29.070  1.00  0.00     0.001 A 
ATOM     62  C   UNL A   1      49.714  25.297  31.369  1.00  0.00     0.001 A 
ATOM     63  C   UNL A   1      50.618  25.311  30.308  1.00  0.00     0.000 A 
ENDBRANCH  44  58
BRANCH  45  64
ATOM     64  C   UNL A   1      38.501  29.244  28.955  1.00  0.00    -0.014 A 
ATOM     65  C   UNL A   1      38.020  29.731  27.729  1.00  0.00     0.009 A 
ATOM     66  C   UNL A   1      37.629  29.190  30.052  1.00  0.00     0.009 A 
ATOM     67  C   UNL A   1      36.704  30.184  27.614  1.00  0.00     0.001 A 
ATOM     68  C   UNL A   1      36.305  29.615  29.926  1.00  0.00     0.001 A 
ATOM     69  C   UNL A   1      35.847  30.121  28.710  1.00  0.00     0.000 A 
ENDBRANCH  45  64
BRANCH  57  70
ATOM     70  C   UNL A   1      44.319  32.369  31.156  1.00  0.00    -0.014 A 
ATOM     71  C   UNL A   1      44.273  32.685  32.522  1.00  0.00     0.009 A 
ATOM     72  C   UNL A   1      44.671  33.370  30.236  1.00  0.00     0.009 A 
ATOM     73  C   UNL A   1      44.542  33.984  32.954  1.00  0.00     0.001 A 
ATOM     74  C   UNL A   1      44.971  34.660  30.673  1.00  0.00     0.001 A 
ATOM     75  C   UNL A   1      44.896  34.968  32.030  1.00  0.00     0.000 A 
ENDBRANCH  57  70
ENDBRANCH  31  32
ENDBRANCH  23  26
ENDBRANCH  21  22
ENDBRANCH  20  21
ENDBRANCH  19  20
ENDBRANCH   1  19
TORSDOF 16
ENDMDL
