MODEL 1
REMARK VINA RESULT:      -9.8      0.000      0.000
REMARK SMILES CCN1C[C@@H](C(=O)NCCCCNC(=O)c2ccc(-c3c4nc(c(-c5ccccc5)c5ccc([nH]5)c(-c5ccccc5)c5nc(c(-c6ccccc6)c6ccc3[nH]6)C=C5)C=C4)cc2)CC1=O
REMARK SMILES IDX 11 1 10 2 9 3 8 4 6 5 7 6 5 8 3 9 4 10 65 11 64 12 66 13
REMARK SMILES IDX 2 14 1 15 12 16 13 17 14 18 15 20 16 21 17 22 63 23 18 24
REMARK SMILES IDX 62 25 19 26 20 27 21 28 56 29 22 30 61 31 55 32 57 33 23 34
REMARK SMILES IDX 60 35 54 36 53 37 24 39 46 40 31 41 45 42 32 43 35 44 44 45
REMARK SMILES IDX 58 46 33 47 34 48 43 50 59 51 36 52 25 53 26 54 30 55 27 56
REMARK SMILES IDX 29 57 28 58 47 59 48 60 52 61 49 62 51 63 50 64 37 65 38 66
REMARK SMILES IDX 42 67 39 68 41 69 40 70
REMARK H PARENT 8 7 13 19 57 38 35 49
REMARK Flexibility Score: inf
ROOT
ATOM      1  C   UNL A   1      43.974  18.789  25.018  1.00  0.00     0.023 C 
ENDROOT
BRANCH   1   2
ATOM      2  C   UNL A   1      45.474  18.853  25.311  1.00  0.00     0.023 C 
BRANCH   2   3
ATOM      3  C   UNL A   1      46.173  20.107  24.794  1.00  0.00     0.116 C 
BRANCH   3   4
ATOM      4  N   UNL A   1      45.331  20.860  23.881  1.00  0.00    -0.356 N 
ATOM      5  C   UNL A   1      44.957  22.166  23.876  1.00  0.00     0.225 C 
ATOM      6  O   UNL A   1      44.220  22.538  22.959  1.00  0.00    -0.275 OA
ATOM      7  H   UNL A   1      44.965  20.331  23.137  1.00  0.00     0.163 HD
BRANCH   5   8
ATOM      8  C   UNL A   1      45.428  23.158  24.919  1.00  0.00     0.107 C 
ATOM      9  N   UNL A   1      45.435  25.507  25.053  1.00  0.00    -0.342 N 
ATOM     10  C   UNL A   1      44.532  24.382  25.002  1.00  0.00     0.133 C 
ATOM     11  C   UNL A   1      46.763  25.148  24.910  1.00  0.00     0.223 C 
ATOM     12  C   UNL A   1      46.854  23.659  24.722  1.00  0.00     0.115 C 
ATOM     13  O   UNL A   1      47.719  25.909  24.905  1.00  0.00    -0.275 OA
BRANCH   9  14
ATOM     14  C   UNL A   1      45.021  26.890  25.229  1.00  0.00     0.116 C 
ATOM     15  C   UNL A   1      43.527  27.116  25.378  1.00  0.00     0.027 C 
ENDBRANCH   9  14
ENDBRANCH   5   8
ENDBRANCH   3   4
ENDBRANCH   2   3
ENDBRANCH   1   2
BRANCH   1  16
ATOM     16  C   UNL A   1      43.091  18.473  26.219  1.00  0.00     0.116 C 
BRANCH  16  17
ATOM     17  N   UNL A   1      41.670  18.562  25.919  1.00  0.00    -0.352 N 
ATOM     18  C   UNL A   1      40.798  19.598  26.148  1.00  0.00     0.251 C 
ATOM     19  H   UNL A   1      41.278  17.767  25.492  1.00  0.00     0.163 HD
ATOM     20  O   UNL A   1      39.596  19.449  25.956  1.00  0.00    -0.269 OA
BRANCH  18  21
ATOM     21  C   UNL A   1      41.309  20.886  26.661  1.00  0.00     0.039 A 
ATOM     22  C   UNL A   1      41.684  21.876  25.750  1.00  0.00     0.014 A 
ATOM     23  C   UNL A   1      41.396  21.127  28.035  1.00  0.00     0.014 A 
ATOM     24  C   UNL A   1      42.077  23.132  26.216  1.00  0.00     0.010 A 
ATOM     25  C   UNL A   1      41.708  22.402  28.495  1.00  0.00     0.010 A 
ATOM     26  C   UNL A   1      42.051  23.418  27.591  1.00  0.00    -0.014 A 
BRANCH  26  27
ATOM     27  C   UNL A   1      42.371  24.775  28.101  1.00  0.00     0.031 A 
ATOM     28  C   UNL A   1      43.778  25.123  28.505  1.00  0.00     0.074 A 
ATOM     29  C   UNL A   1      41.384  25.681  28.252  1.00  0.00     0.049 A 
ATOM     30  N   UNL A   1      44.238  26.237  29.016  1.00  0.00    -0.248 NA
ATOM     31  C   UNL A   1      44.797  24.075  28.337  1.00  0.00     0.031 C 
ATOM     32  C   UNL A   1      39.972  25.462  27.926  1.00  0.00     0.029 A 
ATOM     33  N   UNL A   1      41.418  26.972  28.720  1.00  0.00    -0.354 N 
ATOM     34  C   UNL A   1      45.591  26.018  29.241  1.00  0.00     0.074 A 
ATOM     35  C   UNL A   1      45.867  24.651  28.862  1.00  0.00     0.031 C 
ATOM     36  C   UNL A   1      39.285  26.591  28.166  1.00  0.00     0.029 A 
ATOM     37  C   UNL A   1      40.194  27.595  28.708  1.00  0.00     0.049 A 
ATOM     38  H   UNL A   1      42.242  27.409  29.035  1.00  0.00     0.167 HD
ATOM     39  C   UNL A   1      46.525  26.884  29.700  1.00  0.00     0.031 A 
ATOM     40  C   UNL A   1      39.840  28.836  29.094  1.00  0.00     0.031 A 
ATOM     41  C   UNL A   1      46.253  28.247  30.072  1.00  0.00     0.049 A 
ATOM     42  C   UNL A   1      40.892  29.764  29.635  1.00  0.00     0.074 A 
ATOM     43  C   UNL A   1      47.144  29.216  30.502  1.00  0.00     0.029 A 
ATOM     44  N   UNL A   1      44.998  28.834  30.060  1.00  0.00    -0.354 N 
ATOM     45  N   UNL A   1      42.178  29.561  29.783  1.00  0.00    -0.248 NA
ATOM     46  C   UNL A   1      40.441  31.100  30.053  1.00  0.00     0.031 C 
ATOM     47  C   UNL A   1      46.418  30.370  30.809  1.00  0.00     0.029 A 
ATOM     48  C   UNL A   1      45.085  30.143  30.503  1.00  0.00     0.049 A 
ATOM     49  H   UNL A   1      44.167  28.386  29.778  1.00  0.00     0.167 HD
ATOM     50  C   UNL A   1      42.695  30.752  30.279  1.00  0.00     0.074 A 
ATOM     51  C   UNL A   1      41.585  31.676  30.390  1.00  0.00     0.031 C 
ATOM     52  C   UNL A   1      43.974  31.053  30.609  1.00  0.00     0.031 A 
BRANCH  39  53
ATOM     53  C   UNL A   1      47.936  26.378  29.836  1.00  0.00    -0.014 A 
ATOM     54  C   UNL A   1      48.839  26.443  28.763  1.00  0.00     0.009 A 
ATOM     55  C   UNL A   1      48.382  25.875  31.068  1.00  0.00     0.009 A 
ATOM     56  C   UNL A   1      50.150  25.984  28.912  1.00  0.00     0.001 A 
ATOM     57  C   UNL A   1      49.702  25.448  31.224  1.00  0.00     0.001 A 
ATOM     58  C   UNL A   1      50.581  25.493  30.144  1.00  0.00     0.000 A 
ENDBRANCH  39  53
BRANCH  40  59
ATOM     59  C   UNL A   1      38.428  29.286  28.965  1.00  0.00    -0.014 A 
ATOM     60  C   UNL A   1      37.946  29.768  27.739  1.00  0.00     0.009 A 
ATOM     61  C   UNL A   1      37.561  29.251  30.067  1.00  0.00     0.009 A 
ATOM     62  C   UNL A   1      36.634  30.234  27.626  1.00  0.00     0.001 A 
ATOM     63  C   UNL A   1      36.240  29.688  29.944  1.00  0.00     0.001 A 
ATOM     64  C   UNL A   1      35.781  30.189  28.727  1.00  0.00     0.000 A 
ENDBRANCH  40  59
BRANCH  52  65
ATOM     65  C   UNL A   1      44.254  32.453  31.080  1.00  0.00    -0.014 A 
ATOM     66  C   UNL A   1      44.120  32.814  32.430  1.00  0.00     0.009 A 
ATOM     67  C   UNL A   1      44.702  33.416  30.162  1.00  0.00     0.009 A 
ATOM     68  C   UNL A   1      44.392  34.120  32.842  1.00  0.00     0.001 A 
ATOM     69  C   UNL A   1      45.005  34.711  30.581  1.00  0.00     0.001 A 
ATOM     70  C   UNL A   1      44.840  35.065  31.919  1.00  0.00     0.000 A 
ENDBRANCH  52  65
ENDBRANCH  26  27
ENDBRANCH  18  21
ENDBRANCH  16  17
ENDBRANCH   1  16
TORSDOF 12
ENDMDL
MODEL 2
REMARK VINA RESULT:      -9.7      0.257      6.350
REMARK SMILES CCN1C[C@@H](C(=O)NCCCCNC(=O)c2ccc(-c3c4nc(c(-c5ccccc5)c5ccc([nH]5)c(-c5ccccc5)c5nc(c(-c6ccccc6)c6ccc3[nH]6)C=C5)C=C4)cc2)CC1=O
REMARK SMILES IDX 11 1 10 2 9 3 8 4 6 5 7 6 5 8 3 9 4 10 65 11 64 12 66 13
REMARK SMILES IDX 2 14 1 15 12 16 13 17 14 18 15 20 16 21 17 22 63 23 18 24
REMARK SMILES IDX 62 25 19 26 20 27 21 28 56 29 22 30 61 31 55 32 57 33 23 34
REMARK SMILES IDX 60 35 54 36 53 37 24 39 46 40 31 41 45 42 32 43 35 44 44 45
REMARK SMILES IDX 58 46 33 47 34 48 43 50 59 51 36 52 25 53 26 54 30 55 27 56
REMARK SMILES IDX 29 57 28 58 47 59 48 60 52 61 49 62 51 63 50 64 37 65 38 66
REMARK SMILES IDX 42 67 39 68 41 69 40 70
REMARK H PARENT 8 7 13 19 57 38 35 49
REMARK Flexibility Score: inf
ROOT
ATOM      1  C   UNL A   1      43.831  18.836  25.035  1.00  0.00     0.023 C 
ENDROOT
BRANCH   1   2
ATOM      2  C   UNL A   1      45.323  18.885  25.368  1.00  0.00     0.023 C 
BRANCH   2   3
ATOM      3  C   UNL A   1      46.067  20.087  24.795  1.00  0.00     0.116 C 
BRANCH   3   4
ATOM      4  N   UNL A   1      45.237  20.855  23.884  1.00  0.00    -0.356 N 
ATOM      5  C   UNL A   1      44.893  22.170  23.876  1.00  0.00     0.225 C 
ATOM      6  O   UNL A   1      44.159  22.554  22.961  1.00  0.00    -0.275 OA
ATOM      7  H   UNL A   1      44.854  20.331  23.144  1.00  0.00     0.163 HD
BRANCH   5   8
ATOM      8  C   UNL A   1      45.392  23.155  24.911  1.00  0.00     0.107 C 
ATOM      9  N   UNL A   1      45.514  25.503  25.006  1.00  0.00    -0.342 N 
ATOM     10  C   UNL A   1      44.557  24.424  24.955  1.00  0.00     0.133 C 
ATOM     11  C   UNL A   1      46.825  25.076  24.896  1.00  0.00     0.223 C 
ATOM     12  C   UNL A   1      46.845  23.581  24.735  1.00  0.00     0.115 C 
ATOM     13  O   UNL A   1      47.818  25.788  24.898  1.00  0.00    -0.275 OA
BRANCH   9  14
ATOM     14  C   UNL A   1      45.167  26.908  25.151  1.00  0.00     0.116 C 
ATOM     15  C   UNL A   1      43.724  27.193  25.526  1.00  0.00     0.027 C 
ENDBRANCH   9  14
ENDBRANCH   5   8
ENDBRANCH   3   4
ENDBRANCH   2   3
ENDBRANCH   1   2
BRANCH   1  16
ATOM     16  C   UNL A   1      42.918  18.453  26.193  1.00  0.00     0.116 C 
BRANCH  16  17
ATOM     17  N   UNL A   1      41.506  18.621  25.884  1.00  0.00    -0.352 N 
ATOM     18  C   UNL A   1      40.687  19.697  26.125  1.00  0.00     0.251 C 
ATOM     19  H   UNL A   1      41.077  17.853  25.441  1.00  0.00     0.163 HD
ATOM     20  O   UNL A   1      39.481  19.613  25.922  1.00  0.00    -0.269 OA
BRANCH  18  21
ATOM     21  C   UNL A   1      41.261  20.948  26.664  1.00  0.00     0.039 A 
ATOM     22  C   UNL A   1      41.626  21.961  25.775  1.00  0.00     0.014 A 
ATOM     23  C   UNL A   1      41.416  21.130  28.040  1.00  0.00     0.014 A 
ATOM     24  C   UNL A   1      42.079  23.185  26.271  1.00  0.00     0.010 A 
ATOM     25  C   UNL A   1      41.788  22.377  28.534  1.00  0.00     0.010 A 
ATOM     26  C   UNL A   1      42.122  23.417  27.656  1.00  0.00    -0.014 A 
BRANCH  26  27
ATOM     27  C   UNL A   1      42.507  24.743  28.202  1.00  0.00     0.031 A 
ATOM     28  C   UNL A   1      41.470  25.816  28.391  1.00  0.00     0.074 A 
ATOM     29  C   UNL A   1      43.801  25.002  28.476  1.00  0.00     0.049 A 
ATOM     30  N   UNL A   1      41.624  27.048  28.809  1.00  0.00    -0.248 NA
ATOM     31  C   UNL A   1      40.083  25.470  28.045  1.00  0.00     0.031 C 
ATOM     32  C   UNL A   1      44.911  24.059  28.308  1.00  0.00     0.029 A 
ATOM     33  N   UNL A   1      44.404  26.139  28.956  1.00  0.00    -0.354 N 
ATOM     34  C   UNL A   1      40.360  27.623  28.761  1.00  0.00     0.074 A 
ATOM     35  C   UNL A   1      39.461  26.625  28.225  1.00  0.00     0.031 C 
ATOM     36  C   UNL A   1      46.049  24.643  28.716  1.00  0.00     0.029 A 
ATOM     37  C   UNL A   1      45.762  26.013  29.127  1.00  0.00     0.049 A 
ATOM     38  H   UNL A   1      43.910  26.966  29.158  1.00  0.00     0.167 HD
ATOM     39  C   UNL A   1      39.977  28.862  29.149  1.00  0.00     0.031 A 
ATOM     40  C   UNL A   1      46.675  26.901  29.561  1.00  0.00     0.031 A 
ATOM     41  C   UNL A   1      40.870  29.854  29.688  1.00  0.00     0.049 A 
ATOM     42  C   UNL A   1      46.228  28.283  29.951  1.00  0.00     0.074 A 
ATOM     43  C   UNL A   1      40.567  31.121  30.155  1.00  0.00     0.029 A 
ATOM     44  N   UNL A   1      42.239  29.691  29.830  1.00  0.00    -0.354 N 
ATOM     45  N   UNL A   1      45.018  28.790  29.958  1.00  0.00    -0.248 NA
ATOM     46  C   UNL A   1      47.273  29.213  30.403  1.00  0.00     0.031 C 
ATOM     47  C   UNL A   1      41.761  31.748  30.522  1.00  0.00     0.029 A 
ATOM     48  C   UNL A   1      42.799  30.846  30.350  1.00  0.00     0.049 A 
ATOM     49  H   UNL A   1      42.739  28.876  29.595  1.00  0.00     0.167 HD
ATOM     50  C   UNL A   1      45.154  30.084  30.446  1.00  0.00     0.074 A 
ATOM     51  C   UNL A   1      46.559  30.277  30.739  1.00  0.00     0.031 C 
ATOM     52  C   UNL A   1      44.199  31.026  30.637  1.00  0.00     0.031 A 
BRANCH  39  53
ATOM     53  C   UNL A   1      38.525  29.221  28.997  1.00  0.00    -0.014 A 
ATOM     54  C   UNL A   1      37.635  29.134  30.080  1.00  0.00     0.009 A 
ATOM     55  C   UNL A   1      38.049  29.700  27.766  1.00  0.00     0.009 A 
ATOM     56  C   UNL A   1      36.293  29.487  29.924  1.00  0.00     0.001 A 
ATOM     57  C   UNL A   1      36.714  30.084  27.622  1.00  0.00     0.001 A 
ATOM     58  C   UNL A   1      35.835  29.968  28.697  1.00  0.00     0.000 A 
ENDBRANCH  39  53
BRANCH  40  59
ATOM     59  C   UNL A   1      48.106  26.511  29.673  1.00  0.00    -0.014 A 
ATOM     60  C   UNL A   1      48.599  25.956  30.864  1.00  0.00     0.009 A 
ATOM     61  C   UNL A   1      48.988  26.704  28.599  1.00  0.00     0.009 A 
ATOM     62  C   UNL A   1      49.952  25.630  30.987  1.00  0.00     0.001 A 
ATOM     63  C   UNL A   1      50.334  26.349  28.715  1.00  0.00     0.001 A 
ATOM     64  C   UNL A   1      50.817  25.823  29.912  1.00  0.00     0.000 A 
ENDBRANCH  40  59
BRANCH  52  65
ATOM     65  C   UNL A   1      44.632  32.338  31.231  1.00  0.00    -0.014 A 
ATOM     66  C   UNL A   1      45.114  33.383  30.429  1.00  0.00     0.009 A 
ATOM     67  C   UNL A   1      44.514  32.543  32.616  1.00  0.00     0.009 A 
ATOM     68  C   UNL A   1      45.505  34.593  31.006  1.00  0.00     0.001 A 
ATOM     69  C   UNL A   1      44.873  33.765  33.186  1.00  0.00     0.001 A 
ATOM     70  C   UNL A   1      45.378  34.785  32.382  1.00  0.00     0.000 A 
ENDBRANCH  52  65
ENDBRANCH  26  27
ENDBRANCH  18  21
ENDBRANCH  16  17
ENDBRANCH   1  16
TORSDOF 12
ENDMDL
MODEL 3
REMARK VINA RESULT:      -9.1      3.516      6.177
REMARK SMILES CCN1C[C@@H](C(=O)NCCCCNC(=O)c2ccc(-c3c4nc(c(-c5ccccc5)c5ccc([nH]5)c(-c5ccccc5)c5nc(c(-c6ccccc6)c6ccc3[nH]6)C=C5)C=C4)cc2)CC1=O
REMARK SMILES IDX 11 1 10 2 9 3 8 4 6 5 7 6 5 8 3 9 4 10 65 11 64 12 66 13
REMARK SMILES IDX 2 14 1 15 12 16 13 17 14 18 15 20 16 21 17 22 63 23 18 24
REMARK SMILES IDX 62 25 19 26 20 27 21 28 56 29 22 30 61 31 55 32 57 33 23 34
REMARK SMILES IDX 60 35 54 36 53 37 24 39 46 40 31 41 45 42 32 43 35 44 44 45
REMARK SMILES IDX 58 46 33 47 34 48 43 50 59 51 36 52 25 53 26 54 30 55 27 56
REMARK SMILES IDX 29 57 28 58 47 59 48 60 52 61 49 62 51 63 50 64 37 65 38 66
REMARK SMILES IDX 42 67 39 68 41 69 40 70
REMARK H PARENT 8 7 13 19 57 38 35 49
REMARK Flexibility Score: inf
ROOT
ATOM      1  C   UNL A   1      38.049  19.821  24.977  1.00  0.00     0.023 C 
ENDROOT
BRANCH   1   2
ATOM      2  C   UNL A   1      36.869  20.793  24.956  1.00  0.00     0.023 C 
BRANCH   2   3
ATOM      3  C   UNL A   1      35.494  20.131  24.966  1.00  0.00     0.116 C 
BRANCH   3   4
ATOM      4  N   UNL A   1      34.461  21.034  25.440  1.00  0.00    -0.356 N 
ATOM      5  C   UNL A   1      33.108  20.913  25.468  1.00  0.00     0.225 C 
ATOM      6  O   UNL A   1      32.468  21.858  25.937  1.00  0.00    -0.275 OA
ATOM      7  H   UNL A   1      34.800  21.884  25.802  1.00  0.00     0.163 HD
BRANCH   5   8
ATOM      8  C   UNL A   1      32.384  19.676  24.981  1.00  0.00     0.107 C 
ATOM      9  N   UNL A   1      33.036  17.449  24.593  1.00  0.00    -0.342 N 
ATOM     10  C   UNL A   1      32.879  18.410  25.658  1.00  0.00     0.133 C 
ATOM     11  C   UNL A   1      32.803  17.983  23.338  1.00  0.00     0.223 C 
ATOM     12  C   UNL A   1      32.467  19.441  23.477  1.00  0.00     0.115 C 
ATOM     13  O   UNL A   1      32.882  17.386  22.274  1.00  0.00    -0.275 OA
BRANCH   9  14
ATOM     14  C   UNL A   1      33.409  16.056  24.784  1.00  0.00     0.116 C 
ATOM     15  C   UNL A   1      34.856  15.810  25.171  1.00  0.00     0.027 C 
ENDBRANCH   9  14
ENDBRANCH   5   8
ENDBRANCH   3   4
ENDBRANCH   2   3
ENDBRANCH   1   2
BRANCH   1  16
ATOM     16  C   UNL A   1      39.205  20.221  25.887  1.00  0.00     0.116 C 
BRANCH  16  17
ATOM     17  N   UNL A   1      40.305  19.269  25.860  1.00  0.00    -0.352 N 
ATOM     18  C   UNL A   1      41.639  19.477  26.115  1.00  0.00     0.251 C 
ATOM     19  H   UNL A   1      40.058  18.345  25.626  1.00  0.00     0.163 HD
ATOM     20  O   UNL A   1      42.454  18.583  25.910  1.00  0.00    -0.269 OA
BRANCH  18  21
ATOM     21  C   UNL A   1      42.094  20.794  26.605  1.00  0.00     0.039 A 
ATOM     22  C   UNL A   1      42.528  21.746  25.679  1.00  0.00     0.014 A 
ATOM     23  C   UNL A   1      42.072  21.098  27.968  1.00  0.00     0.014 A 
ATOM     24  C   UNL A   1      42.870  23.028  26.115  1.00  0.00     0.010 A 
ATOM     25  C   UNL A   1      42.334  22.398  28.391  1.00  0.00     0.010 A 
ATOM     26  C   UNL A   1      42.734  23.376  27.469  1.00  0.00    -0.014 A 
BRANCH  26  27
ATOM     27  C   UNL A   1      42.999  24.760  27.938  1.00  0.00     0.031 A 
ATOM     28  C   UNL A   1      44.401  25.197  28.263  1.00  0.00     0.074 A 
ATOM     29  C   UNL A   1      41.969  25.609  28.125  1.00  0.00     0.049 A 
ATOM     30  N   UNL A   1      44.820  26.346  28.729  1.00  0.00    -0.248 NA
ATOM     31  C   UNL A   1      45.471  24.206  28.060  1.00  0.00     0.031 C 
ATOM     32  C   UNL A   1      40.558  25.302  27.876  1.00  0.00     0.029 A 
ATOM     33  N   UNL A   1      41.950  26.909  28.568  1.00  0.00    -0.354 N 
ATOM     34  C   UNL A   1      46.194  26.211  28.888  1.00  0.00     0.074 A 
ATOM     35  C   UNL A   1      46.531  24.854  28.519  1.00  0.00     0.031 C 
ATOM     36  C   UNL A   1      39.818  26.394  28.132  1.00  0.00     0.029 A 
ATOM     37  C   UNL A   1      40.692  27.460  28.608  1.00  0.00     0.049 A 
ATOM     38  H   UNL A   1      42.762  27.400  28.832  1.00  0.00     0.167 HD
ATOM     39  C   UNL A   1      47.097  27.139  29.283  1.00  0.00     0.031 A 
ATOM     40  C   UNL A   1      40.286  28.685  28.990  1.00  0.00     0.031 A 
ATOM     41  C   UNL A   1      46.764  28.491  29.645  1.00  0.00     0.049 A 
ATOM     42  C   UNL A   1      41.307  29.685  29.460  1.00  0.00     0.074 A 
ATOM     43  C   UNL A   1      47.616  29.518  30.011  1.00  0.00     0.029 A 
ATOM     44  N   UNL A   1      45.477  29.004  29.688  1.00  0.00    -0.354 N 
ATOM     45  N   UNL A   1      42.609  29.560  29.545  1.00  0.00    -0.248 NA
ATOM     46  C   UNL A   1      40.800  31.000  29.878  1.00  0.00     0.031 C 
ATOM     47  C   UNL A   1      46.840  30.634  30.336  1.00  0.00     0.029 A 
ATOM     48  C   UNL A   1      45.509  30.324  30.103  1.00  0.00     0.049 A 
ATOM     49  H   UNL A   1      44.661  28.503  29.457  1.00  0.00     0.167 HD
ATOM     50  C   UNL A   1      43.079  30.788  29.993  1.00  0.00     0.074 A 
ATOM     51  C   UNL A   1      41.924  31.648  30.145  1.00  0.00     0.031 C 
ATOM     52  C   UNL A   1      44.353  31.170  30.250  1.00  0.00     0.031 A 
BRANCH  39  53
ATOM     53  C   UNL A   1      48.540  26.719  29.354  1.00  0.00    -0.014 A 
ATOM     54  C   UNL A   1      49.400  26.877  28.255  1.00  0.00     0.009 A 
ATOM     55  C   UNL A   1      49.059  26.204  30.553  1.00  0.00     0.009 A 
ATOM     56  C   UNL A   1      50.740  26.496  28.345  1.00  0.00     0.001 A 
ATOM     57  C   UNL A   1      50.408  25.855  30.649  1.00  0.00     0.001 A 
ATOM     58  C   UNL A   1      51.245  25.992  29.544  1.00  0.00     0.000 A 
ENDBRANCH  39  53
BRANCH  40  59
ATOM     59  C   UNL A   1      38.845  29.050  28.927  1.00  0.00    -0.014 A 
ATOM     60  C   UNL A   1      38.293  29.559  27.742  1.00  0.00     0.009 A 
ATOM     61  C   UNL A   1      38.019  28.907  30.052  1.00  0.00     0.009 A 
ATOM     62  C   UNL A   1      36.951  29.945  27.693  1.00  0.00     0.001 A 
ATOM     63  C   UNL A   1      36.670  29.264  29.991  1.00  0.00     0.001 A 
ATOM     64  C   UNL A   1      36.140  29.793  28.815  1.00  0.00     0.000 A 
ENDBRANCH  40  59
BRANCH  52  65
ATOM     65  C   UNL A   1      44.573  32.593  30.682  1.00  0.00    -0.014 A 
ATOM     66  C   UNL A   1      44.769  33.622  29.748  1.00  0.00     0.009 A 
ATOM     67  C   UNL A   1      44.542  32.915  32.049  1.00  0.00     0.009 A 
ATOM     68  C   UNL A   1      44.966  34.936  30.177  1.00  0.00     0.001 A 
ATOM     69  C   UNL A   1      44.706  34.233  32.473  1.00  0.00     0.001 A 
ATOM     70  C   UNL A   1      44.928  35.241  31.537  1.00  0.00     0.000 A 
ENDBRANCH  52  65
ENDBRANCH  26  27
ENDBRANCH  18  21
ENDBRANCH  16  17
ENDBRANCH   1  16
TORSDOF 12
ENDMDL
