MODEL 1
REMARK VINA RESULT:     -10.9      0.000      0.000
REMARK SMILES Cc1nn(C)c(=O)c(C(=O)N[C@H](C)CC(=O)NCCCCNC(=O)c2ccc(-c3c4nc(c(-c5ccccc5)c5ccc([nH]5)c(-c5ccccc5)c5nc(c(-c6ccccc6)c6ccc3[nH]6)C=C5)C=C4)cc2)c1C
REMARK SMILES IDX 19 1 18 2 17 3 15 4 16 5 14 7 12 8 13 9 11 10 9 11 10 12
REMARK SMILES IDX 8 14 1 15 2 16 3 17 73 18 4 19 74 20 5 21 6 22 7 23 20 24
REMARK SMILES IDX 21 25 22 26 23 27 24 29 25 30 26 31 72 32 27 33 71 34 28 35
REMARK SMILES IDX 29 36 30 37 65 38 31 39 70 40 64 41 66 42 32 43 69 44 63 45
REMARK SMILES IDX 62 46 33 48 55 49 40 50 54 51 41 52 44 53 53 54 67 55 42 56
REMARK SMILES IDX 43 57 52 59 68 60 45 61 34 62 35 63 39 64 36 65 38 66 37 67
REMARK SMILES IDX 56 68 57 69 61 70 58 71 60 72 59 73 46 74 47 75 51 76 48 77
REMARK SMILES IDX 50 78 49 79
REMARK H PARENT 17 6 11 13 22 28 66 47 44 58
REMARK Flexibility Score: inf
ROOT
ATOM      1  C   UNL A   1      31.411  28.215  26.302  1.00  0.00     0.023 C 
ENDROOT
BRANCH   1   2
ATOM      2  C   UNL A   1      31.668  28.981  25.001  1.00  0.00     0.116 C 
BRANCH   2   3
ATOM      3  N   UNL A   1      31.399  28.138  23.847  1.00  0.00    -0.356 N 
ATOM      4  C   UNL A   1      32.255  27.414  23.067  1.00  0.00     0.222 C 
ATOM      5  O   UNL A   1      31.818  26.904  22.035  1.00  0.00    -0.275 OA
ATOM      6  H   UNL A   1      30.452  28.082  23.586  1.00  0.00     0.163 HD
BRANCH   4   7
ATOM      7  C   UNL A   1      33.700  27.215  23.484  1.00  0.00     0.124 C 
BRANCH   7   8
ATOM      8  C   UNL A   1      34.031  25.815  24.023  1.00  0.00     0.088 C 
ATOM      9  C   UNL A   1      33.612  25.549  25.459  1.00  0.00     0.031 C 
BRANCH   8  10
ATOM     10  N   UNL A   1      33.603  24.770  23.072  1.00  0.00    -0.349 N 
ATOM     11  C   UNL A   1      33.661  23.413  22.962  1.00  0.00     0.257 C 
ATOM     12  O   UNL A   1      33.085  22.903  21.998  1.00  0.00    -0.269 OA
ATOM     13  H   UNL A   1      33.144  25.165  22.295  1.00  0.00     0.164 HD
BRANCH  11  14
ATOM     14  C   UNL A   1      34.340  22.528  23.942  1.00  0.00     0.111 A 
ATOM     15  C   UNL A   1      37.591  20.875  24.842  1.00  0.00     0.069 C 
ATOM     16  C   UNL A   1      36.249  21.546  25.021  1.00  0.00     0.062 A 
ATOM     17  N   UNL A   1      35.639  21.282  26.127  1.00  0.00    -0.175 NA
ATOM     18  C   UNL A   1      35.677  22.373  23.924  1.00  0.00    -0.010 A 
ATOM     19  N   UNL A   1      34.347  21.701  26.248  1.00  0.00    -0.232 N 
ATOM     20  C   UNL A   1      36.633  23.042  22.999  1.00  0.00     0.047 C 
ATOM     21  C   UNL A   1      33.762  21.521  27.565  1.00  0.00     0.178 C 
ATOM     22  C   UNL A   1      33.577  22.121  25.166  1.00  0.00     0.279 A 
ATOM     23  O   UNL A   1      32.352  22.205  25.202  1.00  0.00    -0.267 OA
ENDBRANCH  11  14
ENDBRANCH   8  10
ENDBRANCH   7   8
ENDBRANCH   4   7
ENDBRANCH   2   3
ENDBRANCH   1   2
BRANCH   1  24
ATOM     24  C   UNL A   1      32.356  28.590  27.442  1.00  0.00     0.023 C 
BRANCH  24  25
ATOM     25  C   UNL A   1      33.509  29.483  27.010  1.00  0.00     0.116 C 
BRANCH  25  26
ATOM     26  N   UNL A   1      33.651  30.663  27.851  1.00  0.00    -0.352 N 
ATOM     27  C   UNL A   1      34.744  31.103  28.559  1.00  0.00     0.251 C 
ATOM     28  H   UNL A   1      32.848  31.227  27.925  1.00  0.00     0.163 HD
ATOM     29  O   UNL A   1      34.688  32.137  29.218  1.00  0.00    -0.269 OA
BRANCH  27  30
ATOM     30  C   UNL A   1      35.947  30.252  28.608  1.00  0.00     0.039 A 
ATOM     31  C   UNL A   1      36.816  30.289  27.515  1.00  0.00     0.014 A 
ATOM     32  C   UNL A   1      36.288  29.560  29.771  1.00  0.00     0.014 A 
ATOM     33  C   UNL A   1      38.088  29.738  27.635  1.00  0.00     0.010 A 
ATOM     34  C   UNL A   1      37.583  29.081  29.918  1.00  0.00     0.010 A 
ATOM     35  C   UNL A   1      38.500  29.192  28.861  1.00  0.00    -0.014 A 
BRANCH  35  36
ATOM     36  C   UNL A   1      39.900  28.757  29.063  1.00  0.00     0.031 A 
ATOM     37  C   UNL A   1      40.886  29.692  29.694  1.00  0.00     0.074 A 
ATOM     38  C   UNL A   1      40.286  27.542  28.628  1.00  0.00     0.049 A 
ATOM     39  N   UNL A   1      42.162  29.513  29.917  1.00  0.00    -0.248 NA
ATOM     40  C   UNL A   1      40.377  31.010  30.109  1.00  0.00     0.031 C 
ATOM     41  C   UNL A   1      39.421  26.561  27.965  1.00  0.00     0.029 A 
ATOM     42  N   UNL A   1      41.507  26.920  28.685  1.00  0.00    -0.354 N 
ATOM     43  C   UNL A   1      42.608  30.697  30.487  1.00  0.00     0.074 A 
ATOM     44  C   UNL A   1      41.483  31.605  30.527  1.00  0.00     0.031 C 
ATOM     45  C   UNL A   1      40.129  25.446  27.721  1.00  0.00     0.029 A 
ATOM     46  C   UNL A   1      41.500  25.644  28.175  1.00  0.00     0.049 A 
ATOM     47  H   UNL A   1      42.313  27.347  29.058  1.00  0.00     0.167 HD
ATOM     48  C   UNL A   1      43.841  30.992  30.959  1.00  0.00     0.031 A 
ATOM     49  C   UNL A   1      42.489  24.734  28.094  1.00  0.00     0.031 A 
ATOM     50  C   UNL A   1      44.952  30.084  30.932  1.00  0.00     0.049 A 
ATOM     51  C   UNL A   1      43.851  25.090  28.619  1.00  0.00     0.074 A 
ATOM     52  C   UNL A   1      46.235  30.275  31.412  1.00  0.00     0.029 A 
ATOM     53  N   UNL A   1      44.906  28.805  30.400  1.00  0.00    -0.354 N 
ATOM     54  N   UNL A   1      44.250  26.201  29.187  1.00  0.00    -0.248 NA
ATOM     55  C   UNL A   1      44.898  24.065  28.493  1.00  0.00     0.031 C 
ATOM     56  C   UNL A   1      46.976  29.120  31.142  1.00  0.00     0.029 A 
ATOM     57  C   UNL A   1      46.142  28.198  30.529  1.00  0.00     0.049 A 
ATOM     58  H   UNL A   1      44.113  28.390  29.991  1.00  0.00     0.167 HD
ATOM     59  C   UNL A   1      45.587  26.006  29.503  1.00  0.00     0.074 A 
ATOM     60  C   UNL A   1      45.928  24.664  29.075  1.00  0.00     0.031 C 
ATOM     61  C   UNL A   1      46.456  26.862  30.093  1.00  0.00     0.031 A 
BRANCH  48  62
ATOM     62  C   UNL A   1      44.035  32.358  31.550  1.00  0.00    -0.014 A 
ATOM     63  C   UNL A   1      44.427  33.440  30.745  1.00  0.00     0.009 A 
ATOM     64  C   UNL A   1      43.820  32.569  32.919  1.00  0.00     0.009 A 
ATOM     65  C   UNL A   1      44.634  34.700  31.308  1.00  0.00     0.001 A 
ATOM     66  C   UNL A   1      44.004  33.837  33.475  1.00  0.00     0.001 A 
ATOM     67  C   UNL A   1      44.420  34.898  32.671  1.00  0.00     0.000 A 
ENDBRANCH  48  62
BRANCH  49  68
ATOM     68  C   UNL A   1      42.216  23.388  27.529  1.00  0.00    -0.014 A 
ATOM     69  C   UNL A   1      42.515  23.113  26.185  1.00  0.00     0.009 A 
ATOM     70  C   UNL A   1      41.672  22.369  28.326  1.00  0.00     0.009 A 
ATOM     71  C   UNL A   1      42.259  21.850  25.647  1.00  0.00     0.001 A 
ATOM     72  C   UNL A   1      41.437  21.101  27.789  1.00  0.00     0.001 A 
ATOM     73  C   UNL A   1      41.725  20.844  26.450  1.00  0.00     0.000 A 
ENDBRANCH  49  68
BRANCH  61  74
ATOM     74  C   UNL A   1      47.854  26.372  30.322  1.00  0.00    -0.014 A 
ATOM     75  C   UNL A   1      48.228  25.810  31.550  1.00  0.00     0.009 A 
ATOM     76  C   UNL A   1      48.783  26.402  29.270  1.00  0.00     0.009 A 
ATOM     77  C   UNL A   1      49.515  25.300  31.727  1.00  0.00     0.001 A 
ATOM     78  C   UNL A   1      50.062  25.874  29.443  1.00  0.00     0.001 A 
ATOM     79  C   UNL A   1      50.428  25.327  30.674  1.00  0.00     0.000 A 
ENDBRANCH  61  74
ENDBRANCH  35  36
ENDBRANCH  27  30
ENDBRANCH  25  26
ENDBRANCH  24  25
ENDBRANCH   1  24
TORSDOF 14
ENDMDL
MODEL 2
REMARK VINA RESULT:     -10.8      1.578      7.725
REMARK SMILES Cc1nn(C)c(=O)c(C(=O)N[C@H](C)CC(=O)NCCCCNC(=O)c2ccc(-c3c4nc(c(-c5ccccc5)c5ccc([nH]5)c(-c5ccccc5)c5nc(c(-c6ccccc6)c6ccc3[nH]6)C=C5)C=C4)cc2)c1C
REMARK SMILES IDX 19 1 18 2 17 3 15 4 16 5 14 7 12 8 13 9 11 10 9 11 10 12
REMARK SMILES IDX 8 14 1 15 2 16 3 17 73 18 4 19 74 20 5 21 6 22 7 23 20 24
REMARK SMILES IDX 21 25 22 26 23 27 24 29 25 30 26 31 72 32 27 33 71 34 28 35
REMARK SMILES IDX 29 36 30 37 65 38 31 39 70 40 64 41 66 42 32 43 69 44 63 45
REMARK SMILES IDX 62 46 33 48 55 49 40 50 54 51 41 52 44 53 53 54 67 55 42 56
REMARK SMILES IDX 43 57 52 59 68 60 45 61 34 62 35 63 39 64 36 65 38 66 37 67
REMARK SMILES IDX 56 68 57 69 61 70 58 71 60 72 59 73 46 74 47 75 51 76 48 77
REMARK SMILES IDX 50 78 49 79
REMARK H PARENT 17 6 11 13 22 28 66 47 44 58
REMARK Flexibility Score: inf
ROOT
ATOM      1  C   UNL A   1      36.127  22.112  25.065  1.00  0.00     0.023 C 
ENDROOT
BRANCH   1   2
ATOM      2  C   UNL A   1      35.222  21.269  25.967  1.00  0.00     0.116 C 
BRANCH   2   3
ATOM      3  N   UNL A   1      33.846  21.314  25.500  1.00  0.00    -0.356 N 
ATOM      4  C   UNL A   1      32.796  22.077  25.926  1.00  0.00     0.222 C 
ATOM      5  O   UNL A   1      31.673  21.822  25.490  1.00  0.00    -0.275 OA
ATOM      6  H   UNL A   1      33.637  20.696  24.763  1.00  0.00     0.163 HD
BRANCH   4   7
ATOM      7  C   UNL A   1      33.017  23.229  26.886  1.00  0.00     0.124 C 
BRANCH   7   8
ATOM      8  C   UNL A   1      32.912  24.627  26.255  1.00  0.00     0.088 C 
ATOM      9  C   UNL A   1      33.832  24.882  25.073  1.00  0.00     0.031 C 
BRANCH   8  10
ATOM     10  N   UNL A   1      31.502  24.986  26.004  1.00  0.00    -0.349 N 
ATOM     11  C   UNL A   1      30.789  26.076  25.603  1.00  0.00     0.257 C 
ATOM     12  O   UNL A   1      29.576  25.925  25.441  1.00  0.00    -0.269 OA
ATOM     13  H   UNL A   1      30.907  24.221  26.174  1.00  0.00     0.164 HD
BRANCH  11  14
ATOM     14  C   UNL A   1      31.390  27.406  25.325  1.00  0.00     0.111 A 
ATOM     15  C   UNL A   1      32.307  30.729  26.816  1.00  0.00     0.069 C 
ATOM     16  C   UNL A   1      32.383  29.508  25.929  1.00  0.00     0.062 A 
ATOM     17  N   UNL A   1      33.006  29.672  24.810  1.00  0.00    -0.175 NA
ATOM     18  C   UNL A   1      31.688  28.254  26.327  1.00  0.00    -0.010 A 
ATOM     19  N   UNL A   1      32.931  28.664  23.895  1.00  0.00    -0.232 N 
ATOM     20  C   UNL A   1      31.506  28.003  27.783  1.00  0.00     0.047 C 
ATOM     21  C   UNL A   1      33.777  28.829  22.727  1.00  0.00     0.178 C 
ATOM     22  C   UNL A   1      32.002  27.630  23.975  1.00  0.00     0.279 A 
ATOM     23  O   UNL A   1      31.716  26.903  23.026  1.00  0.00    -0.267 OA
ENDBRANCH  11  14
ENDBRANCH   8  10
ENDBRANCH   7   8
ENDBRANCH   4   7
ENDBRANCH   2   3
ENDBRANCH   1   2
BRANCH   1  24
ATOM     24  C   UNL A   1      37.398  21.395  24.613  1.00  0.00     0.023 C 
BRANCH  24  25
ATOM     25  C   UNL A   1      38.456  21.285  25.701  1.00  0.00     0.116 C 
BRANCH  25  26
ATOM     26  N   UNL A   1      39.316  20.123  25.533  1.00  0.00    -0.352 N 
ATOM     27  C   UNL A   1      40.606  19.923  25.964  1.00  0.00     0.251 C 
ATOM     28  H   UNL A   1      38.917  19.372  25.038  1.00  0.00     0.163 HD
ATOM     29  O   UNL A   1      41.185  18.865  25.736  1.00  0.00    -0.269 OA
BRANCH  27  30
ATOM     30  C   UNL A   1      41.323  21.043  26.599  1.00  0.00     0.039 A 
ATOM     31  C   UNL A   1      41.968  21.960  25.765  1.00  0.00     0.014 A 
ATOM     32  C   UNL A   1      41.225  21.270  27.972  1.00  0.00     0.014 A 
ATOM     33  C   UNL A   1      42.404  23.172  26.292  1.00  0.00     0.010 A 
ATOM     34  C   UNL A   1      41.586  22.511  28.481  1.00  0.00     0.010 A 
ATOM     35  C   UNL A   1      42.154  23.480  27.638  1.00  0.00    -0.014 A 
BRANCH  35  36
ATOM     36  C   UNL A   1      42.453  24.826  28.174  1.00  0.00     0.031 A 
ATOM     37  C   UNL A   1      43.853  25.173  28.578  1.00  0.00     0.074 A 
ATOM     38  C   UNL A   1      41.450  25.711  28.343  1.00  0.00     0.049 A 
ATOM     39  N   UNL A   1      44.306  26.280  29.106  1.00  0.00    -0.248 NA
ATOM     40  C   UNL A   1      44.875  24.131  28.384  1.00  0.00     0.031 C 
ATOM     41  C   UNL A   1      40.041  25.471  28.019  1.00  0.00     0.029 A 
ATOM     42  N   UNL A   1      41.464  26.996  28.822  1.00  0.00    -0.354 N 
ATOM     43  C   UNL A   1      45.661  26.063  29.316  1.00  0.00     0.074 A 
ATOM     44  C   UNL A   1      45.946  24.704  28.911  1.00  0.00     0.031 C 
ATOM     45  C   UNL A   1      39.337  26.588  28.266  1.00  0.00     0.029 A 
ATOM     46  C   UNL A   1      40.234  27.607  28.797  1.00  0.00     0.049 A 
ATOM     47  H   UNL A   1      42.280  27.438  29.153  1.00  0.00     0.167 HD
ATOM     48  C   UNL A   1      46.590  26.928  29.782  1.00  0.00     0.031 A 
ATOM     49  C   UNL A   1      39.875  28.855  29.153  1.00  0.00     0.031 A 
ATOM     50  C   UNL A   1      46.307  28.281  30.170  1.00  0.00     0.049 A 
ATOM     51  C   UNL A   1      40.925  29.794  29.675  1.00  0.00     0.074 A 
ATOM     52  C   UNL A   1      47.184  29.249  30.627  1.00  0.00     0.029 A 
ATOM     53  N   UNL A   1      45.048  28.859  30.137  1.00  0.00    -0.354 N 
ATOM     54  N   UNL A   1      42.209  29.586  29.836  1.00  0.00    -0.248 NA
ATOM     55  C   UNL A   1      40.477  31.140  30.061  1.00  0.00     0.031 C 
ATOM     56  C   UNL A   1      46.448  30.406  30.901  1.00  0.00     0.029 A 
ATOM     57  C   UNL A   1      45.121  30.169  30.577  1.00  0.00     0.049 A 
ATOM     58  H   UNL A   1      44.225  28.406  29.845  1.00  0.00     0.167 HD
ATOM     59  C   UNL A   1      42.727  30.777  30.325  1.00  0.00     0.074 A 
ATOM     60  C   UNL A   1      41.620  31.708  30.422  1.00  0.00     0.031 C 
ATOM     61  C   UNL A   1      44.005  31.073  30.666  1.00  0.00     0.031 A 
BRANCH  48  62
ATOM     62  C   UNL A   1      48.000  26.423  29.887  1.00  0.00    -0.014 A 
ATOM     63  C   UNL A   1      48.880  26.516  28.796  1.00  0.00     0.009 A 
ATOM     64  C   UNL A   1      48.455  25.856  31.085  1.00  0.00     0.009 A 
ATOM     65  C   UNL A   1      50.179  26.017  28.894  1.00  0.00     0.001 A 
ATOM     66  C   UNL A   1      49.765  25.381  31.187  1.00  0.00     0.001 A 
ATOM     67  C   UNL A   1      50.621  25.454  30.089  1.00  0.00     0.000 A 
ENDBRANCH  48  62
BRANCH  49  68
ATOM     68  C   UNL A   1      38.467  29.299  28.989  1.00  0.00    -0.014 A 
ATOM     69  C   UNL A   1      38.023  29.793  27.753  1.00  0.00     0.009 A 
ATOM     70  C   UNL A   1      37.559  29.221  30.056  1.00  0.00     0.009 A 
ATOM     71  C   UNL A   1      36.701  30.214  27.592  1.00  0.00     0.001 A 
ATOM     72  C   UNL A   1      36.232  29.624  29.886  1.00  0.00     0.001 A 
ATOM     73  C   UNL A   1      35.806  30.126  28.657  1.00  0.00     0.000 A 
ENDBRANCH  49  68
BRANCH  61  74
ATOM     74  C   UNL A   1      44.278  32.461  31.163  1.00  0.00    -0.014 A 
ATOM     75  C   UNL A   1      44.587  33.497  30.272  1.00  0.00     0.009 A 
ATOM     76  C   UNL A   1      44.148  32.748  32.531  1.00  0.00     0.009 A 
ATOM     77  C   UNL A   1      44.777  34.797  30.744  1.00  0.00     0.001 A 
ATOM     78  C   UNL A   1      44.318  34.051  32.997  1.00  0.00     0.001 A 
ATOM     79  C   UNL A   1      44.637  35.074  32.103  1.00  0.00     0.000 A 
ENDBRANCH  61  74
ENDBRANCH  35  36
ENDBRANCH  27  30
ENDBRANCH  25  26
ENDBRANCH  24  25
ENDBRANCH   1  24
TORSDOF 14
ENDMDL
MODEL 3
REMARK VINA RESULT:     -10.8      2.442      3.673
REMARK SMILES Cc1nn(C)c(=O)c(C(=O)N[C@H](C)CC(=O)NCCCCNC(=O)c2ccc(-c3c4nc(c(-c5ccccc5)c5ccc([nH]5)c(-c5ccccc5)c5nc(c(-c6ccccc6)c6ccc3[nH]6)C=C5)C=C4)cc2)c1C
REMARK SMILES IDX 19 1 18 2 17 3 15 4 16 5 14 7 12 8 13 9 11 10 9 11 10 12
REMARK SMILES IDX 8 14 1 15 2 16 3 17 73 18 4 19 74 20 5 21 6 22 7 23 20 24
REMARK SMILES IDX 21 25 22 26 23 27 24 29 25 30 26 31 72 32 27 33 71 34 28 35
REMARK SMILES IDX 29 36 30 37 65 38 31 39 70 40 64 41 66 42 32 43 69 44 63 45
REMARK SMILES IDX 62 46 33 48 55 49 40 50 54 51 41 52 44 53 53 54 67 55 42 56
REMARK SMILES IDX 43 57 52 59 68 60 45 61 34 62 35 63 39 64 36 65 38 66 37 67
REMARK SMILES IDX 56 68 57 69 61 70 58 71 60 72 59 73 46 74 47 75 51 76 48 77
REMARK SMILES IDX 50 78 49 79
REMARK H PARENT 17 6 11 13 22 28 66 47 44 58
REMARK Flexibility Score: inf
ROOT
ATOM      1  C   UNL A   1      31.633  29.436  27.264  1.00  0.00     0.023 C 
ENDROOT
BRANCH   1   2
ATOM      2  C   UNL A   1      32.119  28.058  26.806  1.00  0.00     0.116 C 
BRANCH   2   3
ATOM      3  N   UNL A   1      31.069  27.065  26.961  1.00  0.00    -0.356 N 
ATOM      4  C   UNL A   1      30.594  26.141  26.075  1.00  0.00     0.222 C 
ATOM      5  O   UNL A   1      29.579  25.511  26.374  1.00  0.00    -0.275 OA
ATOM      6  H   UNL A   1      30.631  27.058  27.842  1.00  0.00     0.163 HD
BRANCH   4   7
ATOM      7  C   UNL A   1      31.320  25.875  24.770  1.00  0.00     0.124 C 
BRANCH   7   8
ATOM      8  C   UNL A   1      32.465  24.854  24.863  1.00  0.00     0.088 C 
ATOM      9  C   UNL A   1      33.857  25.405  24.601  1.00  0.00     0.031 C 
BRANCH   8  10
ATOM     10  N   UNL A   1      32.361  24.059  26.103  1.00  0.00    -0.349 N 
ATOM     11  C   UNL A   1      32.835  22.879  26.594  1.00  0.00     0.257 C 
ATOM     12  O   UNL A   1      32.555  22.605  27.763  1.00  0.00    -0.269 OA
ATOM     13  H   UNL A   1      31.786  24.508  26.764  1.00  0.00     0.164 HD
BRANCH  11  14
ATOM     14  C   UNL A   1      33.682  21.937  25.819  1.00  0.00     0.111 A 
ATOM     15  C   UNL A   1      37.170  21.227  24.619  1.00  0.00     0.069 C 
ATOM     16  C   UNL A   1      35.765  20.971  25.110  1.00  0.00     0.062 A 
ATOM     17  N   UNL A   1      35.261  19.828  24.782  1.00  0.00    -0.175 NA
ATOM     18  C   UNL A   1      35.025  22.035  25.840  1.00  0.00    -0.010 A 
ATOM     19  N   UNL A   1      33.934  19.631  25.031  1.00  0.00    -0.232 N 
ATOM     20  C   UNL A   1      35.827  23.020  26.617  1.00  0.00     0.047 C 
ATOM     21  C   UNL A   1      33.458  18.280  24.792  1.00  0.00     0.178 C 
ATOM     22  C   UNL A   1      33.053  20.667  25.331  1.00  0.00     0.279 A 
ATOM     23  O   UNL A   1      31.832  20.558  25.254  1.00  0.00    -0.267 OA
ENDBRANCH  11  14
ENDBRANCH   8  10
ENDBRANCH   7   8
ENDBRANCH   4   7
ENDBRANCH   2   3
ENDBRANCH   1   2
BRANCH   1  24
ATOM     24  C   UNL A   1      32.159  30.595  26.420  1.00  0.00     0.023 C 
BRANCH  24  25
ATOM     25  C   UNL A   1      33.148  31.486  27.155  1.00  0.00     0.116 C 
BRANCH  25  26
ATOM     26  N   UNL A   1      32.574  32.768  27.535  1.00  0.00    -0.352 N 
ATOM     27  C   UNL A   1      33.132  33.793  28.263  1.00  0.00     0.251 C 
ATOM     28  H   UNL A   1      31.652  32.925  27.228  1.00  0.00     0.163 HD
ATOM     29  O   UNL A   1      32.497  34.819  28.485  1.00  0.00    -0.269 OA
BRANCH  27  30
ATOM     30  C   UNL A   1      34.459  33.590  28.871  1.00  0.00     0.039 A 
ATOM     31  C   UNL A   1      34.527  32.845  30.051  1.00  0.00     0.014 A 
ATOM     32  C   UNL A   1      35.619  33.988  28.207  1.00  0.00     0.014 A 
ATOM     33  C   UNL A   1      35.763  32.387  30.498  1.00  0.00     0.010 A 
ATOM     34  C   UNL A   1      36.842  33.465  28.608  1.00  0.00     0.010 A 
ATOM     35  C   UNL A   1      36.917  32.638  29.740  1.00  0.00    -0.014 A 
BRANCH  35  36
ATOM     36  C   UNL A   1      38.210  32.017  30.104  1.00  0.00     0.031 A 
ATOM     37  C   UNL A   1      39.137  32.723  31.047  1.00  0.00     0.074 A 
ATOM     38  C   UNL A   1      38.565  30.845  29.541  1.00  0.00     0.049 A 
ATOM     39  N   UNL A   1      40.326  32.365  31.453  1.00  0.00    -0.248 NA
ATOM     40  C   UNL A   1      38.675  34.013  31.586  1.00  0.00     0.031 C 
ATOM     41  C   UNL A   1      37.759  30.085  28.581  1.00  0.00     0.029 A 
ATOM     42  N   UNL A   1      39.694  30.084  29.702  1.00  0.00    -0.354 N 
ATOM     43  C   UNL A   1      40.758  33.388  32.285  1.00  0.00     0.074 A 
ATOM     44  C   UNL A   1      39.729  34.405  32.285  1.00  0.00     0.031 C 
ATOM     45  C   UNL A   1      38.400  28.944  28.276  1.00  0.00     0.029 A 
ATOM     46  C   UNL A   1      39.673  28.910  28.987  1.00  0.00     0.049 A 
ATOM     47  H   UNL A   1      40.448  30.352  30.275  1.00  0.00     0.167 HD
ATOM     48  C   UNL A   1      41.900  33.462  33.007  1.00  0.00     0.031 A 
ATOM     49  C   UNL A   1      40.576  27.914  28.924  1.00  0.00     0.031 A 
ATOM     50  C   UNL A   1      42.912  32.444  33.017  1.00  0.00     0.049 A 
ATOM     51  C   UNL A   1      41.840  28.024  29.729  1.00  0.00     0.074 A 
ATOM     52  C   UNL A   1      44.093  32.409  33.737  1.00  0.00     0.029 A 
ATOM     53  N   UNL A   1      42.857  31.275  32.274  1.00  0.00    -0.354 N 
ATOM     54  N   UNL A   1      42.219  28.981  30.539  1.00  0.00    -0.248 NA
ATOM     55  C   UNL A   1      42.798  26.915  29.613  1.00  0.00     0.031 C 
ATOM     56  C   UNL A   1      44.768  31.230  33.406  1.00  0.00     0.029 A 
ATOM     57  C   UNL A   1      43.989  30.515  32.509  1.00  0.00     0.049 A 
ATOM     58  H   UNL A   1      42.122  31.024  31.670  1.00  0.00     0.167 HD
ATOM     59  C   UNL A   1      43.450  28.585  31.044  1.00  0.00     0.074 A 
ATOM     60  C   UNL A   1      43.747  27.294  30.458  1.00  0.00     0.031 C 
ATOM     61  C   UNL A   1      44.262  29.234  31.913  1.00  0.00     0.031 A 
BRANCH  48  62
ATOM     62  C   UNL A   1      42.097  34.690  33.846  1.00  0.00    -0.014 A 
ATOM     63  C   UNL A   1      41.647  34.731  35.176  1.00  0.00     0.009 A 
ATOM     64  C   UNL A   1      42.742  35.812  33.309  1.00  0.00     0.009 A 
ATOM     65  C   UNL A   1      41.809  35.888  35.940  1.00  0.00     0.001 A 
ATOM     66  C   UNL A   1      42.925  36.959  34.083  1.00  0.00     0.001 A 
ATOM     67  C   UNL A   1      42.450  36.999  35.394  1.00  0.00     0.000 A 
ENDBRANCH  48  62
BRANCH  49  68
ATOM     68  C   UNL A   1      40.299  26.710  28.099  1.00  0.00    -0.014 A 
ATOM     69  C   UNL A   1      40.796  26.624  26.789  1.00  0.00     0.009 A 
ATOM     70  C   UNL A   1      39.552  25.640  28.615  1.00  0.00     0.009 A 
ATOM     71  C   UNL A   1      40.538  25.495  26.007  1.00  0.00     0.001 A 
ATOM     72  C   UNL A   1      39.314  24.504  27.836  1.00  0.00     0.001 A 
ATOM     73  C   UNL A   1      39.801  24.435  26.532  1.00  0.00     0.000 A 
ENDBRANCH  49  68
BRANCH  61  74
ATOM     74  C   UNL A   1      45.543  28.555  32.292  1.00  0.00    -0.014 A 
ATOM     75  C   UNL A   1      46.728  28.805  31.586  1.00  0.00     0.009 A 
ATOM     76  C   UNL A   1      45.578  27.716  33.417  1.00  0.00     0.009 A 
ATOM     77  C   UNL A   1      47.925  28.213  31.991  1.00  0.00     0.001 A 
ATOM     78  C   UNL A   1      46.780  27.142  33.831  1.00  0.00     0.001 A 
ATOM     79  C   UNL A   1      47.952  27.388  33.115  1.00  0.00     0.000 A 
ENDBRANCH  61  74
ENDBRANCH  35  36
ENDBRANCH  27  30
ENDBRANCH  25  26
ENDBRANCH  24  25
ENDBRANCH   1  24
TORSDOF 14
ENDMDL
