MODEL 1
REMARK VINA RESULT:     -12.7      0.000      0.000
REMARK SMILES COC(=O)c1ccc([C@H]2Nc3c(C(=O)NCCCCNC(=O)c4ccc(-c5c6nc(c(-c7ccccc7)c7ccc([nH]7)c(-c7ccccc7)c7nc(c(-c8ccccc8)c8ccc5[nH]8)C=C7)C=C6)cc4)cccc3[C@H]3[C@H]4CC[C@H](C4)[C@H]32)cc1
REMARK SMILES IDX 17 1 16 2 15 3 13 4 14 5 12 7 9 8 10 9 81 10 11 11 75 13
REMARK SMILES IDX 79 14 74 15 76 16 78 17 80 18 71 19 73 20 77 21 72 22 8 23
REMARK SMILES IDX 5 24 6 25 83 26 7 27 82 28 3 29 4 30 2 31 1 32 18 33 19 34
REMARK SMILES IDX 20 35 21 36 22 38 23 39 24 40 70 41 25 42 69 43 26 44 27 45
REMARK SMILES IDX 28 46 63 47 29 48 68 49 62 50 64 51 30 52 67 53 61 54 60 55
REMARK SMILES IDX 31 57 53 58 38 59 52 60 39 61 42 62 51 63 65 64 40 65 41 66
REMARK SMILES IDX 50 68 66 69 43 70 32 71 33 72 37 73 34 74 36 75 35 76 54 77
REMARK SMILES IDX 55 78 59 79 56 80 58 81 57 82 44 83 45 84 49 85 46 86 48 87
REMARK SMILES IDX 47 88
REMARK H PARENT 15 6 10 12 20 37 64 56 42 67
REMARK Flexibility Score: inf
ROOT
ATOM      1  C   UNL A   1      31.336  27.335  27.162  1.00  0.00     0.023 C 
ENDROOT
BRANCH   1   2
ATOM      2  C   UNL A   1      31.568  26.067  26.349  1.00  0.00     0.116 C 
BRANCH   2   3
ATOM      3  N   UNL A   1      30.498  25.074  26.390  1.00  0.00    -0.352 N 
ATOM      4  C   UNL A   1      30.593  23.704  26.622  1.00  0.00     0.253 C 
ATOM      5  O   UNL A   1      29.585  23.004  26.642  1.00  0.00    -0.269 OA
ATOM      6  H   UNL A   1      29.588  25.417  26.231  1.00  0.00     0.163 HD
BRANCH   4   7
ATOM      7  C   UNL A   1      31.941  23.094  26.767  1.00  0.00     0.063 A 
ATOM      8  C   UNL A   1      33.456  22.398  23.493  1.00  0.00     0.113 C 
ATOM      9  N   UNL A   1      32.539  23.184  24.365  1.00  0.00    -0.377 N 
ATOM     10  C   UNL A   1      34.848  23.106  23.603  1.00  0.00     0.027 C 
ATOM     11  C   UNL A   1      32.878  23.197  25.730  1.00  0.00     0.051 A 
ATOM     12  H   UNL A   1      31.753  23.659  24.012  1.00  0.00     0.161 HD
ATOM     13  C   UNL A   1      35.158  23.730  24.993  1.00  0.00     0.030 C 
ATOM     14  C   UNL A   1      36.239  22.567  23.174  1.00  0.00    -0.005 C 
ATOM     15  C   UNL A   1      34.243  23.225  26.072  1.00  0.00    -0.020 A 
ATOM     16  C   UNL A   1      36.699  23.631  25.100  1.00  0.00    -0.003 C 
ATOM     17  C   UNL A   1      36.869  21.486  24.079  1.00  0.00     0.004 C 
ATOM     18  C   UNL A   1      37.109  23.766  23.622  1.00  0.00     0.008 C 
ATOM     19  C   UNL A   1      32.340  22.596  28.011  1.00  0.00     0.016 A 
ATOM     20  C   UNL A   1      34.637  22.928  27.380  1.00  0.00     0.006 A 
ATOM     21  C   UNL A   1      37.173  22.208  25.387  1.00  0.00     0.004 C 
ATOM     22  C   UNL A   1      33.694  22.510  28.317  1.00  0.00     0.001 A 
BRANCH   8  23
ATOM     23  C   UNL A   1      33.292  20.887  23.721  1.00  0.00    -0.025 A 
ATOM     24  C   UNL A   1      33.215  18.066  23.959  1.00  0.00     0.060 A 
ATOM     25  C   UNL A   1      33.936  18.818  24.882  1.00  0.00     0.016 A 
ATOM     26  C   UNL A   1      32.408  18.716  23.028  1.00  0.00     0.016 A 
ATOM     27  C   UNL A   1      33.969  20.212  24.760  1.00  0.00     0.007 A 
ATOM     28  C   UNL A   1      32.400  20.116  22.966  1.00  0.00     0.007 A 
BRANCH  24  29
ATOM     29  C   UNL A   1      33.336  16.594  23.984  1.00  0.00     0.337 C 
ATOM     30  O   UNL A   1      33.990  15.945  23.184  1.00  0.00    -0.246 OA
BRANCH  29  31
ATOM     31  O   UNL A   1      32.523  16.115  24.957  1.00  0.00    -0.465 OA
ATOM     32  C   UNL A   1      32.841  14.802  25.428  1.00  0.00     0.282 C 
ENDBRANCH  29  31
ENDBRANCH  24  29
ENDBRANCH   8  23
ENDBRANCH   4   7
ENDBRANCH   2   3
ENDBRANCH   1   2
BRANCH   1  33
ATOM     33  C   UNL A   1      32.016  28.602  26.661  1.00  0.00     0.023 C 
BRANCH  33  34
ATOM     34  C   UNL A   1      33.362  28.942  27.296  1.00  0.00     0.116 C 
BRANCH  34  35
ATOM     35  N   UNL A   1      33.483  30.326  27.729  1.00  0.00    -0.352 N 
ATOM     36  C   UNL A   1      34.555  30.989  28.283  1.00  0.00     0.251 C 
ATOM     37  H   UNL A   1      32.673  30.873  27.607  1.00  0.00     0.163 HD
ATOM     38  O   UNL A   1      34.428  32.154  28.655  1.00  0.00    -0.269 OA
BRANCH  36  39
ATOM     39  C   UNL A   1      35.851  30.299  28.478  1.00  0.00     0.039 A 
ATOM     40  C   UNL A   1      36.774  30.289  27.427  1.00  0.00     0.014 A 
ATOM     41  C   UNL A   1      36.170  29.675  29.686  1.00  0.00     0.014 A 
ATOM     42  C   UNL A   1      38.044  29.737  27.618  1.00  0.00     0.010 A 
ATOM     43  C   UNL A   1      37.461  29.199  29.902  1.00  0.00     0.010 A 
ATOM     44  C   UNL A   1      38.416  29.231  28.874  1.00  0.00    -0.014 A 
BRANCH  44  45
ATOM     45  C   UNL A   1      39.800  28.755  29.140  1.00  0.00     0.031 A 
ATOM     46  C   UNL A   1      40.815  29.673  29.763  1.00  0.00     0.074 A 
ATOM     47  C   UNL A   1      40.167  27.518  28.749  1.00  0.00     0.049 A 
ATOM     48  N   UNL A   1      42.086  29.460  29.999  1.00  0.00    -0.248 NA
ATOM     49  C   UNL A   1      40.349  31.014  30.148  1.00  0.00     0.031 C 
ATOM     50  C   UNL A   1      39.296  26.539  28.096  1.00  0.00     0.029 A 
ATOM     51  N   UNL A   1      41.378  26.876  28.836  1.00  0.00    -0.354 N 
ATOM     52  C   UNL A   1      42.573  30.643  30.542  1.00  0.00     0.074 A 
ATOM     53  C   UNL A   1      41.473  31.584  30.556  1.00  0.00     0.031 C 
ATOM     54  C   UNL A   1      39.993  25.414  27.865  1.00  0.00     0.029 A 
ATOM     55  C   UNL A   1      41.368  25.606  28.313  1.00  0.00     0.049 A 
ATOM     56  H   UNL A   1      42.179  27.288  29.236  1.00  0.00     0.167 HD
ATOM     57  C   UNL A   1      43.816  30.918  31.004  1.00  0.00     0.031 A 
ATOM     58  C   UNL A   1      42.356  24.697  28.198  1.00  0.00     0.031 A 
ATOM     59  C   UNL A   1      44.909  29.983  31.001  1.00  0.00     0.049 A 
ATOM     60  C   UNL A   1      43.731  25.032  28.704  1.00  0.00     0.074 A 
ATOM     61  C   UNL A   1      46.190  30.153  31.501  1.00  0.00     0.029 A 
ATOM     62  N   UNL A   1      44.853  28.704  30.471  1.00  0.00    -0.354 N 
ATOM     63  N   UNL A   1      44.155  26.133  29.275  1.00  0.00    -0.248 NA
ATOM     64  C   UNL A   1      44.762  23.994  28.555  1.00  0.00     0.031 C 
ATOM     65  C   UNL A   1      46.923  28.993  31.228  1.00  0.00     0.029 A 
ATOM     66  C   UNL A   1      46.084  28.082  30.609  1.00  0.00     0.049 A 
ATOM     67  H   UNL A   1      44.058  28.298  30.057  1.00  0.00     0.167 HD
ATOM     68  C   UNL A   1      45.492  25.908  29.581  1.00  0.00     0.074 A 
ATOM     69  C   UNL A   1      45.803  24.563  29.144  1.00  0.00     0.031 C 
ATOM     70  C   UNL A   1      46.381  26.743  30.172  1.00  0.00     0.031 A 
BRANCH  57  71
ATOM     71  C   UNL A   1      44.062  32.299  31.545  1.00  0.00    -0.014 A 
ATOM     72  C   UNL A   1      44.435  33.356  30.699  1.00  0.00     0.009 A 
ATOM     73  C   UNL A   1      43.885  32.556  32.914  1.00  0.00     0.009 A 
ATOM     74  C   UNL A   1      44.660  34.633  31.219  1.00  0.00     0.001 A 
ATOM     75  C   UNL A   1      44.082  33.839  33.426  1.00  0.00     0.001 A 
ATOM     76  C   UNL A   1      44.480  34.874  32.581  1.00  0.00     0.000 A 
ENDBRANCH  57  71
BRANCH  58  77
ATOM     77  C   UNL A   1      42.080  23.371  27.587  1.00  0.00    -0.014 A 
ATOM     78  C   UNL A   1      42.387  23.131  26.239  1.00  0.00     0.009 A 
ATOM     79  C   UNL A   1      41.498  22.340  28.343  1.00  0.00     0.009 A 
ATOM     80  C   UNL A   1      42.091  21.898  25.653  1.00  0.00     0.001 A 
ATOM     81  C   UNL A   1      41.231  21.099  27.763  1.00  0.00     0.001 A 
ATOM     82  C   UNL A   1      41.519  20.881  26.416  1.00  0.00     0.000 A 
ENDBRANCH  58  77
BRANCH  70  83
ATOM     83  C   UNL A   1      47.766  26.213  30.416  1.00  0.00    -0.014 A 
ATOM     84  C   UNL A   1      48.734  26.206  29.399  1.00  0.00     0.009 A 
ATOM     85  C   UNL A   1      48.116  25.749  31.693  1.00  0.00     0.009 A 
ATOM     86  C   UNL A   1      50.017  25.715  29.652  1.00  0.00     0.001 A 
ATOM     87  C   UNL A   1      49.407  25.286  31.950  1.00  0.00     0.001 A 
ATOM     88  C   UNL A   1      50.354  25.261  30.927  1.00  0.00     0.000 A 
ENDBRANCH  70  83
ENDBRANCH  44  45
ENDBRANCH  36  39
ENDBRANCH  34  35
ENDBRANCH  33  34
ENDBRANCH   1  33
TORSDOF 14
ENDMDL
MODEL 2
REMARK VINA RESULT:     -12.2      0.356      5.611
REMARK SMILES COC(=O)c1ccc([C@H]2Nc3c(C(=O)NCCCCNC(=O)c4ccc(-c5c6nc(c(-c7ccccc7)c7ccc([nH]7)c(-c7ccccc7)c7nc(c(-c8ccccc8)c8ccc5[nH]8)C=C7)C=C6)cc4)cccc3[C@H]3[C@H]4CC[C@H](C4)[C@H]32)cc1
REMARK SMILES IDX 17 1 16 2 15 3 13 4 14 5 12 7 9 8 10 9 81 10 11 11 75 13
REMARK SMILES IDX 79 14 74 15 76 16 78 17 80 18 71 19 73 20 77 21 72 22 8 23
REMARK SMILES IDX 5 24 6 25 83 26 7 27 82 28 3 29 4 30 2 31 1 32 18 33 19 34
REMARK SMILES IDX 20 35 21 36 22 38 23 39 24 40 70 41 25 42 69 43 26 44 27 45
REMARK SMILES IDX 28 46 63 47 29 48 68 49 62 50 64 51 30 52 67 53 61 54 60 55
REMARK SMILES IDX 31 57 53 58 38 59 52 60 39 61 42 62 51 63 65 64 40 65 41 66
REMARK SMILES IDX 50 68 66 69 43 70 32 71 33 72 37 73 34 74 36 75 35 76 54 77
REMARK SMILES IDX 55 78 59 79 56 80 58 81 57 82 44 83 45 84 49 85 46 86 48 87
REMARK SMILES IDX 47 88
REMARK H PARENT 15 6 10 12 20 37 64 56 42 67
REMARK Flexibility Score: inf
ROOT
ATOM      1  C   UNL A   1      32.089  27.127  25.619  1.00  0.00     0.023 C 
ENDROOT
BRANCH   1   2
ATOM      2  C   UNL A   1      31.697  26.250  26.803  1.00  0.00     0.116 C 
BRANCH   2   3
ATOM      3  N   UNL A   1      30.628  25.285  26.562  1.00  0.00    -0.352 N 
ATOM      4  C   UNL A   1      30.697  23.895  26.566  1.00  0.00     0.253 C 
ATOM      5  O   UNL A   1      29.692  23.220  26.360  1.00  0.00    -0.269 OA
ATOM      6  H   UNL A   1      29.741  25.668  26.369  1.00  0.00     0.163 HD
BRANCH   4   7
ATOM      7  C   UNL A   1      32.022  23.244  26.746  1.00  0.00     0.063 A 
ATOM      8  C   UNL A   1      33.622  22.546  23.513  1.00  0.00     0.113 C 
ATOM      9  N   UNL A   1      32.700  23.347  24.367  1.00  0.00    -0.377 N 
ATOM     10  C   UNL A   1      35.029  23.212  23.678  1.00  0.00     0.027 C 
ATOM     11  C   UNL A   1      32.995  23.332  25.742  1.00  0.00     0.051 A 
ATOM     12  H   UNL A   1      31.940  23.850  23.995  1.00  0.00     0.161 HD
ATOM     13  C   UNL A   1      35.312  23.808  25.086  1.00  0.00     0.030 C 
ATOM     14  C   UNL A   1      36.418  22.637  23.287  1.00  0.00    -0.005 C 
ATOM     15  C   UNL A   1      34.347  23.316  26.128  1.00  0.00    -0.020 A 
ATOM     16  C   UNL A   1      36.845  23.662  25.241  1.00  0.00    -0.003 C 
ATOM     17  C   UNL A   1      36.986  21.527  24.197  1.00  0.00     0.004 C 
ATOM     18  C   UNL A   1      37.307  23.804  23.780  1.00  0.00     0.008 C 
ATOM     19  C   UNL A   1      32.365  22.718  27.996  1.00  0.00     0.016 A 
ATOM     20  C   UNL A   1      34.690  22.990  27.443  1.00  0.00     0.006 A 
ATOM     21  C   UNL A   1      37.268  22.222  25.524  1.00  0.00     0.004 C 
ATOM     22  C   UNL A   1      33.705  22.588  28.343  1.00  0.00     0.001 A 
BRANCH   8  23
ATOM     23  C   UNL A   1      33.407  21.038  23.715  1.00  0.00    -0.025 A 
ATOM     24  C   UNL A   1      33.224  18.217  23.891  1.00  0.00     0.060 A 
ATOM     25  C   UNL A   1      34.023  18.915  24.791  1.00  0.00     0.016 A 
ATOM     26  C   UNL A   1      32.397  18.922  23.020  1.00  0.00     0.016 A 
ATOM     27  C   UNL A   1      34.109  20.309  24.700  1.00  0.00     0.007 A 
ATOM     28  C   UNL A   1      32.445  20.323  22.991  1.00  0.00     0.007 A 
BRANCH  24  29
ATOM     29  C   UNL A   1      33.284  16.741  23.876  1.00  0.00     0.337 C 
ATOM     30  O   UNL A   1      33.921  16.088  23.065  1.00  0.00    -0.246 OA
BRANCH  29  31
ATOM     31  O   UNL A   1      32.440  16.269  24.826  1.00  0.00    -0.465 OA
ATOM     32  C   UNL A   1      32.855  15.058  25.465  1.00  0.00     0.282 C 
ENDBRANCH  29  31
ENDBRANCH  24  29
ENDBRANCH   8  23
ENDBRANCH   4   7
ENDBRANCH   2   3
ENDBRANCH   1   2
BRANCH   1  33
ATOM     33  C   UNL A   1      32.467  28.568  25.931  1.00  0.00     0.023 C 
BRANCH  33  34
ATOM     34  C   UNL A   1      33.552  28.768  26.986  1.00  0.00     0.116 C 
BRANCH  34  35
ATOM     35  N   UNL A   1      33.567  30.097  27.579  1.00  0.00    -0.352 N 
ATOM     36  C   UNL A   1      34.575  30.756  28.247  1.00  0.00     0.251 C 
ATOM     37  H   UNL A   1      32.727  30.604  27.488  1.00  0.00     0.163 HD
ATOM     38  O   UNL A   1      34.359  31.859  28.745  1.00  0.00    -0.269 OA
BRANCH  36  39
ATOM     39  C   UNL A   1      35.906  30.129  28.414  1.00  0.00     0.039 A 
ATOM     40  C   UNL A   1      36.819  30.195  27.356  1.00  0.00     0.014 A 
ATOM     41  C   UNL A   1      36.267  29.490  29.602  1.00  0.00     0.014 A 
ATOM     42  C   UNL A   1      38.118  29.705  27.523  1.00  0.00     0.010 A 
ATOM     43  C   UNL A   1      37.583  29.075  29.796  1.00  0.00     0.010 A 
ATOM     44  C   UNL A   1      38.526  29.186  28.762  1.00  0.00    -0.014 A 
BRANCH  44  45
ATOM     45  C   UNL A   1      39.935  28.774  29.005  1.00  0.00     0.031 A 
ATOM     46  C   UNL A   1      40.411  27.409  28.590  1.00  0.00     0.074 A 
ATOM     47  C   UNL A   1      40.767  29.600  29.669  1.00  0.00     0.049 A 
ATOM     48  N   UNL A   1      41.579  26.847  28.786  1.00  0.00    -0.248 NA
ATOM     49  C   UNL A   1      39.444  26.554  27.885  1.00  0.00     0.031 C 
ATOM     50  C   UNL A   1      40.424  30.935  30.165  1.00  0.00     0.029 A 
ATOM     51  N   UNL A   1      42.076  29.432  30.051  1.00  0.00    -0.354 N 
ATOM     52  C   UNL A   1      41.479  25.571  28.247  1.00  0.00     0.074 A 
ATOM     53  C   UNL A   1      40.124  25.424  27.758  1.00  0.00     0.031 C 
ATOM     54  C   UNL A   1      41.500  31.473  30.762  1.00  0.00     0.029 A 
ATOM     55  C   UNL A   1      42.594  30.508  30.731  1.00  0.00     0.049 A 
ATOM     56  H   UNL A   1      42.594  28.617  29.857  1.00  0.00     0.167 HD
ATOM     57  C   UNL A   1      42.431  24.612  28.149  1.00  0.00     0.031 A 
ATOM     58  C   UNL A   1      43.812  30.698  31.275  1.00  0.00     0.031 A 
ATOM     59  C   UNL A   1      43.782  24.757  28.624  1.00  0.00     0.049 A 
ATOM     60  C   UNL A   1      44.846  29.612  31.168  1.00  0.00     0.074 A 
ATOM     61  C   UNL A   1      44.833  23.862  28.518  1.00  0.00     0.029 A 
ATOM     62  N   UNL A   1      44.268  25.867  29.297  1.00  0.00    -0.354 N 
ATOM     63  N   UNL A   1      44.754  28.437  30.594  1.00  0.00    -0.248 NA
ATOM     64  C   UNL A   1      46.157  29.885  31.776  1.00  0.00     0.031 C 
ATOM     65  C   UNL A   1      45.942  24.410  29.171  1.00  0.00     0.029 A 
ATOM     66  C   UNL A   1      45.597  25.669  29.634  1.00  0.00     0.049 A 
ATOM     67  H   UNL A   1      43.746  26.675  29.506  1.00  0.00     0.167 HD
ATOM     68  C   UNL A   1      46.001  27.844  30.747  1.00  0.00     0.074 A 
ATOM     69  C   UNL A   1      46.835  28.794  31.454  1.00  0.00     0.031 C 
ATOM     70  C   UNL A   1      46.417  26.621  30.337  1.00  0.00     0.031 A 
BRANCH  57  71
ATOM     71  C   UNL A   1      42.038  23.311  27.508  1.00  0.00    -0.014 A 
ATOM     72  C   UNL A   1      42.564  22.925  26.264  1.00  0.00     0.009 A 
ATOM     73  C   UNL A   1      41.157  22.442  28.171  1.00  0.00     0.009 A 
ATOM     74  C   UNL A   1      42.187  21.713  25.682  1.00  0.00     0.001 A 
ATOM     75  C   UNL A   1      40.806  21.218  27.600  1.00  0.00     0.001 A 
ATOM     76  C   UNL A   1      41.312  20.858  26.352  1.00  0.00     0.000 A 
ENDBRANCH  57  71
BRANCH  58  77
ATOM     77  C   UNL A   1      44.129  31.976  31.964  1.00  0.00    -0.014 A 
ATOM     78  C   UNL A   1      43.890  32.120  33.339  1.00  0.00     0.009 A 
ATOM     79  C   UNL A   1      44.661  33.062  31.251  1.00  0.00     0.009 A 
ATOM     80  C   UNL A   1      44.150  33.334  33.980  1.00  0.00     0.001 A 
ATOM     81  C   UNL A   1      44.948  34.264  31.901  1.00  0.00     0.001 A 
ATOM     82  C   UNL A   1      44.684  34.402  33.262  1.00  0.00     0.000 A 
ENDBRANCH  58  77
BRANCH  70  83
ATOM     83  C   UNL A   1      47.848  26.254  30.607  1.00  0.00    -0.014 A 
ATOM     84  C   UNL A   1      48.831  26.365  29.611  1.00  0.00     0.009 A 
ATOM     85  C   UNL A   1      48.225  25.829  31.891  1.00  0.00     0.009 A 
ATOM     86  C   UNL A   1      50.157  26.025  29.888  1.00  0.00     0.001 A 
ATOM     87  C   UNL A   1      49.556  25.518  32.172  1.00  0.00     0.001 A 
ATOM     88  C   UNL A   1      50.519  25.607  31.169  1.00  0.00     0.000 A 
ENDBRANCH  70  83
ENDBRANCH  44  45
ENDBRANCH  36  39
ENDBRANCH  34  35
ENDBRANCH  33  34
ENDBRANCH   1  33
TORSDOF 14
ENDMDL
MODEL 3
REMARK VINA RESULT:     -12.0      4.979      9.077
REMARK SMILES COC(=O)c1ccc([C@H]2Nc3c(C(=O)NCCCCNC(=O)c4ccc(-c5c6nc(c(-c7ccccc7)c7ccc([nH]7)c(-c7ccccc7)c7nc(c(-c8ccccc8)c8ccc5[nH]8)C=C7)C=C6)cc4)cccc3[C@H]3[C@H]4CC[C@H](C4)[C@H]32)cc1
REMARK SMILES IDX 17 1 16 2 15 3 13 4 14 5 12 7 9 8 10 9 81 10 11 11 75 13
REMARK SMILES IDX 79 14 74 15 76 16 78 17 80 18 71 19 73 20 77 21 72 22 8 23
REMARK SMILES IDX 5 24 6 25 83 26 7 27 82 28 3 29 4 30 2 31 1 32 18 33 19 34
REMARK SMILES IDX 20 35 21 36 22 38 23 39 24 40 70 41 25 42 69 43 26 44 27 45
REMARK SMILES IDX 28 46 63 47 29 48 68 49 62 50 64 51 30 52 67 53 61 54 60 55
REMARK SMILES IDX 31 57 53 58 38 59 52 60 39 61 42 62 51 63 65 64 40 65 41 66
REMARK SMILES IDX 50 68 66 69 43 70 32 71 33 72 37 73 34 74 36 75 35 76 54 77
REMARK SMILES IDX 55 78 59 79 56 80 58 81 57 82 44 83 45 84 49 85 46 86 48 87
REMARK SMILES IDX 47 88
REMARK H PARENT 15 6 10 12 20 37 64 56 42 67
REMARK Flexibility Score: inf
ROOT
ATOM      1  C   UNL A   1      39.449  24.954  27.354  1.00  0.00     0.023 C 
ENDROOT
BRANCH   1   2
ATOM      2  C   UNL A   1      38.424  24.231  26.486  1.00  0.00     0.116 C 
BRANCH   2   3
ATOM      3  N   UNL A   1      38.593  22.786  26.363  1.00  0.00    -0.352 N 
ATOM      4  C   UNL A   1      37.846  21.887  25.607  1.00  0.00     0.253 C 
ATOM      5  O   UNL A   1      38.131  20.692  25.598  1.00  0.00    -0.269 OA
ATOM      6  H   UNL A   1      39.331  22.395  26.885  1.00  0.00     0.163 HD
BRANCH   4   7
ATOM      7  C   UNL A   1      36.652  22.385  24.875  1.00  0.00     0.063 A 
ATOM      8  C   UNL A   1      33.564  21.763  26.767  1.00  0.00     0.113 C 
ATOM      9  N   UNL A   1      35.032  22.011  26.711  1.00  0.00    -0.377 N 
ATOM     10  C   UNL A   1      32.903  23.181  26.817  1.00  0.00     0.027 C 
ATOM     11  C   UNL A   1      35.478  22.704  25.571  1.00  0.00     0.051 A 
ATOM     12  H   UNL A   1      35.646  21.710  27.420  1.00  0.00     0.161 HD
ATOM     13  C   UNL A   1      33.653  24.283  26.016  1.00  0.00     0.030 C 
ATOM     14  C   UNL A   1      31.417  23.560  26.571  1.00  0.00    -0.005 C 
ATOM     15  C   UNL A   1      34.654  23.717  25.049  1.00  0.00    -0.020 A 
ATOM     16  C   UNL A   1      32.522  25.243  25.572  1.00  0.00    -0.003 C 
ATOM     17  C   UNL A   1      30.932  23.533  25.106  1.00  0.00     0.004 C 
ATOM     18  C   UNL A   1      31.530  25.094  26.739  1.00  0.00     0.008 C 
ATOM     19  C   UNL A   1      36.767  22.725  23.523  1.00  0.00     0.016 A 
ATOM     20  C   UNL A   1      34.893  24.213  23.764  1.00  0.00     0.006 A 
ATOM     21  C   UNL A   1      31.688  24.670  24.428  1.00  0.00     0.004 C 
ATOM     22  C   UNL A   1      35.881  23.641  22.966  1.00  0.00     0.001 A 
BRANCH   8  23
ATOM     23  C   UNL A   1      33.133  20.700  25.744  1.00  0.00    -0.025 A 
ATOM     24  C   UNL A   1      32.624  18.706  23.798  1.00  0.00     0.060 A 
ATOM     25  C   UNL A   1      32.739  18.351  25.139  1.00  0.00     0.016 A 
ATOM     26  C   UNL A   1      32.598  20.055  23.448  1.00  0.00     0.016 A 
ATOM     27  C   UNL A   1      32.989  19.340  26.096  1.00  0.00     0.007 A 
ATOM     28  C   UNL A   1      32.781  21.037  24.431  1.00  0.00     0.007 A 
BRANCH  24  29
ATOM     29  C   UNL A   1      32.545  17.640  22.779  1.00  0.00     0.337 C 
ATOM     30  O   UNL A   1      31.940  17.743  21.724  1.00  0.00    -0.246 OA
BRANCH  29  31
ATOM     31  O   UNL A   1      33.155  16.534  23.270  1.00  0.00    -0.465 OA
ATOM     32  C   UNL A   1      34.582  16.528  23.174  1.00  0.00     0.282 C 
ENDBRANCH  29  31
ENDBRANCH  24  29
ENDBRANCH   8  23
ENDBRANCH   4   7
ENDBRANCH   2   3
ENDBRANCH   1   2
BRANCH   1  33
ATOM     33  C   UNL A   1      40.915  24.727  27.012  1.00  0.00     0.023 C 
BRANCH  33  34
ATOM     34  C   UNL A   1      41.739  23.964  28.046  1.00  0.00     0.116 C 
BRANCH  34  35
ATOM     35  N   UNL A   1      42.643  22.976  27.475  1.00  0.00    -0.352 N 
ATOM     36  C   UNL A   1      43.867  23.144  26.867  1.00  0.00     0.251 C 
ATOM     37  H   UNL A   1      42.332  22.044  27.534  1.00  0.00     0.163 HD
ATOM     38  O   UNL A   1      44.444  22.176  26.378  1.00  0.00    -0.269 OA
BRANCH  36  39
ATOM     39  C   UNL A   1      44.476  24.489  26.755  1.00  0.00     0.039 A 
ATOM     40  C   UNL A   1      45.134  25.026  27.867  1.00  0.00     0.014 A 
ATOM     41  C   UNL A   1      44.417  25.219  25.566  1.00  0.00     0.014 A 
ATOM     42  C   UNL A   1      45.808  26.246  27.758  1.00  0.00     0.010 A 
ATOM     43  C   UNL A   1      45.155  26.394  25.434  1.00  0.00     0.010 A 
ATOM     44  C   UNL A   1      45.866  26.917  26.525  1.00  0.00    -0.014 A 
BRANCH  44  45
ATOM     45  C   UNL A   1      46.679  28.150  26.351  1.00  0.00     0.031 A 
ATOM     46  C   UNL A   1      48.163  28.056  26.120  1.00  0.00     0.074 A 
ATOM     47  C   UNL A   1      46.097  29.359  26.477  1.00  0.00     0.049 A 
ATOM     48  N   UNL A   1      49.045  29.020  26.021  1.00  0.00    -0.248 NA
ATOM     49  C   UNL A   1      48.734  26.705  26.010  1.00  0.00     0.031 C 
ATOM     50  C   UNL A   1      44.676  29.594  26.743  1.00  0.00     0.029 A 
ATOM     51  N   UNL A   1      46.633  30.621  26.409  1.00  0.00    -0.354 N 
ATOM     52  C   UNL A   1      50.274  28.392  25.858  1.00  0.00     0.074 A 
ATOM     53  C   UNL A   1      50.030  26.966  25.916  1.00  0.00     0.031 C 
ATOM     54  C   UNL A   1      44.450  30.917  26.789  1.00  0.00     0.029 A 
ATOM     55  C   UNL A   1      45.713  31.623  26.601  1.00  0.00     0.049 A 
ATOM     56  H   UNL A   1      47.589  30.792  26.239  1.00  0.00     0.167 HD
ATOM     57  C   UNL A   1      51.493  28.948  25.657  1.00  0.00     0.031 A 
ATOM     58  C   UNL A   1      45.866  32.961  26.631  1.00  0.00     0.031 A 
ATOM     59  C   UNL A   1      51.738  30.364  25.588  1.00  0.00     0.049 A 
ATOM     60  C   UNL A   1      47.232  33.552  26.422  1.00  0.00     0.074 A 
ATOM     61  C   UNL A   1      52.931  31.019  25.331  1.00  0.00     0.029 A 
ATOM     62  N   UNL A   1      50.776  31.343  25.777  1.00  0.00    -0.354 N 
ATOM     63  N   UNL A   1      48.371  32.943  26.201  1.00  0.00    -0.248 NA
ATOM     64  C   UNL A   1      47.329  35.019  26.458  1.00  0.00     0.031 C 
ATOM     65  C   UNL A   1      52.700  32.396  25.414  1.00  0.00     0.029 A 
ATOM     66  C   UNL A   1      51.353  32.598  25.668  1.00  0.00     0.049 A 
ATOM     67  H   UNL A   1      49.825  31.172  25.963  1.00  0.00     0.167 HD
ATOM     68  C   UNL A   1      49.314  33.952  26.042  1.00  0.00     0.074 A 
ATOM     69  C   UNL A   1      48.611  35.210  26.179  1.00  0.00     0.031 C 
ATOM     70  C   UNL A   1      50.644  33.843  25.804  1.00  0.00     0.031 A 
BRANCH  57  71
ATOM     71  C   UNL A   1      52.661  28.014  25.508  1.00  0.00    -0.014 A 
ATOM     72  C   UNL A   1      53.401  27.591  26.624  1.00  0.00     0.009 A 
ATOM     73  C   UNL A   1      53.006  27.522  24.239  1.00  0.00     0.009 A 
ATOM     74  C   UNL A   1      54.485  26.724  26.467  1.00  0.00     0.001 A 
ATOM     75  C   UNL A   1      54.071  26.633  24.089  1.00  0.00     0.001 A 
ATOM     76  C   UNL A   1      54.817  26.242  25.201  1.00  0.00     0.000 A 
ENDBRANCH  57  71
BRANCH  58  77
ATOM     77  C   UNL A   1      44.690  33.840  26.855  1.00  0.00    -0.014 A 
ATOM     78  C   UNL A   1      43.988  34.380  25.767  1.00  0.00     0.009 A 
ATOM     79  C   UNL A   1      44.268  34.155  28.157  1.00  0.00     0.009 A 
ATOM     80  C   UNL A   1      42.906  35.239  25.977  1.00  0.00     0.001 A 
ATOM     81  C   UNL A   1      43.168  34.991  28.364  1.00  0.00     0.001 A 
ATOM     82  C   UNL A   1      42.494  35.540  27.274  1.00  0.00     0.000 A 
ENDBRANCH  58  77
BRANCH  70  83
ATOM     83  C   UNL A   1      51.419  35.118  25.638  1.00  0.00    -0.014 A 
ATOM     84  C   UNL A   1      52.020  35.756  26.735  1.00  0.00     0.009 A 
ATOM     85  C   UNL A   1      51.584  35.668  24.357  1.00  0.00     0.009 A 
ATOM     86  C   UNL A   1      52.742  36.938  26.554  1.00  0.00     0.001 A 
ATOM     87  C   UNL A   1      52.331  36.833  24.176  1.00  0.00     0.001 A 
ATOM     88  C   UNL A   1      52.902  37.471  25.275  1.00  0.00     0.000 A 
ENDBRANCH  70  83
ENDBRANCH  44  45
ENDBRANCH  36  39
ENDBRANCH  34  35
ENDBRANCH  33  34
ENDBRANCH   1  33
TORSDOF 14
ENDMDL
