MODEL 1
REMARK VINA RESULT:     -10.3      0.000      0.000
REMARK SMILES CC(C)(C[NH2+]CCc1cccnc1)C(=O)NCCCCNC(=O)c1ccc(-c2c3nc(c(-c4ccccc4)c4ccc([nH]4)c(-c4ccccc4)c4nc(c(-c5ccccc5)c5ccc2[nH]5)C=C4)C=C3)cc1
REMARK SMILES IDX 17 1 16 2 14 3 15 4 2 6 1 7 3 8 4 9 5 10 6 13 7 14 8 15 9 16
REMARK SMILES IDX 13 17 10 18 12 19 11 20 18 21 19 22 20 23 21 24 22 25 23 27
REMARK SMILES IDX 24 28 25 29 71 30 26 31 70 32 27 33 28 34 29 35 64 36 30 37
REMARK SMILES IDX 69 38 63 39 65 40 31 41 68 42 62 43 61 44 32 46 54 47 39 48
REMARK SMILES IDX 53 49 40 50 43 51 52 52 66 53 41 54 42 55 51 57 67 58 44 59
REMARK SMILES IDX 33 60 34 61 38 62 35 63 37 64 36 65 55 66 56 67 60 68 57 69
REMARK SMILES IDX 59 70 58 71 45 72 46 73 50 74 47 75 49 76 48 77
REMARK H PARENT 16 5 5 11 5 12 21 26 65 45 43 56
REMARK Flexibility Score: inf
ROOT
ATOM      1  C   UNL A   1      36.350  22.043  25.724  1.00  0.00     0.116 C 
ENDROOT
BRANCH   1   2
ATOM      2  N   UNL A   1      35.412  22.086  26.826  1.00  0.00    -0.355 N 
ATOM      3  C   UNL A   1      34.216  22.715  26.993  1.00  0.00     0.231 C 
ATOM      4  O   UNL A   1      33.673  22.534  28.088  1.00  0.00    -0.274 OA
ATOM      5  H   UNL A   1      35.694  21.559  27.608  1.00  0.00     0.163 HD
BRANCH   3   6
ATOM      6  C   UNL A   1      33.528  23.537  25.881  1.00  0.00     0.092 C 
ATOM      7  C   UNL A   1      34.394  24.793  25.593  1.00  0.00     0.027 C 
ATOM      8  C   UNL A   1      32.174  24.064  26.395  1.00  0.00     0.027 C 
BRANCH   6   9
ATOM      9  C   UNL A   1      33.340  22.745  24.561  1.00  0.00     0.276 C 
BRANCH   9  10
ATOM     10  N   UNL A   1      32.059  22.040  24.474  1.00  0.00    -0.345 N 
ATOM     11  H   UNL A   1      31.678  22.180  23.538  1.00  0.00     0.346 HD
ATOM     12  H   UNL A   1      31.459  22.426  25.204  1.00  0.00     0.346 HD
BRANCH  10  13
ATOM     13  C   UNL A   1      32.152  20.598  24.722  1.00  0.00     0.265 C 
BRANCH  13  14
ATOM     14  C   UNL A   1      33.445  19.903  24.260  1.00  0.00     0.098 C 
BRANCH  14  15
ATOM     15  C   UNL A   1      33.535  18.451  24.642  1.00  0.00    -0.024 A 
ATOM     16  C   UNL A   1      34.610  17.651  24.247  1.00  0.00     0.007 A 
ATOM     17  C   UNL A   1      32.532  17.847  25.396  1.00  0.00     0.114 A 
ATOM     18  C   UNL A   1      34.634  16.306  24.603  1.00  0.00     0.020 A 
ATOM     19  N   UNL A   1      32.529  16.544  25.752  1.00  0.00    -0.264 NA
ATOM     20  C   UNL A   1      33.579  15.802  25.345  1.00  0.00     0.111 A 
ENDBRANCH  14  15
ENDBRANCH  13  14
ENDBRANCH  10  13
ENDBRANCH   9  10
ENDBRANCH   6   9
ENDBRANCH   3   6
ENDBRANCH   1   2
BRANCH   1  21
ATOM     21  C   UNL A   1      36.535  20.628  25.180  1.00  0.00     0.023 C 
BRANCH  21  22
ATOM     22  C   UNL A   1      37.957  20.293  24.727  1.00  0.00     0.023 C 
BRANCH  22  23
ATOM     23  C   UNL A   1      39.028  20.389  25.809  1.00  0.00     0.116 C 
BRANCH  23  24
ATOM     24  N   UNL A   1      39.946  19.260  25.818  1.00  0.00    -0.352 N 
ATOM     25  C   UNL A   1      41.301  19.256  26.047  1.00  0.00     0.251 C 
ATOM     26  H   UNL A   1      39.542  18.381  25.635  1.00  0.00     0.163 HD
ATOM     27  O   UNL A   1      41.950  18.223  25.923  1.00  0.00    -0.269 OA
BRANCH  25  28
ATOM     28  C   UNL A   1      41.981  20.519  26.403  1.00  0.00     0.039 A 
ATOM     29  C   UNL A   1      42.396  21.372  25.377  1.00  0.00     0.014 A 
ATOM     30  C   UNL A   1      42.168  20.876  27.740  1.00  0.00     0.014 A 
ATOM     31  C   UNL A   1      42.930  22.622  25.695  1.00  0.00     0.010 A 
ATOM     32  C   UNL A   1      42.637  22.147  28.053  1.00  0.00     0.010 A 
ATOM     33  C   UNL A   1      43.015  23.034  27.034  1.00  0.00    -0.014 A 
BRANCH  33  34
ATOM     34  C   UNL A   1      43.484  24.395  27.394  1.00  0.00     0.031 A 
ATOM     35  C   UNL A   1      42.500  25.437  27.843  1.00  0.00     0.074 A 
ATOM     36  C   UNL A   1      44.783  24.717  27.236  1.00  0.00     0.049 A 
ATOM     37  N   UNL A   1      42.703  26.702  28.114  1.00  0.00    -0.248 NA
ATOM     38  C   UNL A   1      41.099  25.009  27.981  1.00  0.00     0.031 C 
ATOM     39  C   UNL A   1      45.833  23.809  26.769  1.00  0.00     0.029 A 
ATOM     40  N   UNL A   1      45.439  25.904  27.443  1.00  0.00    -0.354 N 
ATOM     41  C   UNL A   1      41.455  27.222  28.433  1.00  0.00     0.074 A 
ATOM     42  C   UNL A   1      40.496  26.150  28.280  1.00  0.00     0.031 C 
ATOM     43  C   UNL A   1      47.003  24.466  26.746  1.00  0.00     0.029 A 
ATOM     44  C   UNL A   1      46.781  25.849  27.157  1.00  0.00     0.049 A 
ATOM     45  H   UNL A   1      44.990  26.719  27.766  1.00  0.00     0.167 HD
ATOM     46  C   UNL A   1      41.138  28.476  28.833  1.00  0.00     0.031 A 
ATOM     47  C   UNL A   1      47.727  26.806  27.209  1.00  0.00     0.031 A 
ATOM     48  C   UNL A   1      42.092  29.540  29.000  1.00  0.00     0.049 A 
ATOM     49  C   UNL A   1      47.347  28.192  27.649  1.00  0.00     0.074 A 
ATOM     50  C   UNL A   1      41.874  30.828  29.459  1.00  0.00     0.029 A 
ATOM     51  N   UNL A   1      43.443  29.438  28.712  1.00  0.00    -0.354 N 
ATOM     52  N   UNL A   1      46.174  28.651  28.008  1.00  0.00    -0.248 NA
ATOM     53  C   UNL A   1      48.426  29.190  27.696  1.00  0.00     0.031 C 
ATOM     54  C   UNL A   1      43.090  31.519  29.408  1.00  0.00     0.029 A 
ATOM     55  C   UNL A   1      44.071  30.646  28.965  1.00  0.00     0.049 A 
ATOM     56  H   UNL A   1      43.891  28.627  28.380  1.00  0.00     0.167 HD
ATOM     57  C   UNL A   1      46.377  29.982  28.350  1.00  0.00     0.074 A 
ATOM     58  C   UNL A   1      47.789  30.252  28.167  1.00  0.00     0.031 C 
ATOM     59  C   UNL A   1      45.475  30.898  28.780  1.00  0.00     0.031 A 
BRANCH  46  60
ATOM     60  C   UNL A   1      39.689  28.765  29.112  1.00  0.00    -0.014 A 
ATOM     61  C   UNL A   1      39.144  28.572  30.391  1.00  0.00     0.009 A 
ATOM     62  C   UNL A   1      38.866  29.263  28.091  1.00  0.00     0.009 A 
ATOM     63  C   UNL A   1      37.795  28.837  30.632  1.00  0.00     0.001 A 
ATOM     64  C   UNL A   1      37.524  29.553  28.341  1.00  0.00     0.001 A 
ATOM     65  C   UNL A   1      36.987  29.331  29.608  1.00  0.00     0.000 A 
ENDBRANCH  46  60
BRANCH  47  66
ATOM     66  C   UNL A   1      49.132  26.485  26.851  1.00  0.00    -0.014 A 
ATOM     67  C   UNL A   1      50.030  26.037  27.833  1.00  0.00     0.009 A 
ATOM     68  C   UNL A   1      49.586  26.628  25.531  1.00  0.00     0.009 A 
ATOM     69  C   UNL A   1      51.359  25.762  27.504  1.00  0.00     0.001 A 
ATOM     70  C   UNL A   1      50.909  26.328  25.201  1.00  0.00     0.001 A 
ATOM     71  C   UNL A   1      51.796  25.905  26.189  1.00  0.00     0.000 A 
ENDBRANCH  47  66
BRANCH  59  72
ATOM     72  C   UNL A   1      45.993  32.267  29.115  1.00  0.00    -0.014 A 
ATOM     73  C   UNL A   1      46.481  32.566  30.396  1.00  0.00     0.009 A 
ATOM     74  C   UNL A   1      46.038  33.255  28.119  1.00  0.00     0.009 A 
ATOM     75  C   UNL A   1      46.978  33.840  30.680  1.00  0.00     0.001 A 
ATOM     76  C   UNL A   1      46.559  34.518  28.399  1.00  0.00     0.001 A 
ATOM     77  C   UNL A   1      47.021  34.813  29.681  1.00  0.00     0.000 A 
ENDBRANCH  59  72
ENDBRANCH  33  34
ENDBRANCH  25  28
ENDBRANCH  23  24
ENDBRANCH  22  23
ENDBRANCH  21  22
ENDBRANCH   1  21
TORSDOF 16
ENDMDL
MODEL 2
REMARK VINA RESULT:     -10.1      1.096      6.163
REMARK SMILES CC(C)(C[NH2+]CCc1cccnc1)C(=O)NCCCCNC(=O)c1ccc(-c2c3nc(c(-c4ccccc4)c4ccc([nH]4)c(-c4ccccc4)c4nc(c(-c5ccccc5)c5ccc2[nH]5)C=C4)C=C3)cc1
REMARK SMILES IDX 17 1 16 2 14 3 15 4 2 6 1 7 3 8 4 9 5 10 6 13 7 14 8 15 9 16
REMARK SMILES IDX 13 17 10 18 12 19 11 20 18 21 19 22 20 23 21 24 22 25 23 27
REMARK SMILES IDX 24 28 25 29 71 30 26 31 70 32 27 33 28 34 29 35 64 36 30 37
REMARK SMILES IDX 69 38 63 39 65 40 31 41 68 42 62 43 61 44 32 46 54 47 39 48
REMARK SMILES IDX 53 49 40 50 43 51 52 52 66 53 41 54 42 55 51 57 67 58 44 59
REMARK SMILES IDX 33 60 34 61 38 62 35 63 37 64 36 65 55 66 56 67 60 68 57 69
REMARK SMILES IDX 59 70 58 71 45 72 46 73 50 74 47 75 49 76 48 77
REMARK H PARENT 16 5 5 11 5 12 21 26 65 45 43 56
REMARK Flexibility Score: inf
ROOT
ATOM      1  C   UNL A   1      36.020  21.076  25.225  1.00  0.00     0.116 C 
ENDROOT
BRANCH   1   2
ATOM      2  N   UNL A   1      36.394  22.006  24.179  1.00  0.00    -0.355 N 
ATOM      3  C   UNL A   1      35.742  23.052  23.603  1.00  0.00     0.231 C 
ATOM      4  O   UNL A   1      36.370  23.641  22.716  1.00  0.00    -0.274 OA
ATOM      5  H   UNL A   1      37.294  21.851  23.814  1.00  0.00     0.163 HD
BRANCH   3   6
ATOM      6  C   UNL A   1      34.349  23.539  24.059  1.00  0.00     0.092 C 
ATOM      7  C   UNL A   1      34.016  24.851  23.301  1.00  0.00     0.027 C 
ATOM      8  C   UNL A   1      34.400  23.914  25.554  1.00  0.00     0.027 C 
BRANCH   6   9
ATOM      9  C   UNL A   1      33.223  22.507  23.794  1.00  0.00     0.276 C 
BRANCH   9  10
ATOM     10  N   UNL A   1      32.512  22.085  25.004  1.00  0.00    -0.345 N 
ATOM     11  H   UNL A   1      31.655  22.632  25.080  1.00  0.00     0.346 HD
ATOM     12  H   UNL A   1      33.147  22.238  25.788  1.00  0.00     0.346 HD
BRANCH  10  13
ATOM     13  C   UNL A   1      32.154  20.663  25.021  1.00  0.00     0.265 C 
BRANCH  13  14
ATOM     14  C   UNL A   1      32.662  19.812  23.844  1.00  0.00     0.098 C 
BRANCH  14  15
ATOM     15  C   UNL A   1      32.906  18.368  24.187  1.00  0.00    -0.024 A 
ATOM     16  C   UNL A   1      32.614  17.852  25.452  1.00  0.00     0.007 A 
ATOM     17  C   UNL A   1      33.452  17.493  23.251  1.00  0.00     0.114 A 
ATOM     18  C   UNL A   1      32.883  16.515  25.729  1.00  0.00     0.020 A 
ATOM     19  N   UNL A   1      33.727  16.193  23.494  1.00  0.00    -0.264 NA
ATOM     20  C   UNL A   1      33.438  15.734  24.729  1.00  0.00     0.111 A 
ENDBRANCH  14  15
ENDBRANCH  13  14
ENDBRANCH  10  13
ENDBRANCH   9  10
ENDBRANCH   6   9
ENDBRANCH   3   6
ENDBRANCH   1   2
BRANCH   1  21
ATOM     21  C   UNL A   1      36.715  19.725  25.070  1.00  0.00     0.023 C 
BRANCH  21  22
ATOM     22  C   UNL A   1      38.184  19.800  24.650  1.00  0.00     0.023 C 
BRANCH  22  23
ATOM     23  C   UNL A   1      39.179  20.011  25.786  1.00  0.00     0.116 C 
BRANCH  23  24
ATOM     24  N   UNL A   1      40.179  18.958  25.885  1.00  0.00    -0.352 N 
ATOM     25  C   UNL A   1      41.518  19.068  26.171  1.00  0.00     0.251 C 
ATOM     26  H   UNL A   1      39.852  18.044  25.725  1.00  0.00     0.163 HD
ATOM     27  O   UNL A   1      42.249  18.085  26.121  1.00  0.00    -0.269 OA
BRANCH  25  28
ATOM     28  C   UNL A   1      42.083  20.394  26.499  1.00  0.00     0.039 A 
ATOM     29  C   UNL A   1      42.554  21.201  25.460  1.00  0.00     0.014 A 
ATOM     30  C   UNL A   1      42.108  20.853  27.818  1.00  0.00     0.014 A 
ATOM     31  C   UNL A   1      42.979  22.501  25.736  1.00  0.00     0.010 A 
ATOM     32  C   UNL A   1      42.468  22.170  28.081  1.00  0.00     0.010 A 
ATOM     33  C   UNL A   1      42.900  23.009  27.043  1.00  0.00    -0.014 A 
BRANCH  33  34
ATOM     34  C   UNL A   1      43.250  24.418  27.345  1.00  0.00     0.031 A 
ATOM     35  C   UNL A   1      44.683  24.866  27.299  1.00  0.00     0.074 A 
ATOM     36  C   UNL A   1      42.288  25.274  27.742  1.00  0.00     0.049 A 
ATOM     37  N   UNL A   1      45.196  26.028  27.616  1.00  0.00    -0.248 NA
ATOM     38  C   UNL A   1      45.674  23.868  26.864  1.00  0.00     0.031 C 
ATOM     39  C   UNL A   1      40.864  24.954  27.867  1.00  0.00     0.029 A 
ATOM     40  N   UNL A   1      42.367  26.590  28.124  1.00  0.00    -0.354 N 
ATOM     41  C   UNL A   1      46.566  25.894  27.439  1.00  0.00     0.074 A 
ATOM     42  C   UNL A   1      46.811  24.528  27.031  1.00  0.00     0.031 C 
ATOM     43  C   UNL A   1      40.203  26.049  28.276  1.00  0.00     0.029 A 
ATOM     44  C   UNL A   1      41.157  27.134  28.479  1.00  0.00     0.049 A 
ATOM     45  H   UNL A   1      43.211  27.096  28.143  1.00  0.00     0.167 HD
ATOM     46  C   UNL A   1      47.535  26.829  27.589  1.00  0.00     0.031 A 
ATOM     47  C   UNL A   1      40.849  28.366  28.927  1.00  0.00     0.031 A 
ATOM     48  C   UNL A   1      47.293  28.192  27.980  1.00  0.00     0.049 A 
ATOM     49  C   UNL A   1      41.944  29.383  29.092  1.00  0.00     0.074 A 
ATOM     50  C   UNL A   1      48.202  29.229  28.100  1.00  0.00     0.029 A 
ATOM     51  N   UNL A   1      46.050  28.705  28.317  1.00  0.00    -0.354 N 
ATOM     52  N   UNL A   1      43.227  29.259  28.860  1.00  0.00    -0.248 NA
ATOM     53  C   UNL A   1      41.543  30.713  29.574  1.00  0.00     0.031 C 
ATOM     54  C   UNL A   1      47.515  30.361  28.551  1.00  0.00     0.029 A 
ATOM     55  C   UNL A   1      46.171  30.040  28.664  1.00  0.00     0.049 A 
ATOM     56  H   UNL A   1      45.207  28.197  28.309  1.00  0.00     0.167 HD
ATOM     57  C   UNL A   1      43.784  30.500  29.141  1.00  0.00     0.074 A 
ATOM     58  C   UNL A   1      42.696  31.365  29.549  1.00  0.00     0.031 C 
ATOM     59  C   UNL A   1      45.080  30.888  29.065  1.00  0.00     0.031 A 
BRANCH  46  60
ATOM     60  C   UNL A   1      48.952  26.401  27.330  1.00  0.00    -0.014 A 
ATOM     61  C   UNL A   1      49.771  25.937  28.371  1.00  0.00     0.009 A 
ATOM     62  C   UNL A   1      49.466  26.435  26.025  1.00  0.00     0.009 A 
ATOM     63  C   UNL A   1      51.089  25.550  28.116  1.00  0.00     0.001 A 
ATOM     64  C   UNL A   1      50.775  26.023  25.768  1.00  0.00     0.001 A 
ATOM     65  C   UNL A   1      51.587  25.590  26.815  1.00  0.00     0.000 A 
ENDBRANCH  46  60
BRANCH  47  66
ATOM     66  C   UNL A   1      39.440  28.715  29.238  1.00  0.00    -0.014 A 
ATOM     67  C   UNL A   1      38.929  28.518  30.530  1.00  0.00     0.009 A 
ATOM     68  C   UNL A   1      38.596  29.241  28.248  1.00  0.00     0.009 A 
ATOM     69  C   UNL A   1      37.596  28.819  30.818  1.00  0.00     0.001 A 
ATOM     70  C   UNL A   1      37.271  29.565  28.545  1.00  0.00     0.001 A 
ATOM     71  C   UNL A   1      36.769  29.344  29.827  1.00  0.00     0.000 A 
ENDBRANCH  47  66
BRANCH  59  72
ATOM     72  C   UNL A   1      45.388  32.319  29.397  1.00  0.00    -0.014 A 
ATOM     73  C   UNL A   1      45.782  32.698  30.689  1.00  0.00     0.009 A 
ATOM     74  C   UNL A   1      45.330  33.293  28.387  1.00  0.00     0.009 A 
ATOM     75  C   UNL A   1      46.084  34.033  30.971  1.00  0.00     0.001 A 
ATOM     76  C   UNL A   1      45.658  34.621  28.666  1.00  0.00     0.001 A 
ATOM     77  C   UNL A   1      46.026  34.991  29.958  1.00  0.00     0.000 A 
ENDBRANCH  59  72
ENDBRANCH  33  34
ENDBRANCH  25  28
ENDBRANCH  23  24
ENDBRANCH  22  23
ENDBRANCH  21  22
ENDBRANCH   1  21
TORSDOF 16
ENDMDL
MODEL 3
REMARK VINA RESULT:     -10.1      4.931      9.917
REMARK SMILES CC(C)(C[NH2+]CCc1cccnc1)C(=O)NCCCCNC(=O)c1ccc(-c2c3nc(c(-c4ccccc4)c4ccc([nH]4)c(-c4ccccc4)c4nc(c(-c5ccccc5)c5ccc2[nH]5)C=C4)C=C3)cc1
REMARK SMILES IDX 17 1 16 2 14 3 15 4 2 6 1 7 3 8 4 9 5 10 6 13 7 14 8 15 9 16
REMARK SMILES IDX 13 17 10 18 12 19 11 20 18 21 19 22 20 23 21 24 22 25 23 27
REMARK SMILES IDX 24 28 25 29 71 30 26 31 70 32 27 33 28 34 29 35 64 36 30 37
REMARK SMILES IDX 69 38 63 39 65 40 31 41 68 42 62 43 61 44 32 46 54 47 39 48
REMARK SMILES IDX 53 49 40 50 43 51 52 52 66 53 41 54 42 55 51 57 67 58 44 59
REMARK SMILES IDX 33 60 34 61 38 62 35 63 37 64 36 65 55 66 56 67 60 68 57 69
REMARK SMILES IDX 59 70 58 71 45 72 46 73 50 74 47 75 49 76 48 77
REMARK H PARENT 16 5 5 11 5 12 21 26 65 45 43 56
REMARK Flexibility Score: inf
ROOT
ATOM      1  C   UNL A   1      32.220  27.906  26.424  1.00  0.00     0.116 C 
ENDROOT
BRANCH   1   2
ATOM      2  N   UNL A   1      31.606  26.648  26.794  1.00  0.00    -0.355 N 
ATOM      3  C   UNL A   1      31.722  25.386  26.297  1.00  0.00     0.231 C 
ATOM      4  O   UNL A   1      31.033  24.531  26.864  1.00  0.00    -0.274 OA
ATOM      5  H   UNL A   1      30.983  26.719  27.552  1.00  0.00     0.163 HD
BRANCH   3   6
ATOM      6  C   UNL A   1      32.696  25.008  25.160  1.00  0.00     0.092 C 
ATOM      7  C   UNL A   1      33.118  23.527  25.347  1.00  0.00     0.027 C 
ATOM      8  C   UNL A   1      33.989  25.838  25.294  1.00  0.00     0.027 C 
BRANCH   6   9
ATOM      9  C   UNL A   1      32.083  25.180  23.746  1.00  0.00     0.276 C 
BRANCH   9  10
ATOM     10  N   UNL A   1      32.466  26.429  23.084  1.00  0.00    -0.345 N 
ATOM     11  H   UNL A   1      33.093  26.205  22.312  1.00  0.00     0.346 HD
ATOM     12  H   UNL A   1      32.908  27.015  23.793  1.00  0.00     0.346 HD
BRANCH  10  13
ATOM     13  C   UNL A   1      31.334  27.194  22.550  1.00  0.00     0.265 C 
BRANCH  13  14
ATOM     14  C   UNL A   1      30.041  27.181  23.384  1.00  0.00     0.098 C 
BRANCH  14  15
ATOM     15  C   UNL A   1      29.260  28.466  23.330  1.00  0.00    -0.024 A 
ATOM     16  C   UNL A   1      29.874  29.709  23.502  1.00  0.00     0.007 A 
ATOM     17  C   UNL A   1      27.883  28.458  23.121  1.00  0.00     0.114 A 
ATOM     18  C   UNL A   1      29.104  30.868  23.471  1.00  0.00     0.020 A 
ATOM     19  N   UNL A   1      27.112  29.566  23.089  1.00  0.00    -0.264 NA
ATOM     20  C   UNL A   1      27.740  30.746  23.267  1.00  0.00     0.111 A 
ENDBRANCH  14  15
ENDBRANCH  13  14
ENDBRANCH  10  13
ENDBRANCH   9  10
ENDBRANCH   6   9
ENDBRANCH   3   6
ENDBRANCH   1   2
BRANCH   1  21
ATOM     21  C   UNL A   1      31.736  29.062  27.295  1.00  0.00     0.023 C 
BRANCH  21  22
ATOM     22  C   UNL A   1      31.705  30.425  26.599  1.00  0.00     0.023 C 
BRANCH  22  23
ATOM     23  C   UNL A   1      32.849  31.367  26.955  1.00  0.00     0.116 C 
BRANCH  23  24
ATOM     24  N   UNL A   1      32.407  32.708  27.311  1.00  0.00    -0.352 N 
ATOM     25  C   UNL A   1      33.036  33.639  28.101  1.00  0.00     0.251 C 
ATOM     26  H   UNL A   1      31.540  32.984  26.935  1.00  0.00     0.163 HD
ATOM     27  O   UNL A   1      32.480  34.695  28.383  1.00  0.00    -0.269 OA
BRANCH  25  28
ATOM     28  C   UNL A   1      34.377  33.340  28.648  1.00  0.00     0.039 A 
ATOM     29  C   UNL A   1      34.471  32.678  29.874  1.00  0.00     0.014 A 
ATOM     30  C   UNL A   1      35.529  33.674  27.933  1.00  0.00     0.014 A 
ATOM     31  C   UNL A   1      35.722  32.280  30.348  1.00  0.00     0.010 A 
ATOM     32  C   UNL A   1      36.767  33.219  28.373  1.00  0.00     0.010 A 
ATOM     33  C   UNL A   1      36.875  32.512  29.580  1.00  0.00    -0.014 A 
BRANCH  33  34
ATOM     34  C   UNL A   1      38.203  32.011  30.012  1.00  0.00     0.031 A 
ATOM     35  C   UNL A   1      38.717  30.698  29.496  1.00  0.00     0.074 A 
ATOM     36  C   UNL A   1      38.908  32.697  30.933  1.00  0.00     0.049 A 
ATOM     37  N   UNL A   1      39.809  30.052  29.823  1.00  0.00    -0.248 NA
ATOM     38  C   UNL A   1      37.884  30.005  28.500  1.00  0.00     0.031 C 
ATOM     39  C   UNL A   1      38.502  33.965  31.543  1.00  0.00     0.029 A 
ATOM     40  N   UNL A   1      40.114  32.417  31.524  1.00  0.00    -0.354 N 
ATOM     41  C   UNL A   1      39.781  28.873  29.091  1.00  0.00     0.074 A 
ATOM     42  C   UNL A   1      38.547  28.869  28.337  1.00  0.00     0.031 C 
ATOM     43  C   UNL A   1      39.451  34.362  32.405  1.00  0.00     0.029 A 
ATOM     44  C   UNL A   1      40.512  33.360  32.439  1.00  0.00     0.049 A 
ATOM     45  H   UNL A   1      40.644  31.614  31.312  1.00  0.00     0.167 HD
ATOM     46  C   UNL A   1      40.707  27.886  29.039  1.00  0.00     0.031 A 
ATOM     47  C   UNL A   1      41.604  33.411  33.225  1.00  0.00     0.031 A 
ATOM     48  C   UNL A   1      41.942  27.894  29.777  1.00  0.00     0.049 A 
ATOM     49  C   UNL A   1      42.614  32.299  33.153  1.00  0.00     0.074 A 
ATOM     50  C   UNL A   1      42.972  26.969  29.743  1.00  0.00     0.029 A 
ATOM     51  N   UNL A   1      42.313  28.876  30.681  1.00  0.00    -0.354 N 
ATOM     52  N   UNL A   1      42.603  31.222  32.409  1.00  0.00    -0.248 NA
ATOM     53  C   UNL A   1      43.790  32.417  34.028  1.00  0.00     0.031 C 
ATOM     54  C   UNL A   1      43.948  27.370  30.661  1.00  0.00     0.029 A 
ATOM     55  C   UNL A   1      43.547  28.570  31.229  1.00  0.00     0.049 A 
ATOM     56  H   UNL A   1      41.779  29.673  30.901  1.00  0.00     0.167 HD
ATOM     57  C   UNL A   1      43.781  30.547  32.703  1.00  0.00     0.074 A 
ATOM     58  C   UNL A   1      44.487  31.344  33.685  1.00  0.00     0.031 C 
ATOM     59  C   UNL A   1      44.237  29.373  32.203  1.00  0.00     0.031 A 
BRANCH  46  60
ATOM     60  C   UNL A   1      40.412  26.709  28.152  1.00  0.00    -0.014 A 
ATOM     61  C   UNL A   1      40.911  26.643  26.843  1.00  0.00     0.009 A 
ATOM     62  C   UNL A   1      39.647  25.639  28.643  1.00  0.00     0.009 A 
ATOM     63  C   UNL A   1      40.621  25.546  26.029  1.00  0.00     0.001 A 
ATOM     64  C   UNL A   1      39.381  24.531  27.836  1.00  0.00     0.001 A 
ATOM     65  C   UNL A   1      39.860  24.490  26.528  1.00  0.00     0.000 A 
ENDBRANCH  46  60
BRANCH  47  66
ATOM     66  C   UNL A   1      41.812  34.563  34.138  1.00  0.00    -0.014 A 
ATOM     67  C   UNL A   1      41.352  34.510  35.463  1.00  0.00     0.009 A 
ATOM     68  C   UNL A   1      42.465  35.723  33.693  1.00  0.00     0.009 A 
ATOM     69  C   UNL A   1      41.520  35.602  36.316  1.00  0.00     0.001 A 
ATOM     70  C   UNL A   1      42.655  36.804  34.556  1.00  0.00     0.001 A 
ATOM     71  C   UNL A   1      42.174  36.747  35.863  1.00  0.00     0.000 A 
ENDBRANCH  47  66
BRANCH  59  72
ATOM     72  C   UNL A   1      45.578  28.897  32.682  1.00  0.00    -0.014 A 
ATOM     73  C   UNL A   1      46.762  29.291  32.040  1.00  0.00     0.009 A 
ATOM     74  C   UNL A   1      45.658  28.083  33.823  1.00  0.00     0.009 A 
ATOM     75  C   UNL A   1      48.000  28.854  32.516  1.00  0.00     0.001 A 
ATOM     76  C   UNL A   1      46.898  27.669  34.311  1.00  0.00     0.001 A 
ATOM     77  C   UNL A   1      48.067  28.048  33.653  1.00  0.00     0.000 A 
ENDBRANCH  59  72
ENDBRANCH  33  34
ENDBRANCH  25  28
ENDBRANCH  23  24
ENDBRANCH  22  23
ENDBRANCH  21  22
ENDBRANCH   1  21
TORSDOF 16
ENDMDL
