MODEL 1
REMARK VINA RESULT:      -9.8      0.000      0.000
REMARK SMILES Cc1ccc2cc(C[N@H+]3CC[NH2+][C@H](C(=O)NCCCCNC(=O)c4ccc(-c5c6nc(c(-c7ccccc7)c7ccc([nH]7)c(-c7ccccc7)c7nc(c(-c8ccccc8)c8ccc5[nH]8)C=C7)C=C6)cc4)C3)c(N3CCOCC3)nc2c1
REMARK SMILES IDX 18 1 17 2 16 3 14 4 15 5 13 7 9 8 10 9 72 10 11 12 12 13
REMARK SMILES IDX 8 16 7 17 1 18 2 19 3 20 82 21 4 22 81 23 5 24 80 25 6 26
REMARK SMILES IDX 73 27 74 28 75 29 79 30 76 31 78 32 77 33 19 34 20 35 21 36
REMARK SMILES IDX 22 37 23 39 24 40 25 41 71 42 26 43 70 44 27 45 28 46 29 47
REMARK SMILES IDX 64 48 30 49 69 50 63 51 65 52 31 53 68 54 62 55 61 56 32 58
REMARK SMILES IDX 54 59 39 60 53 61 40 62 43 63 52 64 66 65 41 66 42 67 51 69
REMARK SMILES IDX 67 70 44 71 33 72 34 73 38 74 35 75 37 76 36 77 55 78 56 79
REMARK SMILES IDX 60 80 57 81 59 82 58 83 45 84 46 85 50 86 47 87 49 88 48 89
REMARK H PARENT 16 6 9 11 12 14 12 15 21 38 65 57 43 68
REMARK Flexibility Score: inf
ROOT
ATOM      1  C   UNL A   1      49.398  25.373  31.995  1.00  0.00     0.023 C 
ENDROOT
BRANCH   1   2
ATOM      2  C   UNL A   1      48.999  25.826  30.596  1.00  0.00     0.116 C 
BRANCH   2   3
ATOM      3  N   UNL A   1      49.681  25.083  29.551  1.00  0.00    -0.351 N 
ATOM      4  C   UNL A   1      49.460  25.121  28.198  1.00  0.00     0.284 C 
ATOM      5  O   UNL A   1      50.176  24.424  27.477  1.00  0.00    -0.268 OA
ATOM      6  H   UNL A   1      50.394  24.476  29.852  1.00  0.00     0.163 HD
BRANCH   4   7
ATOM      7  C   UNL A   1      48.297  25.967  27.649  1.00  0.00     0.328 C 
ATOM      8  N   UNL A   1      46.089  25.784  26.376  1.00  0.00    -0.321 N 
ATOM      9  C   UNL A   1      46.488  27.018  25.680  1.00  0.00     0.324 C 
ATOM     10  C   UNL A   1      47.231  25.067  26.967  1.00  0.00     0.339 C 
ATOM     11  H   UNL A   1      45.747  25.164  25.643  1.00  0.00     0.348 HD
ATOM     12  C   UNL A   1      47.644  27.828  26.313  1.00  0.00     0.323 C 
ATOM     13  N   UNL A   1      48.794  26.986  26.684  1.00  0.00    -0.327 N 
ATOM     14  H   UNL A   1      49.519  27.557  27.121  1.00  0.00     0.347 HD
ATOM     15  H   UNL A   1      49.200  26.541  25.861  1.00  0.00     0.347 HD
BRANCH   8  16
ATOM     16  C   UNL A   1      44.896  25.899  27.230  1.00  0.00     0.303 C 
BRANCH  16  17
ATOM     17  C   UNL A   1      44.817  25.000  28.445  1.00  0.00     0.049 A 
ATOM     18  C   UNL A   1      43.565  23.128  34.498  1.00  0.00     0.044 C 
ATOM     19  C   UNL A   1      44.162  23.671  33.233  1.00  0.00    -0.049 A 
ATOM     20  C   UNL A   1      45.062  24.737  33.270  1.00  0.00     0.004 A 
ATOM     21  C   UNL A   1      43.788  23.133  31.988  1.00  0.00     0.032 A 
ATOM     22  C   UNL A   1      45.511  25.302  32.080  1.00  0.00     0.010 A 
ATOM     23  C   UNL A   1      44.222  23.680  30.782  1.00  0.00     0.073 A 
ATOM     24  C   UNL A   1      45.063  24.802  30.847  1.00  0.00     0.001 A 
ATOM     25  N   UNL A   1      43.802  23.163  29.609  1.00  0.00    -0.230 NA
ATOM     26  C   UNL A   1      45.367  25.451  29.653  1.00  0.00     0.023 A 
ATOM     27  C   UNL A   1      44.127  23.782  28.449  1.00  0.00     0.138 A 
BRANCH  27  28
ATOM     28  N   UNL A   1      43.737  23.196  27.254  1.00  0.00    -0.352 N 
ATOM     29  C   UNL A   1      44.804  22.564  26.457  1.00  0.00     0.146 C 
ATOM     30  C   UNL A   1      42.487  22.431  27.216  1.00  0.00     0.146 C 
ATOM     31  C   UNL A   1      44.310  22.445  25.007  1.00  0.00     0.181 C 
ATOM     32  C   UNL A   1      42.063  22.281  25.741  1.00  0.00     0.181 C 
ATOM     33  O   UNL A   1      43.095  21.678  24.935  1.00  0.00    -0.378 OA
ENDBRANCH  27  28
ENDBRANCH  16  17
ENDBRANCH   8  16
ENDBRANCH   4   7
ENDBRANCH   2   3
ENDBRANCH   1   2
BRANCH   1  34
ATOM     34  C   UNL A   1      49.121  26.379  33.109  1.00  0.00     0.023 C 
BRANCH  34  35
ATOM     35  C   UNL A   1      48.336  25.830  34.290  1.00  0.00     0.116 C 
BRANCH  35  36
ATOM     36  N   UNL A   1      48.435  26.641  35.496  1.00  0.00    -0.352 N 
ATOM     37  C   UNL A   1      47.583  27.637  35.925  1.00  0.00     0.251 C 
ATOM     38  H   UNL A   1      49.208  26.456  36.077  1.00  0.00     0.163 HD
ATOM     39  O   UNL A   1      47.836  28.298  36.922  1.00  0.00    -0.269 OA
BRANCH  37  40
ATOM     40  C   UNL A   1      46.379  27.929  35.117  1.00  0.00     0.039 A 
ATOM     41  C   UNL A   1      46.467  28.777  34.014  1.00  0.00     0.014 A 
ATOM     42  C   UNL A   1      45.142  27.428  35.532  1.00  0.00     0.014 A 
ATOM     43  C   UNL A   1      45.303  29.287  33.455  1.00  0.00     0.010 A 
ATOM     44  C   UNL A   1      43.976  27.862  34.896  1.00  0.00     0.010 A 
ATOM     45  C   UNL A   1      44.044  28.840  33.892  1.00  0.00    -0.014 A 
BRANCH  45  46
ATOM     46  C   UNL A   1      42.822  29.418  33.280  1.00  0.00     0.031 A 
ATOM     47  C   UNL A   1      42.138  30.612  33.890  1.00  0.00     0.074 A 
ATOM     48  C   UNL A   1      42.373  28.908  32.118  1.00  0.00     0.049 A 
ATOM     49  N   UNL A   1      41.084  31.263  33.463  1.00  0.00    -0.248 NA
ATOM     50  C   UNL A   1      42.705  31.147  35.139  1.00  0.00     0.031 C 
ATOM     51  C   UNL A   1      42.975  27.773  31.414  1.00  0.00     0.029 A 
ATOM     52  N   UNL A   1      41.344  29.300  31.301  1.00  0.00    -0.354 N 
ATOM     53  C   UNL A   1      40.851  32.264  34.396  1.00  0.00     0.074 A 
ATOM     54  C   UNL A   1      41.854  32.122  35.428  1.00  0.00     0.031 C 
ATOM     55  C   UNL A   1      42.358  27.614  30.235  1.00  0.00     0.029 A 
ATOM     56  C   UNL A   1      41.267  28.577  30.137  1.00  0.00     0.049 A 
ATOM     57  H   UNL A   1      40.722  30.029  31.527  1.00  0.00     0.167 HD
ATOM     58  C   UNL A   1      39.893  33.222  34.388  1.00  0.00     0.031 A 
ATOM     59  C   UNL A   1      40.409  28.663  29.103  1.00  0.00     0.031 A 
ATOM     60  C   UNL A   1      38.897  33.360  33.357  1.00  0.00     0.049 A 
ATOM     61  C   UNL A   1      39.321  29.692  29.143  1.00  0.00     0.074 A 
ATOM     62  C   UNL A   1      37.879  34.294  33.263  1.00  0.00     0.029 A 
ATOM     63  N   UNL A   1      38.797  32.546  32.239  1.00  0.00    -0.354 N 
ATOM     64  N   UNL A   1      39.095  30.612  30.049  1.00  0.00    -0.248 NA
ATOM     65  C   UNL A   1      38.363  29.689  28.030  1.00  0.00     0.031 C 
ATOM     66  C   UNL A   1      37.130  34.009  32.119  1.00  0.00     0.029 A 
ATOM     67  C   UNL A   1      37.720  32.941  31.462  1.00  0.00     0.049 A 
ATOM     68  H   UNL A   1      39.401  31.797  32.029  1.00  0.00     0.167 HD
ATOM     69  C   UNL A   1      37.970  31.299  29.618  1.00  0.00     0.074 A 
ATOM     70  C   UNL A   1      37.573  30.704  28.357  1.00  0.00     0.031 C 
ATOM     71  C   UNL A   1      37.323  32.327  30.219  1.00  0.00     0.031 A 
BRANCH  58  72
ATOM     72  C   UNL A   1      39.855  34.186  35.543  1.00  0.00    -0.014 A 
ATOM     73  C   UNL A   1      39.124  33.863  36.698  1.00  0.00     0.009 A 
ATOM     74  C   UNL A   1      40.491  35.435  35.472  1.00  0.00     0.009 A 
ATOM     75  C   UNL A   1      39.028  34.771  37.756  1.00  0.00     0.001 A 
ATOM     76  C   UNL A   1      40.418  36.329  36.544  1.00  0.00     0.001 A 
ATOM     77  C   UNL A   1      39.683  35.999  37.682  1.00  0.00     0.000 A 
ENDBRANCH  58  72
BRANCH  59  78
ATOM     78  C   UNL A   1      40.579  27.736  27.955  1.00  0.00    -0.014 A 
ATOM     79  C   UNL A   1      40.051  26.435  28.008  1.00  0.00     0.009 A 
ATOM     80  C   UNL A   1      41.363  28.107  26.855  1.00  0.00     0.009 A 
ATOM     81  C   UNL A   1      40.344  25.510  27.005  1.00  0.00     0.001 A 
ATOM     82  C   UNL A   1      41.630  27.187  25.838  1.00  0.00     0.001 A 
ATOM     83  C   UNL A   1      41.134  25.886  25.921  1.00  0.00     0.000 A 
ENDBRANCH  59  78
BRANCH  71  84
ATOM     84  C   UNL A   1      36.108  32.882  29.533  1.00  0.00    -0.014 A 
ATOM     85  C   UNL A   1      34.886  32.195  29.613  1.00  0.00     0.009 A 
ATOM     86  C   UNL A   1      36.195  34.030  28.730  1.00  0.00     0.009 A 
ATOM     87  C   UNL A   1      33.778  32.638  28.890  1.00  0.00     0.001 A 
ATOM     88  C   UNL A   1      35.076  34.486  28.030  1.00  0.00     0.001 A 
ATOM     89  C   UNL A   1      33.873  33.785  28.102  1.00  0.00     0.000 A 
ENDBRANCH  71  84
ENDBRANCH  45  46
ENDBRANCH  37  40
ENDBRANCH  35  36
ENDBRANCH  34  35
ENDBRANCH   1  34
TORSDOF 14
ENDMDL
MODEL 2
REMARK VINA RESULT:      -9.6      9.910     15.369
REMARK SMILES Cc1ccc2cc(C[N@H+]3CC[NH2+][C@H](C(=O)NCCCCNC(=O)c4ccc(-c5c6nc(c(-c7ccccc7)c7ccc([nH]7)c(-c7ccccc7)c7nc(c(-c8ccccc8)c8ccc5[nH]8)C=C7)C=C6)cc4)C3)c(N3CCOCC3)nc2c1
REMARK SMILES IDX 18 1 17 2 16 3 14 4 15 5 13 7 9 8 10 9 72 10 11 12 12 13
REMARK SMILES IDX 8 16 7 17 1 18 2 19 3 20 82 21 4 22 81 23 5 24 80 25 6 26
REMARK SMILES IDX 73 27 74 28 75 29 79 30 76 31 78 32 77 33 19 34 20 35 21 36
REMARK SMILES IDX 22 37 23 39 24 40 25 41 71 42 26 43 70 44 27 45 28 46 29 47
REMARK SMILES IDX 64 48 30 49 69 50 63 51 65 52 31 53 68 54 62 55 61 56 32 58
REMARK SMILES IDX 54 59 39 60 53 61 40 62 43 63 52 64 66 65 41 66 42 67 51 69
REMARK SMILES IDX 67 70 44 71 33 72 34 73 38 74 35 75 37 76 36 77 55 78 56 79
REMARK SMILES IDX 60 80 57 81 59 82 58 83 45 84 46 85 50 86 47 87 49 88 48 89
REMARK H PARENT 16 6 9 11 12 14 12 15 21 38 65 57 43 68
REMARK Flexibility Score: inf
ROOT
ATOM      1  C   UNL A   1      45.825  38.954  26.294  1.00  0.00     0.023 C 
ENDROOT
BRANCH   1   2
ATOM      2  C   UNL A   1      46.110  40.202  25.469  1.00  0.00     0.116 C 
BRANCH   2   3
ATOM      3  N   UNL A   1      45.863  41.429  26.206  1.00  0.00    -0.351 N 
ATOM      4  C   UNL A   1      44.852  42.338  26.031  1.00  0.00     0.284 C 
ATOM      5  O   UNL A   1      44.809  43.308  26.790  1.00  0.00    -0.268 OA
ATOM      6  H   UNL A   1      46.504  41.633  26.925  1.00  0.00     0.163 HD
BRANCH   4   7
ATOM      7  C   UNL A   1      43.864  42.150  24.866  1.00  0.00     0.328 C 
ATOM      8  N   UNL A   1      43.010  43.276  22.737  1.00  0.00    -0.321 N 
ATOM      9  C   UNL A   1      41.674  42.795  23.122  1.00  0.00     0.324 C 
ATOM     10  C   UNL A   1      43.943  43.342  23.875  1.00  0.00     0.339 C 
ATOM     11  H   UNL A   1      42.873  44.248  22.460  1.00  0.00     0.348 HD
ATOM     12  C   UNL A   1      41.619  41.696  24.210  1.00  0.00     0.323 C 
ATOM     13  N   UNL A   1      42.471  42.000  25.372  1.00  0.00    -0.327 N 
ATOM     14  H   UNL A   1      42.426  41.238  26.049  1.00  0.00     0.347 HD
ATOM     15  H   UNL A   1      42.160  42.852  25.838  1.00  0.00     0.347 HD
BRANCH   8  16
ATOM     16  C   UNL A   1      43.554  42.701  21.497  1.00  0.00     0.303 C 
BRANCH  16  17
ATOM     17  C   UNL A   1      43.733  43.630  20.315  1.00  0.00     0.049 A 
ATOM     18  C   UNL A   1      42.726  48.648  16.376  1.00  0.00     0.044 C 
ATOM     19  C   UNL A   1      42.712  47.328  17.090  1.00  0.00    -0.049 A 
ATOM     20  C   UNL A   1      41.551  46.558  17.141  1.00  0.00     0.004 A 
ATOM     21  C   UNL A   1      43.867  46.871  17.752  1.00  0.00     0.032 A 
ATOM     22  C   UNL A   1      41.526  45.396  17.908  1.00  0.00     0.010 A 
ATOM     23  C   UNL A   1      43.870  45.714  18.526  1.00  0.00     0.073 A 
ATOM     24  C   UNL A   1      42.665  44.999  18.626  1.00  0.00     0.001 A 
ATOM     25  N   UNL A   1      44.986  45.335  19.183  1.00  0.00    -0.230 NA
ATOM     26  C   UNL A   1      42.617  43.938  19.526  1.00  0.00     0.023 A 
ATOM     27  C   UNL A   1      44.939  44.282  20.034  1.00  0.00     0.138 A 
BRANCH  27  28
ATOM     28  N   UNL A   1      46.114  43.875  20.648  1.00  0.00    -0.352 N 
ATOM     29  C   UNL A   1      47.137  43.278  19.771  1.00  0.00     0.146 C 
ATOM     30  C   UNL A   1      46.700  44.725  21.688  1.00  0.00     0.146 C 
ATOM     31  C   UNL A   1      48.091  42.449  20.645  1.00  0.00     0.181 C 
ATOM     32  C   UNL A   1      47.697  43.871  22.499  1.00  0.00     0.181 C 
ATOM     33  O   UNL A   1      48.701  43.263  21.663  1.00  0.00    -0.378 OA
ENDBRANCH  27  28
ENDBRANCH  16  17
ENDBRANCH   8  16
ENDBRANCH   4   7
ENDBRANCH   2   3
ENDBRANCH   1   2
BRANCH   1  34
ATOM     34  C   UNL A   1      46.919  37.889  26.262  1.00  0.00     0.023 C 
BRANCH  34  35
ATOM     35  C   UNL A   1      47.126  37.141  27.569  1.00  0.00     0.116 C 
BRANCH  35  36
ATOM     36  N   UNL A   1      46.228  37.557  28.638  1.00  0.00    -0.352 N 
ATOM     37  C   UNL A   1      45.253  36.814  29.270  1.00  0.00     0.251 C 
ATOM     38  H   UNL A   1      46.329  38.486  28.948  1.00  0.00     0.163 HD
ATOM     39  O   UNL A   1      44.511  37.320  30.098  1.00  0.00    -0.269 OA
BRANCH  37  40
ATOM     40  C   UNL A   1      45.085  35.398  28.879  1.00  0.00     0.039 A 
ATOM     41  C   UNL A   1      44.397  35.071  27.710  1.00  0.00     0.014 A 
ATOM     42  C   UNL A   1      45.533  34.395  29.742  1.00  0.00     0.014 A 
ATOM     43  C   UNL A   1      43.979  33.763  27.511  1.00  0.00     0.010 A 
ATOM     44  C   UNL A   1      45.200  33.063  29.481  1.00  0.00     0.010 A 
ATOM     45  C   UNL A   1      44.370  32.744  28.396  1.00  0.00    -0.014 A 
BRANCH  45  46
ATOM     46  C   UNL A   1      43.892  31.360  28.158  1.00  0.00     0.031 A 
ATOM     47  C   UNL A   1      44.730  30.367  27.399  1.00  0.00     0.074 A 
ATOM     48  C   UNL A   1      42.722  30.974  28.704  1.00  0.00     0.049 A 
ATOM     49  N   UNL A   1      44.476  29.109  27.135  1.00  0.00    -0.248 NA
ATOM     50  C   UNL A   1      46.016  30.842  26.865  1.00  0.00     0.031 C 
ATOM     51  C   UNL A   1      41.839  31.839  29.489  1.00  0.00     0.029 A 
ATOM     52  N   UNL A   1      42.098  29.754  28.723  1.00  0.00    -0.354 N 
ATOM     53  C   UNL A   1      45.556  28.651  26.392  1.00  0.00     0.074 A 
ATOM     54  C   UNL A   1      46.455  29.770  26.220  1.00  0.00     0.031 C 
ATOM     55  C   UNL A   1      40.833  31.104  29.983  1.00  0.00     0.029 A 
ATOM     56  C   UNL A   1      40.953  29.740  29.480  1.00  0.00     0.049 A 
ATOM     57  H   UNL A   1      42.438  28.965  28.242  1.00  0.00     0.167 HD
ATOM     58  C   UNL A   1      45.780  27.407  25.904  1.00  0.00     0.031 A 
ATOM     59  C   UNL A   1      40.081  28.747  29.738  1.00  0.00     0.031 A 
ATOM     60  C   UNL A   1      44.881  26.295  26.079  1.00  0.00     0.049 A 
ATOM     61  C   UNL A   1      40.319  27.395  29.141  1.00  0.00     0.074 A 
ATOM     62  C   UNL A   1      45.017  24.998  25.617  1.00  0.00     0.029 A 
ATOM     63  N   UNL A   1      43.683  26.349  26.775  1.00  0.00    -0.354 N 
ATOM     64  N   UNL A   1      41.330  26.986  28.412  1.00  0.00    -0.248 NA
ATOM     65  C   UNL A   1      39.295  26.371  29.385  1.00  0.00     0.031 C 
ATOM     66  C   UNL A   1      43.875  24.282  25.984  1.00  0.00     0.029 A 
ATOM     67  C   UNL A   1      43.058  25.113  26.734  1.00  0.00     0.049 A 
ATOM     68  H   UNL A   1      43.329  27.147  27.230  1.00  0.00     0.167 HD
ATOM     69  C   UNL A   1      41.066  25.658  28.111  1.00  0.00     0.074 A 
ATOM     70  C   UNL A   1      39.811  25.323  28.754  1.00  0.00     0.031 C 
ATOM     71  C   UNL A   1      41.799  24.798  27.362  1.00  0.00     0.031 A 
BRANCH  58  72
ATOM     72  C   UNL A   1      47.039  27.182  25.110  1.00  0.00    -0.014 A 
ATOM     73  C   UNL A   1      48.157  26.597  25.725  1.00  0.00     0.009 A 
ATOM     74  C   UNL A   1      47.143  27.598  23.773  1.00  0.00     0.009 A 
ATOM     75  C   UNL A   1      49.353  26.435  25.020  1.00  0.00     0.001 A 
ATOM     76  C   UNL A   1      48.330  27.407  23.061  1.00  0.00     0.001 A 
ATOM     77  C   UNL A   1      49.436  26.832  23.687  1.00  0.00     0.000 A 
ENDBRANCH  58  72
BRANCH  59  78
ATOM     78  C   UNL A   1      38.916  29.030  30.615  1.00  0.00    -0.014 A 
ATOM     79  C   UNL A   1      37.717  29.518  30.069  1.00  0.00     0.009 A 
ATOM     80  C   UNL A   1      39.034  28.923  32.007  1.00  0.00     0.009 A 
ATOM     81  C   UNL A   1      36.677  29.936  30.900  1.00  0.00     0.001 A 
ATOM     82  C   UNL A   1      37.980  29.315  32.836  1.00  0.00     0.001 A 
ATOM     83  C   UNL A   1      36.810  29.836  32.284  1.00  0.00     0.000 A 
ENDBRANCH  59  78
BRANCH  71  84
ATOM     84  C   UNL A   1      41.269  23.404  27.184  1.00  0.00    -0.014 A 
ATOM     85  C   UNL A   1      41.925  22.324  27.797  1.00  0.00     0.009 A 
ATOM     86  C   UNL A   1      40.180  23.149  26.336  1.00  0.00     0.009 A 
ATOM     87  C   UNL A   1      41.511  21.015  27.551  1.00  0.00     0.001 A 
ATOM     88  C   UNL A   1      39.753  21.839  26.115  1.00  0.00     0.001 A 
ATOM     89  C   UNL A   1      40.424  20.774  26.714  1.00  0.00     0.000 A 
ENDBRANCH  71  84
ENDBRANCH  45  46
ENDBRANCH  37  40
ENDBRANCH  35  36
ENDBRANCH  34  35
ENDBRANCH   1  34
TORSDOF 14
ENDMDL
MODEL 3
REMARK VINA RESULT:      -9.5      5.873     12.797
REMARK SMILES Cc1ccc2cc(C[N@H+]3CC[NH2+][C@H](C(=O)NCCCCNC(=O)c4ccc(-c5c6nc(c(-c7ccccc7)c7ccc([nH]7)c(-c7ccccc7)c7nc(c(-c8ccccc8)c8ccc5[nH]8)C=C7)C=C6)cc4)C3)c(N3CCOCC3)nc2c1
REMARK SMILES IDX 18 1 17 2 16 3 14 4 15 5 13 7 9 8 10 9 72 10 11 12 12 13
REMARK SMILES IDX 8 16 7 17 1 18 2 19 3 20 82 21 4 22 81 23 5 24 80 25 6 26
REMARK SMILES IDX 73 27 74 28 75 29 79 30 76 31 78 32 77 33 19 34 20 35 21 36
REMARK SMILES IDX 22 37 23 39 24 40 25 41 71 42 26 43 70 44 27 45 28 46 29 47
REMARK SMILES IDX 64 48 30 49 69 50 63 51 65 52 31 53 68 54 62 55 61 56 32 58
REMARK SMILES IDX 54 59 39 60 53 61 40 62 43 63 52 64 66 65 41 66 42 67 51 69
REMARK SMILES IDX 67 70 44 71 33 72 34 73 38 74 35 75 37 76 36 77 55 78 56 79
REMARK SMILES IDX 60 80 57 81 59 82 58 83 45 84 46 85 50 86 47 87 49 88 48 89
REMARK H PARENT 16 6 9 11 12 14 12 15 21 38 65 57 43 68
REMARK Flexibility Score: inf
ROOT
ATOM      1  C   UNL A   1      35.605  33.784  29.692  1.00  0.00     0.023 C 
ENDROOT
BRANCH   1   2
ATOM      2  C   UNL A   1      35.157  33.256  28.335  1.00  0.00     0.116 C 
BRANCH   2   3
ATOM      3  N   UNL A   1      33.788  33.618  28.018  1.00  0.00    -0.351 N 
ATOM      4  C   UNL A   1      32.813  32.841  27.445  1.00  0.00     0.284 C 
ATOM      5  O   UNL A   1      31.697  33.339  27.286  1.00  0.00    -0.268 OA
ATOM      6  H   UNL A   1      33.524  34.539  28.243  1.00  0.00     0.163 HD
BRANCH   4   7
ATOM      7  C   UNL A   1      33.166  31.421  26.968  1.00  0.00     0.328 C 
ATOM      8  N   UNL A   1      32.145  29.329  25.913  1.00  0.00    -0.321 N 
ATOM      9  C   UNL A   1      32.997  28.556  26.830  1.00  0.00     0.324 C 
ATOM     10  C   UNL A   1      31.921  30.712  26.370  1.00  0.00     0.339 C 
ATOM     11  H   UNL A   1      31.227  28.889  25.968  1.00  0.00     0.348 HD
ATOM     12  C   UNL A   1      34.153  29.323  27.514  1.00  0.00     0.323 C 
ATOM     13  N   UNL A   1      33.725  30.611  28.086  1.00  0.00    -0.327 N 
ATOM     14  H   UNL A   1      34.523  31.092  28.501  1.00  0.00     0.347 HD
ATOM     15  H   UNL A   1      33.029  30.471  28.817  1.00  0.00     0.347 HD
BRANCH   8  16
ATOM     16  C   UNL A   1      32.451  29.171  24.483  1.00  0.00     0.303 C 
BRANCH  16  17
ATOM     17  C   UNL A   1      32.282  27.793  23.880  1.00  0.00     0.049 A 
ATOM     18  C   UNL A   1      32.409  21.352  23.415  1.00  0.00     0.044 C 
ATOM     19  C   UNL A   1      32.713  22.822  23.408  1.00  0.00    -0.049 A 
ATOM     20  C   UNL A   1      34.012  23.281  23.624  1.00  0.00     0.004 A 
ATOM     21  C   UNL A   1      31.678  23.756  23.219  1.00  0.00     0.032 A 
ATOM     22  C   UNL A   1      34.252  24.648  23.732  1.00  0.00     0.010 A 
ATOM     23  C   UNL A   1      31.889  25.129  23.322  1.00  0.00     0.073 A 
ATOM     24  C   UNL A   1      33.192  25.562  23.621  1.00  0.00     0.001 A 
ATOM     25  N   UNL A   1      30.861  25.990  23.181  1.00  0.00    -0.230 NA
ATOM     26  C   UNL A   1      33.376  26.917  23.887  1.00  0.00     0.023 A 
ATOM     27  C   UNL A   1      31.055  27.311  23.412  1.00  0.00     0.138 A 
BRANCH  27  28
ATOM     28  N   UNL A   1      29.997  28.182  23.198  1.00  0.00    -0.352 N 
ATOM     29  C   UNL A   1      30.229  29.266  22.226  1.00  0.00     0.146 C 
ATOM     30  C   UNL A   1      28.639  27.638  23.111  1.00  0.00     0.146 C 
ATOM     31  C   UNL A   1      29.204  30.378  22.498  1.00  0.00     0.181 C 
ATOM     32  C   UNL A   1      27.644  28.797  23.325  1.00  0.00     0.181 C 
ATOM     33  O   UNL A   1      27.858  29.879  22.396  1.00  0.00    -0.378 OA
ENDBRANCH  27  28
ENDBRANCH  16  17
ENDBRANCH   8  16
ENDBRANCH   4   7
ENDBRANCH   2   3
ENDBRANCH   1   2
BRANCH   1  34
ATOM     34  C   UNL A   1      34.631  33.537  30.841  1.00  0.00     0.023 C 
BRANCH  34  35
ATOM     35  C   UNL A   1      34.861  32.245  31.611  1.00  0.00     0.116 C 
BRANCH  35  36
ATOM     36  N   UNL A   1      35.414  32.441  32.944  1.00  0.00    -0.352 N 
ATOM     37  C   UNL A   1      36.644  32.043  33.424  1.00  0.00     0.251 C 
ATOM     38  H   UNL A   1      34.835  32.916  33.584  1.00  0.00     0.163 HD
ATOM     39  O   UNL A   1      36.945  32.201  34.598  1.00  0.00    -0.269 OA
BRANCH  37  40
ATOM     40  C   UNL A   1      37.575  31.366  32.496  1.00  0.00     0.039 A 
ATOM     41  C   UNL A   1      38.394  30.335  32.955  1.00  0.00     0.014 A 
ATOM     42  C   UNL A   1      37.694  31.837  31.186  1.00  0.00     0.014 A 
ATOM     43  C   UNL A   1      39.465  29.920  32.177  1.00  0.00     0.010 A 
ATOM     44  C   UNL A   1      38.710  31.339  30.365  1.00  0.00     0.010 A 
ATOM     45  C   UNL A   1      39.639  30.420  30.875  1.00  0.00    -0.014 A 
BRANCH  45  46
ATOM     46  C   UNL A   1      40.805  29.963  30.078  1.00  0.00     0.031 A 
ATOM     47  C   UNL A   1      40.828  28.598  29.447  1.00  0.00     0.074 A 
ATOM     48  C   UNL A   1      41.817  30.824  29.855  1.00  0.00     0.049 A 
ATOM     49  N   UNL A   1      41.751  28.057  28.690  1.00  0.00    -0.248 NA
ATOM     50  C   UNL A   1      39.671  27.722  29.695  1.00  0.00     0.031 C 
ATOM     51  C   UNL A   1      41.889  32.187  30.386  1.00  0.00     0.029 A 
ATOM     52  N   UNL A   1      42.950  30.702  29.093  1.00  0.00    -0.354 N 
ATOM     53  C   UNL A   1      41.298  26.779  28.391  1.00  0.00     0.074 A 
ATOM     54  C   UNL A   1      40.032  26.611  29.069  1.00  0.00     0.031 C 
ATOM     55  C   UNL A   1      42.961  32.802  29.867  1.00  0.00     0.029 A 
ATOM     56  C   UNL A   1      43.696  31.853  29.039  1.00  0.00     0.049 A 
ATOM     57  H   UNL A   1      43.203  29.871  28.630  1.00  0.00     0.167 HD
ATOM     58  C   UNL A   1      41.882  25.835  27.614  1.00  0.00     0.031 A 
ATOM     59  C   UNL A   1      44.852  32.123  28.403  1.00  0.00     0.031 A 
ATOM     60  C   UNL A   1      43.143  26.008  26.940  1.00  0.00     0.049 A 
ATOM     61  C   UNL A   1      45.509  31.045  27.597  1.00  0.00     0.074 A 
ATOM     62  C   UNL A   1      43.819  25.108  26.136  1.00  0.00     0.029 A 
ATOM     63  N   UNL A   1      43.913  27.161  26.987  1.00  0.00    -0.354 N 
ATOM     64  N   UNL A   1      45.083  29.830  27.349  1.00  0.00    -0.248 NA
ATOM     65  C   UNL A   1      46.809  31.366  26.993  1.00  0.00     0.031 C 
ATOM     66  C   UNL A   1      45.026  25.694  25.743  1.00  0.00     0.029 A 
ATOM     67  C   UNL A   1      45.070  26.985  26.246  1.00  0.00     0.049 A 
ATOM     68  H   UNL A   1      43.674  27.981  27.476  1.00  0.00     0.167 HD
ATOM     69  C   UNL A   1      46.060  29.239  26.562  1.00  0.00     0.074 A 
ATOM     70  C   UNL A   1      47.090  30.237  26.354  1.00  0.00     0.031 C 
ATOM     71  C   UNL A   1      46.098  27.980  26.063  1.00  0.00     0.031 A 
BRANCH  58  72
ATOM     72  C   UNL A   1      41.176  24.514  27.467  1.00  0.00    -0.014 A 
ATOM     73  C   UNL A   1      41.656  23.386  28.152  1.00  0.00     0.009 A 
ATOM     74  C   UNL A   1      40.074  24.367  26.610  1.00  0.00     0.009 A 
ATOM     75  C   UNL A   1      41.050  22.139  27.980  1.00  0.00     0.001 A 
ATOM     76  C   UNL A   1      39.451  23.125  26.464  1.00  0.00     0.001 A 
ATOM     77  C   UNL A   1      39.942  22.011  27.143  1.00  0.00     0.000 A 
ENDBRANCH  58  72
BRANCH  59  78
ATOM     78  C   UNL A   1      45.431  33.485  28.521  1.00  0.00    -0.014 A 
ATOM     79  C   UNL A   1      46.308  33.796  29.573  1.00  0.00     0.009 A 
ATOM     80  C   UNL A   1      45.020  34.507  27.654  1.00  0.00     0.009 A 
ATOM     81  C   UNL A   1      46.727  35.111  29.782  1.00  0.00     0.001 A 
ATOM     82  C   UNL A   1      45.465  35.817  27.849  1.00  0.00     0.001 A 
ATOM     83  C   UNL A   1      46.304  36.121  28.921  1.00  0.00     0.000 A 
ENDBRANCH  59  78
BRANCH  71  84
ATOM     84  C   UNL A   1      47.295  27.592  25.242  1.00  0.00    -0.014 A 
ATOM     85  C   UNL A   1      47.273  27.770  23.850  1.00  0.00     0.009 A 
ATOM     86  C   UNL A   1      48.403  26.966  25.833  1.00  0.00     0.009 A 
ATOM     87  C   UNL A   1      48.331  27.314  23.062  1.00  0.00     0.001 A 
ATOM     88  C   UNL A   1      49.471  26.535  25.045  1.00  0.00     0.001 A 
ATOM     89  C   UNL A   1      49.430  26.700  23.661  1.00  0.00     0.000 A 
ENDBRANCH  71  84
ENDBRANCH  45  46
ENDBRANCH  37  40
ENDBRANCH  35  36
ENDBRANCH  34  35
ENDBRANCH   1  34
TORSDOF 14
ENDMDL
