MODEL 1
REMARK VINA RESULT:     -12.1      0.000      0.000
REMARK SMILES Cc1ccc([C@@H](CC(=O)NCCCCNC(=O)c2ccc(-c3c4nc(c(-c5ccccc5)c5ccc([nH]5)c(-c5ccccc5)c5nc(c(-c6ccccc6)c6ccc3[nH]6)C=C5)C=C4)cc2)NC(=O)c2ccc(OC(F)F)cc2)cc1
REMARK SMILES IDX 11 1 10 2 8 3 9 4 7 6 6 7 5 8 1 9 2 10 3 11 80 12 4 13 79 14
REMARK SMILES IDX 66 15 67 16 68 18 69 19 70 20 78 21 71 22 77 23 72 24 73 25
REMARK SMILES IDX 74 26 75 27 76 28 12 29 13 30 14 31 15 32 16 33 17 35 18 36
REMARK SMILES IDX 19 37 65 38 20 39 64 40 21 41 22 42 23 43 58 44 24 45 63 46
REMARK SMILES IDX 57 47 59 48 25 49 62 50 56 51 55 52 26 54 48 55 33 56 47 57
REMARK SMILES IDX 34 58 37 59 46 60 60 61 35 62 36 63 45 65 61 66 38 67 27 68
REMARK SMILES IDX 28 69 32 70 29 71 31 72 30 73 49 74 50 75 54 76 51 77 53 78
REMARK SMILES IDX 52 79 39 80 40 81 44 82 41 83 43 84 42 85
REMARK H PARENT 10 5 66 17 15 34 59 53 37 64
REMARK Flexibility Score: inf
ROOT
ATOM      1  C   UNL A   1      31.870  28.335  23.954  1.00  0.00     0.116 C 
ENDROOT
BRANCH   1   2
ATOM      2  N   UNL A   1      31.019  27.152  23.903  1.00  0.00    -0.356 N 
ATOM      3  C   UNL A   1      31.282  25.843  23.638  1.00  0.00     0.222 C 
ATOM      4  O   UNL A   1      30.315  25.089  23.486  1.00  0.00    -0.275 OA
ATOM      5  H   UNL A   1      30.072  27.335  24.096  1.00  0.00     0.163 HD
BRANCH   3   6
ATOM      6  C   UNL A   1      32.687  25.281  23.608  1.00  0.00     0.129 C 
BRANCH   6   7
ATOM      7  C   UNL A   1      33.513  25.324  24.915  1.00  0.00     0.122 C 
BRANCH   7   8
ATOM      8  C   UNL A   1      34.757  24.451  24.752  1.00  0.00    -0.025 A 
ATOM      9  C   UNL A   1      37.573  21.186  24.614  1.00  0.00     0.044 C 
ATOM     10  C   UNL A   1      36.698  22.404  24.596  1.00  0.00    -0.051 A 
ATOM     11  C   UNL A   1      36.646  23.252  25.701  1.00  0.00     0.004 A 
ATOM     12  C   UNL A   1      35.854  22.657  23.514  1.00  0.00     0.004 A 
ATOM     13  C   UNL A   1      35.705  24.284  25.766  1.00  0.00     0.006 A 
ATOM     14  C   UNL A   1      34.896  23.672  23.588  1.00  0.00     0.006 A 
ENDBRANCH   7   8
BRANCH   7  15
ATOM     15  N   UNL A   1      32.756  25.012  26.125  1.00  0.00    -0.345 N 
ATOM     16  C   UNL A   1      32.071  23.874  26.466  1.00  0.00     0.251 C 
ATOM     17  H   UNL A   1      32.735  25.730  26.799  1.00  0.00     0.164 HD
ATOM     18  O   UNL A   1      31.183  23.936  27.314  1.00  0.00    -0.269 OA
BRANCH  16  19
ATOM     19  C   UNL A   1      32.401  22.568  25.855  1.00  0.00     0.040 A 
ATOM     20  C   UNL A   1      33.355  21.746  26.463  1.00  0.00     0.017 A 
ATOM     21  C   UNL A   1      31.872  22.207  24.613  1.00  0.00     0.017 A 
ATOM     22  C   UNL A   1      33.731  20.546  25.851  1.00  0.00     0.047 A 
ATOM     23  C   UNL A   1      32.240  20.998  24.013  1.00  0.00     0.047 A 
ATOM     24  C   UNL A   1      33.168  20.157  24.630  1.00  0.00     0.126 A 
BRANCH  24  25
ATOM     25  O   UNL A   1      33.623  18.966  24.142  1.00  0.00    -0.435 OA
BRANCH  25  26
ATOM     26  C   UNL A   1      32.671  17.945  23.870  1.00  0.00     0.542 C 
ATOM     27  F   UNL A   1      33.227  16.990  23.085  1.00  0.00    -0.167 F 
ATOM     28  F   UNL A   1      32.265  17.364  25.024  1.00  0.00    -0.167 F 
ENDBRANCH  25  26
ENDBRANCH  24  25
ENDBRANCH  16  19
ENDBRANCH   7  15
ENDBRANCH   6   7
ENDBRANCH   3   6
ENDBRANCH   1   2
BRANCH   1  29
ATOM     29  C   UNL A   1      32.259  28.660  25.404  1.00  0.00     0.023 C 
BRANCH  29  30
ATOM     30  C   UNL A   1      33.649  29.224  25.716  1.00  0.00     0.023 C 
BRANCH  30  31
ATOM     31  C   UNL A   1      33.949  29.688  27.140  1.00  0.00     0.116 C 
BRANCH  31  32
ATOM     32  N   UNL A   1      34.485  31.053  27.264  1.00  0.00    -0.352 N 
ATOM     33  C   UNL A   1      35.511  31.496  28.090  1.00  0.00     0.251 C 
ATOM     34  H   UNL A   1      34.066  31.735  26.692  1.00  0.00     0.163 HD
ATOM     35  O   UNL A   1      35.617  32.681  28.406  1.00  0.00    -0.269 OA
BRANCH  33  36
ATOM     36  C   UNL A   1      36.521  30.525  28.540  1.00  0.00     0.039 A 
ATOM     37  C   UNL A   1      36.419  29.727  29.690  1.00  0.00     0.014 A 
ATOM     38  C   UNL A   1      37.650  30.454  27.744  1.00  0.00     0.014 A 
ATOM     39  C   UNL A   1      37.462  28.844  30.001  1.00  0.00     0.010 A 
ATOM     40  C   UNL A   1      38.507  29.411  27.880  1.00  0.00     0.010 A 
ATOM     41  C   UNL A   1      38.505  28.707  29.084  1.00  0.00    -0.014 A 
BRANCH  41  42
ATOM     42  C   UNL A   1      39.803  28.086  29.298  1.00  0.00     0.031 A 
ATOM     43  C   UNL A   1      40.186  26.808  28.707  1.00  0.00     0.074 A 
ATOM     44  C   UNL A   1      40.743  28.962  29.724  1.00  0.00     0.049 A 
ATOM     45  N   UNL A   1      41.280  26.198  28.999  1.00  0.00    -0.248 NA
ATOM     46  C   UNL A   1      39.376  26.113  27.718  1.00  0.00     0.031 C 
ATOM     47  C   UNL A   1      42.184  28.972  29.530  1.00  0.00     0.029 A 
ATOM     48  N   UNL A   1      40.520  30.115  30.457  1.00  0.00    -0.354 N 
ATOM     49  C   UNL A   1      41.490  25.259  28.019  1.00  0.00     0.074 A 
ATOM     50  C   UNL A   1      40.224  25.153  27.328  1.00  0.00     0.031 C 
ATOM     51  C   UNL A   1      42.716  29.926  30.324  1.00  0.00     0.029 A 
ATOM     52  C   UNL A   1      41.656  30.418  31.194  1.00  0.00     0.049 A 
ATOM     53  H   UNL A   1      39.686  30.637  30.457  1.00  0.00     0.167 HD
ATOM     54  C   UNL A   1      42.758  24.799  27.810  1.00  0.00     0.031 A 
ATOM     55  C   UNL A   1      41.570  30.215  32.549  1.00  0.00     0.031 A 
ATOM     56  C   UNL A   1      43.719  25.422  28.732  1.00  0.00     0.049 A 
ATOM     57  C   UNL A   1      42.356  28.994  33.004  1.00  0.00     0.074 A 
ATOM     58  C   UNL A   1      44.690  26.404  28.604  1.00  0.00     0.029 A 
ATOM     59  N   UNL A   1      43.521  25.269  30.095  1.00  0.00    -0.354 N 
ATOM     60  N   UNL A   1      43.048  28.223  32.210  1.00  0.00    -0.248 NA
ATOM     61  C   UNL A   1      42.359  28.503  34.381  1.00  0.00     0.031 C 
ATOM     62  C   UNL A   1      45.037  26.860  29.915  1.00  0.00     0.029 A 
ATOM     63  C   UNL A   1      44.306  26.132  30.836  1.00  0.00     0.049 A 
ATOM     64  H   UNL A   1      42.895  24.620  30.489  1.00  0.00     0.167 HD
ATOM     65  C   UNL A   1      43.507  27.137  32.893  1.00  0.00     0.074 A 
ATOM     66  C   UNL A   1      43.069  27.366  34.260  1.00  0.00     0.031 C 
ATOM     67  C   UNL A   1      44.171  26.109  32.288  1.00  0.00     0.031 A 
BRANCH  54  68
ATOM     68  C   UNL A   1      43.172  23.947  26.633  1.00  0.00    -0.014 A 
ATOM     69  C   UNL A   1      42.922  22.562  26.652  1.00  0.00     0.009 A 
ATOM     70  C   UNL A   1      43.803  24.438  25.477  1.00  0.00     0.009 A 
ATOM     71  C   UNL A   1      43.339  21.715  25.615  1.00  0.00     0.001 A 
ATOM     72  C   UNL A   1      44.255  23.594  24.451  1.00  0.00     0.001 A 
ATOM     73  C   UNL A   1      44.025  22.228  24.523  1.00  0.00     0.000 A 
ENDBRANCH  54  68
BRANCH  55  74
ATOM     74  C   UNL A   1      40.211  30.613  33.072  1.00  0.00    -0.014 A 
ATOM     75  C   UNL A   1      39.781  31.938  32.828  1.00  0.00     0.009 A 
ATOM     76  C   UNL A   1      39.229  29.639  33.329  1.00  0.00     0.009 A 
ATOM     77  C   UNL A   1      38.421  32.240  32.686  1.00  0.00     0.001 A 
ATOM     78  C   UNL A   1      37.866  29.954  33.204  1.00  0.00     0.001 A 
ATOM     79  C   UNL A   1      37.466  31.239  32.840  1.00  0.00     0.000 A 
ENDBRANCH  55  74
BRANCH  67  80
ATOM     80  C   UNL A   1      44.716  24.941  33.057  1.00  0.00    -0.014 A 
ATOM     81  C   UNL A   1      43.910  23.854  33.419  1.00  0.00     0.009 A 
ATOM     82  C   UNL A   1      46.037  24.955  33.548  1.00  0.00     0.009 A 
ATOM     83  C   UNL A   1      44.427  22.790  34.164  1.00  0.00     0.001 A 
ATOM     84  C   UNL A   1      46.548  23.910  34.316  1.00  0.00     0.001 A 
ATOM     85  C   UNL A   1      45.746  22.817  34.609  1.00  0.00     0.000 A 
ENDBRANCH  67  80
ENDBRANCH  41  42
ENDBRANCH  33  36
ENDBRANCH  31  32
ENDBRANCH  30  31
ENDBRANCH  29  30
ENDBRANCH   1  29
TORSDOF 17
ENDMDL
MODEL 2
REMARK VINA RESULT:     -12.0      1.654      2.796
REMARK SMILES Cc1ccc([C@@H](CC(=O)NCCCCNC(=O)c2ccc(-c3c4nc(c(-c5ccccc5)c5ccc([nH]5)c(-c5ccccc5)c5nc(c(-c6ccccc6)c6ccc3[nH]6)C=C5)C=C4)cc2)NC(=O)c2ccc(OC(F)F)cc2)cc1
REMARK SMILES IDX 11 1 10 2 8 3 9 4 7 6 6 7 5 8 1 9 2 10 3 11 80 12 4 13 79 14
REMARK SMILES IDX 66 15 67 16 68 18 69 19 70 20 78 21 71 22 77 23 72 24 73 25
REMARK SMILES IDX 74 26 75 27 76 28 12 29 13 30 14 31 15 32 16 33 17 35 18 36
REMARK SMILES IDX 19 37 65 38 20 39 64 40 21 41 22 42 23 43 58 44 24 45 63 46
REMARK SMILES IDX 57 47 59 48 25 49 62 50 56 51 55 52 26 54 48 55 33 56 47 57
REMARK SMILES IDX 34 58 37 59 46 60 60 61 35 62 36 63 45 65 61 66 38 67 27 68
REMARK SMILES IDX 28 69 32 70 29 71 31 72 30 73 49 74 50 75 54 76 51 77 53 78
REMARK SMILES IDX 52 79 39 80 40 81 44 82 41 83 43 84 42 85
REMARK H PARENT 10 5 66 17 15 34 59 53 37 64
REMARK Flexibility Score: inf
ROOT
ATOM      1  C   UNL A   1      31.770  27.295  25.764  1.00  0.00     0.116 C 
ENDROOT
BRANCH   1   2
ATOM      2  N   UNL A   1      30.954  26.275  26.414  1.00  0.00    -0.356 N 
ATOM      3  C   UNL A   1      30.934  24.917  26.319  1.00  0.00     0.222 C 
ATOM      4  O   UNL A   1      29.996  24.325  26.863  1.00  0.00    -0.275 OA
ATOM      5  H   UNL A   1      30.290  26.639  27.042  1.00  0.00     0.163 HD
BRANCH   3   6
ATOM      6  C   UNL A   1      32.043  24.128  25.657  1.00  0.00     0.129 C 
BRANCH   6   7
ATOM      7  C   UNL A   1      31.785  23.565  24.240  1.00  0.00     0.122 C 
BRANCH   7   8
ATOM      8  C   UNL A   1      32.056  22.061  24.239  1.00  0.00    -0.025 A 
ATOM      9  C   UNL A   1      33.879  18.152  24.247  1.00  0.00     0.044 C 
ATOM     10  C   UNL A   1      33.116  19.443  24.266  1.00  0.00    -0.051 A 
ATOM     11  C   UNL A   1      32.671  20.017  23.077  1.00  0.00     0.004 A 
ATOM     12  C   UNL A   1      32.919  20.134  25.463  1.00  0.00     0.004 A 
ATOM     13  C   UNL A   1      32.120  21.302  23.067  1.00  0.00     0.006 A 
ATOM     14  C   UNL A   1      32.391  21.428  25.450  1.00  0.00     0.006 A 
ENDBRANCH   7   8
BRANCH   7  15
ATOM     15  N   UNL A   1      32.485  24.269  23.168  1.00  0.00    -0.345 N 
ATOM     16  C   UNL A   1      33.802  24.638  23.071  1.00  0.00     0.251 C 
ATOM     17  H   UNL A   1      31.925  24.515  22.397  1.00  0.00     0.164 HD
ATOM     18  O   UNL A   1      34.118  25.550  22.310  1.00  0.00    -0.269 OA
BRANCH  16  19
ATOM     19  C   UNL A   1      34.853  23.938  23.842  1.00  0.00     0.040 A 
ATOM     20  C   UNL A   1      35.261  24.457  25.075  1.00  0.00     0.017 A 
ATOM     21  C   UNL A   1      35.534  22.848  23.295  1.00  0.00     0.017 A 
ATOM     22  C   UNL A   1      36.309  23.848  25.774  1.00  0.00     0.047 A 
ATOM     23  C   UNL A   1      36.570  22.233  24.005  1.00  0.00     0.047 A 
ATOM     24  C   UNL A   1      36.961  22.726  25.251  1.00  0.00     0.126 A 
BRANCH  24  25
ATOM     25  O   UNL A   1      37.966  22.231  26.033  1.00  0.00    -0.435 OA
BRANCH  25  26
ATOM     26  C   UNL A   1      38.939  21.392  25.423  1.00  0.00     0.542 C 
ATOM     27  F   UNL A   1      40.145  21.573  26.015  1.00  0.00    -0.167 F 
ATOM     28  F   UNL A   1      38.588  20.090  25.563  1.00  0.00    -0.167 F 
ENDBRANCH  25  26
ENDBRANCH  24  25
ENDBRANCH  16  19
ENDBRANCH   7  15
ENDBRANCH   6   7
ENDBRANCH   3   6
ENDBRANCH   1   2
BRANCH   1  29
ATOM     29  C   UNL A   1      33.252  27.111  26.120  1.00  0.00     0.023 C 
BRANCH  29  30
ATOM     30  C   UNL A   1      34.171  28.333  26.229  1.00  0.00     0.023 C 
BRANCH  30  31
ATOM     31  C   UNL A   1      33.938  29.326  27.366  1.00  0.00     0.116 C 
BRANCH  31  32
ATOM     32  N   UNL A   1      34.541  30.655  27.183  1.00  0.00    -0.352 N 
ATOM     33  C   UNL A   1      35.668  31.176  27.806  1.00  0.00     0.251 C 
ATOM     34  H   UNL A   1      34.091  31.249  26.539  1.00  0.00     0.163 HD
ATOM     35  O   UNL A   1      35.857  32.390  27.886  1.00  0.00    -0.269 OA
BRANCH  33  36
ATOM     36  C   UNL A   1      36.680  30.241  28.324  1.00  0.00     0.039 A 
ATOM     37  C   UNL A   1      36.588  29.542  29.537  1.00  0.00     0.014 A 
ATOM     38  C   UNL A   1      37.800  30.100  27.525  1.00  0.00     0.014 A 
ATOM     39  C   UNL A   1      37.632  28.683  29.909  1.00  0.00     0.010 A 
ATOM     40  C   UNL A   1      38.655  29.068  27.737  1.00  0.00     0.010 A 
ATOM     41  C   UNL A   1      38.665  28.466  28.995  1.00  0.00    -0.014 A 
BRANCH  41  42
ATOM     42  C   UNL A   1      39.962  27.860  29.246  1.00  0.00     0.031 A 
ATOM     43  C   UNL A   1      40.359  26.564  28.704  1.00  0.00     0.074 A 
ATOM     44  C   UNL A   1      40.893  28.755  29.654  1.00  0.00     0.049 A 
ATOM     45  N   UNL A   1      41.452  25.970  29.030  1.00  0.00    -0.248 NA
ATOM     46  C   UNL A   1      39.564  25.831  27.729  1.00  0.00     0.031 C 
ATOM     47  C   UNL A   1      42.336  28.766  29.476  1.00  0.00     0.029 A 
ATOM     48  N   UNL A   1      40.655  29.931  30.344  1.00  0.00    -0.354 N 
ATOM     49  C   UNL A   1      41.679  25.000  28.085  1.00  0.00     0.074 A 
ATOM     50  C   UNL A   1      40.421  24.864  27.383  1.00  0.00     0.031 C 
ATOM     51  C   UNL A   1      42.853  29.748  30.243  1.00  0.00     0.029 A 
ATOM     52  C   UNL A   1      41.781  30.265  31.084  1.00  0.00     0.049 A 
ATOM     53  H   UNL A   1      39.819  30.448  30.316  1.00  0.00     0.167 HD
ATOM     54  C   UNL A   1      42.951  24.539  27.907  1.00  0.00     0.031 A 
ATOM     55  C   UNL A   1      41.680  30.107  32.443  1.00  0.00     0.031 A 
ATOM     56  C   UNL A   1      43.898  25.199  28.818  1.00  0.00     0.049 A 
ATOM     57  C   UNL A   1      42.466  28.907  32.949  1.00  0.00     0.074 A 
ATOM     58  C   UNL A   1      44.866  26.180  28.668  1.00  0.00     0.029 A 
ATOM     59  N   UNL A   1      43.684  25.091  30.183  1.00  0.00    -0.354 N 
ATOM     60  N   UNL A   1      43.171  28.113  32.190  1.00  0.00    -0.248 NA
ATOM     61  C   UNL A   1      42.454  28.463  34.342  1.00  0.00     0.031 C 
ATOM     62  C   UNL A   1      45.194  26.683  29.968  1.00  0.00     0.029 A 
ATOM     63  C   UNL A   1      44.456  25.983  30.904  1.00  0.00     0.049 A 
ATOM     64  H   UNL A   1      43.056  24.452  30.592  1.00  0.00     0.167 HD
ATOM     65  C   UNL A   1      43.627  27.053  32.916  1.00  0.00     0.074 A 
ATOM     66  C   UNL A   1      43.170  27.326  34.269  1.00  0.00     0.031 C 
ATOM     67  C   UNL A   1      44.303  26.008  32.354  1.00  0.00     0.031 A 
BRANCH  54  68
ATOM     68  C   UNL A   1      43.383  23.650  26.764  1.00  0.00    -0.014 A 
ATOM     69  C   UNL A   1      43.803  24.228  25.552  1.00  0.00     0.009 A 
ATOM     70  C   UNL A   1      43.408  22.246  26.813  1.00  0.00     0.009 A 
ATOM     71  C   UNL A   1      44.156  23.451  24.438  1.00  0.00     0.001 A 
ATOM     72  C   UNL A   1      43.726  21.460  25.694  1.00  0.00     0.001 A 
ATOM     73  C   UNL A   1      44.098  22.065  24.503  1.00  0.00     0.000 A 
ENDBRANCH  54  68
BRANCH  55  74
ATOM     74  C   UNL A   1      40.312  30.516  32.936  1.00  0.00    -0.014 A 
ATOM     75  C   UNL A   1      39.867  31.820  32.618  1.00  0.00     0.009 A 
ATOM     76  C   UNL A   1      39.341  29.545  33.240  1.00  0.00     0.009 A 
ATOM     77  C   UNL A   1      38.504  32.096  32.451  1.00  0.00     0.001 A 
ATOM     78  C   UNL A   1      37.975  29.835  33.090  1.00  0.00     0.001 A 
ATOM     79  C   UNL A   1      37.561  31.094  32.654  1.00  0.00     0.000 A 
ENDBRANCH  55  74
BRANCH  67  80
ATOM     80  C   UNL A   1      44.844  24.870  33.169  1.00  0.00    -0.014 A 
ATOM     81  C   UNL A   1      46.151  24.877  33.672  1.00  0.00     0.009 A 
ATOM     82  C   UNL A   1      44.088  23.697  33.357  1.00  0.00     0.009 A 
ATOM     83  C   UNL A   1      46.649  23.793  34.402  1.00  0.00     0.001 A 
ATOM     84  C   UNL A   1      44.591  22.602  34.060  1.00  0.00     0.001 A 
ATOM     85  C   UNL A   1      45.867  22.658  34.598  1.00  0.00     0.000 A 
ENDBRANCH  67  80
ENDBRANCH  41  42
ENDBRANCH  33  36
ENDBRANCH  31  32
ENDBRANCH  30  31
ENDBRANCH  29  30
ENDBRANCH   1  29
TORSDOF 17
ENDMDL
MODEL 3
REMARK VINA RESULT:     -12.0      3.703      8.610
REMARK SMILES Cc1ccc([C@@H](CC(=O)NCCCCNC(=O)c2ccc(-c3c4nc(c(-c5ccccc5)c5ccc([nH]5)c(-c5ccccc5)c5nc(c(-c6ccccc6)c6ccc3[nH]6)C=C5)C=C4)cc2)NC(=O)c2ccc(OC(F)F)cc2)cc1
REMARK SMILES IDX 11 1 10 2 8 3 9 4 7 6 6 7 5 8 1 9 2 10 3 11 80 12 4 13 79 14
REMARK SMILES IDX 66 15 67 16 68 18 69 19 70 20 78 21 71 22 77 23 72 24 73 25
REMARK SMILES IDX 74 26 75 27 76 28 12 29 13 30 14 31 15 32 16 33 17 35 18 36
REMARK SMILES IDX 19 37 65 38 20 39 64 40 21 41 22 42 23 43 58 44 24 45 63 46
REMARK SMILES IDX 57 47 59 48 25 49 62 50 56 51 55 52 26 54 48 55 33 56 47 57
REMARK SMILES IDX 34 58 37 59 46 60 60 61 35 62 36 63 45 65 61 66 38 67 27 68
REMARK SMILES IDX 28 69 32 70 29 71 31 72 30 73 49 74 50 75 54 76 51 77 53 78
REMARK SMILES IDX 52 79 39 80 40 81 44 82 41 83 43 84 42 85
REMARK H PARENT 10 5 66 17 15 34 59 53 37 64
REMARK Flexibility Score: inf
ROOT
ATOM      1  C   UNL A   1      34.695  23.134  26.895  1.00  0.00     0.116 C 
ENDROOT
BRANCH   1   2
ATOM      2  N   UNL A   1      33.269  23.010  27.174  1.00  0.00    -0.356 N 
ATOM      3  C   UNL A   1      32.186  23.716  26.750  1.00  0.00     0.222 C 
ATOM      4  O   UNL A   1      31.107  23.488  27.307  1.00  0.00    -0.275 OA
ATOM      5  H   UNL A   1      33.047  22.272  27.787  1.00  0.00     0.163 HD
BRANCH   3   6
ATOM      6  C   UNL A   1      32.246  24.688  25.591  1.00  0.00     0.129 C 
BRANCH   6   7
ATOM      7  C   UNL A   1      33.508  25.570  25.450  1.00  0.00     0.122 C 
BRANCH   7   8
ATOM      8  C   UNL A   1      33.260  26.915  26.134  1.00  0.00    -0.025 A 
ATOM      9  C   UNL A   1      32.124  30.967  27.078  1.00  0.00     0.044 C 
ATOM     10  C   UNL A   1      32.549  29.541  26.893  1.00  0.00    -0.051 A 
ATOM     11  C   UNL A   1      33.859  29.238  26.524  1.00  0.00     0.004 A 
ATOM     12  C   UNL A   1      31.622  28.503  26.998  1.00  0.00     0.004 A 
ATOM     13  C   UNL A   1      34.218  27.932  26.176  1.00  0.00     0.006 A 
ATOM     14  C   UNL A   1      31.974  27.203  26.626  1.00  0.00     0.006 A 
ENDBRANCH   7   8
BRANCH   7  15
ATOM     15  N   UNL A   1      34.003  25.712  24.083  1.00  0.00    -0.345 N 
ATOM     16  C   UNL A   1      33.364  26.169  22.958  1.00  0.00     0.251 C 
ATOM     17  H   UNL A   1      34.938  25.436  23.948  1.00  0.00     0.164 HD
ATOM     18  O   UNL A   1      33.788  25.847  21.850  1.00  0.00    -0.269 OA
BRANCH  16  19
ATOM     19  C   UNL A   1      32.193  27.068  23.054  1.00  0.00     0.040 A 
ATOM     20  C   UNL A   1      32.390  28.452  23.076  1.00  0.00     0.017 A 
ATOM     21  C   UNL A   1      30.911  26.552  23.256  1.00  0.00     0.017 A 
ATOM     22  C   UNL A   1      31.297  29.308  23.245  1.00  0.00     0.047 A 
ATOM     23  C   UNL A   1      29.819  27.412  23.408  1.00  0.00     0.047 A 
ATOM     24  C   UNL A   1      30.003  28.796  23.399  1.00  0.00     0.126 A 
BRANCH  24  25
ATOM     25  O   UNL A   1      29.028  29.739  23.557  1.00  0.00    -0.435 OA
BRANCH  25  26
ATOM     26  C   UNL A   1      28.080  29.904  22.510  1.00  0.00     0.542 C 
ATOM     27  F   UNL A   1      28.665  29.661  21.312  1.00  0.00    -0.167 F 
ATOM     28  F   UNL A   1      27.054  29.033  22.667  1.00  0.00    -0.167 F 
ENDBRANCH  25  26
ENDBRANCH  24  25
ENDBRANCH  16  19
ENDBRANCH   7  15
ENDBRANCH   6   7
ENDBRANCH   3   6
ENDBRANCH   1   2
BRANCH   1  29
ATOM     29  C   UNL A   1      35.076  22.321  25.649  1.00  0.00     0.023 C 
BRANCH  29  30
ATOM     30  C   UNL A   1      36.464  22.490  25.019  1.00  0.00     0.023 C 
BRANCH  30  31
ATOM     31  C   UNL A   1      37.489  23.370  25.731  1.00  0.00     0.116 C 
BRANCH  31  32
ATOM     32  N   UNL A   1      38.545  22.653  26.462  1.00  0.00    -0.352 N 
ATOM     33  C   UNL A   1      39.768  23.145  26.899  1.00  0.00     0.251 C 
ATOM     34  H   UNL A   1      38.362  21.707  26.668  1.00  0.00     0.163 HD
ATOM     35  O   UNL A   1      40.716  22.397  27.139  1.00  0.00    -0.269 OA
BRANCH  33  36
ATOM     36  C   UNL A   1      39.900  24.593  27.132  1.00  0.00     0.039 A 
ATOM     37  C   UNL A   1      40.388  25.520  26.199  1.00  0.00     0.014 A 
ATOM     38  C   UNL A   1      39.525  25.010  28.396  1.00  0.00     0.014 A 
ATOM     39  C   UNL A   1      40.462  26.873  26.559  1.00  0.00     0.010 A 
ATOM     40  C   UNL A   1      39.324  26.330  28.638  1.00  0.00     0.010 A 
ATOM     41  C   UNL A   1      39.931  27.258  27.791  1.00  0.00    -0.014 A 
BRANCH  41  42
ATOM     42  C   UNL A   1      40.133  28.515  28.494  1.00  0.00     0.031 A 
ATOM     43  C   UNL A   1      39.070  29.492  28.708  1.00  0.00     0.074 A 
ATOM     44  C   UNL A   1      41.238  28.511  29.276  1.00  0.00     0.049 A 
ATOM     45  N   UNL A   1      39.276  30.657  29.213  1.00  0.00    -0.248 NA
ATOM     46  C   UNL A   1      37.674  29.233  28.387  1.00  0.00     0.031 C 
ATOM     47  C   UNL A   1      41.526  29.224  30.510  1.00  0.00     0.029 A 
ATOM     48  N   UNL A   1      42.387  27.766  29.072  1.00  0.00    -0.354 N 
ATOM     49  C   UNL A   1      38.055  31.145  29.608  1.00  0.00     0.074 A 
ATOM     50  C   UNL A   1      37.085  30.292  28.956  1.00  0.00     0.031 C 
ATOM     51  C   UNL A   1      42.834  29.065  30.800  1.00  0.00     0.029 A 
ATOM     52  C   UNL A   1      43.464  28.414  29.659  1.00  0.00     0.049 A 
ATOM     53  H   UNL A   1      42.432  26.912  28.585  1.00  0.00     0.167 HD
ATOM     54  C   UNL A   1      38.013  32.116  30.565  1.00  0.00     0.031 A 
ATOM     55  C   UNL A   1      44.363  28.993  28.799  1.00  0.00     0.031 A 
ATOM     56  C   UNL A   1      39.362  32.489  31.018  1.00  0.00     0.049 A 
ATOM     57  C   UNL A   1      44.257  30.511  28.783  1.00  0.00     0.074 A 
ATOM     58  C   UNL A   1      40.111  32.228  32.156  1.00  0.00     0.029 A 
ATOM     59  N   UNL A   1      40.262  32.971  30.082  1.00  0.00    -0.354 N 
ATOM     60  N   UNL A   1      43.417  31.200  29.507  1.00  0.00    -0.248 NA
ATOM     61  C   UNL A   1      45.037  31.366  27.889  1.00  0.00     0.031 C 
ATOM     62  C   UNL A   1      41.480  32.527  31.865  1.00  0.00     0.029 A 
ATOM     63  C   UNL A   1      41.556  33.002  30.569  1.00  0.00     0.049 A 
ATOM     64  H   UNL A   1      40.010  33.260  29.175  1.00  0.00     0.167 HD
ATOM     65  C   UNL A   1      43.465  32.515  29.156  1.00  0.00     0.074 A 
ATOM     66  C   UNL A   1      44.512  32.577  28.150  1.00  0.00     0.031 C 
ATOM     67  C   UNL A   1      42.617  33.451  29.676  1.00  0.00     0.031 A 
BRANCH  54  68
ATOM     68  C   UNL A   1      36.751  32.581  31.253  1.00  0.00    -0.014 A 
ATOM     69  C   UNL A   1      36.569  32.324  32.625  1.00  0.00     0.009 A 
ATOM     70  C   UNL A   1      35.708  33.278  30.619  1.00  0.00     0.009 A 
ATOM     71  C   UNL A   1      35.392  32.678  33.300  1.00  0.00     0.001 A 
ATOM     72  C   UNL A   1      34.513  33.605  31.277  1.00  0.00     0.001 A 
ATOM     73  C   UNL A   1      34.354  33.301  32.621  1.00  0.00     0.000 A 
ENDBRANCH  54  68
BRANCH  55  74
ATOM     74  C   UNL A   1      44.583  28.128  27.581  1.00  0.00    -0.014 A 
ATOM     75  C   UNL A   1      45.048  26.810  27.793  1.00  0.00     0.009 A 
ATOM     76  C   UNL A   1      43.912  28.404  26.376  1.00  0.00     0.009 A 
ATOM     77  C   UNL A   1      44.710  25.775  26.911  1.00  0.00     0.001 A 
ATOM     78  C   UNL A   1      43.594  27.365  25.487  1.00  0.00     0.001 A 
ATOM     79  C   UNL A   1      43.954  26.049  25.776  1.00  0.00     0.000 A 
ENDBRANCH  55  74
BRANCH  67  80
ATOM     80  C   UNL A   1      42.709  34.906  29.318  1.00  0.00    -0.014 A 
ATOM     81  C   UNL A   1      42.065  35.433  28.192  1.00  0.00     0.009 A 
ATOM     82  C   UNL A   1      43.550  35.772  30.043  1.00  0.00     0.009 A 
ATOM     83  C   UNL A   1      42.189  36.784  27.856  1.00  0.00     0.001 A 
ATOM     84  C   UNL A   1      43.700  37.115  29.695  1.00  0.00     0.001 A 
ATOM     85  C   UNL A   1      43.004  37.625  28.610  1.00  0.00     0.000 A 
ENDBRANCH  67  80
ENDBRANCH  41  42
ENDBRANCH  33  36
ENDBRANCH  31  32
ENDBRANCH  30  31
ENDBRANCH  29  30
ENDBRANCH   1  29
TORSDOF 17
ENDMDL
