MODEL 1
REMARK VINA RESULT:     -10.6      0.000      0.000
REMARK SMILES Cc1ccsc1/C=C/C(=O)NC[C@H](CC(C)C)C(=O)NCCCCNC(=O)c1ccc(-c2c3nc(c(-c4ccccc4)c4ccc([nH]4)c(-c4ccccc4)c4nc(c(-c5ccccc5)c5ccc2[nH]5)C=C4)C=C3)cc1
REMARK SMILES IDX 21 1 20 2 18 3 19 4 13 6 12 7 11 8 9 9 10 10 8 12 7 13 6 14
REMARK SMILES IDX 1 15 2 16 3 17 4 18 5 19 14 20 15 21 16 22 17 23 22 24 23 25
REMARK SMILES IDX 24 26 25 27 26 28 27 30 28 31 29 32 75 33 30 34 74 35 31 36
REMARK SMILES IDX 32 37 33 38 68 39 34 40 73 41 67 42 69 43 35 44 72 45 66 46
REMARK SMILES IDX 65 47 36 49 58 50 43 51 57 52 44 53 47 54 56 55 70 56 45 57
REMARK SMILES IDX 46 58 55 60 71 61 48 62 37 63 38 64 42 65 39 66 41 67 40 68
REMARK SMILES IDX 59 69 60 70 64 71 61 72 63 73 62 74 49 75 50 76 54 77 51 78
REMARK SMILES IDX 53 79 52 80
REMARK H PARENT 20 5 11 11 25 29 69 48 47 59
REMARK Flexibility Score: inf
ROOT
ATOM      1  C   UNL A   1      35.704  22.636  24.841  1.00  0.00     0.116 C 
ENDROOT
BRANCH   1   2
ATOM      2  N   UNL A   1      34.591  21.729  24.656  1.00  0.00    -0.356 N 
ATOM      3  C   UNL A   1      33.319  21.907  24.220  1.00  0.00     0.224 C 
ATOM      4  O   UNL A   1      32.629  20.884  24.147  1.00  0.00    -0.275 OA
ATOM      5  H   UNL A   1      34.799  20.798  24.894  1.00  0.00     0.163 HD
BRANCH   3   6
ATOM      6  C   UNL A   1      32.690  23.256  23.855  1.00  0.00     0.098 C 
BRANCH   6   7
ATOM      7  C   UNL A   1      31.173  23.353  23.993  1.00  0.00     0.129 C 
BRANCH   7   8
ATOM      8  N   UNL A   1      30.634  23.027  25.296  1.00  0.00    -0.352 N 
ATOM      9  C   UNL A   1      30.533  23.810  26.405  1.00  0.00     0.244 C 
ATOM     10  O   UNL A   1      30.042  23.325  27.423  1.00  0.00    -0.270 OA
ATOM     11  H   UNL A   1      30.292  22.109  25.394  1.00  0.00     0.163 HD
BRANCH   9  12
ATOM     12  C   UNL A   1      31.045  25.214  26.471  1.00  0.00     0.072 C 
ATOM     13  C   UNL A   1      30.665  26.306  25.786  1.00  0.00     0.025 C 
BRANCH  13  14
ATOM     14  C   UNL A   1      31.221  27.617  25.978  1.00  0.00     0.030 A 
ATOM     15  C   UNL A   1      30.988  28.560  23.591  1.00  0.00     0.046 C 
ATOM     16  C   UNL A   1      31.350  28.644  25.038  1.00  0.00    -0.033 A 
ATOM     17  C   UNL A   1      31.896  29.839  25.611  1.00  0.00     0.016 A 
ATOM     18  C   UNL A   1      32.168  29.707  26.949  1.00  0.00     0.066 A 
ATOM     19  S   UNL A   1      31.774  28.156  27.524  1.00  0.00    -0.144 S 
ENDBRANCH  13  14
ENDBRANCH   9  12
ENDBRANCH   7   8
ENDBRANCH   6   7
BRANCH   6  20
ATOM     20  C   UNL A   1      33.273  23.881  22.560  1.00  0.00     0.018 C 
BRANCH  20  21
ATOM     21  C   UNL A   1      33.798  25.331  22.524  1.00  0.00    -0.017 C 
ATOM     22  C   UNL A   1      33.000  26.302  21.667  1.00  0.00     0.007 C 
ATOM     23  C   UNL A   1      33.873  25.901  23.945  1.00  0.00     0.007 C 
ENDBRANCH  20  21
ENDBRANCH   6  20
ENDBRANCH   3   6
ENDBRANCH   1   2
BRANCH   1  24
ATOM     24  C   UNL A   1      37.009  22.076  24.279  1.00  0.00     0.023 C 
BRANCH  24  25
ATOM     25  C   UNL A   1      37.520  20.799  24.923  1.00  0.00     0.023 C 
BRANCH  25  26
ATOM     26  C   UNL A   1      38.802  20.941  25.724  1.00  0.00     0.116 C 
BRANCH  26  27
ATOM     27  N   UNL A   1      39.699  19.794  25.646  1.00  0.00    -0.352 N 
ATOM     28  C   UNL A   1      41.026  19.736  26.016  1.00  0.00     0.251 C 
ATOM     29  H   UNL A   1      39.312  18.964  25.286  1.00  0.00     0.163 HD
ATOM     30  O   UNL A   1      41.686  18.717  25.848  1.00  0.00    -0.269 OA
BRANCH  28  31
ATOM     31  C   UNL A   1      41.651  20.956  26.565  1.00  0.00     0.039 A 
ATOM     32  C   UNL A   1      42.155  21.914  25.684  1.00  0.00     0.014 A 
ATOM     33  C   UNL A   1      41.600  21.204  27.938  1.00  0.00     0.014 A 
ATOM     34  C   UNL A   1      42.516  23.169  26.175  1.00  0.00     0.010 A 
ATOM     35  C   UNL A   1      41.862  22.484  28.406  1.00  0.00     0.010 A 
ATOM     36  C   UNL A   1      42.319  23.480  27.530  1.00  0.00    -0.014 A 
BRANCH  36  37
ATOM     37  C   UNL A   1      42.588  24.839  28.063  1.00  0.00     0.031 A 
ATOM     38  C   UNL A   1      43.980  25.208  28.496  1.00  0.00     0.074 A 
ATOM     39  C   UNL A   1      41.573  25.710  28.236  1.00  0.00     0.049 A 
ATOM     40  N   UNL A   1      44.405  26.307  29.064  1.00  0.00    -0.248 NA
ATOM     41  C   UNL A   1      45.025  24.190  28.297  1.00  0.00     0.031 C 
ATOM     42  C   UNL A   1      40.168  25.459  27.909  1.00  0.00     0.029 A 
ATOM     43  N   UNL A   1      41.571  26.988  28.738  1.00  0.00    -0.354 N 
ATOM     44  C   UNL A   1      45.756  26.100  29.312  1.00  0.00     0.074 A 
ATOM     45  C   UNL A   1      46.065  24.752  28.892  1.00  0.00     0.031 C 
ATOM     46  C   UNL A   1      39.449  26.561  28.179  1.00  0.00     0.029 A 
ATOM     47  C   UNL A   1      40.332  27.580  28.735  1.00  0.00     0.049 A 
ATOM     48  H   UNL A   1      42.383  27.437  29.068  1.00  0.00     0.167 HD
ATOM     49  C   UNL A   1      46.666  26.962  29.820  1.00  0.00     0.031 A 
ATOM     50  C   UNL A   1      39.953  28.809  29.134  1.00  0.00     0.031 A 
ATOM     51  C   UNL A   1      46.369  28.311  30.212  1.00  0.00     0.049 A 
ATOM     52  C   UNL A   1      40.984  29.753  29.685  1.00  0.00     0.074 A 
ATOM     53  C   UNL A   1      47.233  29.286  30.677  1.00  0.00     0.029 A 
ATOM     54  N   UNL A   1      45.104  28.878  30.175  1.00  0.00    -0.354 N 
ATOM     55  N   UNL A   1      42.270  29.564  29.854  1.00  0.00    -0.248 NA
ATOM     56  C   UNL A   1      40.510  31.084  30.091  1.00  0.00     0.031 C 
ATOM     57  C   UNL A   1      46.485  30.434  30.959  1.00  0.00     0.029 A 
ATOM     58  C   UNL A   1      45.163  30.186  30.624  1.00  0.00     0.049 A 
ATOM     59  H   UNL A   1      44.287  28.419  29.874  1.00  0.00     0.167 HD
ATOM     60  C   UNL A   1      42.765  30.759  30.359  1.00  0.00     0.074 A 
ATOM     61  C   UNL A   1      41.642  31.670  30.457  1.00  0.00     0.031 C 
ATOM     62  C   UNL A   1      44.034  31.076  30.710  1.00  0.00     0.031 A 
BRANCH  49  63
ATOM     63  C   UNL A   1      48.075  26.459  29.971  1.00  0.00    -0.014 A 
ATOM     64  C   UNL A   1      49.007  26.591  28.929  1.00  0.00     0.009 A 
ATOM     65  C   UNL A   1      48.475  25.847  31.168  1.00  0.00     0.009 A 
ATOM     66  C   UNL A   1      50.299  26.081  29.067  1.00  0.00     0.001 A 
ATOM     67  C   UNL A   1      49.777  25.363  31.313  1.00  0.00     0.001 A 
ATOM     68  C   UNL A   1      50.683  25.470  30.259  1.00  0.00     0.000 A 
ENDBRANCH  49  63
BRANCH  50  69
ATOM     69  C   UNL A   1      38.536  29.236  28.992  1.00  0.00    -0.014 A 
ATOM     70  C   UNL A   1      38.069  29.738  27.767  1.00  0.00     0.009 A 
ATOM     71  C   UNL A   1      37.648  29.156  30.076  1.00  0.00     0.009 A 
ATOM     72  C   UNL A   1      36.749  30.174  27.637  1.00  0.00     0.001 A 
ATOM     73  C   UNL A   1      36.322  29.570  29.934  1.00  0.00     0.001 A 
ATOM     74  C   UNL A   1      35.875  30.086  28.719  1.00  0.00     0.000 A 
ENDBRANCH  50  69
BRANCH  62  75
ATOM     75  C   UNL A   1      44.282  32.474  31.197  1.00  0.00    -0.014 A 
ATOM     76  C   UNL A   1      44.582  33.513  30.304  1.00  0.00     0.009 A 
ATOM     77  C   UNL A   1      44.168  32.761  32.566  1.00  0.00     0.009 A 
ATOM     78  C   UNL A   1      44.793  34.809  30.777  1.00  0.00     0.001 A 
ATOM     79  C   UNL A   1      44.354  34.063  33.033  1.00  0.00     0.001 A 
ATOM     80  C   UNL A   1      44.674  35.083  32.139  1.00  0.00     0.000 A 
ENDBRANCH  62  75
ENDBRANCH  36  37
ENDBRANCH  28  31
ENDBRANCH  26  27
ENDBRANCH  25  26
ENDBRANCH  24  25
ENDBRANCH   1  24
TORSDOF 17
ENDMDL
MODEL 2
REMARK VINA RESULT:     -10.5      3.202      8.203
REMARK SMILES Cc1ccsc1/C=C/C(=O)NC[C@H](CC(C)C)C(=O)NCCCCNC(=O)c1ccc(-c2c3nc(c(-c4ccccc4)c4ccc([nH]4)c(-c4ccccc4)c4nc(c(-c5ccccc5)c5ccc2[nH]5)C=C4)C=C3)cc1
REMARK SMILES IDX 21 1 20 2 18 3 19 4 13 6 12 7 11 8 9 9 10 10 8 12 7 13 6 14
REMARK SMILES IDX 1 15 2 16 3 17 4 18 5 19 14 20 15 21 16 22 17 23 22 24 23 25
REMARK SMILES IDX 24 26 25 27 26 28 27 30 28 31 29 32 75 33 30 34 74 35 31 36
REMARK SMILES IDX 32 37 33 38 68 39 34 40 73 41 67 42 69 43 35 44 72 45 66 46
REMARK SMILES IDX 65 47 36 49 58 50 43 51 57 52 44 53 47 54 56 55 70 56 45 57
REMARK SMILES IDX 46 58 55 60 71 61 48 62 37 63 38 64 42 65 39 66 41 67 40 68
REMARK SMILES IDX 59 69 60 70 64 71 61 72 63 73 62 74 49 75 50 76 54 77 51 78
REMARK SMILES IDX 53 79 52 80
REMARK H PARENT 20 5 11 11 25 29 69 48 47 59
REMARK Flexibility Score: inf
ROOT
ATOM      1  C   UNL A   1      33.466  27.982  25.999  1.00  0.00     0.116 C 
ENDROOT
BRANCH   1   2
ATOM      2  N   UNL A   1      32.347  27.150  26.385  1.00  0.00    -0.356 N 
ATOM      3  C   UNL A   1      32.073  25.834  26.211  1.00  0.00     0.224 C 
ATOM      4  O   UNL A   1      31.017  25.434  26.715  1.00  0.00    -0.275 OA
ATOM      5  H   UNL A   1      31.644  27.638  26.872  1.00  0.00     0.163 HD
BRANCH   3   6
ATOM      6  C   UNL A   1      32.942  24.846  25.426  1.00  0.00     0.098 C 
BRANCH   6   7
ATOM      7  C   UNL A   1      32.420  24.429  24.054  1.00  0.00     0.129 C 
BRANCH   7   8
ATOM      8  N   UNL A   1      33.132  24.966  22.915  1.00  0.00    -0.352 N 
ATOM      9  C   UNL A   1      32.761  25.956  22.058  1.00  0.00     0.244 C 
ATOM     10  O   UNL A   1      33.524  26.255  21.140  1.00  0.00    -0.270 OA
ATOM     11  H   UNL A   1      34.010  24.557  22.734  1.00  0.00     0.163 HD
BRANCH   9  12
ATOM     12  C   UNL A   1      31.443  26.660  22.135  1.00  0.00     0.072 C 
ATOM     13  C   UNL A   1      31.119  27.825  22.722  1.00  0.00     0.025 C 
BRANCH  13  14
ATOM     14  C   UNL A   1      29.808  28.413  22.685  1.00  0.00     0.030 A 
ATOM     15  C   UNL A   1      28.464  26.593  23.919  1.00  0.00     0.046 C 
ATOM     16  C   UNL A   1      28.623  27.908  23.230  1.00  0.00    -0.033 A 
ATOM     17  C   UNL A   1      27.519  28.805  23.051  1.00  0.00     0.016 A 
ATOM     18  C   UNL A   1      27.872  29.952  22.388  1.00  0.00     0.066 A 
ATOM     19  S   UNL A   1      29.522  29.962  21.976  1.00  0.00    -0.144 S 
ENDBRANCH  13  14
ENDBRANCH   9  12
ENDBRANCH   7   8
ENDBRANCH   6   7
BRANCH   6  20
ATOM     20  C   UNL A   1      33.505  23.689  26.294  1.00  0.00     0.018 C 
BRANCH  20  21
ATOM     21  C   UNL A   1      34.876  23.047  26.001  1.00  0.00    -0.017 C 
ATOM     22  C   UNL A   1      34.886  21.972  24.926  1.00  0.00     0.007 C 
ATOM     23  C   UNL A   1      35.891  24.126  25.605  1.00  0.00     0.007 C 
ENDBRANCH  20  21
ENDBRANCH   6  20
ENDBRANCH   3   6
ENDBRANCH   1   2
BRANCH   1  24
ATOM     24  C   UNL A   1      33.021  29.317  25.404  1.00  0.00     0.023 C 
BRANCH  24  25
ATOM     25  C   UNL A   1      32.227  30.227  26.326  1.00  0.00     0.023 C 
BRANCH  25  26
ATOM     26  C   UNL A   1      33.055  31.161  27.191  1.00  0.00     0.116 C 
BRANCH  26  27
ATOM     27  N   UNL A   1      32.483  32.489  27.373  1.00  0.00    -0.352 N 
ATOM     28  C   UNL A   1      33.032  33.557  28.052  1.00  0.00     0.251 C 
ATOM     29  H   UNL A   1      31.600  32.641  26.964  1.00  0.00     0.163 HD
ATOM     30  O   UNL A   1      32.419  34.610  28.176  1.00  0.00    -0.269 OA
BRANCH  28  31
ATOM     31  C   UNL A   1      34.356  33.378  28.679  1.00  0.00     0.039 A 
ATOM     32  C   UNL A   1      34.440  32.726  29.910  1.00  0.00     0.014 A 
ATOM     33  C   UNL A   1      35.511  33.727  27.975  1.00  0.00     0.014 A 
ATOM     34  C   UNL A   1      35.690  32.331  30.389  1.00  0.00     0.010 A 
ATOM     35  C   UNL A   1      36.738  33.244  28.403  1.00  0.00     0.010 A 
ATOM     36  C   UNL A   1      36.841  32.538  29.612  1.00  0.00    -0.014 A 
BRANCH  36  37
ATOM     37  C   UNL A   1      38.169  32.033  30.040  1.00  0.00     0.031 A 
ATOM     38  C   UNL A   1      38.668  30.714  29.518  1.00  0.00     0.074 A 
ATOM     39  C   UNL A   1      38.887  32.712  30.957  1.00  0.00     0.049 A 
ATOM     40  N   UNL A   1      39.756  30.059  29.832  1.00  0.00    -0.248 NA
ATOM     41  C   UNL A   1      37.811  30.023  28.540  1.00  0.00     0.031 C 
ATOM     42  C   UNL A   1      38.493  33.976  31.584  1.00  0.00     0.029 A 
ATOM     43  N   UNL A   1      40.104  32.428  31.525  1.00  0.00    -0.354 N 
ATOM     44  C   UNL A   1      39.698  28.872  29.113  1.00  0.00     0.074 A 
ATOM     45  C   UNL A   1      38.443  28.869  28.396  1.00  0.00     0.031 C 
ATOM     46  C   UNL A   1      39.468  34.377  32.417  1.00  0.00     0.029 A 
ATOM     47  C   UNL A   1      40.535  33.382  32.414  1.00  0.00     0.049 A 
ATOM     48  H   UNL A   1      40.620  31.616  31.313  1.00  0.00     0.167 HD
ATOM     49  C   UNL A   1      40.618  27.883  29.032  1.00  0.00     0.031 A 
ATOM     50  C   UNL A   1      41.666  33.448  33.142  1.00  0.00     0.031 A 
ATOM     51  C   UNL A   1      41.878  27.897  29.720  1.00  0.00     0.049 A 
ATOM     52  C   UNL A   1      42.678  32.343  33.028  1.00  0.00     0.074 A 
ATOM     53  C   UNL A   1      42.908  26.974  29.654  1.00  0.00     0.029 A 
ATOM     54  N   UNL A   1      42.284  28.891  30.596  1.00  0.00    -0.354 N 
ATOM     55  N   UNL A   1      42.637  31.258  32.293  1.00  0.00    -0.248 NA
ATOM     56  C   UNL A   1      43.897  32.479  33.837  1.00  0.00     0.031 C 
ATOM     57  C   UNL A   1      43.922  27.392  30.521  1.00  0.00     0.029 A 
ATOM     58  C   UNL A   1      43.543  28.598  31.089  1.00  0.00     0.049 A 
ATOM     59  H   UNL A   1      41.755  29.688  30.831  1.00  0.00     0.167 HD
ATOM     60  C   UNL A   1      43.834  30.595  32.530  1.00  0.00     0.074 A 
ATOM     61  C   UNL A   1      44.584  31.407  33.466  1.00  0.00     0.031 C 
ATOM     62  C   UNL A   1      44.273  29.421  32.018  1.00  0.00     0.031 A 
BRANCH  49  63
ATOM     63  C   UNL A   1      40.282  26.707  28.158  1.00  0.00    -0.014 A 
ATOM     64  C   UNL A   1      39.484  25.654  28.634  1.00  0.00     0.009 A 
ATOM     65  C   UNL A   1      40.768  26.652  26.844  1.00  0.00     0.009 A 
ATOM     66  C   UNL A   1      39.216  24.548  27.826  1.00  0.00     0.001 A 
ATOM     67  C   UNL A   1      40.474  25.557  26.028  1.00  0.00     0.001 A 
ATOM     68  C   UNL A   1      39.709  24.502  26.523  1.00  0.00     0.000 A 
ENDBRANCH  49  63
BRANCH  50  69
ATOM     69  C   UNL A   1      41.924  34.622  34.017  1.00  0.00    -0.014 A 
ATOM     70  C   UNL A   1      41.526  34.600  35.363  1.00  0.00     0.009 A 
ATOM     71  C   UNL A   1      42.557  35.769  33.514  1.00  0.00     0.009 A 
ATOM     72  C   UNL A   1      41.733  35.712  36.181  1.00  0.00     0.001 A 
ATOM     73  C   UNL A   1      42.785  36.870  34.343  1.00  0.00     0.001 A 
ATOM     74  C   UNL A   1      42.366  36.845  35.672  1.00  0.00     0.000 A 
ENDBRANCH  50  69
BRANCH  62  75
ATOM     75  C   UNL A   1      45.642  28.963  32.432  1.00  0.00    -0.014 A 
ATOM     76  C   UNL A   1      45.824  28.134  33.549  1.00  0.00     0.009 A 
ATOM     77  C   UNL A   1      46.757  29.329  31.663  1.00  0.00     0.009 A 
ATOM     78  C   UNL A   1      47.105  27.707  33.907  1.00  0.00     0.001 A 
ATOM     79  C   UNL A   1      48.032  28.879  32.008  1.00  0.00     0.001 A 
ATOM     80  C   UNL A   1      48.205  28.075  33.133  1.00  0.00     0.000 A 
ENDBRANCH  62  75
ENDBRANCH  36  37
ENDBRANCH  28  31
ENDBRANCH  26  27
ENDBRANCH  25  26
ENDBRANCH  24  25
ENDBRANCH   1  24
TORSDOF 17
ENDMDL
MODEL 3
REMARK VINA RESULT:     -10.5      3.232      8.312
REMARK SMILES Cc1ccsc1/C=C/C(=O)NC[C@H](CC(C)C)C(=O)NCCCCNC(=O)c1ccc(-c2c3nc(c(-c4ccccc4)c4ccc([nH]4)c(-c4ccccc4)c4nc(c(-c5ccccc5)c5ccc2[nH]5)C=C4)C=C3)cc1
REMARK SMILES IDX 21 1 20 2 18 3 19 4 13 6 12 7 11 8 9 9 10 10 8 12 7 13 6 14
REMARK SMILES IDX 1 15 2 16 3 17 4 18 5 19 14 20 15 21 16 22 17 23 22 24 23 25
REMARK SMILES IDX 24 26 25 27 26 28 27 30 28 31 29 32 75 33 30 34 74 35 31 36
REMARK SMILES IDX 32 37 33 38 68 39 34 40 73 41 67 42 69 43 35 44 72 45 66 46
REMARK SMILES IDX 65 47 36 49 58 50 43 51 57 52 44 53 47 54 56 55 70 56 45 57
REMARK SMILES IDX 46 58 55 60 71 61 48 62 37 63 38 64 42 65 39 66 41 67 40 68
REMARK SMILES IDX 59 69 60 70 64 71 61 72 63 73 62 74 49 75 50 76 54 77 51 78
REMARK SMILES IDX 53 79 52 80
REMARK H PARENT 20 5 11 11 25 29 69 48 47 59
REMARK Flexibility Score: inf
ROOT
ATOM      1  C   UNL A   1      32.220  28.209  27.394  1.00  0.00     0.116 C 
ENDROOT
BRANCH   1   2
ATOM      2  N   UNL A   1      31.568  27.063  26.797  1.00  0.00    -0.356 N 
ATOM      3  C   UNL A   1      32.007  26.078  25.975  1.00  0.00     0.224 C 
ATOM      4  O   UNL A   1      31.173  25.213  25.682  1.00  0.00    -0.275 OA
ATOM      5  H   UNL A   1      30.617  26.982  27.036  1.00  0.00     0.163 HD
BRANCH   3   6
ATOM      6  C   UNL A   1      33.415  25.986  25.377  1.00  0.00     0.098 C 
BRANCH   6   7
ATOM      7  C   UNL A   1      33.700  26.889  24.180  1.00  0.00     0.129 C 
BRANCH   7   8
ATOM      8  N   UNL A   1      33.761  26.232  22.892  1.00  0.00    -0.352 N 
ATOM      9  C   UNL A   1      32.837  26.212  21.893  1.00  0.00     0.244 C 
ATOM     10  O   UNL A   1      33.093  25.577  20.870  1.00  0.00    -0.270 OA
ATOM     11  H   UNL A   1      34.588  25.728  22.713  1.00  0.00     0.163 HD
BRANCH   9  12
ATOM     12  C   UNL A   1      31.499  26.871  21.996  1.00  0.00     0.072 C 
ATOM     13  C   UNL A   1      31.122  27.958  22.690  1.00  0.00     0.025 C 
BRANCH  13  14
ATOM     14  C   UNL A   1      29.797  28.513  22.669  1.00  0.00     0.030 A 
ATOM     15  C   UNL A   1      28.506  26.646  23.889  1.00  0.00     0.046 C 
ATOM     16  C   UNL A   1      28.627  27.973  23.215  1.00  0.00    -0.033 A 
ATOM     17  C   UNL A   1      27.501  28.844  23.053  1.00  0.00     0.016 A 
ATOM     18  C   UNL A   1      27.821  30.008  22.402  1.00  0.00     0.066 A 
ATOM     19  S   UNL A   1      29.467  30.064  21.980  1.00  0.00    -0.144 S 
ENDBRANCH  13  14
ENDBRANCH   9  12
ENDBRANCH   7   8
ENDBRANCH   6   7
BRANCH   6  20
ATOM     20  C   UNL A   1      33.937  24.531  25.243  1.00  0.00     0.018 C 
BRANCH  20  21
ATOM     21  C   UNL A   1      35.434  24.223  25.029  1.00  0.00    -0.017 C 
ATOM     22  C   UNL A   1      36.119  23.465  26.155  1.00  0.00     0.007 C 
ATOM     23  C   UNL A   1      35.630  23.430  23.732  1.00  0.00     0.007 C 
ENDBRANCH  20  21
ENDBRANCH   6  20
ENDBRANCH   3   6
ENDBRANCH   1   2
BRANCH   1  24
ATOM     24  C   UNL A   1      32.390  29.362  26.406  1.00  0.00     0.023 C 
BRANCH  24  25
ATOM     25  C   UNL A   1      31.893  30.720  26.872  1.00  0.00     0.023 C 
BRANCH  25  26
ATOM     26  C   UNL A   1      32.977  31.722  27.226  1.00  0.00     0.116 C 
BRANCH  26  27
ATOM     27  N   UNL A   1      32.489  33.059  27.543  1.00  0.00    -0.352 N 
ATOM     28  C   UNL A   1      33.111  34.022  28.310  1.00  0.00     0.251 C 
ATOM     29  H   UNL A   1      31.613  33.303  27.166  1.00  0.00     0.163 HD
ATOM     30  O   UNL A   1      32.565  35.094  28.545  1.00  0.00    -0.269 OA
BRANCH  28  31
ATOM     31  C   UNL A   1      34.429  33.705  28.895  1.00  0.00     0.039 A 
ATOM     32  C   UNL A   1      34.484  32.997  30.097  1.00  0.00     0.014 A 
ATOM     33  C   UNL A   1      35.592  33.984  28.175  1.00  0.00     0.014 A 
ATOM     34  C   UNL A   1      35.706  32.478  30.527  1.00  0.00     0.010 A 
ATOM     35  C   UNL A   1      36.783  33.380  28.551  1.00  0.00     0.010 A 
ATOM     36  C   UNL A   1      36.853  32.618  29.728  1.00  0.00    -0.014 A 
BRANCH  36  37
ATOM     37  C   UNL A   1      38.142  31.984  30.101  1.00  0.00     0.031 A 
ATOM     38  C   UNL A   1      39.088  32.704  31.020  1.00  0.00     0.074 A 
ATOM     39  C   UNL A   1      38.499  30.806  29.551  1.00  0.00     0.049 A 
ATOM     40  N   UNL A   1      40.293  32.363  31.399  1.00  0.00    -0.248 NA
ATOM     41  C   UNL A   1      38.633  33.998  31.556  1.00  0.00     0.031 C 
ATOM     42  C   UNL A   1      37.697  30.029  28.602  1.00  0.00     0.029 A 
ATOM     43  N   UNL A   1      39.637  30.056  29.711  1.00  0.00    -0.354 N 
ATOM     44  C   UNL A   1      40.745  33.410  32.191  1.00  0.00     0.074 A 
ATOM     45  C   UNL A   1      39.714  34.423  32.190  1.00  0.00     0.031 C 
ATOM     46  C   UNL A   1      38.351  28.895  28.298  1.00  0.00     0.029 A 
ATOM     47  C   UNL A   1      39.632  28.883  28.997  1.00  0.00     0.049 A 
ATOM     48  H   UNL A   1      40.388  30.334  30.286  1.00  0.00     0.167 HD
ATOM     49  C   UNL A   1      41.904  33.512  32.882  1.00  0.00     0.031 A 
ATOM     50  C   UNL A   1      40.556  27.907  28.917  1.00  0.00     0.031 A 
ATOM     51  C   UNL A   1      42.918  32.495  32.910  1.00  0.00     0.049 A 
ATOM     52  C   UNL A   1      41.831  28.036  29.702  1.00  0.00     0.074 A 
ATOM     53  C   UNL A   1      44.099  32.472  33.630  1.00  0.00     0.029 A 
ATOM     54  N   UNL A   1      42.864  31.313  32.187  1.00  0.00    -0.354 N 
ATOM     55  N   UNL A   1      42.215  29.004  30.498  1.00  0.00    -0.248 NA
ATOM     56  C   UNL A   1      42.793  26.932  29.584  1.00  0.00     0.031 C 
ATOM     57  C   UNL A   1      44.780  31.292  33.314  1.00  0.00     0.029 A 
ATOM     58  C   UNL A   1      43.999  30.560  32.433  1.00  0.00     0.049 A 
ATOM     59  H   UNL A   1      42.129  31.049  31.589  1.00  0.00     0.167 HD
ATOM     60  C   UNL A   1      43.451  28.614  30.997  1.00  0.00     0.074 A 
ATOM     61  C   UNL A   1      43.745  27.317  30.424  1.00  0.00     0.031 C 
ATOM     62  C   UNL A   1      44.270  29.270  31.854  1.00  0.00     0.031 A 
BRANCH  49  63
ATOM     63  C   UNL A   1      42.123  34.773  33.670  1.00  0.00    -0.014 A 
ATOM     64  C   UNL A   1      41.647  34.898  34.986  1.00  0.00     0.009 A 
ATOM     65  C   UNL A   1      42.813  35.848  33.092  1.00  0.00     0.009 A 
ATOM     66  C   UNL A   1      41.819  36.091  35.690  1.00  0.00     0.001 A 
ATOM     67  C   UNL A   1      43.009  37.030  33.810  1.00  0.00     0.001 A 
ATOM     68  C   UNL A   1      42.502  37.154  35.102  1.00  0.00     0.000 A 
ENDBRANCH  49  63
BRANCH  50  69
ATOM     69  C   UNL A   1      40.296  26.698  28.092  1.00  0.00    -0.014 A 
ATOM     70  C   UNL A   1      40.823  26.603  26.794  1.00  0.00     0.009 A 
ATOM     71  C   UNL A   1      39.515  25.642  28.587  1.00  0.00     0.009 A 
ATOM     72  C   UNL A   1      40.554  25.486  26.000  1.00  0.00     0.001 A 
ATOM     73  C   UNL A   1      39.269  24.516  27.799  1.00  0.00     0.001 A 
ATOM     74  C   UNL A   1      39.780  24.442  26.505  1.00  0.00     0.000 A 
ENDBRANCH  50  69
BRANCH  62  75
ATOM     75  C   UNL A   1      45.542  28.579  32.251  1.00  0.00    -0.014 A 
ATOM     76  C   UNL A   1      46.732  28.781  31.536  1.00  0.00     0.009 A 
ATOM     77  C   UNL A   1      45.558  27.752  33.384  1.00  0.00     0.009 A 
ATOM     78  C   UNL A   1      47.908  28.141  31.932  1.00  0.00     0.001 A 
ATOM     79  C   UNL A   1      46.740  27.133  33.792  1.00  0.00     0.001 A 
ATOM     80  C   UNL A   1      47.912  27.323  33.061  1.00  0.00     0.000 A 
ENDBRANCH  62  75
ENDBRANCH  36  37
ENDBRANCH  28  31
ENDBRANCH  26  27
ENDBRANCH  25  26
ENDBRANCH  24  25
ENDBRANCH   1  24
TORSDOF 17
ENDMDL
