MODEL 1
REMARK VINA RESULT:     -11.0      0.000      0.000
REMARK SMILES CC(C)c1cc(OCC(=O)NCCCCNC(=O)c2ccc(-c3c4nc(c(-c5ccccc5)c5ccc([nH]5)c(-c5ccccc5)c5nc(c(-c6ccccc6)c6ccc3[nH]6)C=C5)C=C4)cc2)nc(Nc2ccc(F)cc2F)n1
REMARK SMILES IDX 12 1 11 2 9 3 10 4 8 6 7 7 6 8 4 9 5 10 78 11 68 12 67 13
REMARK SMILES IDX 2 14 1 15 3 16 69 17 70 19 71 20 76 21 72 22 75 23 77 24
REMARK SMILES IDX 73 25 74 26 13 27 14 28 15 29 16 30 17 31 18 33 19 34 20 35
REMARK SMILES IDX 66 36 21 37 65 38 22 39 23 40 24 41 59 42 25 43 64 44 58 45
REMARK SMILES IDX 60 46 26 47 63 48 57 49 56 50 27 52 49 53 34 54 48 55 35 56
REMARK SMILES IDX 38 57 47 58 61 59 36 60 37 61 46 63 62 64 39 65 28 66 29 67
REMARK SMILES IDX 33 68 30 69 32 70 31 71 50 72 51 73 55 74 52 75 54 76 53 77
REMARK SMILES IDX 40 78 41 79 45 80 42 81 44 82 43 83
REMARK H PARENT 11 5 69 18 16 32 60 51 38 62
REMARK Flexibility Score: inf
ROOT
ATOM      1  C   UNL A   1      34.118  24.568  24.388  1.00  0.00     0.116 C 
ENDROOT
BRANCH   1   2
ATOM      2  N   UNL A   1      32.840  24.710  23.719  1.00  0.00    -0.353 N 
ATOM      3  C   UNL A   1      32.521  25.525  22.673  1.00  0.00     0.258 C 
ATOM      4  O   UNL A   1      31.373  25.496  22.226  1.00  0.00    -0.271 OA
ATOM      5  H   UNL A   1      32.110  24.146  24.063  1.00  0.00     0.163 HD
BRANCH   3   6
ATOM      6  C   UNL A   1      33.592  26.440  22.064  1.00  0.00     0.331 C 
BRANCH   6   7
ATOM      7  O   UNL A   1      33.282  27.820  21.977  1.00  0.00    -0.467 OA
BRANCH   7   8
ATOM      8  C   UNL A   1      32.859  28.458  23.110  1.00  0.00     0.218 A 
ATOM      9  C   UNL A   1      33.057  29.436  25.226  1.00  0.00     0.052 A 
ATOM     10  C   UNL A   1      33.642  28.711  24.213  1.00  0.00     0.092 A 
ATOM     11  N   UNL A   1      31.784  29.850  25.147  1.00  0.00    -0.217 NA
ATOM     12  C   UNL A   1      31.069  29.523  24.063  1.00  0.00     0.230 A 
ATOM     13  N   UNL A   1      31.568  28.829  23.034  1.00  0.00    -0.177 NA
BRANCH   9  14
ATOM     14  C   UNL A   1      33.865  29.851  26.438  1.00  0.00     0.032 C 
ATOM     15  C   UNL A   1      33.076  30.868  27.263  1.00  0.00     0.014 C 
ATOM     16  C   UNL A   1      34.268  28.654  27.305  1.00  0.00     0.014 C 
ENDBRANCH   9  14
BRANCH  12  17
ATOM     17  N   UNL A   1      29.708  29.819  24.031  1.00  0.00    -0.322 N 
ATOM     18  H   UNL A   1      29.146  29.360  24.696  1.00  0.00     0.170 HD
BRANCH  17  19
ATOM     19  C   UNL A   1      29.049  30.694  23.159  1.00  0.00     0.077 A 
ATOM     20  C   UNL A   1      29.065  32.071  23.424  1.00  0.00     0.032 A 
ATOM     21  C   UNL A   1      28.477  30.261  21.948  1.00  0.00     0.149 A 
ATOM     22  C   UNL A   1      28.540  32.979  22.498  1.00  0.00     0.041 A 
ATOM     23  C   UNL A   1      27.940  31.155  21.029  1.00  0.00     0.080 A 
ATOM     24  F   UNL A   1      28.394  28.950  21.671  1.00  0.00    -0.205 F 
ATOM     25  C   UNL A   1      27.986  32.511  21.311  1.00  0.00     0.126 A 
ATOM     26  F   UNL A   1      27.493  33.386  20.425  1.00  0.00    -0.207 F 
ENDBRANCH  17  19
ENDBRANCH  12  17
ENDBRANCH   7   8
ENDBRANCH   6   7
ENDBRANCH   3   6
ENDBRANCH   1   2
BRANCH   1  27
ATOM     27  C   UNL A   1      35.034  23.570  23.683  1.00  0.00     0.023 C 
BRANCH  27  28
ATOM     28  C   UNL A   1      35.945  22.757  24.608  1.00  0.00     0.023 C 
BRANCH  28  29
ATOM     29  C   UNL A   1      37.137  23.509  25.192  1.00  0.00     0.116 C 
BRANCH  29  30
ATOM     30  N   UNL A   1      38.266  22.645  25.500  1.00  0.00    -0.352 N 
ATOM     31  C   UNL A   1      39.423  22.932  26.181  1.00  0.00     0.251 C 
ATOM     32  H   UNL A   1      38.189  21.720  25.170  1.00  0.00     0.163 HD
ATOM     33  O   UNL A   1      40.326  22.101  26.239  1.00  0.00    -0.269 OA
BRANCH  31  34
ATOM     34  C   UNL A   1      39.602  24.254  26.820  1.00  0.00     0.039 A 
ATOM     35  C   UNL A   1      39.094  24.454  28.107  1.00  0.00     0.014 A 
ATOM     36  C   UNL A   1      40.273  25.290  26.164  1.00  0.00     0.014 A 
ATOM     37  C   UNL A   1      39.321  25.667  28.761  1.00  0.00     0.010 A 
ATOM     38  C   UNL A   1      40.564  26.469  26.845  1.00  0.00     0.010 A 
ATOM     39  C   UNL A   1      40.093  26.670  28.152  1.00  0.00    -0.014 A 
BRANCH  39  40
ATOM     40  C   UNL A   1      40.429  27.926  28.873  1.00  0.00     0.031 A 
ATOM     41  C   UNL A   1      41.748  28.068  29.582  1.00  0.00     0.074 A 
ATOM     42  C   UNL A   1      39.518  28.918  28.946  1.00  0.00     0.049 A 
ATOM     43  N   UNL A   1      42.193  29.064  30.306  1.00  0.00    -0.248 NA
ATOM     44  C   UNL A   1      42.681  26.933  29.484  1.00  0.00     0.031 C 
ATOM     45  C   UNL A   1      38.186  28.893  28.339  1.00  0.00     0.029 A 
ATOM     46  N   UNL A   1      39.573  30.139  29.572  1.00  0.00    -0.354 N 
ATOM     47  C   UNL A   1      43.445  28.669  30.763  1.00  0.00     0.074 A 
ATOM     48  C   UNL A   1      43.668  27.326  30.275  1.00  0.00     0.031 C 
ATOM     49  C   UNL A   1      37.563  30.053  28.598  1.00  0.00     0.029 A 
ATOM     50  C   UNL A   1      38.429  30.885  29.427  1.00  0.00     0.049 A 
ATOM     51  H   UNL A   1      40.359  30.450  30.077  1.00  0.00     0.167 HD
ATOM     52  C   UNL A   1      44.335  29.368  31.509  1.00  0.00     0.031 A 
ATOM     53  C   UNL A   1      38.105  32.097  29.915  1.00  0.00     0.031 A 
ATOM     54  C   UNL A   1      44.118  30.707  31.988  1.00  0.00     0.049 A 
ATOM     55  C   UNL A   1      39.104  32.842  30.758  1.00  0.00     0.074 A 
ATOM     56  C   UNL A   1      44.986  31.519  32.697  1.00  0.00     0.029 A 
ATOM     57  N   UNL A   1      42.946  31.427  31.817  1.00  0.00    -0.354 N 
ATOM     58  N   UNL A   1      40.314  32.486  31.114  1.00  0.00    -0.248 NA
ATOM     59  C   UNL A   1      38.694  34.163  31.256  1.00  0.00     0.031 C 
ATOM     60  C   UNL A   1      44.318  32.706  33.008  1.00  0.00     0.029 A 
ATOM     61  C   UNL A   1      43.058  32.662  32.434  1.00  0.00     0.049 A 
ATOM     62  H   UNL A   1      42.153  31.109  31.328  1.00  0.00     0.167 HD
ATOM     63  C   UNL A   1      40.820  33.549  31.851  1.00  0.00     0.074 A 
ATOM     64  C   UNL A   1      39.793  34.570  31.874  1.00  0.00     0.031 C 
ATOM     65  C   UNL A   1      42.029  33.670  32.452  1.00  0.00     0.031 A 
BRANCH  52  66
ATOM     66  C   UNL A   1      45.630  28.687  31.864  1.00  0.00    -0.014 A 
ATOM     67  C   UNL A   1      46.739  28.729  31.002  1.00  0.00     0.009 A 
ATOM     68  C   UNL A   1      45.755  28.032  33.098  1.00  0.00     0.009 A 
ATOM     69  C   UNL A   1      47.933  28.097  31.355  1.00  0.00     0.001 A 
ATOM     70  C   UNL A   1      46.961  27.428  33.462  1.00  0.00     0.001 A 
ATOM     71  C   UNL A   1      48.046  27.452  32.586  1.00  0.00     0.000 A 
ENDBRANCH  52  66
BRANCH  53  72
ATOM     72  C   UNL A   1      36.774  32.693  29.619  1.00  0.00    -0.014 A 
ATOM     73  C   UNL A   1      35.709  32.550  30.521  1.00  0.00     0.009 A 
ATOM     74  C   UNL A   1      36.556  33.393  28.421  1.00  0.00     0.009 A 
ATOM     75  C   UNL A   1      34.448  33.066  30.217  1.00  0.00     0.001 A 
ATOM     76  C   UNL A   1      35.302  33.937  28.135  1.00  0.00     0.001 A 
ATOM     77  C   UNL A   1      34.247  33.763  29.027  1.00  0.00     0.000 A 
ENDBRANCH  53  72
BRANCH  65  78
ATOM     78  C   UNL A   1      42.324  34.967  33.154  1.00  0.00    -0.014 A 
ATOM     79  C   UNL A   1      43.091  35.971  32.544  1.00  0.00     0.009 A 
ATOM     80  C   UNL A   1      41.788  35.201  34.430  1.00  0.00     0.009 A 
ATOM     81  C   UNL A   1      43.347  37.170  33.216  1.00  0.00     0.001 A 
ATOM     82  C   UNL A   1      42.018  36.412  35.085  1.00  0.00     0.001 A 
ATOM     83  C   UNL A   1      42.806  37.391  34.482  1.00  0.00     0.000 A 
ENDBRANCH  65  78
ENDBRANCH  39  40
ENDBRANCH  31  34
ENDBRANCH  29  30
ENDBRANCH  28  29
ENDBRANCH  27  28
ENDBRANCH   1  27
TORSDOF 16
ENDMDL
MODEL 2
REMARK VINA RESULT:     -10.8      1.827      3.777
REMARK SMILES CC(C)c1cc(OCC(=O)NCCCCNC(=O)c2ccc(-c3c4nc(c(-c5ccccc5)c5ccc([nH]5)c(-c5ccccc5)c5nc(c(-c6ccccc6)c6ccc3[nH]6)C=C5)C=C4)cc2)nc(Nc2ccc(F)cc2F)n1
REMARK SMILES IDX 12 1 11 2 9 3 10 4 8 6 7 7 6 8 4 9 5 10 78 11 68 12 67 13
REMARK SMILES IDX 2 14 1 15 3 16 69 17 70 19 71 20 76 21 72 22 75 23 77 24
REMARK SMILES IDX 73 25 74 26 13 27 14 28 15 29 16 30 17 31 18 33 19 34 20 35
REMARK SMILES IDX 66 36 21 37 65 38 22 39 23 40 24 41 59 42 25 43 64 44 58 45
REMARK SMILES IDX 60 46 26 47 63 48 57 49 56 50 27 52 49 53 34 54 48 55 35 56
REMARK SMILES IDX 38 57 47 58 61 59 36 60 37 61 46 63 62 64 39 65 28 66 29 67
REMARK SMILES IDX 33 68 30 69 32 70 31 71 50 72 51 73 55 74 52 75 54 76 53 77
REMARK SMILES IDX 40 78 41 79 45 80 42 81 44 82 43 83
REMARK H PARENT 11 5 69 18 16 32 60 51 38 62
REMARK Flexibility Score: inf
ROOT
ATOM      1  C   UNL A   1      34.160  24.673  23.843  1.00  0.00     0.116 C 
ENDROOT
BRANCH   1   2
ATOM      2  N   UNL A   1      33.925  25.441  22.636  1.00  0.00    -0.353 N 
ATOM      3  C   UNL A   1      33.804  26.793  22.507  1.00  0.00     0.258 C 
ATOM      4  O   UNL A   1      33.617  27.269  21.385  1.00  0.00    -0.271 OA
ATOM      5  H   UNL A   1      33.843  24.920  21.804  1.00  0.00     0.163 HD
BRANCH   3   6
ATOM      6  C   UNL A   1      33.920  27.692  23.745  1.00  0.00     0.331 C 
BRANCH   6   7
ATOM      7  O   UNL A   1      32.959  28.724  23.882  1.00  0.00    -0.467 OA
BRANCH   7   8
ATOM      8  C   UNL A   1      31.637  28.389  23.790  1.00  0.00     0.218 A 
ATOM      9  C   UNL A   1      29.407  28.610  23.120  1.00  0.00     0.052 A 
ATOM     10  C   UNL A   1      30.669  29.153  23.180  1.00  0.00     0.092 A 
ATOM     11  N   UNL A   1      29.135  27.409  23.652  1.00  0.00    -0.217 NA
ATOM     12  C   UNL A   1      30.117  26.744  24.273  1.00  0.00     0.230 A 
ATOM     13  N   UNL A   1      31.371  27.202  24.366  1.00  0.00    -0.177 NA
BRANCH   9  14
ATOM     14  C   UNL A   1      28.295  29.328  22.383  1.00  0.00     0.032 C 
ATOM     15  C   UNL A   1      27.303  29.916  23.388  1.00  0.00     0.014 C 
ATOM     16  C   UNL A   1      28.827  30.422  21.453  1.00  0.00     0.014 C 
ENDBRANCH   9  14
BRANCH  12  17
ATOM     17  N   UNL A   1      29.818  25.567  24.956  1.00  0.00    -0.322 N 
ATOM     18  H   UNL A   1      28.891  25.470  25.271  1.00  0.00     0.170 HD
BRANCH  17  19
ATOM     19  C   UNL A   1      30.687  24.508  25.243  1.00  0.00     0.077 A 
ATOM     20  C   UNL A   1      31.303  24.445  26.501  1.00  0.00     0.032 A 
ATOM     21  C   UNL A   1      30.869  23.424  24.363  1.00  0.00     0.149 A 
ATOM     22  C   UNL A   1      32.061  23.326  26.865  1.00  0.00     0.041 A 
ATOM     23  C   UNL A   1      31.633  22.316  24.712  1.00  0.00     0.080 A 
ATOM     24  F   UNL A   1      30.340  23.459  23.129  1.00  0.00    -0.205 F 
ATOM     25  C   UNL A   1      32.215  22.275  25.969  1.00  0.00     0.126 A 
ATOM     26  F   UNL A   1      32.934  21.203  26.328  1.00  0.00    -0.207 F 
ENDBRANCH  17  19
ENDBRANCH  12  17
ENDBRANCH   7   8
ENDBRANCH   6   7
ENDBRANCH   3   6
ENDBRANCH   1   2
BRANCH   1  27
ATOM     27  C   UNL A   1      34.993  23.420  23.579  1.00  0.00     0.023 C 
BRANCH  27  28
ATOM     28  C   UNL A   1      35.807  22.917  24.775  1.00  0.00     0.023 C 
BRANCH  28  29
ATOM     29  C   UNL A   1      37.129  23.636  25.027  1.00  0.00     0.116 C 
BRANCH  29  30
ATOM     30  N   UNL A   1      38.211  22.737  25.394  1.00  0.00    -0.352 N 
ATOM     31  C   UNL A   1      39.337  22.987  26.139  1.00  0.00     0.251 C 
ATOM     32  H   UNL A   1      38.124  21.815  25.058  1.00  0.00     0.163 HD
ATOM     33  O   UNL A   1      40.209  22.127  26.244  1.00  0.00    -0.269 OA
BRANCH  31  34
ATOM     34  C   UNL A   1      39.523  24.302  26.790  1.00  0.00     0.039 A 
ATOM     35  C   UNL A   1      38.998  24.499  28.070  1.00  0.00     0.014 A 
ATOM     36  C   UNL A   1      40.216  25.334  26.152  1.00  0.00     0.014 A 
ATOM     37  C   UNL A   1      39.229  25.704  28.737  1.00  0.00     0.010 A 
ATOM     38  C   UNL A   1      40.510  26.505  26.846  1.00  0.00     0.010 A 
ATOM     39  C   UNL A   1      40.022  26.702  28.147  1.00  0.00    -0.014 A 
BRANCH  39  40
ATOM     40  C   UNL A   1      40.362  27.949  28.883  1.00  0.00     0.031 A 
ATOM     41  C   UNL A   1      41.680  28.077  29.595  1.00  0.00     0.074 A 
ATOM     42  C   UNL A   1      39.456  28.944  28.964  1.00  0.00     0.049 A 
ATOM     43  N   UNL A   1      42.128  29.063  30.332  1.00  0.00    -0.248 NA
ATOM     44  C   UNL A   1      42.608  26.940  29.488  1.00  0.00     0.031 C 
ATOM     45  C   UNL A   1      38.125  28.932  28.353  1.00  0.00     0.029 A 
ATOM     46  N   UNL A   1      39.515  30.158  29.603  1.00  0.00    -0.354 N 
ATOM     47  C   UNL A   1      43.377  28.658  30.787  1.00  0.00     0.074 A 
ATOM     48  C   UNL A   1      43.595  27.319  30.286  1.00  0.00     0.031 C 
ATOM     49  C   UNL A   1      37.506  30.091  28.624  1.00  0.00     0.029 A 
ATOM     50  C   UNL A   1      38.374  30.911  29.463  1.00  0.00     0.049 A 
ATOM     51  H   UNL A   1      40.301  30.460  30.113  1.00  0.00     0.167 HD
ATOM     52  C   UNL A   1      44.269  29.344  31.542  1.00  0.00     0.031 A 
ATOM     53  C   UNL A   1      38.054  32.119  29.963  1.00  0.00     0.031 A 
ATOM     54  C   UNL A   1      44.056  30.679  32.035  1.00  0.00     0.049 A 
ATOM     55  C   UNL A   1      39.055  32.850  30.817  1.00  0.00     0.074 A 
ATOM     56  C   UNL A   1      44.926  31.480  32.755  1.00  0.00     0.029 A 
ATOM     57  N   UNL A   1      42.888  31.407  31.869  1.00  0.00    -0.354 N 
ATOM     58  N   UNL A   1      40.263  32.485  31.171  1.00  0.00    -0.248 NA
ATOM     59  C   UNL A   1      38.649  34.168  31.328  1.00  0.00     0.031 C 
ATOM     60  C   UNL A   1      44.263  32.667  33.078  1.00  0.00     0.029 A 
ATOM     61  C   UNL A   1      43.004  32.634  32.500  1.00  0.00     0.049 A 
ATOM     62  H   UNL A   1      42.095  31.097  31.376  1.00  0.00     0.167 HD
ATOM     63  C   UNL A   1      40.772  33.538  31.921  1.00  0.00     0.074 A 
ATOM     64  C   UNL A   1      39.749  34.563  31.953  1.00  0.00     0.031 C 
ATOM     65  C   UNL A   1      41.980  33.647  32.526  1.00  0.00     0.031 A 
BRANCH  52  66
ATOM     66  C   UNL A   1      45.559  28.654  31.893  1.00  0.00    -0.014 A 
ATOM     67  C   UNL A   1      46.696  28.768  31.075  1.00  0.00     0.009 A 
ATOM     68  C   UNL A   1      45.652  27.915  33.082  1.00  0.00     0.009 A 
ATOM     69  C   UNL A   1      47.886  28.125  31.423  1.00  0.00     0.001 A 
ATOM     70  C   UNL A   1      46.853  27.300  33.444  1.00  0.00     0.001 A 
ATOM     71  C   UNL A   1      47.965  27.397  32.610  1.00  0.00     0.000 A 
ENDBRANCH  52  66
BRANCH  53  72
ATOM     72  C   UNL A   1      36.727  32.724  29.671  1.00  0.00    -0.014 A 
ATOM     73  C   UNL A   1      36.518  33.454  28.490  1.00  0.00     0.009 A 
ATOM     74  C   UNL A   1      35.665  32.589  30.579  1.00  0.00     0.009 A 
ATOM     75  C   UNL A   1      35.286  34.064  28.242  1.00  0.00     0.001 A 
ATOM     76  C   UNL A   1      34.424  33.172  30.313  1.00  0.00     0.001 A 
ATOM     77  C   UNL A   1      34.240  33.918  29.151  1.00  0.00     0.000 A 
ENDBRANCH  53  72
BRANCH  65  78
ATOM     78  C   UNL A   1      42.279  34.935  33.242  1.00  0.00    -0.014 A 
ATOM     79  C   UNL A   1      41.861  35.153  34.564  1.00  0.00     0.009 A 
ATOM     80  C   UNL A   1      43.031  35.928  32.594  1.00  0.00     0.009 A 
ATOM     81  C   UNL A   1      42.157  36.357  35.208  1.00  0.00     0.001 A 
ATOM     82  C   UNL A   1      43.353  37.117  33.252  1.00  0.00     0.001 A 
ATOM     83  C   UNL A   1      42.907  37.334  34.554  1.00  0.00     0.000 A 
ENDBRANCH  65  78
ENDBRANCH  39  40
ENDBRANCH  31  34
ENDBRANCH  29  30
ENDBRANCH  28  29
ENDBRANCH  27  28
ENDBRANCH   1  27
TORSDOF 16
ENDMDL
MODEL 3
REMARK VINA RESULT:     -10.7      3.618      8.879
REMARK SMILES CC(C)c1cc(OCC(=O)NCCCCNC(=O)c2ccc(-c3c4nc(c(-c5ccccc5)c5ccc([nH]5)c(-c5ccccc5)c5nc(c(-c6ccccc6)c6ccc3[nH]6)C=C5)C=C4)cc2)nc(Nc2ccc(F)cc2F)n1
REMARK SMILES IDX 12 1 11 2 9 3 10 4 8 6 7 7 6 8 4 9 5 10 78 11 68 12 67 13
REMARK SMILES IDX 2 14 1 15 3 16 69 17 70 19 71 20 76 21 72 22 75 23 77 24
REMARK SMILES IDX 73 25 74 26 13 27 14 28 15 29 16 30 17 31 18 33 19 34 20 35
REMARK SMILES IDX 66 36 21 37 65 38 22 39 23 40 24 41 59 42 25 43 64 44 58 45
REMARK SMILES IDX 60 46 26 47 63 48 57 49 56 50 27 52 49 53 34 54 48 55 35 56
REMARK SMILES IDX 38 57 47 58 61 59 36 60 37 61 46 63 62 64 39 65 28 66 29 67
REMARK SMILES IDX 33 68 30 69 32 70 31 71 50 72 51 73 55 74 52 75 54 76 53 77
REMARK SMILES IDX 40 78 41 79 45 80 42 81 44 82 43 83
REMARK H PARENT 11 5 69 18 16 32 60 51 38 62
REMARK Flexibility Score: inf
ROOT
ATOM      1  C   UNL A   1      31.996  27.610  24.108  1.00  0.00     0.116 C 
ENDROOT
BRANCH   1   2
ATOM      2  N   UNL A   1      31.183  26.475  24.503  1.00  0.00    -0.353 N 
ATOM      3  C   UNL A   1      31.471  25.510  25.421  1.00  0.00     0.258 C 
ATOM      4  O   UNL A   1      30.641  24.623  25.632  1.00  0.00    -0.271 OA
ATOM      5  H   UNL A   1      30.312  26.393  24.050  1.00  0.00     0.163 HD
BRANCH   3   6
ATOM      6  C   UNL A   1      32.803  25.552  26.182  1.00  0.00     0.331 C 
BRANCH   6   7
ATOM      7  O   UNL A   1      33.097  24.450  27.023  1.00  0.00    -0.467 OA
BRANCH   7   8
ATOM      8  C   UNL A   1      33.929  23.478  26.543  1.00  0.00     0.218 A 
ATOM      9  C   UNL A   1      35.919  22.572  25.711  1.00  0.00     0.052 A 
ATOM     10  C   UNL A   1      35.207  23.690  26.080  1.00  0.00     0.092 A 
ATOM     11  N   UNL A   1      35.381  21.345  25.779  1.00  0.00    -0.217 NA
ATOM     12  C   UNL A   1      34.114  21.221  26.194  1.00  0.00     0.230 A 
ATOM     13  N   UNL A   1      33.361  22.259  26.577  1.00  0.00    -0.177 NA
BRANCH   9  14
ATOM     14  C   UNL A   1      37.367  22.690  25.281  1.00  0.00     0.032 C 
ATOM     15  C   UNL A   1      38.079  23.737  26.139  1.00  0.00     0.014 C 
ATOM     16  C   UNL A   1      38.103  21.350  25.349  1.00  0.00     0.014 C 
ENDBRANCH   9  14
BRANCH  12  17
ATOM     17  N   UNL A   1      33.496  19.975  26.131  1.00  0.00    -0.322 N 
ATOM     18  H   UNL A   1      33.399  19.492  26.984  1.00  0.00     0.170 HD
BRANCH  17  19
ATOM     19  C   UNL A   1      32.998  19.331  24.993  1.00  0.00     0.077 A 
ATOM     20  C   UNL A   1      32.510  20.098  23.926  1.00  0.00     0.032 A 
ATOM     21  C   UNL A   1      33.086  17.937  24.817  1.00  0.00     0.149 A 
ATOM     22  C   UNL A   1      32.140  19.488  22.722  1.00  0.00     0.041 A 
ATOM     23  C   UNL A   1      32.707  17.321  23.630  1.00  0.00     0.080 A 
ATOM     24  F   UNL A   1      33.501  17.154  25.826  1.00  0.00    -0.205 F 
ATOM     25  C   UNL A   1      32.245  18.108  22.588  1.00  0.00     0.126 A 
ATOM     26  F   UNL A   1      31.898  17.532  21.429  1.00  0.00    -0.207 F 
ENDBRANCH  17  19
ENDBRANCH  12  17
ENDBRANCH   7   8
ENDBRANCH   6   7
ENDBRANCH   3   6
ENDBRANCH   1   2
BRANCH   1  27
ATOM     27  C   UNL A   1      31.932  28.749  25.123  1.00  0.00     0.023 C 
BRANCH  27  28
ATOM     28  C   UNL A   1      33.284  29.367  25.492  1.00  0.00     0.023 C 
BRANCH  28  29
ATOM     29  C   UNL A   1      33.695  29.238  26.956  1.00  0.00     0.116 C 
BRANCH  29  30
ATOM     30  N   UNL A   1      33.650  30.499  27.678  1.00  0.00    -0.352 N 
ATOM     31  C   UNL A   1      34.592  31.064  28.503  1.00  0.00     0.251 C 
ATOM     32  H   UNL A   1      32.825  31.023  27.559  1.00  0.00     0.163 HD
ATOM     33  O   UNL A   1      34.326  32.089  29.128  1.00  0.00    -0.269 OA
BRANCH  31  34
ATOM     34  C   UNL A   1      35.916  30.426  28.669  1.00  0.00     0.039 A 
ATOM     35  C   UNL A   1      36.838  30.508  27.622  1.00  0.00     0.014 A 
ATOM     36  C   UNL A   1      36.255  29.759  29.849  1.00  0.00     0.014 A 
ATOM     37  C   UNL A   1      38.122  29.983  27.786  1.00  0.00     0.010 A 
ATOM     38  C   UNL A   1      37.557  29.304  30.039  1.00  0.00     0.010 A 
ATOM     39  C   UNL A   1      38.506  29.413  29.010  1.00  0.00    -0.014 A 
BRANCH  39  40
ATOM     40  C   UNL A   1      39.897  28.941  29.236  1.00  0.00     0.031 A 
ATOM     41  C   UNL A   1      40.927  29.862  29.832  1.00  0.00     0.074 A 
ATOM     42  C   UNL A   1      40.253  27.701  28.844  1.00  0.00     0.049 A 
ATOM     43  N   UNL A   1      42.199  29.645  30.051  1.00  0.00    -0.248 NA
ATOM     44  C   UNL A   1      40.474  31.211  30.208  1.00  0.00     0.031 C 
ATOM     45  C   UNL A   1      39.364  26.721  28.217  1.00  0.00     0.029 A 
ATOM     46  N   UNL A   1      41.463  27.054  28.908  1.00  0.00    -0.354 N 
ATOM     47  C   UNL A   1      42.701  30.832  30.573  1.00  0.00     0.074 A 
ATOM     48  C   UNL A   1      41.608  31.779  30.592  1.00  0.00     0.031 C 
ATOM     49  C   UNL A   1      40.050  25.592  27.980  1.00  0.00     0.029 A 
ATOM     50  C   UNL A   1      41.436  25.781  28.394  1.00  0.00     0.049 A 
ATOM     51  H   UNL A   1      42.274  27.466  29.287  1.00  0.00     0.167 HD
ATOM     52  C   UNL A   1      43.953  31.104  31.011  1.00  0.00     0.031 A 
ATOM     53  C   UNL A   1      42.418  24.869  28.259  1.00  0.00     0.031 A 
ATOM     54  C   UNL A   1      45.039  30.160  31.000  1.00  0.00     0.049 A 
ATOM     55  C   UNL A   1      43.805  25.205  28.734  1.00  0.00     0.074 A 
ATOM     56  C   UNL A   1      46.327  30.324  31.481  1.00  0.00     0.029 A 
ATOM     57  N   UNL A   1      44.969  28.881  30.473  1.00  0.00    -0.354 N 
ATOM     58  N   UNL A   1      44.242  26.305  29.298  1.00  0.00    -0.248 NA
ATOM     59  C   UNL A   1      44.831  24.167  28.564  1.00  0.00     0.031 C 
ATOM     60  C   UNL A   1      47.053  29.167  31.189  1.00  0.00     0.029 A 
ATOM     61  C   UNL A   1      46.200  28.255  30.589  1.00  0.00     0.049 A 
ATOM     62  H   UNL A   1      44.164  28.476  30.077  1.00  0.00     0.167 HD
ATOM     63  C   UNL A   1      45.584  26.080  29.577  1.00  0.00     0.074 A 
ATOM     64  C   UNL A   1      45.883  24.733  29.138  1.00  0.00     0.031 C 
ATOM     65  C   UNL A   1      46.487  26.914  30.148  1.00  0.00     0.031 A 
BRANCH  52  66
ATOM     66  C   UNL A   1      44.222  32.491  31.532  1.00  0.00    -0.014 A 
ATOM     67  C   UNL A   1      44.647  33.523  30.680  1.00  0.00     0.009 A 
ATOM     68  C   UNL A   1      44.003  32.779  32.888  1.00  0.00     0.009 A 
ATOM     69  C   UNL A   1      44.883  34.804  31.183  1.00  0.00     0.001 A 
ATOM     70  C   UNL A   1      44.209  34.069  33.382  1.00  0.00     0.001 A 
ATOM     71  C   UNL A   1      44.658  35.078  32.531  1.00  0.00     0.000 A 
ENDBRANCH  52  66
BRANCH  53  72
ATOM     72  C   UNL A   1      42.130  23.544  27.649  1.00  0.00    -0.014 A 
ATOM     73  C   UNL A   1      42.272  23.346  26.267  1.00  0.00     0.009 A 
ATOM     74  C   UNL A   1      41.693  22.471  28.444  1.00  0.00     0.009 A 
ATOM     75  C   UNL A   1      41.951  22.114  25.690  1.00  0.00     0.001 A 
ATOM     76  C   UNL A   1      41.405  21.232  27.869  1.00  0.00     0.001 A 
ATOM     77  C   UNL A   1      41.524  21.058  26.492  1.00  0.00     0.000 A 
ENDBRANCH  53  72
BRANCH  65  78
ATOM     78  C   UNL A   1      47.876  26.382  30.369  1.00  0.00    -0.014 A 
ATOM     79  C   UNL A   1      48.873  26.507  29.390  1.00  0.00     0.009 A 
ATOM     80  C   UNL A   1      48.200  25.781  31.596  1.00  0.00     0.009 A 
ATOM     81  C   UNL A   1      50.158  26.008  29.622  1.00  0.00     0.001 A 
ATOM     82  C   UNL A   1      49.492  25.313  31.838  1.00  0.00     0.001 A 
ATOM     83  C   UNL A   1      50.467  25.418  30.847  1.00  0.00     0.000 A 
ENDBRANCH  65  78
ENDBRANCH  39  40
ENDBRANCH  31  34
ENDBRANCH  29  30
ENDBRANCH  28  29
ENDBRANCH  27  28
ENDBRANCH   1  27
TORSDOF 16
ENDMDL
