MODEL 1
REMARK VINA RESULT:     -13.0      0.000      0.000
REMARK SMILES O=C(NCCCCNC(=O)[C@H]1[C@H]2CC[C@H](C2)[C@@H]1C(=O)N1CCN(c2cccc(Cl)c2)CC1)c1ccc(-c2c3nc(c(-c4ccccc4)c4ccc([nH]4)c(-c4ccccc4)c4nc(c(-c5ccccc5)c5ccc2[nH]5)C=C4)C=C3)cc1
REMARK SMILES IDX 5 1 4 2 3 3 1 4 2 5 33 7 34 8 80 9 35 10 79 11 36 12 37 13
REMARK SMILES IDX 38 14 73 15 39 16 78 17 72 18 74 19 40 20 77 21 71 22 70 23
REMARK SMILES IDX 41 25 63 26 48 27 62 28 49 29 52 30 61 31 75 32 50 33 51 34
REMARK SMILES IDX 60 36 76 37 53 38 42 39 43 40 47 41 44 42 46 43 45 44 64 45
REMARK SMILES IDX 65 46 69 47 66 48 68 49 67 50 54 51 55 52 59 53 56 54 58 55
REMARK SMILES IDX 57 56 6 57 7 58 8 59 9 60 10 62 11 63 12 64 17 65 13 66
REMARK SMILES IDX 16 67 15 68 14 69 18 70 19 71 20 72 21 73 32 74 22 75 31 76
REMARK SMILES IDX 23 77 24 78 25 79 30 80 26 81 28 82 27 83 29 84
REMARK H PARENT 3 6 74 24 52 35 8 61
REMARK Flexibility Score: inf
ROOT
ATOM      1  C   UNL A   1      31.613  31.936  26.690  1.00  0.00     0.023 C 
ENDROOT
BRANCH   1   2
ATOM      2  C   UNL A   1      32.774  32.737  27.251  1.00  0.00     0.116 C 
BRANCH   2   3
ATOM      3  N   UNL A   1      32.412  34.096  27.631  1.00  0.00    -0.352 N 
ATOM      4  O   UNL A   1      32.526  35.994  28.861  1.00  0.00    -0.269 OA
ATOM      5  C   UNL A   1      33.000  34.898  28.578  1.00  0.00     0.251 C 
ATOM      6  H   UNL A   1      31.650  34.489  27.147  1.00  0.00     0.163 HD
BRANCH   5   7
ATOM      7  C   UNL A   1      34.196  34.399  29.282  1.00  0.00     0.039 A 
ATOM      8  C   UNL A   1      35.465  34.610  28.739  1.00  0.00     0.014 A 
ATOM      9  C   UNL A   1      34.039  33.657  30.455  1.00  0.00     0.014 A 
ATOM     10  C   UNL A   1      36.557  33.948  29.278  1.00  0.00     0.010 A 
ATOM     11  C   UNL A   1      35.156  33.068  31.051  1.00  0.00     0.010 A 
ATOM     12  C   UNL A   1      36.418  33.181  30.447  1.00  0.00    -0.014 A 
BRANCH  12  13
ATOM     13  C   UNL A   1      37.625  32.563  31.042  1.00  0.00     0.031 A 
ATOM     14  C   UNL A   1      38.194  33.052  32.344  1.00  0.00     0.074 A 
ATOM     15  C   UNL A   1      38.174  31.507  30.412  1.00  0.00     0.049 A 
ATOM     16  N   UNL A   1      39.220  32.589  33.013  1.00  0.00    -0.248 NA
ATOM     17  C   UNL A   1      37.537  34.206  32.976  1.00  0.00     0.031 C 
ATOM     18  C   UNL A   1      37.702  30.946  29.142  1.00  0.00     0.029 A 
ATOM     19  N   UNL A   1      39.219  30.696  30.766  1.00  0.00    -0.354 N 
ATOM     20  C   UNL A   1      39.344  33.402  34.133  1.00  0.00     0.074 A 
ATOM     21  C   UNL A   1      38.300  34.401  34.044  1.00  0.00     0.031 C 
ATOM     22  C   UNL A   1      38.414  29.848  28.857  1.00  0.00     0.029 A 
ATOM     23  C   UNL A   1      39.431  29.666  29.884  1.00  0.00     0.049 A 
ATOM     24  H   UNL A   1      39.765  30.838  31.574  1.00  0.00     0.167 HD
ATOM     25  C   UNL A   1      40.243  33.320  35.142  1.00  0.00     0.031 A 
ATOM     26  C   UNL A   1      40.352  28.686  29.892  1.00  0.00     0.031 A 
ATOM     27  C   UNL A   1      41.280  32.325  35.226  1.00  0.00     0.049 A 
ATOM     28  C   UNL A   1      41.345  28.633  31.011  1.00  0.00     0.074 A 
ATOM     29  C   UNL A   1      42.241  32.158  36.210  1.00  0.00     0.029 A 
ATOM     30  N   UNL A   1      41.489  31.322  34.291  1.00  0.00    -0.354 N 
ATOM     31  N   UNL A   1      41.445  29.411  32.060  1.00  0.00    -0.248 NA
ATOM     32  C   UNL A   1      42.354  27.569  30.944  1.00  0.00     0.031 C 
ATOM     33  C   UNL A   1      43.053  31.076  35.851  1.00  0.00     0.029 A 
ATOM     34  C   UNL A   1      42.570  30.543  34.668  1.00  0.00     0.049 A 
ATOM     35  H   UNL A   1      40.949  31.185  33.479  1.00  0.00     0.167 HD
ATOM     36  C   UNL A   1      42.526  28.930  32.784  1.00  0.00     0.074 A 
ATOM     37  C   UNL A   1      43.029  27.775  32.067  1.00  0.00     0.031 C 
ATOM     38  C   UNL A   1      43.060  29.406  33.933  1.00  0.00     0.031 A 
BRANCH  25  39
ATOM     39  C   UNL A   1      40.162  34.352  36.232  1.00  0.00    -0.014 A 
ATOM     40  C   UNL A   1      39.334  34.164  37.350  1.00  0.00     0.009 A 
ATOM     41  C   UNL A   1      40.963  35.503  36.166  1.00  0.00     0.009 A 
ATOM     42  C   UNL A   1      39.292  35.121  38.367  1.00  0.00     0.001 A 
ATOM     43  C   UNL A   1      40.936  36.446  37.195  1.00  0.00     0.001 A 
ATOM     44  C   UNL A   1      40.096  36.258  38.291  1.00  0.00     0.000 A 
ENDBRANCH  25  39
BRANCH  26  45
ATOM     45  C   UNL A   1      40.379  27.694  28.789  1.00  0.00    -0.014 A 
ATOM     46  C   UNL A   1      39.644  26.503  28.879  1.00  0.00     0.009 A 
ATOM     47  C   UNL A   1      41.126  27.947  27.627  1.00  0.00     0.009 A 
ATOM     48  C   UNL A   1      39.671  25.578  27.834  1.00  0.00     0.001 A 
ATOM     49  C   UNL A   1      41.128  27.034  26.573  1.00  0.00     0.001 A 
ATOM     50  C   UNL A   1      40.407  25.847  26.680  1.00  0.00     0.000 A 
ENDBRANCH  26  45
BRANCH  38  51
ATOM     51  C   UNL A   1      44.239  28.660  34.484  1.00  0.00    -0.014 A 
ATOM     52  C   UNL A   1      44.063  27.555  35.330  1.00  0.00     0.009 A 
ATOM     53  C   UNL A   1      45.540  29.065  34.147  1.00  0.00     0.009 A 
ATOM     54  C   UNL A   1      45.170  26.889  35.859  1.00  0.00     0.001 A 
ATOM     55  C   UNL A   1      46.645  28.383  34.660  1.00  0.00     0.001 A 
ATOM     56  C   UNL A   1      46.460  27.303  35.521  1.00  0.00     0.000 A 
ENDBRANCH  38  51
ENDBRANCH  12  13
ENDBRANCH   5   7
ENDBRANCH   2   3
ENDBRANCH   1   2
BRANCH   1  57
ATOM     57  C   UNL A   1      31.757  30.426  26.829  1.00  0.00     0.023 C 
BRANCH  57  58
ATOM     58  C   UNL A   1      33.189  29.909  26.764  1.00  0.00     0.116 C 
BRANCH  58  59
ATOM     59  N   UNL A   1      33.646  29.711  25.410  1.00  0.00    -0.356 N 
ATOM     60  C   UNL A   1      33.235  28.818  24.471  1.00  0.00     0.224 C 
ATOM     61  H   UNL A   1      34.368  30.316  25.122  1.00  0.00     0.163 HD
ATOM     62  O   UNL A   1      33.670  28.987  23.331  1.00  0.00    -0.275 OA
BRANCH  60  63
ATOM     63  C   UNL A   1      32.198  27.740  24.799  1.00  0.00     0.094 C 
ATOM     64  C   UNL A   1      30.800  28.093  24.201  1.00  0.00     0.002 C 
ATOM     65  C   UNL A   1      32.436  26.320  24.223  1.00  0.00     0.094 C 
ATOM     66  C   UNL A   1      30.828  28.206  22.660  1.00  0.00     0.005 C 
ATOM     67  C   UNL A   1      30.064  26.768  24.361  1.00  0.00     0.009 C 
ATOM     68  C   UNL A   1      31.091  25.991  23.532  1.00  0.00     0.002 C 
ATOM     69  C   UNL A   1      31.039  26.758  22.200  1.00  0.00     0.005 C 
BRANCH  65  70
ATOM     70  C   UNL A   1      32.856  25.255  25.249  1.00  0.00     0.226 C 
ATOM     71  O   UNL A   1      33.121  25.559  26.411  1.00  0.00    -0.275 OA
ATOM     72  N   UNL A   1      32.859  23.935  24.844  1.00  0.00    -0.339 N 
ATOM     73  C   UNL A   1      32.142  22.969  25.687  1.00  0.00     0.141 C 
ATOM     74  C   UNL A   1      34.126  23.385  24.353  1.00  0.00     0.141 C 
ATOM     75  C   UNL A   1      31.862  21.661  24.930  1.00  0.00     0.138 C 
ATOM     76  C   UNL A   1      33.927  22.064  23.593  1.00  0.00     0.138 C 
ATOM     77  N   UNL A   1      33.119  21.123  24.393  1.00  0.00    -0.368 N 
BRANCH  77  78
ATOM     78  C   UNL A   1      33.202  19.787  24.026  1.00  0.00     0.038 A 
ATOM     79  C   UNL A   1      32.366  19.307  23.007  1.00  0.00     0.026 A 
ATOM     80  C   UNL A   1      34.083  18.885  24.634  1.00  0.00     0.046 A 
ATOM     81  C   UNL A   1      32.400  17.972  22.602  1.00  0.00     0.004 A 
ATOM     82  C   UNL A   1      34.109  17.545  24.238  1.00  0.00     0.043 A 
ATOM     83  C   UNL A   1      33.274  17.086  23.224  1.00  0.00     0.020 A 
ATOM     84  Cl  UNL A   1      35.179  16.447  25.021  1.00  0.00    -0.084 Cl
ENDBRANCH  77  78
ENDBRANCH  65  70
ENDBRANCH  60  63
ENDBRANCH  58  59
ENDBRANCH  57  58
ENDBRANCH   1  57
TORSDOF 13
ENDMDL
MODEL 2
REMARK VINA RESULT:     -12.8      1.136      5.876
REMARK SMILES O=C(NCCCCNC(=O)[C@H]1[C@H]2CC[C@H](C2)[C@@H]1C(=O)N1CCN(c2cccc(Cl)c2)CC1)c1ccc(-c2c3nc(c(-c4ccccc4)c4ccc([nH]4)c(-c4ccccc4)c4nc(c(-c5ccccc5)c5ccc2[nH]5)C=C4)C=C3)cc1
REMARK SMILES IDX 5 1 4 2 3 3 1 4 2 5 33 7 34 8 80 9 35 10 79 11 36 12 37 13
REMARK SMILES IDX 38 14 73 15 39 16 78 17 72 18 74 19 40 20 77 21 71 22 70 23
REMARK SMILES IDX 41 25 63 26 48 27 62 28 49 29 52 30 61 31 75 32 50 33 51 34
REMARK SMILES IDX 60 36 76 37 53 38 42 39 43 40 47 41 44 42 46 43 45 44 64 45
REMARK SMILES IDX 65 46 69 47 66 48 68 49 67 50 54 51 55 52 59 53 56 54 58 55
REMARK SMILES IDX 57 56 6 57 7 58 8 59 9 60 10 62 11 63 12 64 17 65 13 66
REMARK SMILES IDX 16 67 15 68 14 69 18 70 19 71 20 72 21 73 32 74 22 75 31 76
REMARK SMILES IDX 23 77 24 78 25 79 30 80 26 81 28 82 27 83 29 84
REMARK H PARENT 3 6 74 24 52 35 8 61
REMARK Flexibility Score: inf
ROOT
ATOM      1  C   UNL A   1      31.417  32.004  26.547  1.00  0.00     0.023 C 
ENDROOT
BRANCH   1   2
ATOM      2  C   UNL A   1      32.579  32.689  27.242  1.00  0.00     0.116 C 
BRANCH   2   3
ATOM      3  N   UNL A   1      32.316  34.082  27.578  1.00  0.00    -0.352 N 
ATOM      4  O   UNL A   1      32.575  36.009  28.739  1.00  0.00    -0.269 OA
ATOM      5  C   UNL A   1      32.969  34.875  28.489  1.00  0.00     0.251 C 
ATOM      6  H   UNL A   1      31.575  34.509  27.088  1.00  0.00     0.163 HD
BRANCH   5   7
ATOM      7  C   UNL A   1      34.139  34.320  29.197  1.00  0.00     0.039 A 
ATOM      8  C   UNL A   1      35.428  34.609  28.748  1.00  0.00     0.014 A 
ATOM      9  C   UNL A   1      33.938  33.451  30.273  1.00  0.00     0.014 A 
ATOM     10  C   UNL A   1      36.506  33.908  29.268  1.00  0.00     0.010 A 
ATOM     11  C   UNL A   1      35.035  32.817  30.859  1.00  0.00     0.010 A 
ATOM     12  C   UNL A   1      36.323  33.016  30.338  1.00  0.00    -0.014 A 
BRANCH  12  13
ATOM     13  C   UNL A   1      37.512  32.356  30.926  1.00  0.00     0.031 A 
ATOM     14  C   UNL A   1      38.145  31.159  30.276  1.00  0.00     0.074 A 
ATOM     15  C   UNL A   1      38.051  32.893  32.038  1.00  0.00     0.049 A 
ATOM     16  N   UNL A   1      39.213  30.496  30.647  1.00  0.00    -0.248 NA
ATOM     17  C   UNL A   1      37.504  30.633  29.061  1.00  0.00     0.031 C 
ATOM     18  C   UNL A   1      37.518  34.057  32.753  1.00  0.00     0.029 A 
ATOM     19  N   UNL A   1      39.177  32.558  32.739  1.00  0.00    -0.354 N 
ATOM     20  C   UNL A   1      39.361  29.467  29.725  1.00  0.00     0.074 A 
ATOM     21  C   UNL A   1      38.264  29.580  28.788  1.00  0.00     0.031 C 
ATOM     22  C   UNL A   1      38.352  34.376  33.752  1.00  0.00     0.029 A 
ATOM     23  C   UNL A   1      39.436  33.404  33.789  1.00  0.00     0.049 A 
ATOM     24  H   UNL A   1      39.746  31.786  32.514  1.00  0.00     0.167 HD
ATOM     25  C   UNL A   1      40.327  28.518  29.666  1.00  0.00     0.031 A 
ATOM     26  C   UNL A   1      40.431  33.394  34.693  1.00  0.00     0.031 A 
ATOM     27  C   UNL A   1      41.416  28.409  30.601  1.00  0.00     0.049 A 
ATOM     28  C   UNL A   1      41.473  32.321  34.614  1.00  0.00     0.074 A 
ATOM     29  C   UNL A   1      42.445  27.483  30.626  1.00  0.00     0.029 A 
ATOM     30  N   UNL A   1      41.620  29.261  31.677  1.00  0.00    -0.354 N 
ATOM     31  N   UNL A   1      41.596  31.357  33.734  1.00  0.00    -0.248 NA
ATOM     32  C   UNL A   1      42.509  32.333  35.653  1.00  0.00     0.031 C 
ATOM     33  C   UNL A   1      43.252  27.752  31.737  1.00  0.00     0.029 A 
ATOM     34  C   UNL A   1      42.750  28.873  32.377  1.00  0.00     0.049 A 
ATOM     35  H   UNL A   1      41.048  30.027  31.907  1.00  0.00     0.167 HD
ATOM     36  C   UNL A   1      42.727  30.647  34.111  1.00  0.00     0.074 A 
ATOM     37  C   UNL A   1      43.268  31.311  35.280  1.00  0.00     0.031 C 
ATOM     38  C   UNL A   1      43.264  29.541  33.545  1.00  0.00     0.031 A 
BRANCH  25  39
ATOM     39  C   UNL A   1      40.236  27.502  28.562  1.00  0.00    -0.014 A 
ATOM     40  C   UNL A   1      40.877  27.709  27.331  1.00  0.00     0.009 A 
ATOM     41  C   UNL A   1      39.545  26.299  28.775  1.00  0.00     0.009 A 
ATOM     42  C   UNL A   1      40.806  26.740  26.326  1.00  0.00     0.001 A 
ATOM     43  C   UNL A   1      39.494  25.324  27.777  1.00  0.00     0.001 A 
ATOM     44  C   UNL A   1      40.119  25.548  26.552  1.00  0.00     0.000 A 
ENDBRANCH  25  39
BRANCH  26  45
ATOM     45  C   UNL A   1      40.468  34.427  35.758  1.00  0.00    -0.014 A 
ATOM     46  C   UNL A   1      39.798  34.226  36.973  1.00  0.00     0.009 A 
ATOM     47  C   UNL A   1      41.197  35.612  35.569  1.00  0.00     0.009 A 
ATOM     48  C   UNL A   1      39.843  35.201  37.972  1.00  0.00     0.001 A 
ATOM     49  C   UNL A   1      41.263  36.571  36.580  1.00  0.00     0.001 A 
ATOM     50  C   UNL A   1      40.580  36.369  37.777  1.00  0.00     0.000 A 
ENDBRANCH  26  45
BRANCH  38  51
ATOM     51  C   UNL A   1      44.508  28.998  34.183  1.00  0.00    -0.014 A 
ATOM     52  C   UNL A   1      45.777  29.447  33.787  1.00  0.00     0.009 A 
ATOM     53  C   UNL A   1      44.408  28.032  35.195  1.00  0.00     0.009 A 
ATOM     54  C   UNL A   1      46.926  28.910  34.369  1.00  0.00     0.001 A 
ATOM     55  C   UNL A   1      45.559  27.514  35.792  1.00  0.00     0.001 A 
ATOM     56  C   UNL A   1      46.816  27.946  35.372  1.00  0.00     0.000 A 
ENDBRANCH  38  51
ENDBRANCH  12  13
ENDBRANCH   5   7
ENDBRANCH   2   3
ENDBRANCH   1   2
BRANCH   1  57
ATOM     57  C   UNL A   1      31.704  30.582  26.082  1.00  0.00     0.023 C 
BRANCH  57  58
ATOM     58  C   UNL A   1      31.880  29.563  27.202  1.00  0.00     0.116 C 
BRANCH  58  59
ATOM     59  N   UNL A   1      33.150  28.880  27.136  1.00  0.00    -0.356 N 
ATOM     60  C   UNL A   1      33.484  27.716  26.519  1.00  0.00     0.224 C 
ATOM     61  H   UNL A   1      33.887  29.327  27.611  1.00  0.00     0.163 HD
ATOM     62  O   UNL A   1      34.686  27.453  26.467  1.00  0.00    -0.275 OA
BRANCH  60  63
ATOM     63  C   UNL A   1      32.426  26.849  25.830  1.00  0.00     0.094 C 
ATOM     64  C   UNL A   1      31.972  27.474  24.474  1.00  0.00     0.002 C 
ATOM     65  C   UNL A   1      32.846  25.421  25.393  1.00  0.00     0.094 C 
ATOM     66  C   UNL A   1      33.136  27.610  23.467  1.00  0.00     0.005 C 
ATOM     67  C   UNL A   1      31.211  26.310  23.850  1.00  0.00     0.009 C 
ATOM     68  C   UNL A   1      32.417  25.368  23.908  1.00  0.00     0.002 C 
ATOM     69  C   UNL A   1      33.449  26.158  23.085  1.00  0.00     0.005 C 
BRANCH  65  70
ATOM     70  C   UNL A   1      32.251  24.275  26.227  1.00  0.00     0.226 C 
ATOM     71  O   UNL A   1      31.463  24.497  27.146  1.00  0.00    -0.275 OA
ATOM     72  N   UNL A   1      32.573  22.981  25.868  1.00  0.00    -0.339 N 
ATOM     73  C   UNL A   1      31.463  22.036  25.686  1.00  0.00     0.141 C 
ATOM     74  C   UNL A   1      33.707  22.355  26.554  1.00  0.00     0.141 C 
ATOM     75  C   UNL A   1      31.906  20.795  24.895  1.00  0.00     0.138 C 
ATOM     76  C   UNL A   1      34.199  21.095  25.825  1.00  0.00     0.138 C 
ATOM     77  N   UNL A   1      33.072  20.184  25.548  1.00  0.00    -0.368 N 
BRANCH  77  78
ATOM     78  C   UNL A   1      33.409  18.865  25.274  1.00  0.00     0.038 A 
ATOM     79  C   UNL A   1      34.566  18.600  24.526  1.00  0.00     0.026 A 
ATOM     80  C   UNL A   1      32.642  17.778  25.706  1.00  0.00     0.046 A 
ATOM     81  C   UNL A   1      34.950  17.295  24.214  1.00  0.00     0.004 A 
ATOM     82  C   UNL A   1      33.018  16.472  25.384  1.00  0.00     0.043 A 
ATOM     83  C   UNL A   1      34.170  16.226  24.642  1.00  0.00     0.020 A 
ATOM     84  Cl  UNL A   1      32.041  15.152  25.900  1.00  0.00    -0.084 Cl
ENDBRANCH  77  78
ENDBRANCH  65  70
ENDBRANCH  60  63
ENDBRANCH  58  59
ENDBRANCH  57  58
ENDBRANCH   1  57
TORSDOF 13
ENDMDL
MODEL 3
REMARK VINA RESULT:     -12.8      5.261     10.631
REMARK SMILES O=C(NCCCCNC(=O)[C@H]1[C@H]2CC[C@H](C2)[C@@H]1C(=O)N1CCN(c2cccc(Cl)c2)CC1)c1ccc(-c2c3nc(c(-c4ccccc4)c4ccc([nH]4)c(-c4ccccc4)c4nc(c(-c5ccccc5)c5ccc2[nH]5)C=C4)C=C3)cc1
REMARK SMILES IDX 5 1 4 2 3 3 1 4 2 5 33 7 34 8 80 9 35 10 79 11 36 12 37 13
REMARK SMILES IDX 38 14 73 15 39 16 78 17 72 18 74 19 40 20 77 21 71 22 70 23
REMARK SMILES IDX 41 25 63 26 48 27 62 28 49 29 52 30 61 31 75 32 50 33 51 34
REMARK SMILES IDX 60 36 76 37 53 38 42 39 43 40 47 41 44 42 46 43 45 44 64 45
REMARK SMILES IDX 65 46 69 47 66 48 68 49 67 50 54 51 55 52 59 53 56 54 58 55
REMARK SMILES IDX 57 56 6 57 7 58 8 59 9 60 10 62 11 63 12 64 17 65 13 66
REMARK SMILES IDX 16 67 15 68 14 69 18 70 19 71 20 72 21 73 32 74 22 75 31 76
REMARK SMILES IDX 23 77 24 78 25 79 30 80 26 81 28 82 27 83 29 84
REMARK H PARENT 3 6 74 24 52 35 8 61
REMARK Flexibility Score: inf
ROOT
ATOM      1  C   UNL A   1      38.154  19.806  24.761  1.00  0.00     0.023 C 
ENDROOT
BRANCH   1   2
ATOM      2  C   UNL A   1      39.302  20.080  25.716  1.00  0.00     0.116 C 
BRANCH   2   3
ATOM      3  N   UNL A   1      40.277  18.999  25.777  1.00  0.00    -0.352 N 
ATOM      4  O   UNL A   1      42.343  18.093  25.971  1.00  0.00    -0.269 OA
ATOM      5  C   UNL A   1      41.621  19.081  26.048  1.00  0.00     0.251 C 
ATOM      6  H   UNL A   1      39.927  18.095  25.602  1.00  0.00     0.163 HD
BRANCH   5   7
ATOM      7  C   UNL A   1      42.192  20.396  26.397  1.00  0.00     0.039 A 
ATOM      8  C   UNL A   1      42.247  20.800  27.732  1.00  0.00     0.014 A 
ATOM      9  C   UNL A   1      42.608  21.253  25.375  1.00  0.00     0.014 A 
ATOM     10  C   UNL A   1      42.568  22.115  28.034  1.00  0.00     0.010 A 
ATOM     11  C   UNL A   1      43.021  22.549  25.692  1.00  0.00     0.010 A 
ATOM     12  C   UNL A   1      42.971  22.999  27.020  1.00  0.00    -0.014 A 
BRANCH  12  13
ATOM     13  C   UNL A   1      43.393  24.369  27.395  1.00  0.00     0.031 A 
ATOM     14  C   UNL A   1      44.823  24.812  27.266  1.00  0.00     0.074 A 
ATOM     15  C   UNL A   1      42.446  25.235  27.806  1.00  0.00     0.049 A 
ATOM     16  N   UNL A   1      45.340  25.989  27.514  1.00  0.00    -0.248 NA
ATOM     17  C   UNL A   1      45.799  23.812  26.804  1.00  0.00     0.031 C 
ATOM     18  C   UNL A   1      41.025  24.912  27.967  1.00  0.00     0.029 A 
ATOM     19  N   UNL A   1      42.525  26.563  28.127  1.00  0.00    -0.354 N 
ATOM     20  C   UNL A   1      46.700  25.869  27.258  1.00  0.00     0.074 A 
ATOM     21  C   UNL A   1      46.933  24.499  26.853  1.00  0.00     0.031 C 
ATOM     22  C   UNL A   1      40.357  26.027  28.295  1.00  0.00     0.029 A 
ATOM     23  C   UNL A   1      41.308  27.122  28.432  1.00  0.00     0.049 A 
ATOM     24  H   UNL A   1      43.370  27.068  28.138  1.00  0.00     0.167 HD
ATOM     25  C   UNL A   1      47.664  26.817  27.349  1.00  0.00     0.031 A 
ATOM     26  C   UNL A   1      40.991  28.377  28.795  1.00  0.00     0.031 A 
ATOM     27  C   UNL A   1      47.428  28.178  27.753  1.00  0.00     0.049 A 
ATOM     28  C   UNL A   1      42.081  29.397  28.906  1.00  0.00     0.074 A 
ATOM     29  C   UNL A   1      48.340  29.214  27.876  1.00  0.00     0.029 A 
ATOM     30  N   UNL A   1      46.187  28.696  28.094  1.00  0.00    -0.354 N 
ATOM     31  N   UNL A   1      43.361  29.264  28.659  1.00  0.00    -0.248 NA
ATOM     32  C   UNL A   1      41.684  30.739  29.349  1.00  0.00     0.031 C 
ATOM     33  C   UNL A   1      47.656  30.349  28.326  1.00  0.00     0.029 A 
ATOM     34  C   UNL A   1      46.312  30.031  28.440  1.00  0.00     0.049 A 
ATOM     35  H   UNL A   1      45.344  28.189  28.091  1.00  0.00     0.167 HD
ATOM     36  C   UNL A   1      43.925  30.506  28.913  1.00  0.00     0.074 A 
ATOM     37  C   UNL A   1      42.841  31.386  29.304  1.00  0.00     0.031 C 
ATOM     38  C   UNL A   1      45.223  30.883  28.838  1.00  0.00     0.031 A 
BRANCH  25  39
ATOM     39  C   UNL A   1      49.074  26.407  27.028  1.00  0.00    -0.014 A 
ATOM     40  C   UNL A   1      49.955  25.983  28.036  1.00  0.00     0.009 A 
ATOM     41  C   UNL A   1      49.512  26.392  25.694  1.00  0.00     0.009 A 
ATOM     42  C   UNL A   1      51.253  25.578  27.716  1.00  0.00     0.001 A 
ATOM     43  C   UNL A   1      50.802  25.966  25.375  1.00  0.00     0.001 A 
ATOM     44  C   UNL A   1      51.674  25.565  26.386  1.00  0.00     0.000 A 
ENDBRANCH  25  39
BRANCH  26  45
ATOM     45  C   UNL A   1      39.579  28.721  29.095  1.00  0.00    -0.014 A 
ATOM     46  C   UNL A   1      38.721  29.171  28.082  1.00  0.00     0.009 A 
ATOM     47  C   UNL A   1      39.079  28.577  30.399  1.00  0.00     0.009 A 
ATOM     48  C   UNL A   1      37.393  29.487  28.373  1.00  0.00     0.001 A 
ATOM     49  C   UNL A   1      37.743  28.866  30.680  1.00  0.00     0.001 A 
ATOM     50  C   UNL A   1      36.903  29.328  29.669  1.00  0.00     0.000 A 
ENDBRANCH  26  45
BRANCH  38  51
ATOM     51  C   UNL A   1      45.526  32.313  29.173  1.00  0.00    -0.014 A 
ATOM     52  C   UNL A   1      45.494  33.309  28.184  1.00  0.00     0.009 A 
ATOM     53  C   UNL A   1      45.842  32.668  30.493  1.00  0.00     0.009 A 
ATOM     54  C   UNL A   1      45.807  34.630  28.506  1.00  0.00     0.001 A 
ATOM     55  C   UNL A   1      46.133  33.995  30.815  1.00  0.00     0.001 A 
ATOM     56  C   UNL A   1      46.125  34.972  29.821  1.00  0.00     0.000 A 
ENDBRANCH  38  51
ENDBRANCH  12  13
ENDBRANCH   5   7
ENDBRANCH   2   3
ENDBRANCH   1   2
BRANCH   1  57
ATOM     57  C   UNL A   1      36.903  20.637  25.018  1.00  0.00     0.023 C 
BRANCH  57  58
ATOM     58  C   UNL A   1      37.163  22.055  25.509  1.00  0.00     0.116 C 
BRANCH  58  59
ATOM     59  N   UNL A   1      36.204  22.484  26.499  1.00  0.00    -0.356 N 
ATOM     60  C   UNL A   1      34.902  22.848  26.353  1.00  0.00     0.224 C 
ATOM     61  H   UNL A   1      36.545  22.519  27.422  1.00  0.00     0.163 HD
ATOM     62  O   UNL A   1      34.258  22.995  27.393  1.00  0.00    -0.275 OA
BRANCH  60  63
ATOM     63  C   UNL A   1      34.255  22.949  24.969  1.00  0.00     0.094 C 
ATOM     64  C   UNL A   1      33.619  21.591  24.536  1.00  0.00     0.002 C 
ATOM     65  C   UNL A   1      33.057  23.921  24.810  1.00  0.00     0.094 C 
ATOM     66  C   UNL A   1      32.502  21.128  25.498  1.00  0.00     0.005 C 
ATOM     67  C   UNL A   1      32.781  22.023  23.338  1.00  0.00     0.009 C 
ATOM     68  C   UNL A   1      31.972  23.037  24.152  1.00  0.00     0.002 C 
ATOM     69  C   UNL A   1      31.371  22.131  25.240  1.00  0.00     0.005 C 
BRANCH  65  70
ATOM     70  C   UNL A   1      33.349  25.201  24.009  1.00  0.00     0.226 C 
ATOM     71  O   UNL A   1      34.429  25.367  23.444  1.00  0.00    -0.275 OA
ATOM     72  N   UNL A   1      32.335  26.129  23.885  1.00  0.00    -0.339 N 
ATOM     73  C   UNL A   1      32.014  26.600  22.531  1.00  0.00     0.141 C 
ATOM     74  C   UNL A   1      32.303  27.226  24.858  1.00  0.00     0.141 C 
ATOM     75  C   UNL A   1      30.634  27.275  22.482  1.00  0.00     0.138 C 
ATOM     76  C   UNL A   1      30.953  27.959  24.858  1.00  0.00     0.138 C 
ATOM     77  N   UNL A   1      30.573  28.347  23.486  1.00  0.00    -0.368 N 
BRANCH  77  78
ATOM     78  C   UNL A   1      29.614  29.345  23.379  1.00  0.00     0.038 A 
ATOM     79  C   UNL A   1      28.283  28.985  23.126  1.00  0.00     0.026 A 
ATOM     80  C   UNL A   1      29.915  30.705  23.507  1.00  0.00     0.046 A 
ATOM     81  C   UNL A   1      27.278  29.945  23.001  1.00  0.00     0.004 A 
ATOM     82  C   UNL A   1      28.913  31.668  23.369  1.00  0.00     0.043 A 
ATOM     83  C   UNL A   1      27.595  31.294  23.120  1.00  0.00     0.020 A 
ATOM     84  Cl  UNL A   1      29.312  33.338  23.499  1.00  0.00    -0.084 Cl
ENDBRANCH  77  78
ENDBRANCH  65  70
ENDBRANCH  60  63
ENDBRANCH  58  59
ENDBRANCH  57  58
ENDBRANCH   1  57
TORSDOF 13
ENDMDL
