MODEL 1
REMARK VINA RESULT:     -12.4      0.000      0.000
REMARK SMILES O=C(NCCCCNC(=O)c1ccc(-c2c3nc(c(-c4ccccc4)c4ccc([nH]4)c(-c4ccccc4)c4nc(c(-c5ccccc5)c5ccc2[nH]5)C=C4)C=C3)cc1)C1=Cc2cc(Cl)cc(-c3ccc(Cl)cc3)c2O[C@@H]1C(F)(F)F
REMARK SMILES IDX 6 1 5 2 4 3 3 4 1 5 2 6 59 8 60 9 76 10 61 11 75 12 62 13
REMARK SMILES IDX 74 14 63 15 66 16 64 17 65 18 77 19 78 20 79 21 80 22 67 23
REMARK SMILES IDX 68 24 73 25 69 26 72 27 70 28 71 29 7 30 8 31 9 32 10 34
REMARK SMILES IDX 11 35 12 36 58 37 13 38 57 39 14 40 15 41 16 42 51 43 17 44
REMARK SMILES IDX 56 45 50 46 52 47 18 48 55 49 49 50 48 51 19 53 41 54 26 55
REMARK SMILES IDX 40 56 27 57 30 58 39 59 53 60 28 61 29 62 38 64 54 65 31 66
REMARK SMILES IDX 20 67 21 68 25 69 22 70 24 71 23 72 42 73 43 74 47 75 44 76
REMARK SMILES IDX 46 77 45 78 32 79 33 80 37 81 34 82 36 83 35 84
REMARK H PARENT 3 7 8 33 52 52 30 63
REMARK Flexibility Score: inf
ROOT
ATOM      1  C   UNL A   1      36.693  22.683  24.027  1.00  0.00     0.023 C 
ENDROOT
BRANCH   1   2
ATOM      2  C   UNL A   1      35.449  21.851  24.373  1.00  0.00     0.023 C 
BRANCH   2   3
ATOM      3  C   UNL A   1      34.127  22.628  24.314  1.00  0.00     0.116 C 
BRANCH   3   4
ATOM      4  N   UNL A   1      34.131  23.719  23.333  1.00  0.00    -0.352 N 
ATOM      5  O   UNL A   1      34.140  25.848  22.592  1.00  0.00    -0.270 OA
ATOM      6  C   UNL A   1      33.731  25.033  23.411  1.00  0.00     0.251 C 
ATOM      7  H   UNL A   1      34.488  23.462  22.453  1.00  0.00     0.163 HD
BRANCH   6   8
ATOM      8  C   UNL A   1      32.935  25.465  24.577  1.00  0.00     0.067 C 
ATOM      9  C   UNL A   1      33.465  25.994  25.688  1.00  0.00     0.025 C 
ATOM     10  C   UNL A   1      31.453  25.567  24.394  1.00  0.00     0.314 C 
ATOM     11  C   UNL A   1      32.938  27.356  25.922  1.00  0.00     0.019 A 
ATOM     12  O   UNL A   1      31.042  26.952  24.419  1.00  0.00    -0.475 OA
ATOM     13  C   UNL A   1      33.745  28.288  26.587  1.00  0.00     0.032 A 
ATOM     14  C   UNL A   1      31.817  27.806  25.182  1.00  0.00     0.135 A 
ATOM     15  C   UNL A   1      33.458  29.649  26.487  1.00  0.00     0.042 A 
ATOM     16  C   UNL A   1      31.558  29.182  25.038  1.00  0.00     0.026 A 
ATOM     17  Cl  UNL A   1      34.524  30.797  27.198  1.00  0.00    -0.084 Cl
ATOM     18  C   UNL A   1      32.385  30.095  25.715  1.00  0.00     0.033 A 
BRANCH  10  19
ATOM     19  C   UNL A   1      30.705  24.717  25.451  1.00  0.00     0.429 C 
ATOM     20  F   UNL A   1      30.335  23.516  24.945  1.00  0.00    -0.167 F 
ATOM     21  F   UNL A   1      31.481  24.463  26.533  1.00  0.00    -0.167 F 
ATOM     22  F   UNL A   1      29.578  25.316  25.908  1.00  0.00    -0.167 F 
ENDBRANCH  10  19
BRANCH  16  23
ATOM     23  C   UNL A   1      30.603  29.697  24.047  1.00  0.00    -0.015 A 
ATOM     24  C   UNL A   1      30.635  29.201  22.730  1.00  0.00     0.010 A 
ATOM     25  C   UNL A   1      29.695  30.714  24.358  1.00  0.00     0.010 A 
ATOM     26  C   UNL A   1      29.816  29.739  21.737  1.00  0.00     0.021 A 
ATOM     27  C   UNL A   1      28.870  31.253  23.366  1.00  0.00     0.021 A 
ATOM     28  C   UNL A   1      28.947  30.776  22.058  1.00  0.00     0.041 A 
ATOM     29  Cl  UNL A   1      27.975  31.479  20.825  1.00  0.00    -0.084 Cl
ENDBRANCH  16  23
ENDBRANCH   6   8
ENDBRANCH   3   4
ENDBRANCH   2   3
ENDBRANCH   1   2
BRANCH   1  30
ATOM     30  C   UNL A   1      37.509  23.229  25.199  1.00  0.00     0.116 C 
BRANCH  30  31
ATOM     31  N   UNL A   1      38.707  22.473  25.519  1.00  0.00    -0.352 N 
ATOM     32  C   UNL A   1      39.786  22.899  26.271  1.00  0.00     0.251 C 
ATOM     33  H   UNL A   1      38.756  21.557  25.162  1.00  0.00     0.163 HD
ATOM     34  O   UNL A   1      40.773  22.183  26.423  1.00  0.00    -0.269 OA
BRANCH  32  35
ATOM     35  C   UNL A   1      39.766  24.262  26.850  1.00  0.00     0.039 A 
ATOM     36  C   UNL A   1      39.183  24.461  28.104  1.00  0.00     0.014 A 
ATOM     37  C   UNL A   1      40.399  25.320  26.194  1.00  0.00     0.014 A 
ATOM     38  C   UNL A   1      39.333  25.694  28.748  1.00  0.00     0.010 A 
ATOM     39  C   UNL A   1      40.594  26.530  26.859  1.00  0.00     0.010 A 
ATOM     40  C   UNL A   1      40.090  26.719  28.155  1.00  0.00    -0.014 A 
BRANCH  40  41
ATOM     41  C   UNL A   1      40.434  27.954  28.910  1.00  0.00     0.031 A 
ATOM     42  C   UNL A   1      41.742  28.080  29.639  1.00  0.00     0.074 A 
ATOM     43  C   UNL A   1      39.520  28.943  29.006  1.00  0.00     0.049 A 
ATOM     44  N   UNL A   1      42.184  29.073  30.369  1.00  0.00    -0.248 NA
ATOM     45  C   UNL A   1      42.661  26.936  29.558  1.00  0.00     0.031 C 
ATOM     46  C   UNL A   1      38.187  28.929  28.397  1.00  0.00     0.029 A 
ATOM     47  N   UNL A   1      39.570  30.149  29.663  1.00  0.00    -0.354 N 
ATOM     48  C   UNL A   1      43.429  28.673  30.838  1.00  0.00     0.074 A 
ATOM     49  C   UNL A   1      43.651  27.329  30.349  1.00  0.00     0.031 C 
ATOM     50  C   UNL A   1      37.558  30.079  28.689  1.00  0.00     0.029 A 
ATOM     51  C   UNL A   1      38.425  30.898  29.529  1.00  0.00     0.049 A 
ATOM     52  H   UNL A   1      40.352  30.448  30.179  1.00  0.00     0.167 HD
ATOM     53  C   UNL A   1      44.315  29.366  31.594  1.00  0.00     0.031 A 
ATOM     54  C   UNL A   1      38.104  32.108  30.026  1.00  0.00     0.031 A 
ATOM     55  C   UNL A   1      44.103  30.703  32.082  1.00  0.00     0.049 A 
ATOM     56  C   UNL A   1      39.104  32.854  30.863  1.00  0.00     0.074 A 
ATOM     57  C   UNL A   1      44.973  31.505  32.803  1.00  0.00     0.029 A 
ATOM     58  N   UNL A   1      42.939  31.433  31.906  1.00  0.00    -0.354 N 
ATOM     59  N   UNL A   1      40.312  32.495  31.221  1.00  0.00    -0.248 NA
ATOM     60  C   UNL A   1      38.701  34.181  31.352  1.00  0.00     0.031 C 
ATOM     61  C   UNL A   1      44.318  32.704  33.101  1.00  0.00     0.029 A 
ATOM     62  C   UNL A   1      43.060  32.668  32.523  1.00  0.00     0.049 A 
ATOM     63  H   UNL A   1      42.144  31.122  31.416  1.00  0.00     0.167 HD
ATOM     64  C   UNL A   1      40.825  33.563  31.946  1.00  0.00     0.074 A 
ATOM     65  C   UNL A   1      39.802  34.587  31.969  1.00  0.00     0.031 C 
ATOM     66  C   UNL A   1      42.039  33.683  32.534  1.00  0.00     0.031 A 
BRANCH  53  67
ATOM     67  C   UNL A   1      45.609  28.685  31.943  1.00  0.00    -0.014 A 
ATOM     68  C   UNL A   1      46.735  28.806  31.113  1.00  0.00     0.009 A 
ATOM     69  C   UNL A   1      45.720  27.962  33.140  1.00  0.00     0.009 A 
ATOM     70  C   UNL A   1      47.938  28.188  31.461  1.00  0.00     0.001 A 
ATOM     71  C   UNL A   1      46.932  27.367  33.497  1.00  0.00     0.001 A 
ATOM     72  C   UNL A   1      48.037  27.473  32.654  1.00  0.00     0.000 A 
ENDBRANCH  53  67
BRANCH  54  73
ATOM     73  C   UNL A   1      36.780  32.710  29.725  1.00  0.00    -0.014 A 
ATOM     74  C   UNL A   1      36.599  33.490  28.573  1.00  0.00     0.009 A 
ATOM     75  C   UNL A   1      35.695  32.524  30.596  1.00  0.00     0.009 A 
ATOM     76  C   UNL A   1      35.367  34.095  28.313  1.00  0.00     0.001 A 
ATOM     77  C   UNL A   1      34.456  33.106  30.319  1.00  0.00     0.001 A 
ATOM     78  C   UNL A   1      34.296  33.900  29.184  1.00  0.00     0.000 A 
ENDBRANCH  54  73
BRANCH  66  79
ATOM     79  C   UNL A   1      42.349  34.986  33.217  1.00  0.00    -0.014 A 
ATOM     80  C   UNL A   1      41.919  35.244  34.527  1.00  0.00     0.009 A 
ATOM     81  C   UNL A   1      43.122  35.949  32.552  1.00  0.00     0.009 A 
ATOM     82  C   UNL A   1      42.234  36.455  35.146  1.00  0.00     0.001 A 
ATOM     83  C   UNL A   1      43.458  37.148  33.183  1.00  0.00     0.001 A 
ATOM     84  C   UNL A   1      43.006  37.403  34.476  1.00  0.00     0.000 A 
ENDBRANCH  66  79
ENDBRANCH  40  41
ENDBRANCH  32  35
ENDBRANCH  30  31
ENDBRANCH   1  30
TORSDOF 13
ENDMDL
MODEL 2
REMARK VINA RESULT:     -12.2      3.196      4.648
REMARK SMILES O=C(NCCCCNC(=O)c1ccc(-c2c3nc(c(-c4ccccc4)c4ccc([nH]4)c(-c4ccccc4)c4nc(c(-c5ccccc5)c5ccc2[nH]5)C=C4)C=C3)cc1)C1=Cc2cc(Cl)cc(-c3ccc(Cl)cc3)c2O[C@@H]1C(F)(F)F
REMARK SMILES IDX 6 1 5 2 4 3 3 4 1 5 2 6 59 8 60 9 76 10 61 11 75 12 62 13
REMARK SMILES IDX 74 14 63 15 66 16 64 17 65 18 77 19 78 20 79 21 80 22 67 23
REMARK SMILES IDX 68 24 73 25 69 26 72 27 70 28 71 29 7 30 8 31 9 32 10 34
REMARK SMILES IDX 11 35 12 36 58 37 13 38 57 39 14 40 15 41 16 42 51 43 17 44
REMARK SMILES IDX 56 45 50 46 52 47 18 48 55 49 49 50 48 51 19 53 41 54 26 55
REMARK SMILES IDX 40 56 27 57 30 58 39 59 53 60 28 61 29 62 38 64 54 65 31 66
REMARK SMILES IDX 20 67 21 68 25 69 22 70 24 71 23 72 42 73 43 74 47 75 44 76
REMARK SMILES IDX 46 77 45 78 32 79 33 80 37 81 34 82 36 83 35 84
REMARK H PARENT 3 7 8 33 52 52 30 63
REMARK Flexibility Score: inf
ROOT
ATOM      1  C   UNL A   1      35.749  20.920  25.322  1.00  0.00     0.023 C 
ENDROOT
BRANCH   1   2
ATOM      2  C   UNL A   1      34.798  21.430  26.415  1.00  0.00     0.023 C 
BRANCH   2   3
ATOM      3  C   UNL A   1      33.308  21.270  26.085  1.00  0.00     0.116 C 
BRANCH   3   4
ATOM      4  N   UNL A   1      32.435  22.148  26.872  1.00  0.00    -0.352 N 
ATOM      5  O   UNL A   1      30.855  23.711  27.251  1.00  0.00    -0.270 OA
ATOM      6  C   UNL A   1      31.802  23.332  26.572  1.00  0.00     0.251 C 
ATOM      7  H   UNL A   1      32.272  21.830  27.789  1.00  0.00     0.163 HD
BRANCH   6   8
ATOM      8  C   UNL A   1      32.181  24.047  25.337  1.00  0.00     0.067 C 
ATOM      9  C   UNL A   1      31.342  24.272  24.317  1.00  0.00     0.025 C 
ATOM     10  C   UNL A   1      33.482  24.786  25.346  1.00  0.00     0.314 C 
ATOM     11  C   UNL A   1      31.192  25.723  24.074  1.00  0.00     0.019 A 
ATOM     12  O   UNL A   1      33.245  26.211  25.325  1.00  0.00    -0.475 OA
ATOM     13  C   UNL A   1      29.986  26.199  23.545  1.00  0.00     0.032 A 
ATOM     14  C   UNL A   1      32.089  26.630  24.692  1.00  0.00     0.135 A 
ATOM     15  C   UNL A   1      29.664  27.551  23.662  1.00  0.00     0.042 A 
ATOM     16  C   UNL A   1      31.741  27.983  24.857  1.00  0.00     0.026 A 
ATOM     17  Cl  UNL A   1      28.126  28.108  23.125  1.00  0.00    -0.084 Cl
ATOM     18  C   UNL A   1      30.523  28.433  24.317  1.00  0.00     0.033 A 
BRANCH  10  19
ATOM     19  C   UNL A   1      34.389  24.328  24.178  1.00  0.00     0.429 C 
ATOM     20  F   UNL A   1      34.361  25.214  23.154  1.00  0.00    -0.167 F 
ATOM     21  F   UNL A   1      35.685  24.215  24.562  1.00  0.00    -0.167 F 
ATOM     22  F   UNL A   1      34.025  23.125  23.668  1.00  0.00    -0.167 F 
ENDBRANCH  10  19
BRANCH  16  23
ATOM     23  C   UNL A   1      32.491  28.880  25.746  1.00  0.00    -0.015 A 
ATOM     24  C   UNL A   1      31.890  30.070  26.198  1.00  0.00     0.010 A 
ATOM     25  C   UNL A   1      33.815  28.616  26.113  1.00  0.00     0.010 A 
ATOM     26  C   UNL A   1      32.606  30.996  26.958  1.00  0.00     0.021 A 
ATOM     27  C   UNL A   1      34.534  29.541  26.876  1.00  0.00     0.021 A 
ATOM     28  C   UNL A   1      33.933  30.733  27.280  1.00  0.00     0.041 A 
ATOM     29  Cl  UNL A   1      34.836  31.896  28.168  1.00  0.00    -0.084 Cl
ENDBRANCH  16  23
ENDBRANCH   6   8
ENDBRANCH   3   4
ENDBRANCH   2   3
ENDBRANCH   1   2
BRANCH   1  30
ATOM     30  C   UNL A   1      37.162  21.503  25.306  1.00  0.00     0.116 C 
BRANCH  30  31
ATOM     31  N   UNL A   1      38.230  20.536  25.489  1.00  0.00    -0.352 N 
ATOM     32  C   UNL A   1      39.453  20.749  26.097  1.00  0.00     0.251 C 
ATOM     33  H   UNL A   1      38.065  19.629  25.143  1.00  0.00     0.163 HD
ATOM     34  O   UNL A   1      40.301  19.861  26.139  1.00  0.00    -0.269 OA
BRANCH  32  35
ATOM     35  C   UNL A   1      39.756  22.088  26.653  1.00  0.00     0.039 A 
ATOM     36  C   UNL A   1      40.759  22.213  27.617  1.00  0.00     0.014 A 
ATOM     37  C   UNL A   1      39.113  23.224  26.157  1.00  0.00     0.014 A 
ATOM     38  C   UNL A   1      41.192  23.487  28.002  1.00  0.00     0.010 A 
ATOM     39  C   UNL A   1      39.581  24.491  26.501  1.00  0.00     0.010 A 
ATOM     40  C   UNL A   1      40.646  24.635  27.403  1.00  0.00    -0.014 A 
BRANCH  40  41
ATOM     41  C   UNL A   1      41.234  25.981  27.644  1.00  0.00     0.031 A 
ATOM     42  C   UNL A   1      42.585  26.347  27.096  1.00  0.00     0.074 A 
ATOM     43  C   UNL A   1      40.578  26.854  28.437  1.00  0.00     0.049 A 
ATOM     44  N   UNL A   1      43.254  27.463  27.240  1.00  0.00    -0.248 NA
ATOM     45  C   UNL A   1      43.282  25.323  26.305  1.00  0.00     0.031 C 
ATOM     46  C   UNL A   1      39.285  26.608  29.083  1.00  0.00     0.029 A 
ATOM     47  N   UNL A   1      40.912  28.123  28.843  1.00  0.00    -0.354 N 
ATOM     48  C   UNL A   1      44.453  27.274  26.563  1.00  0.00     0.074 A 
ATOM     49  C   UNL A   1      44.437  25.921  26.049  1.00  0.00     0.031 C 
ATOM     50  C   UNL A   1      38.929  27.697  29.783  1.00  0.00     0.029 A 
ATOM     51  C   UNL A   1      39.976  28.705  29.663  1.00  0.00     0.049 A 
ATOM     52  H   UNL A   1      41.745  28.573  28.571  1.00  0.00     0.167 HD
ATOM     53  C   UNL A   1      45.468  28.152  26.372  1.00  0.00     0.031 A 
ATOM     54  C   UNL A   1      39.957  29.915  30.254  1.00  0.00     0.031 A 
ATOM     55  C   UNL A   1      45.490  29.499  26.877  1.00  0.00     0.049 A 
ATOM     56  C   UNL A   1      41.097  30.868  30.028  1.00  0.00     0.074 A 
ATOM     57  C   UNL A   1      46.450  30.478  26.679  1.00  0.00     0.029 A 
ATOM     58  N   UNL A   1      44.512  30.056  27.685  1.00  0.00    -0.354 N 
ATOM     59  N   UNL A   1      42.181  30.703  29.310  1.00  0.00    -0.248 NA
ATOM     60  C   UNL A   1      41.002  32.182  30.681  1.00  0.00     0.031 C 
ATOM     61  C   UNL A   1      46.074  31.614  27.404  1.00  0.00     0.029 A 
ATOM     62  C   UNL A   1      44.855  31.358  28.011  1.00  0.00     0.049 A 
ATOM     63  H   UNL A   1      43.694  29.596  27.982  1.00  0.00     0.167 HD
ATOM     64  C   UNL A   1      42.878  31.901  29.397  1.00  0.00     0.074 A 
ATOM     65  C   UNL A   1      42.092  32.787  30.229  1.00  0.00     0.031 C 
ATOM     66  C   UNL A   1      44.063  32.235  28.833  1.00  0.00     0.031 A 
BRANCH  53  67
ATOM     67  C   UNL A   1      46.651  27.679  25.574  1.00  0.00    -0.014 A 
ATOM     68  C   UNL A   1      47.696  26.966  26.185  1.00  0.00     0.009 A 
ATOM     69  C   UNL A   1      46.696  27.899  24.190  1.00  0.00     0.009 A 
ATOM     70  C   UNL A   1      48.778  26.512  25.428  1.00  0.00     0.001 A 
ATOM     71  C   UNL A   1      47.767  27.421  23.431  1.00  0.00     0.001 A 
ATOM     72  C   UNL A   1      48.811  26.736  24.051  1.00  0.00     0.000 A 
ENDBRANCH  53  67
BRANCH  54  73
ATOM     73  C   UNL A   1      38.805  30.313  31.104  1.00  0.00    -0.014 A 
ATOM     74  C   UNL A   1      37.677  30.922  30.533  1.00  0.00     0.009 A 
ATOM     75  C   UNL A   1      38.833  30.102  32.491  1.00  0.00     0.009 A 
ATOM     76  C   UNL A   1      36.613  31.337  31.336  1.00  0.00     0.001 A 
ATOM     77  C   UNL A   1      37.756  30.493  33.289  1.00  0.00     0.001 A 
ATOM     78  C   UNL A   1      36.651  31.119  32.712  1.00  0.00     0.000 A 
ENDBRANCH  54  73
BRANCH  66  79
ATOM     79  C   UNL A   1      44.564  33.634  29.056  1.00  0.00    -0.014 A 
ATOM     80  C   UNL A   1      45.416  33.942  30.127  1.00  0.00     0.009 A 
ATOM     81  C   UNL A   1      44.211  34.648  28.153  1.00  0.00     0.009 A 
ATOM     82  C   UNL A   1      45.882  35.247  30.304  1.00  0.00     0.001 A 
ATOM     83  C   UNL A   1      44.700  35.945  28.317  1.00  0.00     0.001 A 
ATOM     84  C   UNL A   1      45.527  36.245  29.397  1.00  0.00     0.000 A 
ENDBRANCH  66  79
ENDBRANCH  40  41
ENDBRANCH  32  35
ENDBRANCH  30  31
ENDBRANCH   1  30
TORSDOF 13
ENDMDL
MODEL 3
REMARK VINA RESULT:     -12.2      3.382      6.795
REMARK SMILES O=C(NCCCCNC(=O)c1ccc(-c2c3nc(c(-c4ccccc4)c4ccc([nH]4)c(-c4ccccc4)c4nc(c(-c5ccccc5)c5ccc2[nH]5)C=C4)C=C3)cc1)C1=Cc2cc(Cl)cc(-c3ccc(Cl)cc3)c2O[C@@H]1C(F)(F)F
REMARK SMILES IDX 6 1 5 2 4 3 3 4 1 5 2 6 59 8 60 9 76 10 61 11 75 12 62 13
REMARK SMILES IDX 74 14 63 15 66 16 64 17 65 18 77 19 78 20 79 21 80 22 67 23
REMARK SMILES IDX 68 24 73 25 69 26 72 27 70 28 71 29 7 30 8 31 9 32 10 34
REMARK SMILES IDX 11 35 12 36 58 37 13 38 57 39 14 40 15 41 16 42 51 43 17 44
REMARK SMILES IDX 56 45 50 46 52 47 18 48 55 49 49 50 48 51 19 53 41 54 26 55
REMARK SMILES IDX 40 56 27 57 30 58 39 59 53 60 28 61 29 62 38 64 54 65 31 66
REMARK SMILES IDX 20 67 21 68 25 69 22 70 24 71 23 72 42 73 43 74 47 75 44 76
REMARK SMILES IDX 46 77 45 78 32 79 33 80 37 81 34 82 36 83 35 84
REMARK H PARENT 3 7 8 33 52 52 30 63
REMARK Flexibility Score: inf
ROOT
ATOM      1  C   UNL A   1      35.969  20.695  25.052  1.00  0.00     0.023 C 
ENDROOT
BRANCH   1   2
ATOM      2  C   UNL A   1      35.144  21.260  26.219  1.00  0.00     0.023 C 
BRANCH   2   3
ATOM      3  C   UNL A   1      33.632  21.035  26.096  1.00  0.00     0.116 C 
BRANCH   3   4
ATOM      4  N   UNL A   1      32.835  21.913  26.960  1.00  0.00    -0.352 N 
ATOM      5  O   UNL A   1      31.312  23.490  27.482  1.00  0.00    -0.270 OA
ATOM      6  C   UNL A   1      32.197  23.109  26.725  1.00  0.00     0.251 C 
ATOM      7  H   UNL A   1      32.740  21.584  27.883  1.00  0.00     0.163 HD
BRANCH   6   8
ATOM      8  C   UNL A   1      32.488  23.836  25.474  1.00  0.00     0.067 C 
ATOM      9  C   UNL A   1      31.603  23.999  24.482  1.00  0.00     0.025 C 
ATOM     10  C   UNL A   1      33.738  24.658  25.435  1.00  0.00     0.314 C 
ATOM     11  C   UNL A   1      31.352  25.435  24.235  1.00  0.00     0.019 A 
ATOM     12  O   UNL A   1      33.410  26.064  25.413  1.00  0.00    -0.475 OA
ATOM     13  C   UNL A   1      30.101  25.829  23.744  1.00  0.00     0.032 A 
ATOM     14  C   UNL A   1      32.209  26.403  24.817  1.00  0.00     0.135 A 
ATOM     15  C   UNL A   1      29.697  27.159  23.863  1.00  0.00     0.042 A 
ATOM     16  C   UNL A   1      31.780  27.732  24.984  1.00  0.00     0.026 A 
ATOM     17  Cl  UNL A   1      28.110  27.612  23.375  1.00  0.00    -0.084 Cl
ATOM     18  C   UNL A   1      30.519  28.099  24.484  1.00  0.00     0.033 A 
BRANCH  10  19
ATOM     19  C   UNL A   1      34.634  24.248  24.239  1.00  0.00     0.429 C 
ATOM     20  F   UNL A   1      35.929  24.121  24.614  1.00  0.00    -0.167 F 
ATOM     21  F   UNL A   1      34.259  23.055  23.716  1.00  0.00    -0.167 F 
ATOM     22  F   UNL A   1      34.603  25.148  23.225  1.00  0.00    -0.167 F 
ENDBRANCH  10  19
BRANCH  16  23
ATOM     23  C   UNL A   1      32.501  28.683  25.842  1.00  0.00    -0.015 A 
ATOM     24  C   UNL A   1      31.870  29.879  26.234  1.00  0.00     0.010 A 
ATOM     25  C   UNL A   1      33.825  28.462  26.237  1.00  0.00     0.010 A 
ATOM     26  C   UNL A   1      32.558  30.852  26.960  1.00  0.00     0.021 A 
ATOM     27  C   UNL A   1      34.515  29.435  26.967  1.00  0.00     0.021 A 
ATOM     28  C   UNL A   1      33.885  30.630  27.310  1.00  0.00     0.041 A 
ATOM     29  Cl  UNL A   1      34.754  31.850  28.157  1.00  0.00    -0.084 Cl
ENDBRANCH  16  23
ENDBRANCH   6   8
ENDBRANCH   3   4
ENDBRANCH   2   3
ENDBRANCH   1   2
BRANCH   1  30
ATOM     30  C   UNL A   1      37.428  21.139  24.956  1.00  0.00     0.116 C 
BRANCH  30  31
ATOM     31  N   UNL A   1      38.407  20.091  25.185  1.00  0.00    -0.352 N 
ATOM     32  C   UNL A   1      39.601  20.200  25.872  1.00  0.00     0.251 C 
ATOM     33  H   UNL A   1      38.197  19.205  24.809  1.00  0.00     0.163 HD
ATOM     34  O   UNL A   1      40.377  19.251  25.948  1.00  0.00    -0.269 OA
BRANCH  32  35
ATOM     35  C   UNL A   1      39.967  21.503  26.475  1.00  0.00     0.039 A 
ATOM     36  C   UNL A   1      41.091  21.579  27.301  1.00  0.00     0.014 A 
ATOM     37  C   UNL A   1      39.252  22.659  26.152  1.00  0.00     0.014 A 
ATOM     38  C   UNL A   1      41.562  22.831  27.713  1.00  0.00     0.010 A 
ATOM     39  C   UNL A   1      39.753  23.907  26.518  1.00  0.00     0.010 A 
ATOM     40  C   UNL A   1      40.930  24.008  27.275  1.00  0.00    -0.014 A 
BRANCH  40  41
ATOM     41  C   UNL A   1      41.535  25.343  27.529  1.00  0.00     0.031 A 
ATOM     42  C   UNL A   1      40.822  26.375  28.356  1.00  0.00     0.074 A 
ATOM     43  C   UNL A   1      42.707  25.658  26.937  1.00  0.00     0.049 A 
ATOM     44  N   UNL A   1      41.194  27.597  28.647  1.00  0.00    -0.248 NA
ATOM     45  C   UNL A   1      39.513  25.996  28.908  1.00  0.00     0.031 C 
ATOM     46  C   UNL A   1      43.481  24.773  26.062  1.00  0.00     0.029 A 
ATOM     47  N   UNL A   1      43.449  26.814  26.975  1.00  0.00    -0.354 N 
ATOM     48  C   UNL A   1      40.165  28.134  29.410  1.00  0.00     0.074 A 
ATOM     49  C   UNL A   1      39.134  27.122  29.498  1.00  0.00     0.031 C 
ATOM     50  C   UNL A   1      44.594  25.409  25.665  1.00  0.00     0.029 A 
ATOM     51  C   UNL A   1      44.602  26.754  26.230  1.00  0.00     0.049 A 
ATOM     52  H   UNL A   1      43.179  27.610  27.488  1.00  0.00     0.167 HD
ATOM     53  C   UNL A   1      40.091  29.352  29.999  1.00  0.00     0.031 A 
ATOM     54  C   UNL A   1      45.562  27.676  26.023  1.00  0.00     0.031 A 
ATOM     55  C   UNL A   1      41.113  30.362  29.919  1.00  0.00     0.049 A 
ATOM     56  C   UNL A   1      45.454  29.020  26.686  1.00  0.00     0.074 A 
ATOM     57  C   UNL A   1      41.150  31.602  30.536  1.00  0.00     0.029 A 
ATOM     58  N   UNL A   1      42.275  30.253  29.173  1.00  0.00    -0.354 N 
ATOM     59  N   UNL A   1      44.516  29.477  27.477  1.00  0.00    -0.248 NA
ATOM     60  C   UNL A   1      46.548  29.971  26.438  1.00  0.00     0.031 C 
ATOM     61  C   UNL A   1      42.314  32.261  30.127  1.00  0.00     0.029 A 
ATOM     62  C   UNL A   1      43.025  31.411  29.296  1.00  0.00     0.049 A 
ATOM     63  H   UNL A   1      42.531  29.469  28.635  1.00  0.00     0.167 HD
ATOM     64  C   UNL A   1      44.922  30.752  27.850  1.00  0.00     0.074 A 
ATOM     65  C   UNL A   1      46.196  30.993  27.205  1.00  0.00     0.031 C 
ATOM     66  C   UNL A   1      44.295  31.639  28.658  1.00  0.00     0.031 A 
BRANCH  53  67
ATOM     67  C   UNL A   1      38.853  29.665  30.792  1.00  0.00    -0.014 A 
ATOM     68  C   UNL A   1      38.785  29.385  32.166  1.00  0.00     0.009 A 
ATOM     69  C   UNL A   1      37.764  30.295  30.171  1.00  0.00     0.009 A 
ATOM     70  C   UNL A   1      37.637  29.702  32.895  1.00  0.00     0.001 A 
ATOM     71  C   UNL A   1      36.628  30.634  30.908  1.00  0.00     0.001 A 
ATOM     72  C   UNL A   1      36.561  30.330  32.267  1.00  0.00     0.000 A 
ENDBRANCH  53  67
BRANCH  54  73
ATOM     73  C   UNL A   1      46.731  27.355  25.164  1.00  0.00    -0.014 A 
ATOM     74  C   UNL A   1      46.824  27.877  23.865  1.00  0.00     0.009 A 
ATOM     75  C   UNL A   1      47.751  26.511  25.631  1.00  0.00     0.009 A 
ATOM     76  C   UNL A   1      47.900  27.539  23.041  1.00  0.00     0.001 A 
ATOM     77  C   UNL A   1      48.840  26.197  24.815  1.00  0.00     0.001 A 
ATOM     78  C   UNL A   1      48.908  26.703  23.517  1.00  0.00     0.000 A 
ENDBRANCH  54  73
BRANCH  66  79
ATOM     79  C   UNL A   1      44.997  32.940  28.931  1.00  0.00    -0.014 A 
ATOM     80  C   UNL A   1      45.915  33.069  29.983  1.00  0.00     0.009 A 
ATOM     81  C   UNL A   1      44.765  34.041  28.091  1.00  0.00     0.009 A 
ATOM     82  C   UNL A   1      46.566  34.283  30.206  1.00  0.00     0.001 A 
ATOM     83  C   UNL A   1      45.437  35.245  28.300  1.00  0.00     0.001 A 
ATOM     84  C   UNL A   1      46.330  35.368  29.362  1.00  0.00     0.000 A 
ENDBRANCH  66  79
ENDBRANCH  40  41
ENDBRANCH  32  35
ENDBRANCH  30  31
ENDBRANCH   1  30
TORSDOF 13
ENDMDL
