MODEL 1
REMARK VINA RESULT:     -10.4      0.000      0.000
REMARK SMILES CCc1ccc(S(=O)(=O)CC(=O)NCCCCNC(=O)c2ccc(-c3c4nc(c(-c5ccccc5)c5ccc([nH]5)c(-c5ccccc5)c5nc(c(-c6ccccc6)c6ccc3[nH]6)C=C5)C=C4)cc2)cc1
REMARK SMILES IDX 15 1 14 2 13 3 11 4 12 5 10 7 7 8 8 9 9 10 6 11 3 12 4 13
REMARK SMILES IDX 70 14 5 15 69 16 2 17 1 18 16 19 17 20 18 21 19 22 20 24
REMARK SMILES IDX 21 25 22 26 68 27 23 28 67 29 24 30 25 31 26 32 61 33 27 34
REMARK SMILES IDX 66 35 60 36 62 37 28 38 65 39 59 40 58 41 29 43 51 44 36 45
REMARK SMILES IDX 50 46 37 47 40 48 49 49 63 50 38 51 39 52 48 54 64 55 41 56
REMARK SMILES IDX 30 57 31 58 35 59 32 60 34 61 33 62 52 63 53 64 57 65 54 66
REMARK SMILES IDX 56 67 55 68 42 69 43 70 47 71 44 72 46 73 45 74
REMARK H PARENT 13 6 18 23 62 42 40 53
REMARK Flexibility Score: inf
ROOT
ATOM      1  C   UNL A   1      36.324  20.513  25.020  1.00  0.00     0.023 C 
ENDROOT
BRANCH   1   2
ATOM      2  C   UNL A   1      36.130  21.972  25.435  1.00  0.00     0.116 C 
BRANCH   2   3
ATOM      3  N   UNL A   1      35.438  22.056  26.707  1.00  0.00    -0.355 N 
ATOM      4  C   UNL A   1      34.423  22.875  27.087  1.00  0.00     0.235 C 
ATOM      5  O   UNL A   1      34.066  22.820  28.267  1.00  0.00    -0.274 OA
ATOM      6  H   UNL A   1      35.750  21.428  27.396  1.00  0.00     0.163 HD
BRANCH   4   7
ATOM      7  C   UNL A   1      33.676  23.718  26.105  1.00  0.00     0.241 C 
BRANCH   7   8
ATOM      8  S   UNL A   1      32.141  23.063  25.564  1.00  0.00     0.187 S 
ATOM      9  O   UNL A   1      31.638  23.954  24.534  1.00  0.00    -0.223 OA
ATOM     10  O   UNL A   1      31.330  22.822  26.747  1.00  0.00    -0.223 OA
BRANCH   8  11
ATOM     11  C   UNL A   1      32.357  21.493  24.772  1.00  0.00     0.067 A 
ATOM     12  C   UNL A   1      32.634  18.940  23.625  1.00  0.00    -0.048 A 
ATOM     13  C   UNL A   1      32.704  19.106  25.013  1.00  0.00     0.005 A 
ATOM     14  C   UNL A   1      32.418  20.076  22.825  1.00  0.00     0.005 A 
ATOM     15  C   UNL A   1      32.576  20.375  25.584  1.00  0.00     0.020 A 
ATOM     16  C   UNL A   1      32.262  21.345  23.392  1.00  0.00     0.020 A 
BRANCH  12  17
ATOM     17  C   UNL A   1      32.732  17.596  22.937  1.00  0.00     0.032 C 
ATOM     18  C   UNL A   1      34.072  16.876  23.015  1.00  0.00     0.009 C 
ENDBRANCH  12  17
ENDBRANCH   8  11
ENDBRANCH   7   8
ENDBRANCH   4   7
ENDBRANCH   2   3
ENDBRANCH   1   2
BRANCH   1  19
ATOM     19  C   UNL A   1      37.762  20.142  24.647  1.00  0.00     0.023 C 
BRANCH  19  20
ATOM     20  C   UNL A   1      38.800  20.384  25.735  1.00  0.00     0.116 C 
BRANCH  20  21
ATOM     21  N   UNL A   1      39.861  19.390  25.743  1.00  0.00    -0.352 N 
ATOM     22  C   UNL A   1      41.184  19.543  26.080  1.00  0.00     0.251 C 
ATOM     23  H   UNL A   1      39.595  18.483  25.468  1.00  0.00     0.163 HD
ATOM     24  O   UNL A   1      41.978  18.621  25.914  1.00  0.00    -0.269 OA
BRANCH  22  25
ATOM     25  C   UNL A   1      41.657  20.837  26.613  1.00  0.00     0.039 A 
ATOM     26  C   UNL A   1      42.186  21.777  25.725  1.00  0.00     0.014 A 
ATOM     27  C   UNL A   1      41.552  21.133  27.975  1.00  0.00     0.014 A 
ATOM     28  C   UNL A   1      42.546  23.042  26.194  1.00  0.00     0.010 A 
ATOM     29  C   UNL A   1      41.840  22.417  28.425  1.00  0.00     0.010 A 
ATOM     30  C   UNL A   1      42.340  23.385  27.540  1.00  0.00    -0.014 A 
BRANCH  30  31
ATOM     31  C   UNL A   1      42.639  24.750  28.042  1.00  0.00     0.031 A 
ATOM     32  C   UNL A   1      44.041  25.113  28.447  1.00  0.00     0.074 A 
ATOM     33  C   UNL A   1      41.641  25.644  28.185  1.00  0.00     0.049 A 
ATOM     34  N   UNL A   1      44.487  26.227  28.971  1.00  0.00    -0.248 NA
ATOM     35  C   UNL A   1      45.075  24.082  28.258  1.00  0.00     0.031 C 
ATOM     36  C   UNL A   1      40.233  25.407  27.861  1.00  0.00     0.029 A 
ATOM     37  N   UNL A   1      41.660  26.936  28.651  1.00  0.00    -0.354 N 
ATOM     38  C   UNL A   1      45.846  26.028  29.179  1.00  0.00     0.074 A 
ATOM     39  C   UNL A   1      46.140  24.668  28.784  1.00  0.00     0.031 C 
ATOM     40  C   UNL A   1      39.529  26.523  28.113  1.00  0.00     0.029 A 
ATOM     41  C   UNL A   1      40.425  27.539  28.656  1.00  0.00     0.049 A 
ATOM     42  H   UNL A   1      42.482  27.387  28.952  1.00  0.00     0.167 HD
ATOM     43  C   UNL A   1      46.772  26.904  29.634  1.00  0.00     0.031 A 
ATOM     44  C   UNL A   1      40.055  28.768  29.062  1.00  0.00     0.031 A 
ATOM     45  C   UNL A   1      46.483  28.257  30.028  1.00  0.00     0.049 A 
ATOM     46  C   UNL A   1      41.099  29.708  29.600  1.00  0.00     0.074 A 
ATOM     47  C   UNL A   1      47.358  29.230  30.478  1.00  0.00     0.029 A 
ATOM     48  N   UNL A   1      45.221  28.829  30.014  1.00  0.00    -0.354 N 
ATOM     49  N   UNL A   1      42.389  29.520  29.740  1.00  0.00    -0.248 NA
ATOM     50  C   UNL A   1      40.634  31.037  30.024  1.00  0.00     0.031 C 
ATOM     51  C   UNL A   1      46.618  30.377  30.780  1.00  0.00     0.029 A 
ATOM     52  C   UNL A   1      45.291  30.136  30.463  1.00  0.00     0.049 A 
ATOM     53  H   UNL A   1      44.396  28.372  29.729  1.00  0.00     0.167 HD
ATOM     54  C   UNL A   1      42.893  30.716  30.235  1.00  0.00     0.074 A 
ATOM     55  C   UNL A   1      41.775  31.627  30.354  1.00  0.00     0.031 C 
ATOM     56  C   UNL A   1      44.169  31.032  30.564  1.00  0.00     0.031 A 
BRANCH  43  57
ATOM     57  C   UNL A   1      48.194  26.423  29.720  1.00  0.00    -0.014 A 
ATOM     58  C   UNL A   1      49.077  26.584  28.640  1.00  0.00     0.009 A 
ATOM     59  C   UNL A   1      48.669  25.839  30.905  1.00  0.00     0.009 A 
ATOM     60  C   UNL A   1      50.398  26.139  28.733  1.00  0.00     0.001 A 
ATOM     61  C   UNL A   1      49.998  25.422  31.005  1.00  0.00     0.001 A 
ATOM     62  C   UNL A   1      50.858  25.564  29.917  1.00  0.00     0.000 A 
ENDBRANCH  43  57
BRANCH  44  63
ATOM     63  C   UNL A   1      38.631  29.192  28.979  1.00  0.00    -0.014 A 
ATOM     64  C   UNL A   1      37.780  29.051  30.086  1.00  0.00     0.009 A 
ATOM     65  C   UNL A   1      38.107  29.703  27.782  1.00  0.00     0.009 A 
ATOM     66  C   UNL A   1      36.424  29.374  29.983  1.00  0.00     0.001 A 
ATOM     67  C   UNL A   1      36.758  30.056  27.692  1.00  0.00     0.001 A 
ATOM     68  C   UNL A   1      35.916  29.879  28.788  1.00  0.00     0.000 A 
ENDBRANCH  44  63
BRANCH  56  69
ATOM     69  C   UNL A   1      44.430  32.434  31.038  1.00  0.00    -0.014 A 
ATOM     70  C   UNL A   1      44.721  33.470  30.136  1.00  0.00     0.009 A 
ATOM     71  C   UNL A   1      44.346  32.728  32.408  1.00  0.00     0.009 A 
ATOM     72  C   UNL A   1      44.958  34.765  30.602  1.00  0.00     0.001 A 
ATOM     73  C   UNL A   1      44.553  34.029  32.867  1.00  0.00     0.001 A 
ATOM     74  C   UNL A   1      44.868  35.044  31.966  1.00  0.00     0.000 A 
ENDBRANCH  56  69
ENDBRANCH  30  31
ENDBRANCH  22  25
ENDBRANCH  20  21
ENDBRANCH  19  20
ENDBRANCH   1  19
TORSDOF 14
ENDMDL
MODEL 2
REMARK VINA RESULT:     -10.4      3.652      6.820
REMARK SMILES CCc1ccc(S(=O)(=O)CC(=O)NCCCCNC(=O)c2ccc(-c3c4nc(c(-c5ccccc5)c5ccc([nH]5)c(-c5ccccc5)c5nc(c(-c6ccccc6)c6ccc3[nH]6)C=C5)C=C4)cc2)cc1
REMARK SMILES IDX 15 1 14 2 13 3 11 4 12 5 10 7 7 8 8 9 9 10 6 11 3 12 4 13
REMARK SMILES IDX 70 14 5 15 69 16 2 17 1 18 16 19 17 20 18 21 19 22 20 24
REMARK SMILES IDX 21 25 22 26 68 27 23 28 67 29 24 30 25 31 26 32 61 33 27 34
REMARK SMILES IDX 66 35 60 36 62 37 28 38 65 39 59 40 58 41 29 43 51 44 36 45
REMARK SMILES IDX 50 46 37 47 40 48 49 49 63 50 38 51 39 52 48 54 64 55 41 56
REMARK SMILES IDX 30 57 31 58 35 59 32 60 34 61 33 62 52 63 53 64 57 65 54 66
REMARK SMILES IDX 56 67 55 68 42 69 43 70 47 71 44 72 46 73 45 74
REMARK H PARENT 13 6 18 23 62 42 40 53
REMARK Flexibility Score: inf
ROOT
ATOM      1  C   UNL A   1      42.396  19.637  26.699  1.00  0.00     0.023 C 
ENDROOT
BRANCH   1   2
ATOM      2  C   UNL A   1      43.221  19.425  25.429  1.00  0.00     0.116 C 
BRANCH   2   3
ATOM      3  N   UNL A   1      44.581  19.893  25.617  1.00  0.00    -0.355 N 
ATOM      4  C   UNL A   1      45.195  20.994  25.113  1.00  0.00     0.235 C 
ATOM      5  O   UNL A   1      46.401  21.123  25.343  1.00  0.00    -0.274 OA
ATOM      6  H   UNL A   1      45.142  19.328  26.195  1.00  0.00     0.163 HD
BRANCH   4   7
ATOM      7  C   UNL A   1      44.434  22.075  24.416  1.00  0.00     0.241 C 
BRANCH   7   8
ATOM      8  S   UNL A   1      44.600  23.678  25.108  1.00  0.00     0.187 S 
ATOM      9  O   UNL A   1      43.481  24.468  24.625  1.00  0.00    -0.223 OA
ATOM     10  O   UNL A   1      45.955  24.132  24.834  1.00  0.00    -0.223 OA
BRANCH   8  11
ATOM     11  C   UNL A   1      44.429  23.638  26.872  1.00  0.00     0.067 A 
ATOM     12  C   UNL A   1      44.081  23.458  29.656  1.00  0.00    -0.048 A 
ATOM     13  C   UNL A   1      43.058  23.065  28.785  1.00  0.00     0.005 A 
ATOM     14  C   UNL A   1      45.281  23.939  29.104  1.00  0.00     0.005 A 
ATOM     15  C   UNL A   1      43.226  23.162  27.402  1.00  0.00     0.020 A 
ATOM     16  C   UNL A   1      45.466  24.014  27.720  1.00  0.00     0.020 A 
BRANCH  12  17
ATOM     17  C   UNL A   1      43.984  23.352  31.162  1.00  0.00     0.032 C 
ATOM     18  C   UNL A   1      44.810  24.338  31.979  1.00  0.00     0.009 C 
ENDBRANCH  12  17
ENDBRANCH   8  11
ENDBRANCH   7   8
ENDBRANCH   4   7
ENDBRANCH   2   3
ENDBRANCH   1   2
BRANCH   1  19
ATOM     19  C   UNL A   1      40.911  19.921  26.455  1.00  0.00     0.023 C 
BRANCH  19  20
ATOM     20  C   UNL A   1      40.477  21.363  26.690  1.00  0.00     0.116 C 
BRANCH  20  21
ATOM     21  N   UNL A   1      39.198  21.681  26.078  1.00  0.00    -0.352 N 
ATOM     22  C   UNL A   1      38.497  22.862  26.106  1.00  0.00     0.251 C 
ATOM     23  H   UNL A   1      38.775  20.949  25.573  1.00  0.00     0.163 HD
ATOM     24  O   UNL A   1      37.366  22.924  25.634  1.00  0.00    -0.269 OA
BRANCH  22  25
ATOM     25  C   UNL A   1      39.099  24.053  26.741  1.00  0.00     0.039 A 
ATOM     26  C   UNL A   1      39.921  24.881  25.974  1.00  0.00     0.014 A 
ATOM     27  C   UNL A   1      38.830  24.365  28.077  1.00  0.00     0.014 A 
ATOM     28  C   UNL A   1      40.419  26.062  26.527  1.00  0.00     0.010 A 
ATOM     29  C   UNL A   1      39.264  25.579  28.600  1.00  0.00     0.010 A 
ATOM     30  C   UNL A   1      40.062  26.439  27.832  1.00  0.00    -0.014 A 
BRANCH  30  31
ATOM     31  C   UNL A   1      40.513  27.730  28.411  1.00  0.00     0.031 A 
ATOM     32  C   UNL A   1      41.948  27.910  28.825  1.00  0.00     0.074 A 
ATOM     33  C   UNL A   1      39.622  28.720  28.616  1.00  0.00     0.049 A 
ATOM     34  N   UNL A   1      42.517  28.934  29.411  1.00  0.00    -0.248 NA
ATOM     35  C   UNL A   1      42.860  26.783  28.567  1.00  0.00     0.031 C 
ATOM     36  C   UNL A   1      38.196  28.661  28.291  1.00  0.00     0.029 A 
ATOM     37  N   UNL A   1      39.786  29.971  29.157  1.00  0.00    -0.354 N 
ATOM     38  C   UNL A   1      43.845  28.572  29.595  1.00  0.00     0.074 A 
ATOM     39  C   UNL A   1      43.985  27.215  29.116  1.00  0.00     0.031 C 
ATOM     40  C   UNL A   1      37.621  29.832  28.615  1.00  0.00     0.029 A 
ATOM     41  C   UNL A   1      38.627  30.706  29.210  1.00  0.00     0.049 A 
ATOM     42  H   UNL A   1      40.654  30.309  29.478  1.00  0.00     0.167 HD
ATOM     43  C   UNL A   1      44.865  29.311  30.092  1.00  0.00     0.031 A 
ATOM     44  C   UNL A   1      38.396  31.943  29.691  1.00  0.00     0.031 A 
ATOM     45  C   UNL A   1      44.729  30.662  30.568  1.00  0.00     0.049 A 
ATOM     46  C   UNL A   1      39.540  32.727  30.274  1.00  0.00     0.074 A 
ATOM     47  C   UNL A   1      45.709  31.503  31.068  1.00  0.00     0.029 A 
ATOM     48  N   UNL A   1      43.539  31.370  30.599  1.00  0.00    -0.354 N 
ATOM     49  N   UNL A   1      40.801  32.388  30.391  1.00  0.00    -0.248 NA
ATOM     50  C   UNL A   1      39.228  34.071  30.781  1.00  0.00     0.031 C 
ATOM     51  C   UNL A   1      45.102  32.705  31.443  1.00  0.00     0.029 A 
ATOM     52  C   UNL A   1      43.755  32.632  31.124  1.00  0.00     0.049 A 
ATOM     53  H   UNL A   1      42.668  31.026  30.295  1.00  0.00     0.167 HD
ATOM     54  C   UNL A   1      41.437  33.489  30.952  1.00  0.00     0.074 A 
ATOM     55  C   UNL A   1      40.428  34.510  31.135  1.00  0.00     0.031 C 
ATOM     56  C   UNL A   1      42.741  33.640  31.288  1.00  0.00     0.031 A 
BRANCH  43  57
ATOM     57  C   UNL A   1      46.224  28.670  30.137  1.00  0.00    -0.014 A 
ATOM     58  C   UNL A   1      47.127  28.817  29.072  1.00  0.00     0.009 A 
ATOM     59  C   UNL A   1      46.624  27.947  31.271  1.00  0.00     0.009 A 
ATOM     60  C   UNL A   1      48.390  28.223  29.126  1.00  0.00     0.001 A 
ATOM     61  C   UNL A   1      47.898  27.378  31.335  1.00  0.00     0.001 A 
ATOM     62  C   UNL A   1      48.776  27.510  30.260  1.00  0.00     0.000 A 
ENDBRANCH  43  57
BRANCH  44  63
ATOM     63  C   UNL A   1      37.029  32.527  29.646  1.00  0.00    -0.014 A 
ATOM     64  C   UNL A   1      36.102  32.250  30.663  1.00  0.00     0.009 A 
ATOM     65  C   UNL A   1      36.631  33.331  28.567  1.00  0.00     0.009 A 
ATOM     66  C   UNL A   1      34.793  32.733  30.579  1.00  0.00     0.001 A 
ATOM     67  C   UNL A   1      35.332  33.840  28.503  1.00  0.00     0.001 A 
ATOM     68  C   UNL A   1      34.410  33.530  29.501  1.00  0.00     0.000 A 
ENDBRANCH  44  63
BRANCH  56  69
ATOM     69  C   UNL A   1      43.158  34.974  31.842  1.00  0.00    -0.014 A 
ATOM     70  C   UNL A   1      43.466  36.053  30.999  1.00  0.00     0.009 A 
ATOM     71  C   UNL A   1      43.206  35.161  33.232  1.00  0.00     0.009 A 
ATOM     72  C   UNL A   1      43.850  37.282  31.539  1.00  0.00     0.001 A 
ATOM     73  C   UNL A   1      43.559  36.399  33.769  1.00  0.00     0.001 A 
ATOM     74  C   UNL A   1      43.890  37.455  32.922  1.00  0.00     0.000 A 
ENDBRANCH  56  69
ENDBRANCH  30  31
ENDBRANCH  22  25
ENDBRANCH  20  21
ENDBRANCH  19  20
ENDBRANCH   1  19
TORSDOF 14
ENDMDL
MODEL 3
REMARK VINA RESULT:     -10.4      2.314      4.248
REMARK SMILES CCc1ccc(S(=O)(=O)CC(=O)NCCCCNC(=O)c2ccc(-c3c4nc(c(-c5ccccc5)c5ccc([nH]5)c(-c5ccccc5)c5nc(c(-c6ccccc6)c6ccc3[nH]6)C=C5)C=C4)cc2)cc1
REMARK SMILES IDX 15 1 14 2 13 3 11 4 12 5 10 7 7 8 8 9 9 10 6 11 3 12 4 13
REMARK SMILES IDX 70 14 5 15 69 16 2 17 1 18 16 19 17 20 18 21 19 22 20 24
REMARK SMILES IDX 21 25 22 26 68 27 23 28 67 29 24 30 25 31 26 32 61 33 27 34
REMARK SMILES IDX 66 35 60 36 62 37 28 38 65 39 59 40 58 41 29 43 51 44 36 45
REMARK SMILES IDX 50 46 37 47 40 48 49 49 63 50 38 51 39 52 48 54 64 55 41 56
REMARK SMILES IDX 30 57 31 58 35 59 32 60 34 61 33 62 52 63 53 64 57 65 54 66
REMARK SMILES IDX 56 67 55 68 42 69 43 70 47 71 44 72 46 73 45 74
REMARK H PARENT 13 6 18 23 62 42 40 53
REMARK Flexibility Score: inf
ROOT
ATOM      1  C   UNL A   1      35.642  22.280  24.165  1.00  0.00     0.023 C 
ENDROOT
BRANCH   1   2
ATOM      2  C   UNL A   1      34.243  22.621  23.650  1.00  0.00     0.116 C 
BRANCH   2   3
ATOM      3  N   UNL A   1      33.303  21.568  23.980  1.00  0.00    -0.355 N 
ATOM      4  C   UNL A   1      32.623  21.345  25.135  1.00  0.00     0.235 C 
ATOM      5  O   UNL A   1      31.948  20.314  25.202  1.00  0.00    -0.274 OA
ATOM      6  H   UNL A   1      33.131  20.918  23.261  1.00  0.00     0.163 HD
BRANCH   4   7
ATOM      7  C   UNL A   1      32.582  22.354  26.236  1.00  0.00     0.241 C 
BRANCH   7   8
ATOM      8  S   UNL A   1      31.339  23.582  26.086  1.00  0.00     0.187 S 
ATOM      9  O   UNL A   1      30.473  23.453  27.244  1.00  0.00    -0.223 OA
ATOM     10  O   UNL A   1      30.763  23.459  24.756  1.00  0.00    -0.223 OA
BRANCH   8  11
ATOM     11  C   UNL A   1      32.030  25.211  26.188  1.00  0.00     0.067 A 
ATOM     12  C   UNL A   1      33.215  27.761  26.245  1.00  0.00    -0.048 A 
ATOM     13  C   UNL A   1      33.984  26.627  25.958  1.00  0.00     0.005 A 
ATOM     14  C   UNL A   1      31.843  27.592  26.498  1.00  0.00     0.005 A 
ATOM     15  C   UNL A   1      33.399  25.358  25.939  1.00  0.00     0.020 A 
ATOM     16  C   UNL A   1      31.245  26.329  26.453  1.00  0.00     0.020 A 
BRANCH  12  17
ATOM     17  C   UNL A   1      33.771  29.167  26.253  1.00  0.00     0.032 C 
ATOM     18  C   UNL A   1      34.874  29.469  27.261  1.00  0.00     0.009 C 
ENDBRANCH  12  17
ENDBRANCH   8  11
ENDBRANCH   7   8
ENDBRANCH   4   7
ENDBRANCH   2   3
ENDBRANCH   1   2
BRANCH   1  19
ATOM     19  C   UNL A   1      36.447  23.481  24.667  1.00  0.00     0.023 C 
BRANCH  19  20
ATOM     20  C   UNL A   1      37.052  23.325  26.057  1.00  0.00     0.116 C 
BRANCH  20  21
ATOM     21  N   UNL A   1      38.054  22.274  26.128  1.00  0.00    -0.352 N 
ATOM     22  C   UNL A   1      39.391  22.375  26.428  1.00  0.00     0.251 C 
ATOM     23  H   UNL A   1      37.730  21.365  25.934  1.00  0.00     0.163 HD
ATOM     24  O   UNL A   1      40.126  21.398  26.325  1.00  0.00    -0.269 OA
BRANCH  22  25
ATOM     25  C   UNL A   1      39.950  23.679  26.842  1.00  0.00     0.039 A 
ATOM     26  C   UNL A   1      39.974  24.725  25.916  1.00  0.00     0.014 A 
ATOM     27  C   UNL A   1      40.418  23.877  28.144  1.00  0.00     0.014 A 
ATOM     28  C   UNL A   1      40.406  25.990  26.318  1.00  0.00     0.010 A 
ATOM     29  C   UNL A   1      40.776  25.155  28.560  1.00  0.00     0.010 A 
ATOM     30  C   UNL A   1      40.773  26.225  27.653  1.00  0.00    -0.014 A 
BRANCH  30  31
ATOM     31  C   UNL A   1      41.157  27.581  28.120  1.00  0.00     0.031 A 
ATOM     32  C   UNL A   1      42.609  27.968  28.198  1.00  0.00     0.074 A 
ATOM     33  C   UNL A   1      40.205  28.444  28.525  1.00  0.00     0.049 A 
ATOM     34  N   UNL A   1      43.144  29.077  28.644  1.00  0.00    -0.248 NA
ATOM     35  C   UNL A   1      43.588  26.971  27.736  1.00  0.00     0.031 C 
ATOM     36  C   UNL A   1      38.765  28.181  28.531  1.00  0.00     0.029 A 
ATOM     37  N   UNL A   1      40.309  29.721  29.019  1.00  0.00    -0.354 N 
ATOM     38  C   UNL A   1      44.518  28.906  28.521  1.00  0.00     0.074 A 
ATOM     39  C   UNL A   1      44.736  27.568  28.018  1.00  0.00     0.031 C 
ATOM     40  C   UNL A   1      38.119  29.269  28.981  1.00  0.00     0.029 A 
ATOM     41  C   UNL A   1      39.099  30.291  29.336  1.00  0.00     0.049 A 
ATOM     42  H   UNL A   1      41.170  30.184  29.136  1.00  0.00     0.167 HD
ATOM     43  C   UNL A   1      45.509  29.792  28.777  1.00  0.00     0.031 A 
ATOM     44  C   UNL A   1      38.812  31.497  29.861  1.00  0.00     0.031 A 
ATOM     45  C   UNL A   1      45.295  31.124  29.276  1.00  0.00     0.049 A 
ATOM     46  C   UNL A   1      39.936  32.446  30.173  1.00  0.00     0.074 A 
ATOM     47  C   UNL A   1      46.234  32.106  29.544  1.00  0.00     0.029 A 
ATOM     48  N   UNL A   1      44.055  31.663  29.579  1.00  0.00    -0.354 N 
ATOM     49  N   UNL A   1      41.226  32.288  30.000  1.00  0.00    -0.248 NA
ATOM     50  C   UNL A   1      39.560  33.749  30.743  1.00  0.00     0.031 C 
ATOM     51  C   UNL A   1      45.565  33.224  30.052  1.00  0.00     0.029 A 
ATOM     52  C   UNL A   1      44.205  32.957  30.046  1.00  0.00     0.049 A 
ATOM     53  H   UNL A   1      43.195  31.194  29.479  1.00  0.00     0.167 HD
ATOM     54  C   UNL A   1      41.810  33.481  30.407  1.00  0.00     0.074 A 
ATOM     55  C   UNL A   1      40.735  34.358  30.817  1.00  0.00     0.031 C 
ATOM     56  C   UNL A   1      43.122  33.820  30.439  1.00  0.00     0.031 A 
BRANCH  43  57
ATOM     57  C   UNL A   1      46.920  29.346  28.511  1.00  0.00    -0.014 A 
ATOM     58  C   UNL A   1      47.518  29.555  27.258  1.00  0.00     0.009 A 
ATOM     59  C   UNL A   1      47.674  28.748  29.532  1.00  0.00     0.009 A 
ATOM     60  C   UNL A   1      48.832  29.143  27.022  1.00  0.00     0.001 A 
ATOM     61  C   UNL A   1      48.997  28.363  29.303  1.00  0.00     0.001 A 
ATOM     62  C   UNL A   1      49.571  28.553  28.047  1.00  0.00     0.000 A 
ENDBRANCH  43  57
BRANCH  44  63
ATOM     63  C   UNL A   1      37.402  31.885  30.129  1.00  0.00    -0.014 A 
ATOM     64  C   UNL A   1      36.820  31.641  31.383  1.00  0.00     0.009 A 
ATOM     65  C   UNL A   1      36.617  32.466  29.121  1.00  0.00     0.009 A 
ATOM     66  C   UNL A   1      35.473  31.933  31.609  1.00  0.00     0.001 A 
ATOM     67  C   UNL A   1      35.279  32.788  29.361  1.00  0.00     0.001 A 
ATOM     68  C   UNL A   1      34.704  32.508  30.598  1.00  0.00     0.000 A 
ENDBRANCH  44  63
BRANCH  56  69
ATOM     69  C   UNL A   1      43.461  35.214  30.889  1.00  0.00    -0.014 A 
ATOM     70  C   UNL A   1      43.680  35.513  32.243  1.00  0.00     0.009 A 
ATOM     71  C   UNL A   1      43.601  36.233  29.936  1.00  0.00     0.009 A 
ATOM     72  C   UNL A   1      43.995  36.816  32.635  1.00  0.00     0.001 A 
ATOM     73  C   UNL A   1      43.947  37.527  30.327  1.00  0.00     0.001 A 
ATOM     74  C   UNL A   1      44.134  37.819  31.677  1.00  0.00     0.000 A 
ENDBRANCH  56  69
ENDBRANCH  30  31
ENDBRANCH  22  25
ENDBRANCH  20  21
ENDBRANCH  19  20
ENDBRANCH   1  19
TORSDOF 14
ENDMDL
