MODEL 1
REMARK VINA RESULT:     -11.8      0.000      0.000
REMARK SMILES Cc1ccc(C)c(/C=C2\SC(=S)N(CC(=O)NCCCCNC(=O)c3ccc(-c4c5nc(c(-c6ccccc6)c6ccc([nH]6)c(-c6ccccc6)c6nc(c(-c7ccccc7)c7ccc4[nH]7)C=C6)C=C5)cc3)C2=O)c1
REMARK SMILES IDX 19 1 18 2 17 3 15 4 16 5 14 7 13 8 8 9 9 10 10 11 73 12
REMARK SMILES IDX 11 13 74 14 12 15 7 16 1 17 2 18 3 19 75 20 4 21 5 22 6 23
REMARK SMILES IDX 20 24 21 25 22 26 23 27 24 29 25 30 26 31 72 32 27 33 71 34
REMARK SMILES IDX 28 35 29 36 30 37 65 38 31 39 70 40 64 41 66 42 32 43 69 44
REMARK SMILES IDX 63 45 62 46 33 48 55 49 40 50 54 51 41 52 44 53 53 54 67 55
REMARK SMILES IDX 42 56 43 57 52 59 68 60 45 61 34 62 35 63 39 64 36 65 38 66
REMARK SMILES IDX 37 67 56 68 57 69 61 70 58 71 60 72 59 73 46 74 47 75 51 76
REMARK SMILES IDX 48 77 50 78 49 79
REMARK H PARENT 17 6 22 28 66 47 44 58
REMARK Flexibility Score: inf
ROOT
ATOM      1  C   UNL A   1      35.301  23.649  23.664  1.00  0.00     0.023 C 
ENDROOT
BRANCH   1   2
ATOM      2  C   UNL A   1      34.095  22.723  23.511  1.00  0.00     0.116 C 
BRANCH   2   3
ATOM      3  N   UNL A   1      33.313  22.538  24.712  1.00  0.00    -0.355 N 
ATOM      4  C   UNL A   1      32.111  23.086  25.057  1.00  0.00     0.240 C 
ATOM      5  O   UNL A   1      31.436  22.465  25.884  1.00  0.00    -0.273 OA
ATOM      6  H   UNL A   1      33.706  21.929  25.380  1.00  0.00     0.163 HD
BRANCH   4   7
ATOM      7  C   UNL A   1      31.524  24.305  24.330  1.00  0.00     0.227 C 
BRANCH   7   8
ATOM      8  N   UNL A   1      32.242  25.554  24.570  1.00  0.00    -0.283 N 
ATOM      9  C   UNL A   1      33.134  28.001  27.075  1.00  0.00     0.029 C 
ATOM     10  C   UNL A   1      32.985  27.333  25.922  1.00  0.00     0.081 C 
ATOM     11  S   UNL A   1      33.680  27.674  24.388  1.00  0.00    -0.054 SA
ATOM     12  C   UNL A   1      32.172  26.091  25.844  1.00  0.00     0.266 C 
ATOM     13  C   UNL A   1      32.884  26.313  23.616  1.00  0.00     0.148 C 
ATOM     14  O   UNL A   1      31.554  25.624  26.787  1.00  0.00    -0.268 OA
ATOM     15  S   UNL A   1      32.957  26.069  21.968  1.00  0.00    -0.052 S 
BRANCH   9  16
ATOM     16  C   UNL A   1      33.974  29.192  27.272  1.00  0.00    -0.021 A 
ATOM     17  C   UNL A   1      37.642  29.906  28.055  1.00  0.00     0.044 C 
ATOM     18  C   UNL A   1      36.189  30.112  27.751  1.00  0.00    -0.051 A 
ATOM     19  C   UNL A   1      35.646  31.397  27.737  1.00  0.00     0.004 A 
ATOM     20  C   UNL A   1      35.352  29.022  27.494  1.00  0.00     0.011 A 
ATOM     21  C   UNL A   1      34.288  31.585  27.474  1.00  0.00     0.004 A 
ATOM     22  C   UNL A   1      33.435  30.493  27.240  1.00  0.00    -0.044 A 
ATOM     23  C   UNL A   1      31.982  30.792  26.985  1.00  0.00     0.045 C 
ENDBRANCH   9  16
ENDBRANCH   7   8
ENDBRANCH   4   7
ENDBRANCH   2   3
ENDBRANCH   1   2
BRANCH   1  24
ATOM     24  C   UNL A   1      36.638  23.041  24.121  1.00  0.00     0.023 C 
BRANCH  24  25
ATOM     25  C   UNL A   1      37.118  23.334  25.545  1.00  0.00     0.116 C 
BRANCH  25  26
ATOM     26  N   UNL A   1      38.036  22.322  26.098  1.00  0.00    -0.352 N 
ATOM     27  C   UNL A   1      39.337  22.388  26.599  1.00  0.00     0.251 C 
ATOM     28  H   UNL A   1      37.653  21.415  26.118  1.00  0.00     0.163 HD
ATOM     29  O   UNL A   1      40.014  21.374  26.653  1.00  0.00    -0.269 OA
BRANCH  27  30
ATOM     30  C   UNL A   1      39.899  23.666  27.101  1.00  0.00     0.039 A 
ATOM     31  C   UNL A   1      41.255  23.937  27.283  1.00  0.00     0.014 A 
ATOM     32  C   UNL A   1      38.999  24.631  27.486  1.00  0.00     0.014 A 
ATOM     33  C   UNL A   1      41.613  25.132  27.926  1.00  0.00     0.010 A 
ATOM     34  C   UNL A   1      39.355  25.921  27.688  1.00  0.00     0.010 A 
ATOM     35  C   UNL A   1      40.622  26.093  28.173  1.00  0.00    -0.014 A 
BRANCH  35  36
ATOM     36  C   UNL A   1      40.808  27.325  28.915  1.00  0.00     0.031 A 
ATOM     37  C   UNL A   1      41.699  28.280  28.246  1.00  0.00     0.074 A 
ATOM     38  C   UNL A   1      40.008  27.738  29.926  1.00  0.00     0.049 A 
ATOM     39  N   UNL A   1      42.911  28.560  28.573  1.00  0.00    -0.248 NA
ATOM     40  C   UNL A   1      41.247  28.872  26.978  1.00  0.00     0.031 C 
ATOM     41  C   UNL A   1      38.782  27.126  30.458  1.00  0.00     0.029 A 
ATOM     42  N   UNL A   1      40.084  28.903  30.627  1.00  0.00    -0.354 N 
ATOM     43  C   UNL A   1      43.319  29.524  27.667  1.00  0.00     0.074 A 
ATOM     44  C   UNL A   1      42.353  29.510  26.595  1.00  0.00     0.031 C 
ATOM     45  C   UNL A   1      38.137  28.017  31.250  1.00  0.00     0.029 A 
ATOM     46  C   UNL A   1      38.968  29.200  31.397  1.00  0.00     0.049 A 
ATOM     47  H   UNL A   1      40.873  29.492  30.591  1.00  0.00     0.167 HD
ATOM     48  C   UNL A   1      44.263  30.444  27.996  1.00  0.00     0.031 A 
ATOM     49  C   UNL A   1      38.741  30.354  32.073  1.00  0.00     0.031 A 
ATOM     50  C   UNL A   1      44.914  30.119  29.244  1.00  0.00     0.049 A 
ATOM     51  C   UNL A   1      40.047  31.040  32.232  1.00  0.00     0.074 A 
ATOM     52  C   UNL A   1      45.618  29.030  29.719  1.00  0.00     0.029 A 
ATOM     53  N   UNL A   1      44.509  30.819  30.358  1.00  0.00    -0.354 N 
ATOM     54  N   UNL A   1      41.011  30.585  32.981  1.00  0.00    -0.248 NA
ATOM     55  C   UNL A   1      40.451  32.004  31.221  1.00  0.00     0.031 C 
ATOM     56  C   UNL A   1      45.189  28.875  31.071  1.00  0.00     0.029 A 
ATOM     57  C   UNL A   1      44.297  29.910  31.363  1.00  0.00     0.049 A 
ATOM     58  H   UNL A   1      44.392  31.795  30.422  1.00  0.00     0.167 HD
ATOM     59  C   UNL A   1      42.171  30.846  32.264  1.00  0.00     0.074 A 
ATOM     60  C   UNL A   1      41.775  31.824  31.252  1.00  0.00     0.031 C 
ATOM     61  C   UNL A   1      43.264  30.033  32.369  1.00  0.00     0.031 A 
BRANCH  48  62
ATOM     62  C   UNL A   1      44.313  31.827  27.410  1.00  0.00    -0.014 A 
ATOM     63  C   UNL A   1      43.840  32.898  28.184  1.00  0.00     0.009 A 
ATOM     64  C   UNL A   1      44.566  32.089  26.049  1.00  0.00     0.009 A 
ATOM     65  C   UNL A   1      43.578  34.147  27.613  1.00  0.00     0.001 A 
ATOM     66  C   UNL A   1      44.351  33.347  25.485  1.00  0.00     0.001 A 
ATOM     67  C   UNL A   1      43.831  34.369  26.262  1.00  0.00     0.000 A 
ENDBRANCH  48  62
BRANCH  49  68
ATOM     68  C   UNL A   1      37.461  31.024  32.396  1.00  0.00    -0.014 A 
ATOM     69  C   UNL A   1      37.315  31.774  33.576  1.00  0.00     0.009 A 
ATOM     70  C   UNL A   1      36.465  31.156  31.412  1.00  0.00     0.009 A 
ATOM     71  C   UNL A   1      36.236  32.655  33.742  1.00  0.00     0.001 A 
ATOM     72  C   UNL A   1      35.387  32.032  31.579  1.00  0.00     0.001 A 
ATOM     73  C   UNL A   1      35.281  32.795  32.738  1.00  0.00     0.000 A 
ENDBRANCH  49  68
BRANCH  61  74
ATOM     74  C   UNL A   1      43.262  28.991  33.465  1.00  0.00    -0.014 A 
ATOM     75  C   UNL A   1      42.585  27.762  33.355  1.00  0.00     0.009 A 
ATOM     76  C   UNL A   1      44.089  29.191  34.581  1.00  0.00     0.009 A 
ATOM     77  C   UNL A   1      42.704  26.783  34.346  1.00  0.00     0.001 A 
ATOM     78  C   UNL A   1      44.226  28.204  35.560  1.00  0.00     0.001 A 
ATOM     79  C   UNL A   1      43.529  27.003  35.446  1.00  0.00     0.000 A 
ENDBRANCH  61  74
ENDBRANCH  35  36
ENDBRANCH  27  30
ENDBRANCH  25  26
ENDBRANCH  24  25
ENDBRANCH   1  24
TORSDOF 13
ENDMDL
MODEL 2
REMARK VINA RESULT:     -11.8      2.327      7.573
REMARK SMILES Cc1ccc(C)c(/C=C2\SC(=S)N(CC(=O)NCCCCNC(=O)c3ccc(-c4c5nc(c(-c6ccccc6)c6ccc([nH]6)c(-c6ccccc6)c6nc(c(-c7ccccc7)c7ccc4[nH]7)C=C6)C=C5)cc3)C2=O)c1
REMARK SMILES IDX 19 1 18 2 17 3 15 4 16 5 14 7 13 8 8 9 9 10 10 11 73 12
REMARK SMILES IDX 11 13 74 14 12 15 7 16 1 17 2 18 3 19 75 20 4 21 5 22 6 23
REMARK SMILES IDX 20 24 21 25 22 26 23 27 24 29 25 30 26 31 72 32 27 33 71 34
REMARK SMILES IDX 28 35 29 36 30 37 65 38 31 39 70 40 64 41 66 42 32 43 69 44
REMARK SMILES IDX 63 45 62 46 33 48 55 49 40 50 54 51 41 52 44 53 53 54 67 55
REMARK SMILES IDX 42 56 43 57 52 59 68 60 45 61 34 62 35 63 39 64 36 65 38 66
REMARK SMILES IDX 37 67 56 68 57 69 61 70 58 71 60 72 59 73 46 74 47 75 51 76
REMARK SMILES IDX 48 77 50 78 49 79
REMARK H PARENT 17 6 22 28 66 47 44 58
REMARK Flexibility Score: inf
ROOT
ATOM      1  C   UNL A   1      33.254  28.916  24.580  1.00  0.00     0.023 C 
ENDROOT
BRANCH   1   2
ATOM      2  C   UNL A   1      32.153  28.032  23.994  1.00  0.00     0.116 C 
BRANCH   2   3
ATOM      3  N   UNL A   1      31.193  27.537  24.954  1.00  0.00    -0.355 N 
ATOM      4  C   UNL A   1      30.969  26.258  25.376  1.00  0.00     0.240 C 
ATOM      5  O   UNL A   1      30.445  26.124  26.486  1.00  0.00    -0.273 OA
ATOM      6  H   UNL A   1      30.617  28.223  25.364  1.00  0.00     0.163 HD
BRANCH   4   7
ATOM      7  C   UNL A   1      31.504  25.035  24.614  1.00  0.00     0.227 C 
BRANCH   7   8
ATOM      8  N   UNL A   1      32.695  24.432  25.203  1.00  0.00    -0.283 N 
ATOM      9  C   UNL A   1      36.287  24.145  24.936  1.00  0.00     0.029 C 
ATOM     10  C   UNL A   1      35.009  24.009  25.316  1.00  0.00     0.081 C 
ATOM     11  S   UNL A   1      34.380  23.172  26.678  1.00  0.00    -0.054 SA
ATOM     12  C   UNL A   1      33.904  24.660  24.567  1.00  0.00     0.266 C 
ATOM     13  C   UNL A   1      32.716  23.556  26.267  1.00  0.00     0.148 C 
ATOM     14  O   UNL A   1      34.065  25.311  23.547  1.00  0.00    -0.268 OA
ATOM     15  S   UNL A   1      31.429  22.904  27.104  1.00  0.00    -0.052 S 
BRANCH   9  16
ATOM     16  C   UNL A   1      37.455  23.605  25.649  1.00  0.00    -0.021 A 
ATOM     17  C   UNL A   1      40.034  24.910  28.145  1.00  0.00     0.044 C 
ATOM     18  C   UNL A   1      39.286  23.993  27.226  1.00  0.00    -0.051 A 
ATOM     19  C   UNL A   1      39.740  22.694  27.001  1.00  0.00     0.004 A 
ATOM     20  C   UNL A   1      38.132  24.429  26.566  1.00  0.00     0.011 A 
ATOM     21  C   UNL A   1      39.053  21.849  26.127  1.00  0.00     0.004 A 
ATOM     22  C   UNL A   1      37.908  22.288  25.441  1.00  0.00    -0.044 A 
ATOM     23  C   UNL A   1      37.245  21.313  24.505  1.00  0.00     0.045 C 
ENDBRANCH   9  16
ENDBRANCH   7   8
ENDBRANCH   4   7
ENDBRANCH   2   3
ENDBRANCH   1   2
BRANCH   1  24
ATOM     24  C   UNL A   1      34.041  28.397  25.794  1.00  0.00     0.023 C 
BRANCH  24  25
ATOM     25  C   UNL A   1      33.947  29.179  27.108  1.00  0.00     0.116 C 
BRANCH  25  26
ATOM     26  N   UNL A   1      34.172  30.628  26.971  1.00  0.00    -0.352 N 
ATOM     27  C   UNL A   1      35.080  31.512  27.556  1.00  0.00     0.251 C 
ATOM     28  H   UNL A   1      33.555  31.062  26.337  1.00  0.00     0.163 HD
ATOM     29  O   UNL A   1      34.836  32.708  27.567  1.00  0.00    -0.269 OA
BRANCH  27  30
ATOM     30  C   UNL A   1      36.357  31.024  28.133  1.00  0.00     0.039 A 
ATOM     31  C   UNL A   1      37.113  31.688  29.099  1.00  0.00     0.014 A 
ATOM     32  C   UNL A   1      36.868  29.858  27.613  1.00  0.00     0.014 A 
ATOM     33  C   UNL A   1      38.381  31.177  29.415  1.00  0.00     0.010 A 
ATOM     34  C   UNL A   1      37.851  29.158  28.224  1.00  0.00     0.010 A 
ATOM     35  C   UNL A   1      38.753  29.922  28.911  1.00  0.00    -0.014 A 
BRANCH  35  36
ATOM     36  C   UNL A   1      40.057  29.306  29.059  1.00  0.00     0.031 A 
ATOM     37  C   UNL A   1      40.354  28.894  30.436  1.00  0.00     0.074 A 
ATOM     38  C   UNL A   1      40.799  28.827  28.033  1.00  0.00     0.049 A 
ATOM     39  N   UNL A   1      41.158  29.473  31.256  1.00  0.00    -0.248 NA
ATOM     40  C   UNL A   1      39.550  27.810  31.019  1.00  0.00     0.031 C 
ATOM     41  C   UNL A   1      40.472  28.745  26.602  1.00  0.00     0.029 A 
ATOM     42  N   UNL A   1      41.999  28.187  28.099  1.00  0.00    -0.354 N 
ATOM     43  C   UNL A   1      41.118  28.706  32.408  1.00  0.00     0.074 A 
ATOM     44  C   UNL A   1      39.966  27.847  32.284  1.00  0.00     0.031 C 
ATOM     45  C   UNL A   1      41.356  27.926  25.982  1.00  0.00     0.029 A 
ATOM     46  C   UNL A   1      42.388  27.544  26.932  1.00  0.00     0.049 A 
ATOM     47  H   UNL A   1      42.551  28.181  28.914  1.00  0.00     0.167 HD
ATOM     48  C   UNL A   1      42.184  28.644  33.248  1.00  0.00     0.031 A 
ATOM     49  C   UNL A   1      43.463  26.730  26.781  1.00  0.00     0.031 A 
ATOM     50  C   UNL A   1      43.184  29.632  32.918  1.00  0.00     0.049 A 
ATOM     51  C   UNL A   1      44.388  27.005  27.907  1.00  0.00     0.074 A 
ATOM     52  C   UNL A   1      43.190  31.008  32.799  1.00  0.00     0.029 A 
ATOM     53  N   UNL A   1      44.291  29.191  32.229  1.00  0.00    -0.354 N 
ATOM     54  N   UNL A   1      45.035  28.127  28.048  1.00  0.00    -0.248 NA
ATOM     55  C   UNL A   1      44.266  26.205  29.115  1.00  0.00     0.031 C 
ATOM     56  C   UNL A   1      44.007  31.276  31.660  1.00  0.00     0.029 A 
ATOM     57  C   UNL A   1      44.502  30.058  31.188  1.00  0.00     0.049 A 
ATOM     58  H   UNL A   1      44.833  28.397  32.445  1.00  0.00     0.167 HD
ATOM     59  C   UNL A   1      45.007  28.385  29.412  1.00  0.00     0.074 A 
ATOM     60  C   UNL A   1      44.628  27.113  30.027  1.00  0.00     0.031 C 
ATOM     61  C   UNL A   1      45.005  29.665  29.888  1.00  0.00     0.031 A 
BRANCH  48  62
ATOM     62  C   UNL A   1      42.501  27.444  34.097  1.00  0.00    -0.014 A 
ATOM     63  C   UNL A   1      43.400  26.491  33.595  1.00  0.00     0.009 A 
ATOM     64  C   UNL A   1      41.770  27.087  35.247  1.00  0.00     0.009 A 
ATOM     65  C   UNL A   1      43.516  25.225  34.180  1.00  0.00     0.001 A 
ATOM     66  C   UNL A   1      41.917  25.842  35.861  1.00  0.00     0.001 A 
ATOM     67  C   UNL A   1      42.772  24.901  35.310  1.00  0.00     0.000 A 
ENDBRANCH  48  62
BRANCH  49  68
ATOM     68  C   UNL A   1      43.655  25.577  25.874  1.00  0.00    -0.014 A 
ATOM     69  C   UNL A   1      44.903  25.327  25.277  1.00  0.00     0.009 A 
ATOM     70  C   UNL A   1      42.684  24.562  25.806  1.00  0.00     0.009 A 
ATOM     71  C   UNL A   1      45.181  24.089  24.678  1.00  0.00     0.001 A 
ATOM     72  C   UNL A   1      42.960  23.329  25.205  1.00  0.00     0.001 A 
ATOM     73  C   UNL A   1      44.215  23.086  24.655  1.00  0.00     0.000 A 
ENDBRANCH  49  68
BRANCH  61  74
ATOM     74  C   UNL A   1      45.282  30.781  28.906  1.00  0.00    -0.014 A 
ATOM     75  C   UNL A   1      46.572  31.292  28.669  1.00  0.00     0.009 A 
ATOM     76  C   UNL A   1      44.233  31.230  28.089  1.00  0.00     0.009 A 
ATOM     77  C   UNL A   1      46.796  32.246  27.671  1.00  0.00     0.001 A 
ATOM     78  C   UNL A   1      44.461  32.166  27.077  1.00  0.00     0.001 A 
ATOM     79  C   UNL A   1      45.741  32.679  26.872  1.00  0.00     0.000 A 
ENDBRANCH  61  74
ENDBRANCH  35  36
ENDBRANCH  27  30
ENDBRANCH  25  26
ENDBRANCH  24  25
ENDBRANCH   1  24
TORSDOF 13
ENDMDL
MODEL 3
REMARK VINA RESULT:     -10.9      2.513      7.945
REMARK SMILES Cc1ccc(C)c(/C=C2\SC(=S)N(CC(=O)NCCCCNC(=O)c3ccc(-c4c5nc(c(-c6ccccc6)c6ccc([nH]6)c(-c6ccccc6)c6nc(c(-c7ccccc7)c7ccc4[nH]7)C=C6)C=C5)cc3)C2=O)c1
REMARK SMILES IDX 19 1 18 2 17 3 15 4 16 5 14 7 13 8 8 9 9 10 10 11 73 12
REMARK SMILES IDX 11 13 74 14 12 15 7 16 1 17 2 18 3 19 75 20 4 21 5 22 6 23
REMARK SMILES IDX 20 24 21 25 22 26 23 27 24 29 25 30 26 31 72 32 27 33 71 34
REMARK SMILES IDX 28 35 29 36 30 37 65 38 31 39 70 40 64 41 66 42 32 43 69 44
REMARK SMILES IDX 63 45 62 46 33 48 55 49 40 50 54 51 41 52 44 53 53 54 67 55
REMARK SMILES IDX 42 56 43 57 52 59 68 60 45 61 34 62 35 63 39 64 36 65 38 66
REMARK SMILES IDX 37 67 56 68 57 69 61 70 58 71 60 72 59 73 46 74 47 75 51 76
REMARK SMILES IDX 48 77 50 78 49 79
REMARK H PARENT 17 6 22 28 66 47 44 58
REMARK Flexibility Score: inf
ROOT
ATOM      1  C   UNL A   1      31.839  30.129  26.668  1.00  0.00     0.023 C 
ENDROOT
BRANCH   1   2
ATOM      2  C   UNL A   1      31.525  29.890  25.191  1.00  0.00     0.116 C 
BRANCH   2   3
ATOM      3  N   UNL A   1      32.682  29.726  24.341  1.00  0.00    -0.355 N 
ATOM      4  C   UNL A   1      32.891  28.841  23.323  1.00  0.00     0.240 C 
ATOM      5  O   UNL A   1      33.724  29.163  22.470  1.00  0.00    -0.273 OA
ATOM      6  H   UNL A   1      33.429  30.343  24.523  1.00  0.00     0.163 HD
BRANCH   4   7
ATOM      7  C   UNL A   1      32.015  27.594  23.124  1.00  0.00     0.227 C 
BRANCH   7   8
ATOM      8  N   UNL A   1      32.544  26.381  23.740  1.00  0.00    -0.283 N 
ATOM      9  C   UNL A   1      34.794  23.591  23.286  1.00  0.00     0.029 C 
ATOM     10  C   UNL A   1      33.884  24.446  23.775  1.00  0.00     0.081 C 
ATOM     11  S   UNL A   1      33.135  24.445  25.321  1.00  0.00    -0.054 SA
ATOM     12  C   UNL A   1      33.417  25.615  22.987  1.00  0.00     0.266 C 
ATOM     13  C   UNL A   1      32.162  25.860  24.957  1.00  0.00     0.148 C 
ATOM     14  O   UNL A   1      33.779  25.854  21.846  1.00  0.00    -0.268 OA
ATOM     15  S   UNL A   1      30.979  26.407  25.998  1.00  0.00    -0.052 S 
BRANCH   9  16
ATOM     16  C   UNL A   1      35.375  22.450  24.012  1.00  0.00    -0.021 A 
ATOM     17  C   UNL A   1      38.746  21.578  25.578  1.00  0.00     0.044 C 
ATOM     18  C   UNL A   1      37.318  21.477  25.134  1.00  0.00    -0.051 A 
ATOM     19  C   UNL A   1      36.597  20.301  25.339  1.00  0.00     0.004 A 
ATOM     20  C   UNL A   1      36.691  22.551  24.493  1.00  0.00     0.011 A 
ATOM     21  C   UNL A   1      35.273  20.202  24.905  1.00  0.00     0.004 A 
ATOM     22  C   UNL A   1      34.646  21.267  24.238  1.00  0.00    -0.044 A 
ATOM     23  C   UNL A   1      33.223  21.061  23.791  1.00  0.00     0.045 C 
ENDBRANCH   9  16
ENDBRANCH   7   8
ENDBRANCH   4   7
ENDBRANCH   2   3
ENDBRANCH   1   2
BRANCH   1  24
ATOM     24  C   UNL A   1      32.138  31.564  27.130  1.00  0.00     0.023 C 
BRANCH  24  25
ATOM     25  C   UNL A   1      33.600  31.971  27.336  1.00  0.00     0.116 C 
BRANCH  25  26
ATOM     26  N   UNL A   1      33.883  32.583  28.646  1.00  0.00    -0.352 N 
ATOM     27  C   UNL A   1      34.753  32.251  29.685  1.00  0.00     0.251 C 
ATOM     28  H   UNL A   1      33.349  33.392  28.824  1.00  0.00     0.163 HD
ATOM     29  O   UNL A   1      34.547  32.686  30.807  1.00  0.00    -0.269 OA
BRANCH  27  30
ATOM     30  C   UNL A   1      35.948  31.406  29.441  1.00  0.00     0.039 A 
ATOM     31  C   UNL A   1      35.936  30.141  28.852  1.00  0.00     0.014 A 
ATOM     32  C   UNL A   1      37.151  31.883  29.902  1.00  0.00     0.014 A 
ATOM     33  C   UNL A   1      37.128  29.401  28.847  1.00  0.00     0.010 A 
ATOM     34  C   UNL A   1      38.339  31.369  29.507  1.00  0.00     0.010 A 
ATOM     35  C   UNL A   1      38.319  30.029  29.240  1.00  0.00    -0.014 A 
BRANCH  35  36
ATOM     36  C   UNL A   1      39.606  29.378  29.389  1.00  0.00     0.031 A 
ATOM     37  C   UNL A   1      39.905  28.985  30.771  1.00  0.00     0.074 A 
ATOM     38  C   UNL A   1      40.323  28.855  28.366  1.00  0.00     0.049 A 
ATOM     39  N   UNL A   1      40.734  29.557  31.571  1.00  0.00    -0.248 NA
ATOM     40  C   UNL A   1      39.075  27.937  31.384  1.00  0.00     0.031 C 
ATOM     41  C   UNL A   1      39.980  28.754  26.940  1.00  0.00     0.029 A 
ATOM     42  N   UNL A   1      41.505  28.182  28.433  1.00  0.00    -0.354 N 
ATOM     43  C   UNL A   1      40.683  28.815  32.739  1.00  0.00     0.074 A 
ATOM     44  C   UNL A   1      39.505  27.988  32.645  1.00  0.00     0.031 C 
ATOM     45  C   UNL A   1      40.832  27.897  26.328  1.00  0.00     0.029 A 
ATOM     46  C   UNL A   1      41.862  27.504  27.276  1.00  0.00     0.049 A 
ATOM     47  H   UNL A   1      42.064  28.176  29.244  1.00  0.00     0.167 HD
ATOM     48  C   UNL A   1      41.755  28.738  33.571  1.00  0.00     0.031 A 
ATOM     49  C   UNL A   1      42.911  26.656  27.132  1.00  0.00     0.031 A 
ATOM     50  C   UNL A   1      42.780  29.689  33.210  1.00  0.00     0.049 A 
ATOM     51  C   UNL A   1      43.856  26.926  28.244  1.00  0.00     0.074 A 
ATOM     52  C   UNL A   1      42.825  31.062  33.063  1.00  0.00     0.029 A 
ATOM     53  N   UNL A   1      43.867  29.202  32.520  1.00  0.00    -0.354 N 
ATOM     54  N   UNL A   1      44.537  28.030  28.355  1.00  0.00    -0.248 NA
ATOM     55  C   UNL A   1      43.722  26.154  29.469  1.00  0.00     0.031 C 
ATOM     56  C   UNL A   1      43.639  31.282  31.911  1.00  0.00     0.029 A 
ATOM     57  C   UNL A   1      44.093  30.041  31.459  1.00  0.00     0.049 A 
ATOM     58  H   UNL A   1      44.388  28.397  32.747  1.00  0.00     0.167 HD
ATOM     59  C   UNL A   1      44.530  28.317  29.713  1.00  0.00     0.074 A 
ATOM     60  C   UNL A   1      44.120  27.070  30.358  1.00  0.00     0.031 C 
ATOM     61  C   UNL A   1      44.571  29.607  30.163  1.00  0.00     0.031 A 
BRANCH  48  62
ATOM     62  C   UNL A   1      42.045  27.547  34.441  1.00  0.00    -0.014 A 
ATOM     63  C   UNL A   1      41.789  27.648  35.817  1.00  0.00     0.009 A 
ATOM     64  C   UNL A   1      42.789  26.431  34.011  1.00  0.00     0.009 A 
ATOM     65  C   UNL A   1      42.301  26.711  36.721  1.00  0.00     0.001 A 
ATOM     66  C   UNL A   1      43.262  25.468  34.904  1.00  0.00     0.001 A 
ATOM     67  C   UNL A   1      43.040  25.624  36.263  1.00  0.00     0.000 A 
ENDBRANCH  48  62
BRANCH  49  68
ATOM     68  C   UNL A   1      43.060  25.479  26.247  1.00  0.00    -0.014 A 
ATOM     69  C   UNL A   1      44.162  25.360  25.383  1.00  0.00     0.009 A 
ATOM     70  C   UNL A   1      42.261  24.339  26.447  1.00  0.00     0.009 A 
ATOM     71  C   UNL A   1      44.477  24.133  24.779  1.00  0.00     0.001 A 
ATOM     72  C   UNL A   1      42.573  23.116  25.842  1.00  0.00     0.001 A 
ATOM     73  C   UNL A   1      43.691  23.008  25.021  1.00  0.00     0.000 A 
ENDBRANCH  49  68
BRANCH  61  74
ATOM     74  C   UNL A   1      44.871  30.693  29.156  1.00  0.00    -0.014 A 
ATOM     75  C   UNL A   1      46.178  31.109  28.842  1.00  0.00     0.009 A 
ATOM     76  C   UNL A   1      43.812  31.211  28.393  1.00  0.00     0.009 A 
ATOM     77  C   UNL A   1      46.413  32.039  27.823  1.00  0.00     0.001 A 
ATOM     78  C   UNL A   1      44.048  32.121  27.361  1.00  0.00     0.001 A 
ATOM     79  C   UNL A   1      45.348  32.540  27.079  1.00  0.00     0.000 A 
ENDBRANCH  61  74
ENDBRANCH  35  36
ENDBRANCH  27  30
ENDBRANCH  25  26
ENDBRANCH  24  25
ENDBRANCH   1  24
TORSDOF 13
ENDMDL
