MODEL 1
REMARK VINA RESULT:     -11.5      0.000      0.000
REMARK SMILES O=C(NCCCCNC(=O)[C@@H]1[C@@H](C(=O)N2CC[NH+](C/C=C/c3ccccc3)CC2)[C@@H]2C=C[C@H]1C2)c1ccc(-c2c3nc(c(-c4ccccc4)c4ccc([nH]4)c(-c4ccccc4)c4nc(c(-c5ccccc5)c5ccc2[nH]5)C=C4)C=C3)cc1
REMARK SMILES IDX 6 1 5 2 4 3 3 4 1 5 2 6 35 8 36 9 82 10 37 11 81 12 38 13
REMARK SMILES IDX 39 14 40 15 75 16 41 17 80 18 74 19 76 20 42 21 79 22 73 23
REMARK SMILES IDX 72 24 43 26 65 27 50 28 64 29 51 30 54 31 63 32 77 33 52 34
REMARK SMILES IDX 53 35 62 37 78 38 55 39 44 40 45 41 49 42 46 43 48 44 47 45
REMARK SMILES IDX 66 46 67 47 71 48 68 49 70 50 69 51 56 52 57 53 61 54 58 55
REMARK SMILES IDX 60 56 59 57 7 58 8 59 9 60 10 62 11 63 12 64 33 65 30 66
REMARK SMILES IDX 32 67 34 68 31 69 13 70 14 71 15 72 16 73 29 74 17 75 28 76
REMARK SMILES IDX 18 77 19 79 20 80 21 81 22 82 23 83 27 84 24 85 26 86 25 87
REMARK H PARENT 3 7 76 25 54 36 8 61 18 78
REMARK Flexibility Score: inf
ROOT
ATOM      1  C   UNL A   1      31.782  29.810  27.022  1.00  0.00     0.023 C 
ENDROOT
BRANCH   1   2
ATOM      2  C   UNL A   1      31.842  31.271  26.589  1.00  0.00     0.023 C 
BRANCH   2   3
ATOM      3  C   UNL A   1      33.000  32.083  27.152  1.00  0.00     0.116 C 
BRANCH   3   4
ATOM      4  N   UNL A   1      32.629  33.430  27.559  1.00  0.00    -0.352 N 
ATOM      5  O   UNL A   1      32.720  35.335  28.776  1.00  0.00    -0.269 OA
ATOM      6  C   UNL A   1      33.213  34.250  28.500  1.00  0.00     0.251 C 
ATOM      7  H   UNL A   1      31.847  33.810  27.096  1.00  0.00     0.163 HD
BRANCH   6   8
ATOM      8  C   UNL A   1      34.424  33.783  29.207  1.00  0.00     0.039 A 
ATOM      9  C   UNL A   1      35.687  34.167  28.758  1.00  0.00     0.014 A 
ATOM     10  C   UNL A   1      34.294  32.902  30.284  1.00  0.00     0.014 A 
ATOM     11  C   UNL A   1      36.810  33.520  29.253  1.00  0.00     0.010 A 
ATOM     12  C   UNL A   1      35.436  32.330  30.854  1.00  0.00     0.010 A 
ATOM     13  C   UNL A   1      36.700  32.598  30.310  1.00  0.00    -0.014 A 
BRANCH  13  14
ATOM     14  C   UNL A   1      37.942  31.977  30.837  1.00  0.00     0.031 A 
ATOM     15  C   UNL A   1      38.459  32.288  32.216  1.00  0.00     0.074 A 
ATOM     16  C   UNL A   1      38.558  31.048  30.079  1.00  0.00     0.049 A 
ATOM     17  N   UNL A   1      39.472  31.752  32.850  1.00  0.00    -0.248 NA
ATOM     18  C   UNL A   1      37.761  33.333  32.981  1.00  0.00     0.031 C 
ATOM     19  C   UNL A   1      38.153  30.671  28.720  1.00  0.00     0.029 A 
ATOM     20  N   UNL A   1      39.612  30.219  30.355  1.00  0.00    -0.354 N 
ATOM     21  C   UNL A   1      39.547  32.405  34.075  1.00  0.00     0.074 A 
ATOM     22  C   UNL A   1      38.487  33.391  34.090  1.00  0.00     0.031 C 
ATOM     23  C   UNL A   1      38.894  29.631  28.316  1.00  0.00     0.029 A 
ATOM     24  C   UNL A   1      39.869  29.315  29.352  1.00  0.00     0.049 A 
ATOM     25  H   UNL A   1      40.135  30.265  31.187  1.00  0.00     0.167 HD
ATOM     26  C   UNL A   1      40.416  32.198  35.094  1.00  0.00     0.031 A 
ATOM     27  C   UNL A   1      40.789  28.339  29.267  1.00  0.00     0.031 A 
ATOM     28  C   UNL A   1      41.468  31.214  35.079  1.00  0.00     0.049 A 
ATOM     29  C   UNL A   1      41.731  28.128  30.414  1.00  0.00     0.074 A 
ATOM     30  C   UNL A   1      42.400  30.930  36.063  1.00  0.00     0.029 A 
ATOM     31  N   UNL A   1      41.723  30.347  34.027  1.00  0.00    -0.354 N 
ATOM     32  N   UNL A   1      41.782  28.756  31.563  1.00  0.00    -0.248 NA
ATOM     33  C   UNL A   1      42.742  27.077  30.249  1.00  0.00     0.031 C 
ATOM     34  C   UNL A   1      43.242  29.916  35.592  1.00  0.00     0.029 A 
ATOM     35  C   UNL A   1      42.804  29.537  34.334  1.00  0.00     0.049 A 
ATOM     36  H   UNL A   1      41.211  30.312  33.187  1.00  0.00     0.167 HD
ATOM     37  C   UNL A   1      42.836  28.182  32.257  1.00  0.00     0.074 A 
ATOM     38  C   UNL A   1      43.368  27.129  31.416  1.00  0.00     0.031 C 
ATOM     39  C   UNL A   1      43.330  28.509  33.476  1.00  0.00     0.031 A 
BRANCH  26  40
ATOM     40  C   UNL A   1      40.283  33.069  36.313  1.00  0.00    -0.014 A 
ATOM     41  C   UNL A   1      40.963  34.293  36.410  1.00  0.00     0.009 A 
ATOM     42  C   UNL A   1      39.416  32.690  37.351  1.00  0.00     0.009 A 
ATOM     43  C   UNL A   1      40.793  35.109  37.531  1.00  0.00     0.001 A 
ATOM     44  C   UNL A   1      39.231  33.519  38.459  1.00  0.00     0.001 A 
ATOM     45  C   UNL A   1      39.923  34.725  38.551  1.00  0.00     0.000 A 
ENDBRANCH  26  40
BRANCH  27  46
ATOM     46  C   UNL A   1      40.871  27.509  28.040  1.00  0.00    -0.014 A 
ATOM     47  C   UNL A   1      41.831  27.776  27.053  1.00  0.00     0.009 A 
ATOM     48  C   UNL A   1      39.999  26.422  27.865  1.00  0.00     0.009 A 
ATOM     49  C   UNL A   1      41.902  26.981  25.907  1.00  0.00     0.001 A 
ATOM     50  C   UNL A   1      40.093  25.611  26.734  1.00  0.00     0.001 A 
ATOM     51  C   UNL A   1      41.039  25.895  25.752  1.00  0.00     0.000 A 
ENDBRANCH  27  46
BRANCH  39  52
ATOM     52  C   UNL A   1      44.505  27.709  33.956  1.00  0.00    -0.014 A 
ATOM     53  C   UNL A   1      45.819  28.137  33.708  1.00  0.00     0.009 A 
ATOM     54  C   UNL A   1      44.298  26.514  34.661  1.00  0.00     0.009 A 
ATOM     55  C   UNL A   1      46.903  27.360  34.118  1.00  0.00     0.001 A 
ATOM     56  C   UNL A   1      45.384  25.752  35.092  1.00  0.00     0.001 A 
ATOM     57  C   UNL A   1      46.685  26.170  34.809  1.00  0.00     0.000 A 
ENDBRANCH  39  52
ENDBRANCH  13  14
ENDBRANCH   6   8
ENDBRANCH   3   4
ENDBRANCH   2   3
ENDBRANCH   1   2
BRANCH   1  58
ATOM     58  C   UNL A   1      33.121  29.116  27.241  1.00  0.00     0.116 C 
BRANCH  58  59
ATOM     59  N   UNL A   1      33.695  28.582  26.029  1.00  0.00    -0.356 N 
ATOM     60  C   UNL A   1      33.406  27.431  25.366  1.00  0.00     0.224 C 
ATOM     61  H   UNL A   1      34.402  29.133  25.622  1.00  0.00     0.163 HD
ATOM     62  O   UNL A   1      34.022  27.242  24.313  1.00  0.00    -0.275 OA
BRANCH  60  63
ATOM     63  C   UNL A   1      32.486  26.371  25.972  1.00  0.00     0.098 C 
ATOM     64  C   UNL A   1      32.610  25.016  25.185  1.00  0.00     0.098 C 
ATOM     65  C   UNL A   1      30.960  26.653  25.896  1.00  0.00     0.025 C 
ATOM     66  C   UNL A   1      31.125  24.697  24.842  1.00  0.00     0.025 C 
ATOM     67  C   UNL A   1      30.551  26.893  24.464  1.00  0.00    -0.027 C 
ATOM     68  C   UNL A   1      30.397  25.242  26.073  1.00  0.00     0.017 C 
ATOM     69  C   UNL A   1      30.652  25.717  23.829  1.00  0.00    -0.027 C 
BRANCH  64  70
ATOM     70  C   UNL A   1      33.241  23.850  25.943  1.00  0.00     0.227 C 
ATOM     71  O   UNL A   1      32.686  23.335  26.915  1.00  0.00    -0.275 OA
ATOM     72  N   UNL A   1      34.376  23.279  25.374  1.00  0.00    -0.331 N 
ATOM     73  C   UNL A   1      34.477  21.824  25.478  1.00  0.00     0.181 C 
ATOM     74  C   UNL A   1      35.651  23.994  25.419  1.00  0.00     0.181 C 
ATOM     75  C   UNL A   1      35.606  21.222  24.625  1.00  0.00     0.284 C 
ATOM     76  C   UNL A   1      36.787  23.329  24.617  1.00  0.00     0.284 C 
ATOM     77  N   UNL A   1      36.919  21.873  24.757  1.00  0.00    -0.329 N 
ATOM     78  H   UNL A   1      37.493  21.566  23.973  1.00  0.00     0.348 HD
BRANCH  77  79
ATOM     79  C   UNL A   1      37.732  21.404  25.880  1.00  0.00     0.291 C 
BRANCH  79  80
ATOM     80  C   UNL A   1      39.034  22.109  26.108  1.00  0.00     0.034 C 
ATOM     81  C   UNL A   1      40.183  21.492  26.430  1.00  0.00     0.009 C 
BRANCH  81  82
ATOM     82  C   UNL A   1      41.403  22.220  26.801  1.00  0.00    -0.026 A 
ATOM     83  C   UNL A   1      41.531  22.754  28.086  1.00  0.00     0.008 A 
ATOM     84  C   UNL A   1      42.403  22.486  25.853  1.00  0.00     0.008 A 
ATOM     85  C   UNL A   1      42.647  23.526  28.422  1.00  0.00     0.001 A 
ATOM     86  C   UNL A   1      43.512  23.265  26.185  1.00  0.00     0.001 A 
ATOM     87  C   UNL A   1      43.635  23.784  27.471  1.00  0.00     0.000 A 
ENDBRANCH  81  82
ENDBRANCH  79  80
ENDBRANCH  77  79
ENDBRANCH  64  70
ENDBRANCH  60  63
ENDBRANCH  58  59
ENDBRANCH   1  58
TORSDOF 15
ENDMDL
MODEL 2
REMARK VINA RESULT:     -11.4      1.940      3.680
REMARK SMILES O=C(NCCCCNC(=O)[C@@H]1[C@@H](C(=O)N2CC[NH+](C/C=C/c3ccccc3)CC2)[C@@H]2C=C[C@H]1C2)c1ccc(-c2c3nc(c(-c4ccccc4)c4ccc([nH]4)c(-c4ccccc4)c4nc(c(-c5ccccc5)c5ccc2[nH]5)C=C4)C=C3)cc1
REMARK SMILES IDX 6 1 5 2 4 3 3 4 1 5 2 6 35 8 36 9 82 10 37 11 81 12 38 13
REMARK SMILES IDX 39 14 40 15 75 16 41 17 80 18 74 19 76 20 42 21 79 22 73 23
REMARK SMILES IDX 72 24 43 26 65 27 50 28 64 29 51 30 54 31 63 32 77 33 52 34
REMARK SMILES IDX 53 35 62 37 78 38 55 39 44 40 45 41 49 42 46 43 48 44 47 45
REMARK SMILES IDX 66 46 67 47 71 48 68 49 70 50 69 51 56 52 57 53 61 54 58 55
REMARK SMILES IDX 60 56 59 57 7 58 8 59 9 60 10 62 11 63 12 64 33 65 30 66
REMARK SMILES IDX 32 67 34 68 31 69 13 70 14 71 15 72 16 73 29 74 17 75 28 76
REMARK SMILES IDX 18 77 19 79 20 80 21 81 22 82 23 83 27 84 24 85 26 86 25 87
REMARK H PARENT 3 7 76 25 54 36 8 61 18 78
REMARK Flexibility Score: inf
ROOT
ATOM      1  C   UNL A   1      31.760  29.268  27.179  1.00  0.00     0.023 C 
ENDROOT
BRANCH   1   2
ATOM      2  C   UNL A   1      31.780  30.652  26.537  1.00  0.00     0.023 C 
BRANCH   2   3
ATOM      3  C   UNL A   1      32.913  31.570  26.972  1.00  0.00     0.116 C 
BRANCH   3   4
ATOM      4  N   UNL A   1      32.468  32.882  27.418  1.00  0.00    -0.352 N 
ATOM      5  O   UNL A   1      32.539  34.816  28.587  1.00  0.00    -0.269 OA
ATOM      6  C   UNL A   1      33.097  33.782  28.251  1.00  0.00     0.251 C 
ATOM      7  H   UNL A   1      31.590  33.167  27.075  1.00  0.00     0.163 HD
BRANCH   6   8
ATOM      8  C   UNL A   1      34.443  33.460  28.770  1.00  0.00     0.039 A 
ATOM      9  C   UNL A   1      35.577  33.844  28.056  1.00  0.00     0.014 A 
ATOM     10  C   UNL A   1      34.566  32.711  29.944  1.00  0.00     0.014 A 
ATOM     11  C   UNL A   1      36.811  33.314  28.404  1.00  0.00     0.010 A 
ATOM     12  C   UNL A   1      35.827  32.266  30.353  1.00  0.00     0.010 A 
ATOM     13  C   UNL A   1      36.953  32.523  29.559  1.00  0.00    -0.014 A 
BRANCH  13  14
ATOM     14  C   UNL A   1      38.308  32.029  29.914  1.00  0.00     0.031 A 
ATOM     15  C   UNL A   1      39.178  32.749  30.907  1.00  0.00     0.074 A 
ATOM     16  C   UNL A   1      38.712  30.855  29.388  1.00  0.00     0.049 A 
ATOM     17  N   UNL A   1      40.341  32.388  31.391  1.00  0.00    -0.248 NA
ATOM     18  C   UNL A   1      38.694  34.040  31.422  1.00  0.00     0.031 C 
ATOM     19  C   UNL A   1      37.957  30.071  28.405  1.00  0.00     0.029 A 
ATOM     20  N   UNL A   1      39.822  30.094  29.639  1.00  0.00    -0.354 N 
ATOM     21  C   UNL A   1      40.735  33.410  32.247  1.00  0.00     0.074 A 
ATOM     22  C   UNL A   1      39.697  34.417  32.204  1.00  0.00     0.031 C 
ATOM     23  C   UNL A   1      38.582  28.904  28.202  1.00  0.00     0.029 A 
ATOM     24  C   UNL A   1      39.814  28.887  28.981  1.00  0.00     0.049 A 
ATOM     25  H   UNL A   1      40.554  30.381  30.231  1.00  0.00     0.167 HD
ATOM     26  C   UNL A   1      41.858  33.497  33.001  1.00  0.00     0.031 A 
ATOM     27  C   UNL A   1      40.699  27.876  28.995  1.00  0.00     0.031 A 
ATOM     28  C   UNL A   1      42.889  32.492  33.045  1.00  0.00     0.049 A 
ATOM     29  C   UNL A   1      41.927  27.998  29.846  1.00  0.00     0.074 A 
ATOM     30  C   UNL A   1      44.064  32.491  33.778  1.00  0.00     0.029 A 
ATOM     31  N   UNL A   1      42.864  31.303  32.331  1.00  0.00    -0.354 N 
ATOM     32  N   UNL A   1      42.278  28.972  30.649  1.00  0.00    -0.248 NA
ATOM     33  C   UNL A   1      42.879  26.883  29.790  1.00  0.00     0.031 C 
ATOM     34  C   UNL A   1      44.768  31.319  33.479  1.00  0.00     0.029 A 
ATOM     35  C   UNL A   1      44.008  30.569  32.596  1.00  0.00     0.049 A 
ATOM     36  H   UNL A   1      42.140  31.024  31.724  1.00  0.00     0.167 HD
ATOM     37  C   UNL A   1      43.498  28.592  31.188  1.00  0.00     0.074 A 
ATOM     38  C   UNL A   1      43.802  27.280  30.654  1.00  0.00     0.031 C 
ATOM     39  C   UNL A   1      44.302  29.275  32.038  1.00  0.00     0.031 A 
BRANCH  26  40
ATOM     40  C   UNL A   1      42.047  34.736  33.832  1.00  0.00    -0.014 A 
ATOM     41  C   UNL A   1      41.646  34.780  35.176  1.00  0.00     0.009 A 
ATOM     42  C   UNL A   1      42.694  35.854  33.281  1.00  0.00     0.009 A 
ATOM     43  C   UNL A   1      41.870  35.925  35.944  1.00  0.00     0.001 A 
ATOM     44  C   UNL A   1      42.937  36.989  34.058  1.00  0.00     0.001 A 
ATOM     45  C   UNL A   1      42.520  37.026  35.387  1.00  0.00     0.000 A 
ENDBRANCH  26  40
BRANCH  27  46
ATOM     46  C   UNL A   1      40.459  26.676  28.157  1.00  0.00    -0.014 A 
ATOM     47  C   UNL A   1      39.607  25.651  28.594  1.00  0.00     0.009 A 
ATOM     48  C   UNL A   1      41.066  26.564  26.895  1.00  0.00     0.009 A 
ATOM     49  C   UNL A   1      39.383  24.531  27.791  1.00  0.00     0.001 A 
ATOM     50  C   UNL A   1      40.815  25.458  26.082  1.00  0.00     0.001 A 
ATOM     51  C   UNL A   1      39.981  24.439  26.534  1.00  0.00     0.000 A 
ENDBRANCH  27  46
BRANCH  39  52
ATOM     52  C   UNL A   1      45.583  28.602  32.432  1.00  0.00    -0.014 A 
ATOM     53  C   UNL A   1      45.613  27.666  33.478  1.00  0.00     0.009 A 
ATOM     54  C   UNL A   1      46.772  28.907  31.754  1.00  0.00     0.009 A 
ATOM     55  C   UNL A   1      46.820  27.082  33.866  1.00  0.00     0.001 A 
ATOM     56  C   UNL A   1      47.973  28.303  32.128  1.00  0.00     0.001 A 
ATOM     57  C   UNL A   1      47.998  27.400  33.192  1.00  0.00     0.000 A 
ENDBRANCH  39  52
ENDBRANCH  13  14
ENDBRANCH   6   8
ENDBRANCH   3   4
ENDBRANCH   2   3
ENDBRANCH   1   2
BRANCH   1  58
ATOM     58  C   UNL A   1      33.072  28.495  27.154  1.00  0.00     0.116 C 
BRANCH  58  59
ATOM     59  N   UNL A   1      33.725  28.514  25.866  1.00  0.00    -0.356 N 
ATOM     60  C   UNL A   1      33.424  27.830  24.731  1.00  0.00     0.224 C 
ATOM     61  H   UNL A   1      34.505  29.111  25.801  1.00  0.00     0.163 HD
ATOM     62  O   UNL A   1      34.127  28.076  23.747  1.00  0.00    -0.275 OA
BRANCH  60  63
ATOM     63  C   UNL A   1      32.377  26.715  24.725  1.00  0.00     0.098 C 
ATOM     64  C   UNL A   1      32.417  25.926  23.367  1.00  0.00     0.098 C 
ATOM     65  C   UNL A   1      30.891  27.161  24.799  1.00  0.00     0.025 C 
ATOM     66  C   UNL A   1      30.930  25.982  22.909  1.00  0.00     0.025 C 
ATOM     67  C   UNL A   1      30.585  28.123  23.678  1.00  0.00    -0.027 C 
ATOM     68  C   UNL A   1      30.190  25.918  24.247  1.00  0.00     0.017 C 
ATOM     69  C   UNL A   1      30.611  27.415  22.541  1.00  0.00    -0.027 C 
BRANCH  64  70
ATOM     70  C   UNL A   1      32.894  24.477  23.441  1.00  0.00     0.227 C 
ATOM     71  O   UNL A   1      32.217  23.550  22.995  1.00  0.00    -0.275 OA
ATOM     72  N   UNL A   1      34.204  24.274  23.867  1.00  0.00    -0.331 N 
ATOM     73  C   UNL A   1      34.938  23.211  23.181  1.00  0.00     0.181 C 
ATOM     74  C   UNL A   1      34.548  24.456  25.276  1.00  0.00     0.181 C 
ATOM     75  C   UNL A   1      36.441  23.192  23.505  1.00  0.00     0.284 C 
ATOM     76  C   UNL A   1      36.056  24.357  25.586  1.00  0.00     0.284 C 
ATOM     77  N   UNL A   1      36.785  23.261  24.934  1.00  0.00    -0.329 N 
ATOM     78  H   UNL A   1      37.773  23.502  25.000  1.00  0.00     0.348 HD
BRANCH  77  79
ATOM     79  C   UNL A   1      36.779  21.976  25.635  1.00  0.00     0.291 C 
BRANCH  79  80
ATOM     80  C   UNL A   1      36.107  20.834  24.936  1.00  0.00     0.034 C 
ATOM     81  C   UNL A   1      34.850  20.430  25.182  1.00  0.00     0.009 C 
BRANCH  81  82
ATOM     82  C   UNL A   1      34.274  19.212  24.598  1.00  0.00    -0.026 A 
ATOM     83  C   UNL A   1      32.903  19.148  24.332  1.00  0.00     0.008 A 
ATOM     84  C   UNL A   1      35.057  18.065  24.400  1.00  0.00     0.008 A 
ATOM     85  C   UNL A   1      32.329  17.963  23.861  1.00  0.00     0.001 A 
ATOM     86  C   UNL A   1      34.482  16.880  23.939  1.00  0.00     0.001 A 
ATOM     87  C   UNL A   1      33.118  16.829  23.668  1.00  0.00     0.000 A 
ENDBRANCH  81  82
ENDBRANCH  79  80
ENDBRANCH  77  79
ENDBRANCH  64  70
ENDBRANCH  60  63
ENDBRANCH  58  59
ENDBRANCH   1  58
TORSDOF 15
ENDMDL
MODEL 3
REMARK VINA RESULT:     -11.3      3.653      9.767
REMARK SMILES O=C(NCCCCNC(=O)[C@@H]1[C@@H](C(=O)N2CC[NH+](C/C=C/c3ccccc3)CC2)[C@@H]2C=C[C@H]1C2)c1ccc(-c2c3nc(c(-c4ccccc4)c4ccc([nH]4)c(-c4ccccc4)c4nc(c(-c5ccccc5)c5ccc2[nH]5)C=C4)C=C3)cc1
REMARK SMILES IDX 6 1 5 2 4 3 3 4 1 5 2 6 35 8 36 9 82 10 37 11 81 12 38 13
REMARK SMILES IDX 39 14 40 15 75 16 41 17 80 18 74 19 76 20 42 21 79 22 73 23
REMARK SMILES IDX 72 24 43 26 65 27 50 28 64 29 51 30 54 31 63 32 77 33 52 34
REMARK SMILES IDX 53 35 62 37 78 38 55 39 44 40 45 41 49 42 46 43 48 44 47 45
REMARK SMILES IDX 66 46 67 47 71 48 68 49 70 50 69 51 56 52 57 53 61 54 58 55
REMARK SMILES IDX 60 56 59 57 7 58 8 59 9 60 10 62 11 63 12 64 33 65 30 66
REMARK SMILES IDX 32 67 34 68 31 69 13 70 14 71 15 72 16 73 29 74 17 75 28 76
REMARK SMILES IDX 18 77 19 79 20 80 21 81 22 82 23 83 27 84 24 85 26 86 25 87
REMARK H PARENT 3 7 76 25 54 36 8 61 18 78
REMARK Flexibility Score: inf
ROOT
ATOM      1  C   UNL A   1      38.551  21.936  25.857  1.00  0.00     0.023 C 
ENDROOT
BRANCH   1   2
ATOM      2  C   UNL A   1      38.931  20.615  25.197  1.00  0.00     0.023 C 
BRANCH   2   3
ATOM      3  C   UNL A   1      39.417  19.519  26.134  1.00  0.00     0.116 C 
BRANCH   3   4
ATOM      4  N   UNL A   1      40.706  18.955  25.761  1.00  0.00    -0.352 N 
ATOM      5  O   UNL A   1      42.938  18.927  25.400  1.00  0.00    -0.269 OA
ATOM      6  C   UNL A   1      41.961  19.520  25.835  1.00  0.00     0.251 C 
ATOM      7  H   UNL A   1      40.677  18.038  25.403  1.00  0.00     0.163 HD
BRANCH   6   8
ATOM      8  C   UNL A   1      42.106  20.874  26.409  1.00  0.00     0.039 A 
ATOM      9  C   UNL A   1      42.293  21.972  25.569  1.00  0.00     0.014 A 
ATOM     10  C   UNL A   1      42.123  21.034  27.797  1.00  0.00     0.014 A 
ATOM     11  C   UNL A   1      42.692  23.183  26.115  1.00  0.00     0.010 A 
ATOM     12  C   UNL A   1      42.421  22.285  28.347  1.00  0.00     0.010 A 
ATOM     13  C   UNL A   1      42.756  23.358  27.509  1.00  0.00    -0.014 A 
BRANCH  13  14
ATOM     14  C   UNL A   1      43.134  24.693  28.038  1.00  0.00     0.031 A 
ATOM     15  C   UNL A   1      44.567  25.147  28.091  1.00  0.00     0.074 A 
ATOM     16  C   UNL A   1      42.144  25.538  28.390  1.00  0.00     0.049 A 
ATOM     17  N   UNL A   1      45.043  26.319  28.434  1.00  0.00    -0.248 NA
ATOM     18  C   UNL A   1      45.602  24.168  27.722  1.00  0.00     0.031 C 
ATOM     19  C   UNL A   1      40.716  25.205  28.390  1.00  0.00     0.029 A 
ATOM     20  N   UNL A   1      42.179  26.855  28.763  1.00  0.00    -0.354 N 
ATOM     21  C   UNL A   1      46.426  26.213  28.342  1.00  0.00     0.074 A 
ATOM     22  C   UNL A   1      46.716  24.857  27.929  1.00  0.00     0.031 C 
ATOM     23  C   UNL A   1      40.009  26.310  28.663  1.00  0.00     0.029 A 
ATOM     24  C   UNL A   1      40.931  27.407  28.927  1.00  0.00     0.049 A 
ATOM     25  H   UNL A   1      43.014  27.357  28.902  1.00  0.00     0.167 HD
ATOM     26  C   UNL A   1      47.365  27.162  28.576  1.00  0.00     0.031 A 
ATOM     27  C   UNL A   1      40.562  28.656  29.257  1.00  0.00     0.031 A 
ATOM     28  C   UNL A   1      47.074  28.512  28.984  1.00  0.00     0.049 A 
ATOM     29  C   UNL A   1      41.623  29.686  29.502  1.00  0.00     0.074 A 
ATOM     30  C   UNL A   1      47.958  29.545  29.247  1.00  0.00     0.029 A 
ATOM     31  N   UNL A   1      45.798  29.020  29.181  1.00  0.00    -0.354 N 
ATOM     32  N   UNL A   1      42.924  29.564  29.408  1.00  0.00    -0.248 NA
ATOM     33  C   UNL A   1      41.164  31.021  29.901  1.00  0.00     0.031 C 
ATOM     34  C   UNL A   1      47.219  30.667  29.639  1.00  0.00     0.029 A 
ATOM     35  C   UNL A   1      45.873  30.346  29.574  1.00  0.00     0.049 A 
ATOM     36  H   UNL A   1      44.963  28.512  29.059  1.00  0.00     0.167 HD
ATOM     37  C   UNL A   1      43.442  30.806  29.744  1.00  0.00     0.074 A 
ATOM     38  C   UNL A   1      42.313  31.675  30.002  1.00  0.00     0.031 C 
ATOM     39  C   UNL A   1      44.738  31.188  29.845  1.00  0.00     0.031 A 
BRANCH  26  40
ATOM     40  C   UNL A   1      48.809  26.769  28.419  1.00  0.00    -0.014 A 
ATOM     41  C   UNL A   1      49.538  26.234  29.492  1.00  0.00     0.009 A 
ATOM     42  C   UNL A   1      49.428  26.875  27.163  1.00  0.00     0.009 A 
ATOM     43  C   UNL A   1      50.865  25.834  29.315  1.00  0.00     0.001 A 
ATOM     44  C   UNL A   1      50.747  26.453  26.984  1.00  0.00     0.001 A 
ATOM     45  C   UNL A   1      51.467  25.938  28.061  1.00  0.00     0.000 A 
ENDBRANCH  26  40
BRANCH  27  46
ATOM     46  C   UNL A   1      39.122  28.986  29.395  1.00  0.00    -0.014 A 
ATOM     47  C   UNL A   1      38.348  29.317  28.273  1.00  0.00     0.009 A 
ATOM     48  C   UNL A   1      38.507  28.946  30.658  1.00  0.00     0.009 A 
ATOM     49  C   UNL A   1      36.992  29.617  28.417  1.00  0.00     0.001 A 
ATOM     50  C   UNL A   1      37.145  29.216  30.793  1.00  0.00     0.001 A 
ATOM     51  C   UNL A   1      36.390  29.559  29.674  1.00  0.00     0.000 A 
ENDBRANCH  27  46
BRANCH  39  52
ATOM     52  C   UNL A   1      44.985  32.610  30.254  1.00  0.00    -0.014 A 
ATOM     53  C   UNL A   1      45.122  32.957  31.608  1.00  0.00     0.009 A 
ATOM     54  C   UNL A   1      45.078  33.613  29.278  1.00  0.00     0.009 A 
ATOM     55  C   UNL A   1      45.304  34.290  31.978  1.00  0.00     0.001 A 
ATOM     56  C   UNL A   1      45.284  34.942  29.651  1.00  0.00     0.001 A 
ATOM     57  C   UNL A   1      45.385  35.281  31.000  1.00  0.00     0.000 A 
ENDBRANCH  39  52
ENDBRANCH  13  14
ENDBRANCH   6   8
ENDBRANCH   3   4
ENDBRANCH   2   3
ENDBRANCH   1   2
BRANCH   1  58
ATOM     58  C   UNL A   1      37.418  22.716  25.201  1.00  0.00     0.116 C 
BRANCH  58  59
ATOM     59  N   UNL A   1      36.335  23.025  26.104  1.00  0.00    -0.356 N 
ATOM     60  C   UNL A   1      35.058  23.400  25.830  1.00  0.00     0.224 C 
ATOM     61  H   UNL A   1      36.555  22.954  27.061  1.00  0.00     0.163 HD
ATOM     62  O   UNL A   1      34.317  23.556  26.805  1.00  0.00    -0.275 OA
BRANCH  60  63
ATOM     63  C   UNL A   1      34.617  23.755  24.409  1.00  0.00     0.098 C 
ATOM     64  C   UNL A   1      33.244  24.518  24.430  1.00  0.00     0.098 C 
ATOM     65  C   UNL A   1      34.313  22.562  23.462  1.00  0.00     0.025 C 
ATOM     66  C   UNL A   1      32.387  23.682  23.434  1.00  0.00     0.025 C 
ATOM     67  C   UNL A   1      33.275  21.661  24.084  1.00  0.00    -0.027 C 
ATOM     68  C   UNL A   1      33.437  23.246  22.410  1.00  0.00     0.017 C 
ATOM     69  C   UNL A   1      32.117  22.335  24.069  1.00  0.00    -0.027 C 
BRANCH  64  70
ATOM     70  C   UNL A   1      33.277  25.983  24.000  1.00  0.00     0.227 C 
ATOM     71  O   UNL A   1      33.570  26.312  22.850  1.00  0.00    -0.275 OA
ATOM     72  N   UNL A   1      32.786  26.911  24.914  1.00  0.00    -0.331 N 
ATOM     73  C   UNL A   1      32.017  28.018  24.345  1.00  0.00     0.181 C 
ATOM     74  C   UNL A   1      33.567  27.246  26.103  1.00  0.00     0.181 C 
ATOM     75  C   UNL A   1      31.290  28.868  25.399  1.00  0.00     0.284 C 
ATOM     76  C   UNL A   1      32.842  28.162  27.109  1.00  0.00     0.284 C 
ATOM     77  N   UNL A   1      32.108  29.300  26.543  1.00  0.00    -0.329 N 
ATOM     78  H   UNL A   1      31.471  29.617  27.273  1.00  0.00     0.348 HD
BRANCH  77  79
ATOM     79  C   UNL A   1      32.883  30.523  26.322  1.00  0.00     0.291 C 
BRANCH  79  80
ATOM     80  C   UNL A   1      33.761  30.974  27.448  1.00  0.00     0.034 C 
ATOM     81  C   UNL A   1      33.930  32.256  27.810  1.00  0.00     0.009 C 
BRANCH  81  82
ATOM     82  C   UNL A   1      34.916  32.680  28.812  1.00  0.00    -0.026 A 
ATOM     83  C   UNL A   1      36.202  33.050  28.411  1.00  0.00     0.008 A 
ATOM     84  C   UNL A   1      34.625  32.618  30.184  1.00  0.00     0.008 A 
ATOM     85  C   UNL A   1      37.176  33.367  29.363  1.00  0.00     0.001 A 
ATOM     86  C   UNL A   1      35.600  32.925  31.134  1.00  0.00     0.001 A 
ATOM     87  C   UNL A   1      36.875  33.302  30.723  1.00  0.00     0.000 A 
ENDBRANCH  81  82
ENDBRANCH  79  80
ENDBRANCH  77  79
ENDBRANCH  64  70
ENDBRANCH  60  63
ENDBRANCH  58  59
ENDBRANCH   1  58
TORSDOF 15
ENDMDL
