MODEL 1
REMARK VINA RESULT:     -11.3      0.000      0.000
REMARK SMILES O=C(NCCCCNC(=O)[C@H](CO)NC(=O)[C@H](Cc1c[nH]c2ccccc12)NC(=O)c1ccc(F)cc1)c1ccc(-c2c3nc(c(-c4ccccc4)c4ccc([nH]4)c(-c4ccccc4)c4nc(c(-c5ccccc5)c5ccc2[nH]5)C=C4)C=C3)cc1
REMARK SMILES IDX 6 1 5 2 4 3 3 4 1 5 2 6 38 8 39 9 85 10 40 11 84 12 41 13
REMARK SMILES IDX 42 14 43 15 78 16 44 17 83 18 77 19 79 20 45 21 82 22 76 23
REMARK SMILES IDX 75 24 46 26 68 27 53 28 67 29 54 30 57 31 66 32 80 33 55 34
REMARK SMILES IDX 56 35 65 37 81 38 58 39 47 40 48 41 52 42 49 43 51 44 50 45
REMARK SMILES IDX 69 46 70 47 74 48 71 49 73 50 72 51 59 52 60 53 64 54 61 55
REMARK SMILES IDX 63 56 62 57 7 58 8 59 9 60 10 62 11 63 14 64 15 65 16 67
REMARK SMILES IDX 17 68 28 69 29 70 30 72 31 73 32 74 37 75 33 76 36 77 34 78
REMARK SMILES IDX 35 79 18 80 19 81 20 82 27 83 21 84 22 85 26 86 23 88 25 89
REMARK SMILES IDX 24 90 12 91 13 92
REMARK H PARENT 3 7 79 25 57 36 8 61 14 66 28 71 21 87 13 93
REMARK Flexibility Score: inf
ROOT
ATOM      1  C   UNL A   1      35.909  22.786  23.630  1.00  0.00     0.023 C 
ENDROOT
BRANCH   1   2
ATOM      2  C   UNL A   1      36.771  23.593  24.588  1.00  0.00     0.023 C 
BRANCH   2   3
ATOM      3  C   UNL A   1      37.051  22.941  25.935  1.00  0.00     0.116 C 
BRANCH   3   4
ATOM      4  N   UNL A   1      38.308  22.206  25.984  1.00  0.00    -0.352 N 
ATOM      5  O   UNL A   1      40.520  21.865  26.291  1.00  0.00    -0.269 OA
ATOM      6  C   UNL A   1      39.558  22.622  26.385  1.00  0.00     0.251 C 
ATOM      7  H   UNL A   1      38.257  21.269  25.683  1.00  0.00     0.163 HD
BRANCH   6   8
ATOM      8  C   UNL A   1      39.744  24.000  26.891  1.00  0.00     0.039 A 
ATOM      9  C   UNL A   1      40.219  25.004  26.047  1.00  0.00     0.014 A 
ATOM     10  C   UNL A   1      39.478  24.283  28.235  1.00  0.00     0.014 A 
ATOM     11  C   UNL A   1      40.609  26.225  26.583  1.00  0.00     0.010 A 
ATOM     12  C   UNL A   1      39.777  25.549  28.751  1.00  0.00     0.010 A 
ATOM     13  C   UNL A   1      40.389  26.516  27.940  1.00  0.00    -0.014 A 
BRANCH  13  14
ATOM     14  C   UNL A   1      40.764  27.857  28.461  1.00  0.00     0.031 A 
ATOM     15  C   UNL A   1      39.734  28.932  28.683  1.00  0.00     0.074 A 
ATOM     16  C   UNL A   1      42.051  28.084  28.785  1.00  0.00     0.049 A 
ATOM     17  N   UNL A   1      39.898  30.137  29.172  1.00  0.00    -0.248 NA
ATOM     18  C   UNL A   1      38.347  28.625  28.306  1.00  0.00     0.031 C 
ATOM     19  C   UNL A   1      43.144  27.122  28.618  1.00  0.00     0.029 A 
ATOM     20  N   UNL A   1      42.656  29.178  29.348  1.00  0.00    -0.354 N 
ATOM     21  C   UNL A   1      38.645  30.737  29.141  1.00  0.00     0.074 A 
ATOM     22  C   UNL A   1      37.733  29.771  28.569  1.00  0.00     0.031 C 
ATOM     23  C   UNL A   1      44.271  27.645  29.122  1.00  0.00     0.029 A 
ATOM     24  C   UNL A   1      43.996  28.999  29.587  1.00  0.00     0.049 A 
ATOM     25  H   UNL A   1      42.176  30.011  29.562  1.00  0.00     0.167 HD
ATOM     26  C   UNL A   1      38.288  31.978  29.553  1.00  0.00     0.031 A 
ATOM     27  C   UNL A   1      44.914  29.834  30.106  1.00  0.00     0.031 A 
ATOM     28  C   UNL A   1      39.195  32.938  30.129  1.00  0.00     0.049 A 
ATOM     29  C   UNL A   1      44.496  31.208  30.529  1.00  0.00     0.074 A 
ATOM     30  C   UNL A   1      38.918  34.210  30.603  1.00  0.00     0.029 A 
ATOM     31  N   UNL A   1      40.554  32.734  30.308  1.00  0.00    -0.354 N 
ATOM     32  N   UNL A   1      43.302  31.748  30.511  1.00  0.00    -0.248 NA
ATOM     33  C   UNL A   1      45.553  32.091  31.042  1.00  0.00     0.031 C 
ATOM     34  C   UNL A   1      40.118  34.792  31.026  1.00  0.00     0.029 A 
ATOM     35  C   UNL A   1      41.133  33.865  30.862  1.00  0.00     0.049 A 
ATOM     36  H   UNL A   1      41.037  31.908  30.076  1.00  0.00     0.167 HD
ATOM     37  C   UNL A   1      43.461  33.030  31.017  1.00  0.00     0.074 A 
ATOM     38  C   UNL A   1      44.863  33.178  31.355  1.00  0.00     0.031 C 
ATOM     39  C   UNL A   1      42.530  34.000  31.182  1.00  0.00     0.031 A 
BRANCH  26  40
ATOM     40  C   UNL A   1      36.853  32.388  29.370  1.00  0.00    -0.014 A 
ATOM     41  C   UNL A   1      35.897  32.166  30.373  1.00  0.00     0.009 A 
ATOM     42  C   UNL A   1      36.466  33.059  28.200  1.00  0.00     0.009 A 
ATOM     43  C   UNL A   1      34.575  32.584  30.195  1.00  0.00     0.001 A 
ATOM     44  C   UNL A   1      35.149  33.496  28.033  1.00  0.00     0.001 A 
ATOM     45  C   UNL A   1      34.203  33.252  29.028  1.00  0.00     0.000 A 
ENDBRANCH  26  40
BRANCH  27  46
ATOM     46  C   UNL A   1      46.324  29.386  30.234  1.00  0.00    -0.014 A 
ATOM     47  C   UNL A   1      47.239  29.601  29.195  1.00  0.00     0.009 A 
ATOM     48  C   UNL A   1      46.764  28.763  31.413  1.00  0.00     0.009 A 
ATOM     49  C   UNL A   1      48.567  29.189  29.329  1.00  0.00     0.001 A 
ATOM     50  C   UNL A   1      48.097  28.379  31.556  1.00  0.00     0.001 A 
ATOM     51  C   UNL A   1      48.997  28.585  30.511  1.00  0.00     0.000 A 
ENDBRANCH  27  46
BRANCH  39  52
ATOM     52  C   UNL A   1      43.000  35.297  31.773  1.00  0.00    -0.014 A 
ATOM     53  C   UNL A   1      43.597  36.283  30.971  1.00  0.00     0.009 A 
ATOM     54  C   UNL A   1      42.826  35.543  33.143  1.00  0.00     0.009 A 
ATOM     55  C   UNL A   1      44.042  37.478  31.540  1.00  0.00     0.001 A 
ATOM     56  C   UNL A   1      43.250  36.749  33.703  1.00  0.00     0.001 A 
ATOM     57  C   UNL A   1      43.865  37.710  32.904  1.00  0.00     0.000 A 
ENDBRANCH  39  52
ENDBRANCH  13  14
ENDBRANCH   6   8
ENDBRANCH   3   4
ENDBRANCH   2   3
ENDBRANCH   1   2
BRANCH   1  58
ATOM     58  C   UNL A   1      34.505  23.315  23.378  1.00  0.00     0.116 C 
BRANCH  58  59
ATOM     59  N   UNL A   1      33.552  22.369  22.837  1.00  0.00    -0.354 N 
ATOM     60  C   UNL A   1      32.643  21.602  23.521  1.00  0.00     0.244 C 
ATOM     61  H   UNL A   1      33.556  22.263  21.858  1.00  0.00     0.163 HD
ATOM     62  O   UNL A   1      31.738  21.065  22.876  1.00  0.00    -0.273 OA
BRANCH  60  63
ATOM     63  C   UNL A   1      32.758  21.403  25.049  1.00  0.00     0.197 C 
BRANCH  63  64
ATOM     64  N   UNL A   1      31.451  21.666  25.683  1.00  0.00    -0.340 N 
ATOM     65  C   UNL A   1      30.704  22.780  25.934  1.00  0.00     0.243 C 
ATOM     66  H   UNL A   1      31.014  20.842  26.000  1.00  0.00     0.164 HD
ATOM     67  O   UNL A   1      29.660  22.593  26.572  1.00  0.00    -0.273 OA
BRANCH  65  68
ATOM     68  C   UNL A   1      31.010  24.213  25.397  1.00  0.00     0.176 C 
BRANCH  68  69
ATOM     69  N   UNL A   1      29.860  24.852  24.798  1.00  0.00    -0.340 N 
ATOM     70  C   UNL A   1      29.689  25.929  23.984  1.00  0.00     0.251 C 
ATOM     71  H   UNL A   1      29.011  24.410  25.030  1.00  0.00     0.164 HD
ATOM     72  O   UNL A   1      28.542  26.324  23.775  1.00  0.00    -0.269 OA
BRANCH  70  73
ATOM     73  C   UNL A   1      30.821  26.641  23.373  1.00  0.00     0.040 A 
ATOM     74  C   UNL A   1      31.036  28.010  23.566  1.00  0.00     0.017 A 
ATOM     75  C   UNL A   1      31.762  25.868  22.677  1.00  0.00     0.017 A 
ATOM     76  C   UNL A   1      32.179  28.607  23.027  1.00  0.00     0.040 A 
ATOM     77  C   UNL A   1      32.901  26.468  22.143  1.00  0.00     0.040 A 
ATOM     78  C   UNL A   1      33.096  27.832  22.321  1.00  0.00     0.123 A 
ATOM     79  F   UNL A   1      34.196  28.408  21.818  1.00  0.00    -0.207 F 
ENDBRANCH  70  73
ENDBRANCH  68  69
BRANCH  68  80
ATOM     80  C   UNL A   1      31.559  25.034  26.603  1.00  0.00     0.072 C 
BRANCH  80  81
ATOM     81  C   UNL A   1      32.673  26.042  26.366  1.00  0.00    -0.020 A 
ATOM     82  C   UNL A   1      33.879  25.851  25.710  1.00  0.00     0.087 A 
ATOM     83  C   UNL A   1      32.619  27.454  26.662  1.00  0.00     0.003 A 
ATOM     84  N   UNL A   1      34.558  27.036  25.648  1.00  0.00    -0.361 N 
ATOM     85  C   UNL A   1      33.798  28.036  26.191  1.00  0.00     0.046 A 
ATOM     86  C   UNL A   1      31.661  28.303  27.255  1.00  0.00     0.010 A 
ATOM     87  H   UNL A   1      35.460  27.152  25.271  1.00  0.00     0.166 HD
ATOM     88  C   UNL A   1      34.071  29.405  26.278  1.00  0.00     0.026 A 
ATOM     89  C   UNL A   1      31.915  29.679  27.347  1.00  0.00     0.001 A 
ATOM     90  C   UNL A   1      33.104  30.220  26.863  1.00  0.00     0.002 A 
ENDBRANCH  80  81
ENDBRANCH  68  80
ENDBRANCH  65  68
ENDBRANCH  63  64
BRANCH  63  91
ATOM     91  C   UNL A   1      33.237  19.959  25.310  1.00  0.00     0.191 C 
BRANCH  91  92
ATOM     92  O   UNL A   1      32.121  19.067  25.403  1.00  0.00    -0.394 OA
ATOM     93  H   UNL A   1      32.428  18.152  25.304  1.00  0.00     0.210 HD
ENDBRANCH  91  92
ENDBRANCH  63  91
ENDBRANCH  60  63
ENDBRANCH  58  59
ENDBRANCH   1  58
TORSDOF 19
ENDMDL
MODEL 2
REMARK VINA RESULT:     -11.2      2.555      7.605
REMARK SMILES O=C(NCCCCNC(=O)[C@H](CO)NC(=O)[C@H](Cc1c[nH]c2ccccc12)NC(=O)c1ccc(F)cc1)c1ccc(-c2c3nc(c(-c4ccccc4)c4ccc([nH]4)c(-c4ccccc4)c4nc(c(-c5ccccc5)c5ccc2[nH]5)C=C4)C=C3)cc1
REMARK SMILES IDX 6 1 5 2 4 3 3 4 1 5 2 6 38 8 39 9 85 10 40 11 84 12 41 13
REMARK SMILES IDX 42 14 43 15 78 16 44 17 83 18 77 19 79 20 45 21 82 22 76 23
REMARK SMILES IDX 75 24 46 26 68 27 53 28 67 29 54 30 57 31 66 32 80 33 55 34
REMARK SMILES IDX 56 35 65 37 81 38 58 39 47 40 48 41 52 42 49 43 51 44 50 45
REMARK SMILES IDX 69 46 70 47 74 48 71 49 73 50 72 51 59 52 60 53 64 54 61 55
REMARK SMILES IDX 63 56 62 57 7 58 8 59 9 60 10 62 11 63 14 64 15 65 16 67
REMARK SMILES IDX 17 68 28 69 29 70 30 72 31 73 32 74 37 75 33 76 36 77 34 78
REMARK SMILES IDX 35 79 18 80 19 81 20 82 27 83 21 84 22 85 26 86 23 88 25 89
REMARK SMILES IDX 24 90 12 91 13 92
REMARK H PARENT 3 7 79 25 57 36 8 61 14 66 28 71 21 87 13 93
REMARK Flexibility Score: inf
ROOT
ATOM      1  C   UNL A   1      31.736  26.693  26.462  1.00  0.00     0.023 C 
ENDROOT
BRANCH   1   2
ATOM      2  C   UNL A   1      32.169  28.147  26.370  1.00  0.00     0.023 C 
BRANCH   2   3
ATOM      3  C   UNL A   1      33.355  28.540  27.241  1.00  0.00     0.116 C 
BRANCH   3   4
ATOM      4  N   UNL A   1      33.342  29.936  27.659  1.00  0.00    -0.352 N 
ATOM      5  O   UNL A   1      34.126  31.860  28.543  1.00  0.00    -0.269 OA
ATOM      6  C   UNL A   1      34.353  30.707  28.188  1.00  0.00     0.251 C 
ATOM      7  H   UNL A   1      32.479  30.398  27.548  1.00  0.00     0.163 HD
BRANCH   6   8
ATOM      8  C   UNL A   1      35.702  30.126  28.365  1.00  0.00     0.039 A 
ATOM      9  C   UNL A   1      36.068  29.549  29.581  1.00  0.00     0.014 A 
ATOM     10  C   UNL A   1      36.625  30.195  27.316  1.00  0.00     0.014 A 
ATOM     11  C   UNL A   1      37.399  29.221  29.813  1.00  0.00     0.010 A 
ATOM     12  C   UNL A   1      37.942  29.767  27.520  1.00  0.00     0.010 A 
ATOM     13  C   UNL A   1      38.352  29.320  28.785  1.00  0.00    -0.014 A 
BRANCH  13  14
ATOM     14  C   UNL A   1      39.752  28.900  29.056  1.00  0.00     0.031 A 
ATOM     15  C   UNL A   1      40.709  29.787  29.805  1.00  0.00     0.074 A 
ATOM     16  C   UNL A   1      40.143  27.673  28.660  1.00  0.00     0.049 A 
ATOM     17  N   UNL A   1      41.948  29.545  30.158  1.00  0.00    -0.248 NA
ATOM     18  C   UNL A   1      40.224  31.115  30.207  1.00  0.00     0.031 C 
ATOM     19  C   UNL A   1      39.308  26.718  27.926  1.00  0.00     0.029 A 
ATOM     20  N   UNL A   1      41.327  27.007  28.842  1.00  0.00    -0.354 N 
ATOM     21  C   UNL A   1      42.396  30.693  30.800  1.00  0.00     0.074 A 
ATOM     22  C   UNL A   1      41.302  31.640  30.774  1.00  0.00     0.031 C 
ATOM     23  C   UNL A   1      39.983  25.570  27.774  1.00  0.00     0.029 A 
ATOM     24  C   UNL A   1      41.318  25.729  28.338  1.00  0.00     0.049 A 
ATOM     25  H   UNL A   1      42.108  27.405  29.291  1.00  0.00     0.167 HD
ATOM     26  C   UNL A   1      43.606  30.934  31.360  1.00  0.00     0.031 A 
ATOM     27  C   UNL A   1      42.279  24.789  28.314  1.00  0.00     0.031 A 
ATOM     28  C   UNL A   1      44.693  29.989  31.392  1.00  0.00     0.049 A 
ATOM     29  C   UNL A   1      43.615  25.093  28.919  1.00  0.00     0.074 A 
ATOM     30  C   UNL A   1      45.946  30.134  31.964  1.00  0.00     0.029 A 
ATOM     31  N   UNL A   1      44.658  28.724  30.827  1.00  0.00    -0.354 N 
ATOM     32  N   UNL A   1      44.011  26.177  29.540  1.00  0.00    -0.248 NA
ATOM     33  C   UNL A   1      44.639  24.044  28.816  1.00  0.00     0.031 C 
ATOM     34  C   UNL A   1      46.684  28.975  31.705  1.00  0.00     0.029 A 
ATOM     35  C   UNL A   1      45.875  28.088  31.015  1.00  0.00     0.049 A 
ATOM     36  H   UNL A   1      43.883  28.335  30.361  1.00  0.00     0.167 HD
ATOM     37  C   UNL A   1      45.326  25.939  29.911  1.00  0.00     0.074 A 
ATOM     38  C   UNL A   1      45.653  24.600  29.465  1.00  0.00     0.031 C 
ATOM     39  C   UNL A   1      46.188  26.760  30.558  1.00  0.00     0.031 A 
BRANCH  26  40
ATOM     40  C   UNL A   1      43.836  32.291  31.966  1.00  0.00    -0.014 A 
ATOM     41  C   UNL A   1      43.571  32.541  33.321  1.00  0.00     0.009 A 
ATOM     42  C   UNL A   1      44.382  33.319  31.181  1.00  0.00     0.009 A 
ATOM     43  C   UNL A   1      43.822  33.801  33.870  1.00  0.00     0.001 A 
ATOM     44  C   UNL A   1      44.654  34.571  31.737  1.00  0.00     0.001 A 
ATOM     45  C   UNL A   1      44.367  34.813  33.080  1.00  0.00     0.000 A 
ENDBRANCH  26  40
BRANCH  27  46
ATOM     46  C   UNL A   1      42.005  23.477  27.675  1.00  0.00    -0.014 A 
ATOM     47  C   UNL A   1      41.419  22.435  28.406  1.00  0.00     0.009 A 
ATOM     48  C   UNL A   1      42.307  23.273  26.319  1.00  0.00     0.009 A 
ATOM     49  C   UNL A   1      41.152  21.208  27.794  1.00  0.00     0.001 A 
ATOM     50  C   UNL A   1      42.013  22.057  25.702  1.00  0.00     0.001 A 
ATOM     51  C   UNL A   1      41.442  21.022  26.443  1.00  0.00     0.000 A 
ENDBRANCH  27  46
BRANCH  39  52
ATOM     52  C   UNL A   1      47.559  26.218  30.837  1.00  0.00    -0.014 A 
ATOM     53  C   UNL A   1      48.559  26.234  29.851  1.00  0.00     0.009 A 
ATOM     54  C   UNL A   1      47.860  25.703  32.107  1.00  0.00     0.009 A 
ATOM     55  C   UNL A   1      49.824  25.712  30.124  1.00  0.00     0.001 A 
ATOM     56  C   UNL A   1      49.134  25.205  32.383  1.00  0.00     0.001 A 
ATOM     57  C   UNL A   1      50.111  25.201  31.390  1.00  0.00     0.000 A 
ENDBRANCH  39  52
ENDBRANCH  13  14
ENDBRANCH   6   8
ENDBRANCH   3   4
ENDBRANCH   2   3
ENDBRANCH   1   2
BRANCH   1  58
ATOM     58  C   UNL A   1      31.155  26.081  25.197  1.00  0.00     0.116 C 
BRANCH  58  59
ATOM     59  N   UNL A   1      30.391  26.969  24.347  1.00  0.00    -0.354 N 
ATOM     60  C   UNL A   1      30.768  27.524  23.150  1.00  0.00     0.244 C 
ATOM     61  H   UNL A   1      29.491  27.206  24.668  1.00  0.00     0.163 HD
ATOM     62  O   UNL A   1      29.890  28.030  22.446  1.00  0.00    -0.273 OA
BRANCH  60  63
ATOM     63  C   UNL A   1      32.247  27.528  22.705  1.00  0.00     0.197 C 
BRANCH  63  64
ATOM     64  N   UNL A   1      32.403  26.696  21.495  1.00  0.00    -0.340 N 
ATOM     65  C   UNL A   1      32.760  25.402  21.252  1.00  0.00     0.243 C 
ATOM     66  H   UNL A   1      32.203  27.192  20.668  1.00  0.00     0.164 HD
ATOM     67  O   UNL A   1      32.848  25.086  20.058  1.00  0.00    -0.273 OA
BRANCH  65  68
ATOM     68  C   UNL A   1      32.956  24.298  22.337  1.00  0.00     0.176 C 
BRANCH  68  69
ATOM     69  N   UNL A   1      32.298  23.054  22.005  1.00  0.00    -0.340 N 
ATOM     70  C   UNL A   1      32.174  21.850  22.627  1.00  0.00     0.251 C 
ATOM     71  H   UNL A   1      31.838  23.083  21.134  1.00  0.00     0.164 HD
ATOM     72  O   UNL A   1      31.677  20.917  21.996  1.00  0.00    -0.269 OA
BRANCH  70  73
ATOM     73  C   UNL A   1      32.634  21.626  24.007  1.00  0.00     0.040 A 
ATOM     74  C   UNL A   1      33.670  20.739  24.316  1.00  0.00     0.017 A 
ATOM     75  C   UNL A   1      32.071  22.434  25.006  1.00  0.00     0.017 A 
ATOM     76  C   UNL A   1      34.114  20.638  25.637  1.00  0.00     0.040 A 
ATOM     77  C   UNL A   1      32.519  22.330  26.321  1.00  0.00     0.040 A 
ATOM     78  C   UNL A   1      33.534  21.431  26.624  1.00  0.00     0.123 A 
ATOM     79  F   UNL A   1      33.974  21.338  27.886  1.00  0.00    -0.207 F 
ENDBRANCH  70  73
ENDBRANCH  68  69
BRANCH  68  80
ATOM     80  C   UNL A   1      34.493  24.107  22.509  1.00  0.00     0.072 C 
BRANCH  80  81
ATOM     81  C   UNL A   1      35.101  24.213  23.898  1.00  0.00    -0.020 A 
ATOM     82  C   UNL A   1      34.686  25.003  24.959  1.00  0.00     0.087 A 
ATOM     83  C   UNL A   1      36.160  23.388  24.429  1.00  0.00     0.003 A 
ATOM     84  N   UNL A   1      35.460  24.739  26.056  1.00  0.00    -0.361 N 
ATOM     85  C   UNL A   1      36.344  23.734  25.769  1.00  0.00     0.046 A 
ATOM     86  C   UNL A   1      36.959  22.349  23.905  1.00  0.00     0.010 A 
ATOM     87  H   UNL A   1      35.392  25.203  26.921  1.00  0.00     0.166 HD
ATOM     88  C   UNL A   1      37.271  23.108  26.608  1.00  0.00     0.026 A 
ATOM     89  C   UNL A   1      37.891  21.706  24.733  1.00  0.00     0.001 A 
ATOM     90  C   UNL A   1      38.041  22.082  26.066  1.00  0.00     0.002 A 
ENDBRANCH  80  81
ENDBRANCH  68  80
ENDBRANCH  65  68
ENDBRANCH  63  64
BRANCH  63  91
ATOM     91  C   UNL A   1      32.666  28.991  22.447  1.00  0.00     0.191 C 
BRANCH  91  92
ATOM     92  O   UNL A   1      33.644  29.411  23.404  1.00  0.00    -0.394 OA
ATOM     93  H   UNL A   1      33.460  28.994  24.260  1.00  0.00     0.210 HD
ENDBRANCH  91  92
ENDBRANCH  63  91
ENDBRANCH  60  63
ENDBRANCH  58  59
ENDBRANCH   1  58
TORSDOF 19
ENDMDL
MODEL 3
REMARK VINA RESULT:     -11.1      2.539      7.716
REMARK SMILES O=C(NCCCCNC(=O)[C@H](CO)NC(=O)[C@H](Cc1c[nH]c2ccccc12)NC(=O)c1ccc(F)cc1)c1ccc(-c2c3nc(c(-c4ccccc4)c4ccc([nH]4)c(-c4ccccc4)c4nc(c(-c5ccccc5)c5ccc2[nH]5)C=C4)C=C3)cc1
REMARK SMILES IDX 6 1 5 2 4 3 3 4 1 5 2 6 38 8 39 9 85 10 40 11 84 12 41 13
REMARK SMILES IDX 42 14 43 15 78 16 44 17 83 18 77 19 79 20 45 21 82 22 76 23
REMARK SMILES IDX 75 24 46 26 68 27 53 28 67 29 54 30 57 31 66 32 80 33 55 34
REMARK SMILES IDX 56 35 65 37 81 38 58 39 47 40 48 41 52 42 49 43 51 44 50 45
REMARK SMILES IDX 69 46 70 47 74 48 71 49 73 50 72 51 59 52 60 53 64 54 61 55
REMARK SMILES IDX 63 56 62 57 7 58 8 59 9 60 10 62 11 63 14 64 15 65 16 67
REMARK SMILES IDX 17 68 28 69 29 70 30 72 31 73 32 74 37 75 33 76 36 77 34 78
REMARK SMILES IDX 35 79 18 80 19 81 20 82 27 83 21 84 22 85 26 86 23 88 25 89
REMARK SMILES IDX 24 90 12 91 13 92
REMARK H PARENT 3 7 79 25 57 36 8 61 14 66 28 71 21 87 13 93
REMARK Flexibility Score: inf
ROOT
ATOM      1  C   UNL A   1      31.716  26.735  26.491  1.00  0.00     0.023 C 
ENDROOT
BRANCH   1   2
ATOM      2  C   UNL A   1      32.166  28.185  26.405  1.00  0.00     0.023 C 
BRANCH   2   3
ATOM      3  C   UNL A   1      33.366  28.557  27.265  1.00  0.00     0.116 C 
BRANCH   3   4
ATOM      4  N   UNL A   1      33.391  29.957  27.668  1.00  0.00    -0.352 N 
ATOM      5  O   UNL A   1      34.228  31.870  28.528  1.00  0.00    -0.269 OA
ATOM      6  C   UNL A   1      34.423  30.707  28.185  1.00  0.00     0.251 C 
ATOM      7  H   UNL A   1      32.540  30.440  27.553  1.00  0.00     0.163 HD
BRANCH   6   8
ATOM      8  C   UNL A   1      35.758  30.093  28.364  1.00  0.00     0.039 A 
ATOM      9  C   UNL A   1      36.111  29.518  29.584  1.00  0.00     0.014 A 
ATOM     10  C   UNL A   1      36.680  30.129  27.313  1.00  0.00     0.014 A 
ATOM     11  C   UNL A   1      37.433  29.157  29.817  1.00  0.00     0.010 A 
ATOM     12  C   UNL A   1      37.986  29.670  27.519  1.00  0.00     0.010 A 
ATOM     13  C   UNL A   1      38.386  29.223  28.787  1.00  0.00    -0.014 A 
BRANCH  13  14
ATOM     14  C   UNL A   1      39.776  28.769  29.059  1.00  0.00     0.031 A 
ATOM     15  C   UNL A   1      40.256  27.407  28.637  1.00  0.00     0.074 A 
ATOM     16  C   UNL A   1      40.628  29.628  29.651  1.00  0.00     0.049 A 
ATOM     17  N   UNL A   1      41.451  26.882  28.764  1.00  0.00    -0.248 NA
ATOM     18  C   UNL A   1      39.278  26.515  27.999  1.00  0.00     0.031 C 
ATOM     19  C   UNL A   1      40.284  30.978  30.106  1.00  0.00     0.029 A 
ATOM     20  N   UNL A   1      41.961  29.509  29.947  1.00  0.00    -0.354 N 
ATOM     21  C   UNL A   1      41.362  25.596  28.244  1.00  0.00     0.074 A 
ATOM     22  C   UNL A   1      39.992  25.412  27.816  1.00  0.00     0.031 C 
ATOM     23  C   UNL A   1      41.388  31.582  30.566  1.00  0.00     0.029 A 
ATOM     24  C   UNL A   1      42.502  30.642  30.502  1.00  0.00     0.049 A 
ATOM     25  H   UNL A   1      42.482  28.689  29.777  1.00  0.00     0.167 HD
ATOM     26  C   UNL A   1      42.333  24.657  28.134  1.00  0.00     0.031 A 
ATOM     27  C   UNL A   1      43.750  30.901  30.930  1.00  0.00     0.031 A 
ATOM     28  C   UNL A   1      43.699  24.843  28.554  1.00  0.00     0.049 A 
ATOM     29  C   UNL A   1      44.796  29.835  30.818  1.00  0.00     0.074 A 
ATOM     30  C   UNL A   1      44.760  23.958  28.454  1.00  0.00     0.029 A 
ATOM     31  N   UNL A   1      44.192  25.989  29.156  1.00  0.00    -0.354 N 
ATOM     32  N   UNL A   1      44.697  28.634  30.304  1.00  0.00    -0.248 NA
ATOM     33  C   UNL A   1      46.127  30.160  31.349  1.00  0.00     0.031 C 
ATOM     34  C   UNL A   1      45.884  24.553  29.037  1.00  0.00     0.029 A 
ATOM     35  C   UNL A   1      45.535  25.826  29.455  1.00  0.00     0.049 A 
ATOM     36  H   UNL A   1      43.666  26.800  29.343  1.00  0.00     0.167 HD
ATOM     37  C   UNL A   1      45.953  28.061  30.440  1.00  0.00     0.074 A 
ATOM     38  C   UNL A   1      46.803  29.055  31.064  1.00  0.00     0.031 C 
ATOM     39  C   UNL A   1      46.364  26.820  30.085  1.00  0.00     0.031 A 
BRANCH  26  40
ATOM     40  C   UNL A   1      41.950  23.323  27.556  1.00  0.00    -0.014 A 
ATOM     41  C   UNL A   1      42.085  23.054  26.185  1.00  0.00     0.009 A 
ATOM     42  C   UNL A   1      41.503  22.300  28.408  1.00  0.00     0.009 A 
ATOM     43  C   UNL A   1      41.753  21.796  25.676  1.00  0.00     0.001 A 
ATOM     44  C   UNL A   1      41.193  21.037  27.899  1.00  0.00     0.001 A 
ATOM     45  C   UNL A   1      41.312  20.787  26.532  1.00  0.00     0.000 A 
ENDBRANCH  26  40
BRANCH  27  46
ATOM     46  C   UNL A   1      44.063  32.227  31.520  1.00  0.00    -0.014 A 
ATOM     47  C   UNL A   1      44.455  33.297  30.704  1.00  0.00     0.009 A 
ATOM     48  C   UNL A   1      43.945  32.432  32.904  1.00  0.00     0.009 A 
ATOM     49  C   UNL A   1      44.734  34.545  31.265  1.00  0.00     0.001 A 
ATOM     50  C   UNL A   1      44.197  33.687  33.458  1.00  0.00     0.001 A 
ATOM     51  C   UNL A   1      44.599  34.741  32.639  1.00  0.00     0.000 A 
ENDBRANCH  27  46
BRANCH  39  52
ATOM     52  C   UNL A   1      47.802  26.482  30.347  1.00  0.00    -0.014 A 
ATOM     53  C   UNL A   1      48.209  25.961  31.586  1.00  0.00     0.009 A 
ATOM     54  C   UNL A   1      48.758  26.668  29.337  1.00  0.00     0.009 A 
ATOM     55  C   UNL A   1      49.554  25.666  31.817  1.00  0.00     0.001 A 
ATOM     56  C   UNL A   1      50.097  26.349  29.564  1.00  0.00     0.001 A 
ATOM     57  C   UNL A   1      50.495  25.857  30.806  1.00  0.00     0.000 A 
ENDBRANCH  39  52
ENDBRANCH  13  14
ENDBRANCH   6   8
ENDBRANCH   3   4
ENDBRANCH   2   3
ENDBRANCH   1   2
BRANCH   1  58
ATOM     58  C   UNL A   1      31.094  26.146  25.235  1.00  0.00     0.116 C 
BRANCH  58  59
ATOM     59  N   UNL A   1      30.359  27.065  24.392  1.00  0.00    -0.354 N 
ATOM     60  C   UNL A   1      30.757  27.622  23.203  1.00  0.00     0.244 C 
ATOM     61  H   UNL A   1      29.464  27.323  24.711  1.00  0.00     0.163 HD
ATOM     62  O   UNL A   1      29.896  28.160  22.501  1.00  0.00    -0.273 OA
BRANCH  60  63
ATOM     63  C   UNL A   1      32.237  27.590  22.764  1.00  0.00     0.197 C 
BRANCH  63  64
ATOM     64  N   UNL A   1      32.375  26.774  21.542  1.00  0.00    -0.340 N 
ATOM     65  C   UNL A   1      32.733  25.485  21.276  1.00  0.00     0.243 C 
ATOM     66  H   UNL A   1      32.157  27.280  20.725  1.00  0.00     0.164 HD
ATOM     67  O   UNL A   1      32.800  25.184  20.076  1.00  0.00    -0.273 OA
BRANCH  65  68
ATOM     68  C   UNL A   1      32.952  24.368  22.343  1.00  0.00     0.176 C 
BRANCH  68  69
ATOM     69  N   UNL A   1      32.311  23.119  21.998  1.00  0.00    -0.340 N 
ATOM     70  C   UNL A   1      32.175  21.917  22.622  1.00  0.00     0.251 C 
ATOM     71  H   UNL A   1      31.875  23.143  21.115  1.00  0.00     0.164 HD
ATOM     72  O   UNL A   1      31.700  20.980  21.981  1.00  0.00    -0.269 OA
BRANCH  70  73
ATOM     73  C   UNL A   1      32.597  21.701  24.014  1.00  0.00     0.040 A 
ATOM     74  C   UNL A   1      33.615  20.805  24.358  1.00  0.00     0.017 A 
ATOM     75  C   UNL A   1      32.019  22.525  24.992  1.00  0.00     0.017 A 
ATOM     76  C   UNL A   1      34.024  20.711  25.690  1.00  0.00     0.040 A 
ATOM     77  C   UNL A   1      32.433  22.429  26.319  1.00  0.00     0.040 A 
ATOM     78  C   UNL A   1      33.429  21.520  26.655  1.00  0.00     0.123 A 
ATOM     79  F   UNL A   1      33.836  21.435  27.929  1.00  0.00    -0.207 F 
ENDBRANCH  70  73
ENDBRANCH  68  69
BRANCH  68  80
ATOM     80  C   UNL A   1      34.493  24.197  22.502  1.00  0.00     0.072 C 
BRANCH  80  81
ATOM     81  C   UNL A   1      35.106  24.261  23.891  1.00  0.00    -0.020 A 
ATOM     82  C   UNL A   1      34.718  25.047  24.966  1.00  0.00     0.087 A 
ATOM     83  C   UNL A   1      36.138  23.393  24.407  1.00  0.00     0.003 A 
ATOM     84  N   UNL A   1      35.485  24.740  26.056  1.00  0.00    -0.361 N 
ATOM     85  C   UNL A   1      36.335  23.712  25.752  1.00  0.00     0.046 A 
ATOM     86  C   UNL A   1      36.902  22.338  23.865  1.00  0.00     0.010 A 
ATOM     87  H   UNL A   1      35.433  25.193  26.930  1.00  0.00     0.166 HD
ATOM     88  C   UNL A   1      37.242  23.043  26.580  1.00  0.00     0.026 A 
ATOM     89  C   UNL A   1      37.814  21.652  24.681  1.00  0.00     0.001 A 
ATOM     90  C   UNL A   1      37.978  22.001  26.020  1.00  0.00     0.002 A 
ENDBRANCH  80  81
ENDBRANCH  68  80
ENDBRANCH  65  68
ENDBRANCH  63  64
BRANCH  63  91
ATOM     91  C   UNL A   1      32.700  29.045  22.532  1.00  0.00     0.191 C 
BRANCH  91  92
ATOM     92  O   UNL A   1      33.696  29.416  23.491  1.00  0.00    -0.394 OA
ATOM     93  H   UNL A   1      33.504  28.987  24.340  1.00  0.00     0.210 HD
ENDBRANCH  91  92
ENDBRANCH  63  91
ENDBRANCH  60  63
ENDBRANCH  58  59
ENDBRANCH   1  58
TORSDOF 19
ENDMDL
