MODEL 1
REMARK VINA RESULT:     -12.4      0.000      0.000
REMARK SMILES O=C(NCCCCNC(=O)[C@H]1CC2(CCN(C(=O)c3cccc(O)c3)CC2)CN1C(=O)C1CC1)c1ccc(-c2c3nc(c(-c4ccccc4)c4ccc([nH]4)c(-c4ccccc4)c4nc(c(-c5ccccc5)c5ccc2[nH]5)C=C4)C=C3)cc1
REMARK SMILES IDX 5 1 4 2 3 3 1 4 2 5 35 7 36 8 82 9 37 10 81 11 38 12 39 13
REMARK SMILES IDX 40 14 75 15 41 16 80 17 74 18 76 19 42 20 79 21 73 22 72 23
REMARK SMILES IDX 43 25 65 26 50 27 64 28 51 29 54 30 63 31 77 32 52 33 53 34
REMARK SMILES IDX 62 36 78 37 55 38 44 39 45 40 49 41 46 42 48 43 47 44 66 45
REMARK SMILES IDX 67 46 71 47 68 48 70 49 69 50 56 51 57 52 61 53 58 54 60 55
REMARK SMILES IDX 59 56 6 57 7 58 8 59 9 60 10 62 11 63 12 64 29 65 13 66
REMARK SMILES IDX 28 67 14 68 27 69 15 70 26 71 16 72 17 73 18 74 30 75 31 76
REMARK SMILES IDX 32 77 33 78 34 79 19 80 20 81 25 82 21 83 23 84 22 85 24 86
REMARK H PARENT 3 6 76 24 54 35 8 61 24 87
REMARK Flexibility Score: inf
ROOT
ATOM      1  C   UNL A   1      38.013  19.203  24.791  1.00  0.00     0.023 C 
ENDROOT
BRANCH   1   2
ATOM      2  C   UNL A   1      38.990  19.862  25.751  1.00  0.00     0.116 C 
BRANCH   2   3
ATOM      3  N   UNL A   1      40.235  19.125  25.840  1.00  0.00    -0.352 N 
ATOM      4  O   UNL A   1      42.468  18.856  25.878  1.00  0.00    -0.269 OA
ATOM      5  C   UNL A   1      41.501  19.589  26.087  1.00  0.00     0.251 C 
ATOM      6  H   UNL A   1      40.161  18.153  25.704  1.00  0.00     0.163 HD
BRANCH   5   7
ATOM      7  C   UNL A   1      41.718  20.957  26.608  1.00  0.00     0.039 A 
ATOM      8  C   UNL A   1      41.762  21.207  27.983  1.00  0.00     0.014 A 
ATOM      9  C   UNL A   1      41.966  21.993  25.702  1.00  0.00     0.014 A 
ATOM     10  C   UNL A   1      41.964  22.501  28.451  1.00  0.00     0.010 A 
ATOM     11  C   UNL A   1      42.249  23.276  26.173  1.00  0.00     0.010 A 
ATOM     12  C   UNL A   1      42.249  23.540  27.552  1.00  0.00    -0.014 A 
BRANCH  12  13
ATOM     13  C   UNL A   1      42.667  24.864  28.068  1.00  0.00     0.031 A 
ATOM     14  C   UNL A   1      41.661  25.931  28.378  1.00  0.00     0.074 A 
ATOM     15  C   UNL A   1      43.984  25.105  28.219  1.00  0.00     0.049 A 
ATOM     16  N   UNL A   1      41.864  27.160  28.777  1.00  0.00    -0.248 NA
ATOM     17  C   UNL A   1      40.244  25.577  28.209  1.00  0.00     0.031 C 
ATOM     18  C   UNL A   1      45.053  24.144  27.931  1.00  0.00     0.029 A 
ATOM     19  N   UNL A   1      44.649  26.225  28.644  1.00  0.00    -0.354 N 
ATOM     20  C   UNL A   1      40.605  27.737  28.882  1.00  0.00     0.074 A 
ATOM     21  C   UNL A   1      39.645  26.726  28.489  1.00  0.00     0.031 C 
ATOM     22  C   UNL A   1      46.236  24.707  28.208  1.00  0.00     0.029 A 
ATOM     23  C   UNL A   1      46.015  26.086  28.627  1.00  0.00     0.049 A 
ATOM     24  H   UNL A   1      44.193  27.048  28.932  1.00  0.00     0.167 HD
ATOM     25  C   UNL A   1      40.285  28.996  29.266  1.00  0.00     0.031 A 
ATOM     26  C   UNL A   1      46.989  26.976  28.885  1.00  0.00     0.031 A 
ATOM     27  C   UNL A   1      41.250  29.996  29.643  1.00  0.00     0.049 A 
ATOM     28  C   UNL A   1      46.612  28.370  29.281  1.00  0.00     0.074 A 
ATOM     29  C   UNL A   1      41.026  31.287  30.088  1.00  0.00     0.029 A 
ATOM     30  N   UNL A   1      42.626  29.817  29.609  1.00  0.00    -0.354 N 
ATOM     31  N   UNL A   1      45.415  28.888  29.419  1.00  0.00    -0.248 NA
ATOM     32  C   UNL A   1      47.712  29.303  29.556  1.00  0.00     0.031 C 
ATOM     33  C   UNL A   1      42.268  31.907  30.271  1.00  0.00     0.029 A 
ATOM     34  C   UNL A   1      43.264  30.984  29.994  1.00  0.00     0.049 A 
ATOM     35  H   UNL A   1      43.080  28.984  29.349  1.00  0.00     0.167 HD
ATOM     36  C   UNL A   1      45.615  30.204  29.809  1.00  0.00     0.074 A 
ATOM     37  C   UNL A   1      47.049  30.399  29.900  1.00  0.00     0.031 C 
ATOM     38  C   UNL A   1      44.692  31.161  30.070  1.00  0.00     0.031 A 
BRANCH  25  39
ATOM     39  C   UNL A   1      38.829  29.374  29.247  1.00  0.00    -0.014 A 
ATOM     40  C   UNL A   1      38.228  29.926  28.105  1.00  0.00     0.009 A 
ATOM     41  C   UNL A   1      38.043  29.161  30.391  1.00  0.00     0.009 A 
ATOM     42  C   UNL A   1      36.880  30.295  28.124  1.00  0.00     0.001 A 
ATOM     43  C   UNL A   1      36.690  29.506  30.398  1.00  0.00     0.001 A 
ATOM     44  C   UNL A   1      36.112  30.084  29.268  1.00  0.00     0.000 A 
ENDBRANCH  25  39
BRANCH  26  45
ATOM     45  C   UNL A   1      48.408  26.560  28.740  1.00  0.00    -0.014 A 
ATOM     46  C   UNL A   1      49.100  25.986  29.815  1.00  0.00     0.009 A 
ATOM     47  C   UNL A   1      49.051  26.667  27.495  1.00  0.00     0.009 A 
ATOM     48  C   UNL A   1      50.411  25.532  29.648  1.00  0.00     0.001 A 
ATOM     49  C   UNL A   1      50.351  26.189  27.325  1.00  0.00     0.001 A 
ATOM     50  C   UNL A   1      51.031  25.625  28.402  1.00  0.00     0.000 A 
ENDBRANCH  26  45
BRANCH  38  51
ATOM     51  C   UNL A   1      45.206  32.504  30.501  1.00  0.00    -0.014 A 
ATOM     52  C   UNL A   1      45.441  33.525  29.566  1.00  0.00     0.009 A 
ATOM     53  C   UNL A   1      45.405  32.765  31.866  1.00  0.00     0.009 A 
ATOM     54  C   UNL A   1      45.884  34.778  29.993  1.00  0.00     0.001 A 
ATOM     55  C   UNL A   1      45.824  34.026  32.289  1.00  0.00     0.001 A 
ATOM     56  C   UNL A   1      46.068  35.029  31.352  1.00  0.00     0.000 A 
ENDBRANCH  38  51
ENDBRANCH  12  13
ENDBRANCH   5   7
ENDBRANCH   2   3
ENDBRANCH   1   2
BRANCH   1  57
ATOM     57  C   UNL A   1      36.538  19.569  25.002  1.00  0.00     0.023 C 
BRANCH  57  58
ATOM     58  C   UNL A   1      36.260  21.048  25.285  1.00  0.00     0.116 C 
BRANCH  58  59
ATOM     59  N   UNL A   1      36.528  21.907  24.144  1.00  0.00    -0.354 N 
ATOM     60  C   UNL A   1      35.774  22.885  23.561  1.00  0.00     0.242 C 
ATOM     61  H   UNL A   1      37.402  21.757  23.718  1.00  0.00     0.163 HD
ATOM     62  O   UNL A   1      36.257  23.457  22.581  1.00  0.00    -0.273 OA
BRANCH  60  63
ATOM     63  C   UNL A   1      34.412  23.286  24.150  1.00  0.00     0.175 C 
ATOM     64  C   UNL A   1      33.953  24.664  23.665  1.00  0.00     0.044 C 
ATOM     65  N   UNL A   1      33.143  22.550  24.215  1.00  0.00    -0.330 N 
ATOM     66  C   UNL A   1      32.580  24.875  24.363  1.00  0.00    -0.006 C 
ATOM     67  C   UNL A   1      32.193  23.454  24.861  1.00  0.00     0.127 C 
ATOM     68  C   UNL A   1      31.538  25.412  23.352  1.00  0.00     0.030 C 
ATOM     69  C   UNL A   1      32.673  25.843  25.566  1.00  0.00     0.030 C 
ATOM     70  C   UNL A   1      31.810  26.867  22.970  1.00  0.00     0.120 C 
ATOM     71  C   UNL A   1      32.860  27.303  25.152  1.00  0.00     0.120 C 
ATOM     72  N   UNL A   1      31.854  27.696  24.173  1.00  0.00    -0.339 N 
ATOM     73  C   UNL A   1      31.122  28.861  24.396  1.00  0.00     0.253 C 
ATOM     74  O   UNL A   1      31.313  29.605  25.356  1.00  0.00    -0.269 OA
BRANCH  65  75
ATOM     75  C   UNL A   1      32.559  21.470  23.564  1.00  0.00     0.226 C 
ATOM     76  O   UNL A   1      32.308  21.565  22.360  1.00  0.00    -0.275 OA
BRANCH  75  77
ATOM     77  C   UNL A   1      32.238  20.141  24.145  1.00  0.00     0.079 C 
ATOM     78  C   UNL A   1      33.022  18.878  23.944  1.00  0.00     0.014 C 
ATOM     79  C   UNL A   1      32.909  19.496  25.309  1.00  0.00     0.014 C 
ENDBRANCH  75  77
ENDBRANCH  65  75
BRANCH  73  80
ATOM     80  C   UNL A   1      30.058  29.249  23.448  1.00  0.00     0.043 A 
ATOM     81  C   UNL A   1      30.341  30.054  22.337  1.00  0.00     0.014 A 
ATOM     82  C   UNL A   1      28.775  28.727  23.634  1.00  0.00     0.060 A 
ATOM     83  C   UNL A   1      29.320  30.379  21.441  1.00  0.00     0.005 A 
ATOM     84  C   UNL A   1      27.772  29.053  22.729  1.00  0.00     0.116 A 
ATOM     85  C   UNL A   1      28.030  29.881  21.639  1.00  0.00     0.046 A 
BRANCH  84  86
ATOM     86  O   UNL A   1      26.531  28.531  22.945  1.00  0.00    -0.508 OA
ATOM     87  H   UNL A   1      25.837  29.083  23.252  1.00  0.00     0.293 HD
ENDBRANCH  84  86
ENDBRANCH  73  80
ENDBRANCH  60  63
ENDBRANCH  58  59
ENDBRANCH  57  58
ENDBRANCH   1  57
TORSDOF 15
ENDMDL
MODEL 2
REMARK VINA RESULT:     -12.1      1.542      5.876
REMARK SMILES O=C(NCCCCNC(=O)[C@H]1CC2(CCN(C(=O)c3cccc(O)c3)CC2)CN1C(=O)C1CC1)c1ccc(-c2c3nc(c(-c4ccccc4)c4ccc([nH]4)c(-c4ccccc4)c4nc(c(-c5ccccc5)c5ccc2[nH]5)C=C4)C=C3)cc1
REMARK SMILES IDX 5 1 4 2 3 3 1 4 2 5 35 7 36 8 82 9 37 10 81 11 38 12 39 13
REMARK SMILES IDX 40 14 75 15 41 16 80 17 74 18 76 19 42 20 79 21 73 22 72 23
REMARK SMILES IDX 43 25 65 26 50 27 64 28 51 29 54 30 63 31 77 32 52 33 53 34
REMARK SMILES IDX 62 36 78 37 55 38 44 39 45 40 49 41 46 42 48 43 47 44 66 45
REMARK SMILES IDX 67 46 71 47 68 48 70 49 69 50 56 51 57 52 61 53 58 54 60 55
REMARK SMILES IDX 59 56 6 57 7 58 8 59 9 60 10 62 11 63 12 64 29 65 13 66
REMARK SMILES IDX 28 67 14 68 27 69 15 70 26 71 16 72 17 73 18 74 30 75 31 76
REMARK SMILES IDX 32 77 33 78 34 79 19 80 20 81 25 82 21 83 23 84 22 85 24 86
REMARK H PARENT 3 6 76 24 54 35 8 61 24 87
REMARK Flexibility Score: inf
ROOT
ATOM      1  C   UNL A   1      39.516  21.420  25.952  1.00  0.00     0.023 C 
ENDROOT
BRANCH   1   2
ATOM      2  C   UNL A   1      40.258  20.442  26.849  1.00  0.00     0.116 C 
BRANCH   2   3
ATOM      3  N   UNL A   1      41.448  19.919  26.205  1.00  0.00    -0.352 N 
ATOM      4  O   UNL A   1      43.396  20.025  25.084  1.00  0.00    -0.269 OA
ATOM      5  C   UNL A   1      42.596  20.574  25.844  1.00  0.00     0.251 C 
ATOM      6  H   UNL A   1      41.428  18.957  25.998  1.00  0.00     0.163 HD
BRANCH   5   7
ATOM      7  C   UNL A   1      42.889  21.930  26.359  1.00  0.00     0.039 A 
ATOM      8  C   UNL A   1      43.058  23.011  25.489  1.00  0.00     0.014 A 
ATOM      9  C   UNL A   1      42.913  22.137  27.742  1.00  0.00     0.014 A 
ATOM     10  C   UNL A   1      43.337  24.277  25.994  1.00  0.00     0.010 A 
ATOM     11  C   UNL A   1      43.113  23.422  28.250  1.00  0.00     0.010 A 
ATOM     12  C   UNL A   1      43.328  24.501  27.380  1.00  0.00    -0.014 A 
BRANCH  12  13
ATOM     13  C   UNL A   1      43.418  25.886  27.900  1.00  0.00     0.031 A 
ATOM     14  C   UNL A   1      44.733  26.481  28.303  1.00  0.00     0.074 A 
ATOM     15  C   UNL A   1      42.279  26.591  28.040  1.00  0.00     0.049 A 
ATOM     16  N   UNL A   1      44.977  27.652  28.833  1.00  0.00    -0.248 NA
ATOM     17  C   UNL A   1      45.929  25.652  28.095  1.00  0.00     0.031 C 
ATOM     18  C   UNL A   1      40.940  26.104  27.695  1.00  0.00     0.029 A 
ATOM     19  N   UNL A   1      42.061  27.859  28.511  1.00  0.00    -0.354 N 
ATOM     20  C   UNL A   1      46.348  27.692  29.048  1.00  0.00     0.074 A 
ATOM     21  C   UNL A   1      46.881  26.421  28.604  1.00  0.00     0.031 C 
ATOM     22  C   UNL A   1      40.044  27.068  27.945  1.00  0.00     0.029 A 
ATOM     23  C   UNL A   1      40.734  28.212  28.529  1.00  0.00     0.049 A 
ATOM     24  H   UNL A   1      42.783  28.458  28.808  1.00  0.00     0.167 HD
ATOM     25  C   UNL A   1      47.089  28.698  29.572  1.00  0.00     0.031 A 
ATOM     26  C   UNL A   1      40.128  29.319  28.995  1.00  0.00     0.031 A 
ATOM     27  C   UNL A   1      46.545  29.954  30.020  1.00  0.00     0.049 A 
ATOM     28  C   UNL A   1      40.965  30.407  29.595  1.00  0.00     0.074 A 
ATOM     29  C   UNL A   1      47.216  31.053  30.526  1.00  0.00     0.029 A 
ATOM     30  N   UNL A   1      45.194  30.271  30.025  1.00  0.00    -0.354 N 
ATOM     31  N   UNL A   1      42.267  30.449  29.749  1.00  0.00    -0.248 NA
ATOM     32  C   UNL A   1      40.257  31.595  30.085  1.00  0.00     0.031 C 
ATOM     33  C   UNL A   1      46.266  32.015  30.888  1.00  0.00     0.029 A 
ATOM     34  C   UNL A   1      45.008  31.537  30.555  1.00  0.00     0.049 A 
ATOM     35  H   UNL A   1      44.475  29.684  29.700  1.00  0.00     0.167 HD
ATOM     36  C   UNL A   1      42.537  31.673  30.343  1.00  0.00     0.074 A 
ATOM     37  C   UNL A   1      41.264  32.348  30.506  1.00  0.00     0.031 C 
ATOM     38  C   UNL A   1      43.733  32.189  30.716  1.00  0.00     0.031 A 
BRANCH  25  39
ATOM     39  C   UNL A   1      48.565  28.456  29.732  1.00  0.00    -0.014 A 
ATOM     40  C   UNL A   1      49.478  28.791  28.719  1.00  0.00     0.009 A 
ATOM     41  C   UNL A   1      49.051  27.896  30.924  1.00  0.00     0.009 A 
ATOM     42  C   UNL A   1      50.841  28.529  28.881  1.00  0.00     0.001 A 
ATOM     43  C   UNL A   1      50.417  27.660  31.093  1.00  0.00     0.001 A 
ATOM     44  C   UNL A   1      51.310  27.966  30.067  1.00  0.00     0.000 A 
ENDBRANCH  25  39
BRANCH  26  45
ATOM     45  C   UNL A   1      38.647  29.417  28.928  1.00  0.00    -0.014 A 
ATOM     46  C   UNL A   1      37.861  29.171  30.062  1.00  0.00     0.009 A 
ATOM     47  C   UNL A   1      38.021  29.833  27.742  1.00  0.00     0.009 A 
ATOM     48  C   UNL A   1      36.474  29.334  30.008  1.00  0.00     0.001 A 
ATOM     49  C   UNL A   1      36.639  30.021  27.698  1.00  0.00     0.001 A 
ATOM     50  C   UNL A   1      35.866  29.768  28.830  1.00  0.00     0.000 A 
ENDBRANCH  26  45
BRANCH  38  51
ATOM     51  C   UNL A   1      43.724  33.563  31.320  1.00  0.00    -0.014 A 
ATOM     52  C   UNL A   1      43.872  34.708  30.521  1.00  0.00     0.009 A 
ATOM     53  C   UNL A   1      43.510  33.712  32.699  1.00  0.00     0.009 A 
ATOM     54  C   UNL A   1      43.825  35.977  31.099  1.00  0.00     0.001 A 
ATOM     55  C   UNL A   1      43.439  34.983  33.268  1.00  0.00     0.001 A 
ATOM     56  C   UNL A   1      43.601  36.114  32.469  1.00  0.00     0.000 A 
ENDBRANCH  38  51
ENDBRANCH  12  13
ENDBRANCH   5   7
ENDBRANCH   2   3
ENDBRANCH   1   2
BRANCH   1  57
ATOM     57  C   UNL A   1      39.387  22.845  26.503  1.00  0.00     0.023 C 
BRANCH  57  58
ATOM     58  C   UNL A   1      38.095  23.580  26.135  1.00  0.00     0.116 C 
BRANCH  58  59
ATOM     59  N   UNL A   1      37.647  23.304  24.782  1.00  0.00    -0.354 N 
ATOM     60  C   UNL A   1      36.407  23.375  24.214  1.00  0.00     0.242 C 
ATOM     61  H   UNL A   1      38.361  23.015  24.168  1.00  0.00     0.163 HD
ATOM     62  O   UNL A   1      36.316  23.068  23.023  1.00  0.00    -0.273 OA
BRANCH  60  63
ATOM     63  C   UNL A   1      35.199  23.874  25.022  1.00  0.00     0.175 C 
ATOM     64  C   UNL A   1      34.460  25.014  24.316  1.00  0.00     0.044 C 
ATOM     65  N   UNL A   1      34.092  23.137  25.645  1.00  0.00    -0.330 N 
ATOM     66  C   UNL A   1      33.293  25.367  25.282  1.00  0.00    -0.006 C 
ATOM     67  C   UNL A   1      33.230  24.151  26.249  1.00  0.00     0.127 C 
ATOM     68  C   UNL A   1      31.970  25.520  24.493  1.00  0.00     0.030 C 
ATOM     69  C   UNL A   1      33.564  26.660  26.085  1.00  0.00     0.030 C 
ATOM     70  C   UNL A   1      31.948  26.798  23.656  1.00  0.00     0.120 C 
ATOM     71  C   UNL A   1      33.452  27.929  25.240  1.00  0.00     0.120 C 
ATOM     72  N   UNL A   1      32.189  27.957  24.512  1.00  0.00    -0.339 N 
ATOM     73  C   UNL A   1      31.395  29.100  24.594  1.00  0.00     0.253 C 
ATOM     74  O   UNL A   1      31.726  30.111  25.210  1.00  0.00    -0.269 OA
BRANCH  65  75
ATOM     75  C   UNL A   1      33.505  21.883  25.517  1.00  0.00     0.226 C 
ATOM     76  O   UNL A   1      33.867  20.977  26.271  1.00  0.00    -0.275 OA
BRANCH  75  77
ATOM     77  C   UNL A   1      32.413  21.497  24.587  1.00  0.00     0.079 C 
ATOM     78  C   UNL A   1      32.299  21.897  23.146  1.00  0.00     0.014 C 
ATOM     79  C   UNL A   1      32.479  20.454  23.525  1.00  0.00     0.014 C 
ENDBRANCH  75  77
ENDBRANCH  65  75
BRANCH  73  80
ATOM     80  C   UNL A   1      30.085  29.129  23.911  1.00  0.00     0.043 A 
ATOM     81  C   UNL A   1      29.348  27.955  23.714  1.00  0.00     0.014 A 
ATOM     82  C   UNL A   1      29.554  30.367  23.538  1.00  0.00     0.060 A 
ATOM     83  C   UNL A   1      28.099  28.019  23.093  1.00  0.00     0.005 A 
ATOM     84  C   UNL A   1      28.307  30.415  22.929  1.00  0.00     0.116 A 
ATOM     85  C   UNL A   1      27.577  29.252  22.695  1.00  0.00     0.046 A 
BRANCH  84  86
ATOM     86  O   UNL A   1      27.823  31.639  22.573  1.00  0.00    -0.508 OA
ATOM     87  H   UNL A   1      28.287  32.416  22.817  1.00  0.00     0.293 HD
ENDBRANCH  84  86
ENDBRANCH  73  80
ENDBRANCH  60  63
ENDBRANCH  58  59
ENDBRANCH  57  58
ENDBRANCH   1  57
TORSDOF 15
ENDMDL
MODEL 3
REMARK VINA RESULT:     -11.8      1.125      5.834
REMARK SMILES O=C(NCCCCNC(=O)[C@H]1CC2(CCN(C(=O)c3cccc(O)c3)CC2)CN1C(=O)C1CC1)c1ccc(-c2c3nc(c(-c4ccccc4)c4ccc([nH]4)c(-c4ccccc4)c4nc(c(-c5ccccc5)c5ccc2[nH]5)C=C4)C=C3)cc1
REMARK SMILES IDX 5 1 4 2 3 3 1 4 2 5 35 7 36 8 82 9 37 10 81 11 38 12 39 13
REMARK SMILES IDX 40 14 75 15 41 16 80 17 74 18 76 19 42 20 79 21 73 22 72 23
REMARK SMILES IDX 43 25 65 26 50 27 64 28 51 29 54 30 63 31 77 32 52 33 53 34
REMARK SMILES IDX 62 36 78 37 55 38 44 39 45 40 49 41 46 42 48 43 47 44 66 45
REMARK SMILES IDX 67 46 71 47 68 48 70 49 69 50 56 51 57 52 61 53 58 54 60 55
REMARK SMILES IDX 59 56 6 57 7 58 8 59 9 60 10 62 11 63 12 64 29 65 13 66
REMARK SMILES IDX 28 67 14 68 27 69 15 70 26 71 16 72 17 73 18 74 30 75 31 76
REMARK SMILES IDX 32 77 33 78 34 79 19 80 20 81 25 82 21 83 23 84 22 85 24 86
REMARK H PARENT 3 6 76 24 54 35 8 61 24 87
REMARK Flexibility Score: inf
ROOT
ATOM      1  C   UNL A   1      38.407  19.729  24.998  1.00  0.00     0.023 C 
ENDROOT
BRANCH   1   2
ATOM      2  C   UNL A   1      39.436  20.053  26.070  1.00  0.00     0.116 C 
BRANCH   2   3
ATOM      3  N   UNL A   1      40.493  19.062  26.117  1.00  0.00    -0.352 N 
ATOM      4  O   UNL A   1      42.594  18.284  25.918  1.00  0.00    -0.269 OA
ATOM      5  C   UNL A   1      41.851  19.244  26.129  1.00  0.00     0.251 C 
ATOM      6  H   UNL A   1      40.192  18.126  26.144  1.00  0.00     0.163 HD
BRANCH   5   7
ATOM      7  C   UNL A   1      42.435  20.576  26.399  1.00  0.00     0.039 A 
ATOM      8  C   UNL A   1      42.979  21.348  25.368  1.00  0.00     0.014 A 
ATOM      9  C   UNL A   1      42.361  21.097  27.695  1.00  0.00     0.014 A 
ATOM     10  C   UNL A   1      43.526  22.596  25.644  1.00  0.00     0.010 A 
ATOM     11  C   UNL A   1      42.837  22.383  27.957  1.00  0.00     0.010 A 
ATOM     12  C   UNL A   1      43.425  23.141  26.933  1.00  0.00    -0.014 A 
BRANCH  12  13
ATOM     13  C   UNL A   1      43.821  24.550  27.168  1.00  0.00     0.031 A 
ATOM     14  C   UNL A   1      45.246  24.992  27.021  1.00  0.00     0.074 A 
ATOM     15  C   UNL A   1      42.872  25.424  27.557  1.00  0.00     0.049 A 
ATOM     16  N   UNL A   1      45.768  26.169  27.249  1.00  0.00    -0.248 NA
ATOM     17  C   UNL A   1      46.212  23.979  26.570  1.00  0.00     0.031 C 
ATOM     18  C   UNL A   1      41.456  25.099  27.748  1.00  0.00     0.029 A 
ATOM     19  N   UNL A   1      42.953  26.757  27.864  1.00  0.00    -0.354 N 
ATOM     20  C   UNL A   1      47.127  26.036  26.996  1.00  0.00     0.074 A 
ATOM     21  C   UNL A   1      47.350  24.658  26.612  1.00  0.00     0.031 C 
ATOM     22  C   UNL A   1      40.798  26.205  28.119  1.00  0.00     0.029 A 
ATOM     23  C   UNL A   1      41.753  27.298  28.256  1.00  0.00     0.049 A 
ATOM     24  H   UNL A   1      43.788  27.275  27.811  1.00  0.00     0.167 HD
ATOM     25  C   UNL A   1      48.096  26.978  27.083  1.00  0.00     0.031 A 
ATOM     26  C   UNL A   1      41.453  28.528  28.711  1.00  0.00     0.031 A 
ATOM     27  C   UNL A   1      47.862  28.343  27.478  1.00  0.00     0.049 A 
ATOM     28  C   UNL A   1      42.546  29.546  28.824  1.00  0.00     0.074 A 
ATOM     29  C   UNL A   1      48.769  29.386  27.556  1.00  0.00     0.029 A 
ATOM     30  N   UNL A   1      46.633  28.852  27.871  1.00  0.00    -0.354 N 
ATOM     31  N   UNL A   1      43.819  29.417  28.538  1.00  0.00    -0.248 NA
ATOM     32  C   UNL A   1      42.167  30.874  29.322  1.00  0.00     0.031 C 
ATOM     33  C   UNL A   1      48.098  30.511  28.049  1.00  0.00     0.029 A 
ATOM     34  C   UNL A   1      46.762  30.184  28.224  1.00  0.00     0.049 A 
ATOM     35  H   UNL A   1      45.792  28.340  27.896  1.00  0.00     0.167 HD
ATOM     36  C   UNL A   1      44.393  30.650  28.808  1.00  0.00     0.074 A 
ATOM     37  C   UNL A   1      43.326  31.517  29.267  1.00  0.00     0.031 C 
ATOM     38  C   UNL A   1      45.689  31.028  28.685  1.00  0.00     0.031 A 
BRANCH  25  39
ATOM     39  C   UNL A   1      49.507  26.546  26.791  1.00  0.00    -0.014 A 
ATOM     40  C   UNL A   1      50.334  26.012  27.793  1.00  0.00     0.009 A 
ATOM     41  C   UNL A   1      50.012  26.663  25.487  1.00  0.00     0.009 A 
ATOM     42  C   UNL A   1      51.651  25.646  27.501  1.00  0.00     0.001 A 
ATOM     43  C   UNL A   1      51.320  26.271  25.193  1.00  0.00     0.001 A 
ATOM     44  C   UNL A   1      52.142  25.774  26.203  1.00  0.00     0.000 A 
ENDBRANCH  25  39
BRANCH  26  45
ATOM     45  C   UNL A   1      40.056  28.830  29.114  1.00  0.00    -0.014 A 
ATOM     46  C   UNL A   1      39.122  29.288  28.176  1.00  0.00     0.009 A 
ATOM     47  C   UNL A   1      39.634  28.586  30.432  1.00  0.00     0.009 A 
ATOM     48  C   UNL A   1      37.793  29.502  28.550  1.00  0.00     0.001 A 
ATOM     49  C   UNL A   1      38.301  28.775  30.796  1.00  0.00     0.001 A 
ATOM     50  C   UNL A   1      37.381  29.235  29.856  1.00  0.00     0.000 A 
ENDBRANCH  26  45
BRANCH  38  51
ATOM     51  C   UNL A   1      46.020  32.450  29.032  1.00  0.00    -0.014 A 
ATOM     52  C   UNL A   1      46.417  32.807  30.330  1.00  0.00     0.009 A 
ATOM     53  C   UNL A   1      45.987  33.433  28.030  1.00  0.00     0.009 A 
ATOM     54  C   UNL A   1      46.756  34.130  30.621  1.00  0.00     0.001 A 
ATOM     55  C   UNL A   1      46.349  34.748  28.320  1.00  0.00     0.001 A 
ATOM     56  C   UNL A   1      46.729  35.097  29.616  1.00  0.00     0.000 A 
ENDBRANCH  38  51
ENDBRANCH  12  13
ENDBRANCH   5   7
ENDBRANCH   2   3
ENDBRANCH   1   2
BRANCH   1  57
ATOM     57  C   UNL A   1      36.958  20.089  25.351  1.00  0.00     0.023 C 
BRANCH  57  58
ATOM     58  C   UNL A   1      36.633  21.585  25.359  1.00  0.00     0.116 C 
BRANCH  58  59
ATOM     59  N   UNL A   1      36.704  22.192  24.042  1.00  0.00    -0.354 N 
ATOM     60  C   UNL A   1      35.795  22.935  23.345  1.00  0.00     0.242 C 
ATOM     61  H   UNL A   1      37.554  22.040  23.569  1.00  0.00     0.163 HD
ATOM     62  O   UNL A   1      36.127  23.321  22.222  1.00  0.00    -0.273 OA
BRANCH  60  63
ATOM     63  C   UNL A   1      34.445  23.317  23.973  1.00  0.00     0.175 C 
ATOM     64  C   UNL A   1      33.960  24.695  23.513  1.00  0.00     0.044 C 
ATOM     65  N   UNL A   1      33.185  22.569  24.064  1.00  0.00    -0.330 N 
ATOM     66  C   UNL A   1      32.604  24.887  24.249  1.00  0.00    -0.006 C 
ATOM     67  C   UNL A   1      32.244  23.458  24.743  1.00  0.00     0.127 C 
ATOM     68  C   UNL A   1      31.531  25.424  23.270  1.00  0.00     0.030 C 
ATOM     69  C   UNL A   1      32.719  25.844  25.457  1.00  0.00     0.030 C 
ATOM     70  C   UNL A   1      31.779  26.884  22.895  1.00  0.00     0.120 C 
ATOM     71  C   UNL A   1      32.882  27.310  25.053  1.00  0.00     0.120 C 
ATOM     72  N   UNL A   1      31.847  27.702  24.104  1.00  0.00    -0.339 N 
ATOM     73  C   UNL A   1      31.111  28.858  24.358  1.00  0.00     0.253 C 
ATOM     74  O   UNL A   1      31.320  29.596  25.319  1.00  0.00    -0.269 OA
BRANCH  65  75
ATOM     75  C   UNL A   1      32.594  21.489  23.418  1.00  0.00     0.226 C 
ATOM     76  O   UNL A   1      31.901  21.699  22.418  1.00  0.00    -0.275 OA
BRANCH  75  77
ATOM     77  C   UNL A   1      32.743  20.051  23.759  1.00  0.00     0.079 C 
ATOM     78  C   UNL A   1      33.805  19.459  24.637  1.00  0.00     0.014 C 
ATOM     79  C   UNL A   1      32.359  19.399  25.043  1.00  0.00     0.014 C 
ENDBRANCH  75  77
ENDBRANCH  65  75
BRANCH  73  80
ATOM     80  C   UNL A   1      30.019  29.245  23.441  1.00  0.00     0.043 A 
ATOM     81  C   UNL A   1      30.267  30.052  22.323  1.00  0.00     0.014 A 
ATOM     82  C   UNL A   1      28.742  28.721  23.663  1.00  0.00     0.060 A 
ATOM     83  C   UNL A   1      29.221  30.376  21.458  1.00  0.00     0.005 A 
ATOM     84  C   UNL A   1      27.713  29.045  22.788  1.00  0.00     0.116 A 
ATOM     85  C   UNL A   1      27.938  29.875  21.692  1.00  0.00     0.046 A 
BRANCH  84  86
ATOM     86  O   UNL A   1      26.480  28.521  23.039  1.00  0.00    -0.508 OA
ATOM     87  H   UNL A   1      25.719  29.065  22.983  1.00  0.00     0.293 HD
ENDBRANCH  84  86
ENDBRANCH  73  80
ENDBRANCH  60  63
ENDBRANCH  58  59
ENDBRANCH  57  58
ENDBRANCH   1  57
TORSDOF 15
ENDMDL
