MODEL 1
REMARK VINA RESULT:     -12.6      0.000      0.000
REMARK SMILES CCC(=O)N1CCc2cc(C(=O)NC3(C(=O)NCCCCNC(=O)c4ccc(-c5c6nc(c(-c7ccccc7)c7ccc([nH]7)c(-c7ccccc7)c7nc(c(-c8ccccc8)c8ccc5[nH]8)C=C7)C=C6)cc4)CCCC3)ccc21
REMARK SMILES IDX 18 1 17 2 15 3 16 4 14 6 73 7 76 8 74 9 75 10 13 11 11 12
REMARK SMILES IDX 12 13 10 15 5 16 6 17 79 18 7 19 8 20 78 21 9 22 77 23 3 24
REMARK SMILES IDX 4 25 2 26 1 27 19 28 20 29 21 30 22 31 23 32 24 34 25 35
REMARK SMILES IDX 26 36 72 37 27 38 71 39 28 40 29 41 30 42 65 43 31 44 70 45
REMARK SMILES IDX 64 46 66 47 32 48 69 49 63 50 62 51 33 53 55 54 40 55 54 56
REMARK SMILES IDX 41 57 44 58 53 59 67 60 42 61 43 62 52 64 68 65 45 66 34 67
REMARK SMILES IDX 35 68 39 69 36 70 38 71 37 72 56 73 57 74 61 75 58 76 60 77
REMARK SMILES IDX 59 78 46 79 47 80 51 81 48 82 50 83 49 84
REMARK H PARENT 17 5 13 14 22 33 66 52 44 63
REMARK Flexibility Score: inf
ROOT
ATOM      1  C   UNL A   1      31.637  29.459  25.980  1.00  0.00     0.116 C 
ENDROOT
BRANCH   1   2
ATOM      2  N   UNL A   1      31.903  29.568  24.553  1.00  0.00    -0.354 N 
ATOM      3  C   UNL A   1      32.199  28.665  23.571  1.00  0.00     0.245 C 
ATOM      4  O   UNL A   1      32.203  29.113  22.416  1.00  0.00    -0.272 OA
ATOM      5  H   UNL A   1      31.860  30.494  24.222  1.00  0.00     0.163 HD
BRANCH   3   6
ATOM      6  C   UNL A   1      32.527  27.146  23.823  1.00  0.00     0.119 C 
ATOM      7  C   UNL A   1      31.347  26.482  24.559  1.00  0.00     0.038 C 
ATOM      8  C   UNL A   1      33.768  27.041  24.719  1.00  0.00     0.038 C 
ATOM      9  C   UNL A   1      31.850  26.041  25.942  1.00  0.00     0.003 C 
ATOM     10  C   UNL A   1      33.335  26.393  26.035  1.00  0.00     0.003 C 
BRANCH   6  11
ATOM     11  N   UNL A   1      32.749  26.554  22.431  1.00  0.00    -0.338 N 
ATOM     12  C   UNL A   1      33.089  25.367  21.793  1.00  0.00     0.252 C 
ATOM     13  O   UNL A   1      33.150  25.375  20.562  1.00  0.00    -0.269 OA
ATOM     14  H   UNL A   1      32.603  27.254  21.755  1.00  0.00     0.164 HD
BRANCH  12  15
ATOM     15  C   UNL A   1      33.420  24.080  22.479  1.00  0.00     0.040 A 
ATOM     16  N   UNL A   1      34.029  20.517  24.609  1.00  0.00    -0.312 N 
ATOM     17  C   UNL A   1      35.250  20.817  25.369  1.00  0.00     0.130 C 
ATOM     18  C   UNL A   1      33.746  21.626  23.815  1.00  0.00     0.047 A 
ATOM     19  C   UNL A   1      35.791  22.175  24.864  1.00  0.00     0.059 C 
ATOM     20  C   UNL A   1      34.699  22.636  23.946  1.00  0.00    -0.022 A 
ATOM     21  C   UNL A   1      32.658  21.828  23.028  1.00  0.00     0.027 A 
ATOM     22  C   UNL A   1      34.550  23.874  23.290  1.00  0.00     0.019 A 
ATOM     23  C   UNL A   1      32.570  23.011  22.326  1.00  0.00     0.016 A 
BRANCH  16  24
ATOM     24  C   UNL A   1      33.313  19.348  24.794  1.00  0.00     0.226 C 
ATOM     25  O   UNL A   1      32.218  19.356  25.367  1.00  0.00    -0.275 OA
BRANCH  24  26
ATOM     26  C   UNL A   1      33.950  18.003  24.425  1.00  0.00     0.097 C 
ATOM     27  C   UNL A   1      33.453  17.304  23.165  1.00  0.00     0.014 C 
ENDBRANCH  24  26
ENDBRANCH  16  24
ENDBRANCH  12  15
ENDBRANCH   6  11
ENDBRANCH   3   6
ENDBRANCH   1   2
BRANCH   1  28
ATOM     28  C   UNL A   1      32.473  30.409  26.840  1.00  0.00     0.023 C 
BRANCH  28  29
ATOM     29  C   UNL A   1      31.974  31.847  26.897  1.00  0.00     0.023 C 
BRANCH  29  30
ATOM     30  C   UNL A   1      32.966  32.845  27.481  1.00  0.00     0.116 C 
BRANCH  30  31
ATOM     31  N   UNL A   1      32.431  34.177  27.735  1.00  0.00    -0.352 N 
ATOM     32  C   UNL A   1      32.931  35.120  28.616  1.00  0.00     0.251 C 
ATOM     33  H   UNL A   1      31.628  34.433  27.226  1.00  0.00     0.163 HD
ATOM     34  O   UNL A   1      32.385  36.196  28.777  1.00  0.00    -0.269 OA
BRANCH  32  35
ATOM     35  C   UNL A   1      34.125  34.749  29.410  1.00  0.00     0.039 A 
ATOM     36  C   UNL A   1      33.945  34.198  30.680  1.00  0.00     0.014 A 
ATOM     37  C   UNL A   1      35.389  34.793  28.821  1.00  0.00     0.014 A 
ATOM     38  C   UNL A   1      35.026  33.588  31.317  1.00  0.00     0.010 A 
ATOM     39  C   UNL A   1      36.439  34.107  29.416  1.00  0.00     0.010 A 
ATOM     40  C   UNL A   1      36.265  33.485  30.664  1.00  0.00    -0.014 A 
BRANCH  40  41
ATOM     41  C   UNL A   1      37.393  32.720  31.252  1.00  0.00     0.031 A 
ATOM     42  C   UNL A   1      37.984  33.151  32.565  1.00  0.00     0.074 A 
ATOM     43  C   UNL A   1      37.943  31.697  30.568  1.00  0.00     0.049 A 
ATOM     44  N   UNL A   1      39.024  32.673  33.198  1.00  0.00    -0.248 NA
ATOM     45  C   UNL A   1      37.340  34.292  33.237  1.00  0.00     0.031 C 
ATOM     46  C   UNL A   1      37.503  31.211  29.257  1.00  0.00     0.029 A 
ATOM     47  N   UNL A   1      39.002  30.882  30.883  1.00  0.00    -0.354 N 
ATOM     48  C   UNL A   1      39.173  33.470  34.326  1.00  0.00     0.074 A 
ATOM     49  C   UNL A   1      38.153  34.493  34.263  1.00  0.00     0.031 C 
ATOM     50  C   UNL A   1      38.262  30.162  28.899  1.00  0.00     0.029 A 
ATOM     51  C   UNL A   1      39.264  29.924  29.932  1.00  0.00     0.049 A 
ATOM     52  H   UNL A   1      39.526  30.974  31.711  1.00  0.00     0.167 HD
ATOM     53  C   UNL A   1      40.061  33.348  35.340  1.00  0.00     0.031 A 
ATOM     54  C   UNL A   1      40.205  28.962  29.899  1.00  0.00     0.031 A 
ATOM     55  C   UNL A   1      41.057  32.317  35.422  1.00  0.00     0.049 A 
ATOM     56  C   UNL A   1      41.170  28.836  31.043  1.00  0.00     0.074 A 
ATOM     57  C   UNL A   1      41.965  32.073  36.438  1.00  0.00     0.029 A 
ATOM     58  N   UNL A   1      41.271  31.351  34.451  1.00  0.00    -0.354 N 
ATOM     59  N   UNL A   1      41.258  29.561  32.131  1.00  0.00    -0.248 NA
ATOM     60  C   UNL A   1      42.159  27.752  30.958  1.00  0.00     0.031 C 
ATOM     61  C   UNL A   1      42.752  30.978  36.066  1.00  0.00     0.029 A 
ATOM     62  C   UNL A   1      42.303  30.516  34.839  1.00  0.00     0.049 A 
ATOM     63  H   UNL A   1      40.763  31.271  33.612  1.00  0.00     0.167 HD
ATOM     64  C   UNL A   1      42.292  29.006  32.873  1.00  0.00     0.074 A 
ATOM     65  C   UNL A   1      42.793  27.875  32.117  1.00  0.00     0.031 C 
ATOM     66  C   UNL A   1      42.783  29.395  34.074  1.00  0.00     0.031 A 
BRANCH  53  67
ATOM     67  C   UNL A   1      39.980  34.362  36.445  1.00  0.00    -0.014 A 
ATOM     68  C   UNL A   1      39.191  34.130  37.583  1.00  0.00     0.009 A 
ATOM     69  C   UNL A   1      40.709  35.557  36.355  1.00  0.00     0.009 A 
ATOM     70  C   UNL A   1      39.100  35.094  38.590  1.00  0.00     0.001 A 
ATOM     71  C   UNL A   1      40.640  36.507  37.377  1.00  0.00     0.001 A 
ATOM     72  C   UNL A   1      39.827  36.279  38.487  1.00  0.00     0.000 A 
ENDBRANCH  53  67
BRANCH  54  73
ATOM     73  C   UNL A   1      40.264  28.013  28.756  1.00  0.00    -0.014 A 
ATOM     74  C   UNL A   1      39.597  26.780  28.827  1.00  0.00     0.009 A 
ATOM     75  C   UNL A   1      40.990  28.327  27.597  1.00  0.00     0.009 A 
ATOM     76  C   UNL A   1      39.679  25.868  27.772  1.00  0.00     0.001 A 
ATOM     77  C   UNL A   1      41.051  27.423  26.534  1.00  0.00     0.001 A 
ATOM     78  C   UNL A   1      40.403  26.192  26.626  1.00  0.00     0.000 A 
ENDBRANCH  54  73
BRANCH  66  79
ATOM     79  C   UNL A   1      43.894  28.572  34.661  1.00  0.00    -0.014 A 
ATOM     80  C   UNL A   1      45.239  28.885  34.412  1.00  0.00     0.009 A 
ATOM     81  C   UNL A   1      43.587  27.499  35.510  1.00  0.00     0.009 A 
ATOM     82  C   UNL A   1      46.257  28.118  34.981  1.00  0.00     0.001 A 
ATOM     83  C   UNL A   1      44.607  26.749  36.098  1.00  0.00     0.001 A 
ATOM     84  C   UNL A   1      45.940  27.055  35.827  1.00  0.00     0.000 A 
ENDBRANCH  66  79
ENDBRANCH  40  41
ENDBRANCH  32  35
ENDBRANCH  30  31
ENDBRANCH  29  30
ENDBRANCH  28  29
ENDBRANCH   1  28
TORSDOF 15
ENDMDL
MODEL 2
REMARK VINA RESULT:     -12.5      1.534      5.988
REMARK SMILES CCC(=O)N1CCc2cc(C(=O)NC3(C(=O)NCCCCNC(=O)c4ccc(-c5c6nc(c(-c7ccccc7)c7ccc([nH]7)c(-c7ccccc7)c7nc(c(-c8ccccc8)c8ccc5[nH]8)C=C7)C=C6)cc4)CCCC3)ccc21
REMARK SMILES IDX 18 1 17 2 15 3 16 4 14 6 73 7 76 8 74 9 75 10 13 11 11 12
REMARK SMILES IDX 12 13 10 15 5 16 6 17 79 18 7 19 8 20 78 21 9 22 77 23 3 24
REMARK SMILES IDX 4 25 2 26 1 27 19 28 20 29 21 30 22 31 23 32 24 34 25 35
REMARK SMILES IDX 26 36 72 37 27 38 71 39 28 40 29 41 30 42 65 43 31 44 70 45
REMARK SMILES IDX 64 46 66 47 32 48 69 49 63 50 62 51 33 53 55 54 40 55 54 56
REMARK SMILES IDX 41 57 44 58 53 59 67 60 42 61 43 62 52 64 68 65 45 66 34 67
REMARK SMILES IDX 35 68 39 69 36 70 38 71 37 72 56 73 57 74 61 75 58 76 60 77
REMARK SMILES IDX 59 78 46 79 47 80 51 81 48 82 50 83 49 84
REMARK H PARENT 17 5 13 14 22 33 66 52 44 63
REMARK Flexibility Score: inf
ROOT
ATOM      1  C   UNL A   1      32.553  29.876  25.528  1.00  0.00     0.116 C 
ENDROOT
BRANCH   1   2
ATOM      2  N   UNL A   1      31.449  29.764  24.586  1.00  0.00    -0.354 N 
ATOM      3  C   UNL A   1      30.808  28.712  23.996  1.00  0.00     0.245 C 
ATOM      4  O   UNL A   1      29.786  28.998  23.357  1.00  0.00    -0.272 OA
ATOM      5  H   UNL A   1      31.083  30.637  24.316  1.00  0.00     0.163 HD
BRANCH   3   6
ATOM      6  C   UNL A   1      31.288  27.214  24.077  1.00  0.00     0.119 C 
ATOM      7  C   UNL A   1      30.076  26.278  23.906  1.00  0.00     0.038 C 
ATOM      8  C   UNL A   1      31.900  26.956  25.460  1.00  0.00     0.038 C 
ATOM      9  C   UNL A   1      29.900  25.502  25.221  1.00  0.00     0.003 C 
ATOM     10  C   UNL A   1      31.019  25.928  26.171  1.00  0.00     0.003 C 
BRANCH   6  11
ATOM     11  N   UNL A   1      32.302  27.063  22.942  1.00  0.00    -0.338 N 
ATOM     12  C   UNL A   1      33.136  26.125  22.344  1.00  0.00     0.252 C 
ATOM     13  O   UNL A   1      33.820  26.495  21.387  1.00  0.00    -0.269 OA
ATOM     14  H   UNL A   1      32.397  27.925  22.476  1.00  0.00     0.164 HD
BRANCH  12  15
ATOM     15  C   UNL A   1      33.300  24.706  22.785  1.00  0.00     0.040 A 
ATOM     16  N   UNL A   1      33.463  20.782  24.262  1.00  0.00    -0.312 N 
ATOM     17  C   UNL A   1      34.760  20.765  24.950  1.00  0.00     0.130 C 
ATOM     18  C   UNL A   1      33.311  22.039  23.681  1.00  0.00     0.047 A 
ATOM     19  C   UNL A   1      35.479  22.095  24.621  1.00  0.00     0.059 C 
ATOM     20  C   UNL A   1      34.420  22.861  23.887  1.00  0.00    -0.022 A 
ATOM     21  C   UNL A   1      32.224  22.531  23.035  1.00  0.00     0.027 A 
ATOM     22  C   UNL A   1      34.430  24.201  23.451  1.00  0.00     0.019 A 
ATOM     23  C   UNL A   1      32.282  23.815  22.540  1.00  0.00     0.016 A 
BRANCH  16  24
ATOM     24  C   UNL A   1      32.582  19.717  24.320  1.00  0.00     0.226 C 
ATOM     25  O   UNL A   1      31.998  19.432  25.371  1.00  0.00    -0.275 OA
BRANCH  24  26
ATOM     26  C   UNL A   1      32.444  18.781  23.114  1.00  0.00     0.097 C 
ATOM     27  C   UNL A   1      33.338  17.546  23.069  1.00  0.00     0.014 C 
ENDBRANCH  24  26
ENDBRANCH  16  24
ENDBRANCH  12  15
ENDBRANCH   6  11
ENDBRANCH   3   6
ENDBRANCH   1   2
BRANCH   1  28
ATOM     28  C   UNL A   1      32.145  30.422  26.899  1.00  0.00     0.023 C 
BRANCH  28  29
ATOM     29  C   UNL A   1      31.436  31.770  26.879  1.00  0.00     0.023 C 
BRANCH  29  30
ATOM     30  C   UNL A   1      32.350  32.969  26.658  1.00  0.00     0.116 C 
BRANCH  30  31
ATOM     31  N   UNL A   1      32.184  34.060  27.610  1.00  0.00    -0.352 N 
ATOM     32  C   UNL A   1      33.062  34.430  28.614  1.00  0.00     0.251 C 
ATOM     33  H   UNL A   1      31.359  34.591  27.530  1.00  0.00     0.163 HD
ATOM     34  O   UNL A   1      32.811  35.342  29.379  1.00  0.00    -0.269 OA
BRANCH  32  35
ATOM     35  C   UNL A   1      34.300  33.631  28.767  1.00  0.00     0.039 A 
ATOM     36  C   UNL A   1      35.448  34.029  28.080  1.00  0.00     0.014 A 
ATOM     37  C   UNL A   1      34.352  32.608  29.716  1.00  0.00     0.014 A 
ATOM     38  C   UNL A   1      36.678  33.468  28.426  1.00  0.00     0.010 A 
ATOM     39  C   UNL A   1      35.587  32.120  30.121  1.00  0.00     0.010 A 
ATOM     40  C   UNL A   1      36.765  32.555  29.490  1.00  0.00    -0.014 A 
BRANCH  40  41
ATOM     41  C   UNL A   1      38.072  32.049  29.976  1.00  0.00     0.031 A 
ATOM     42  C   UNL A   1      38.600  30.736  29.471  1.00  0.00     0.074 A 
ATOM     43  C   UNL A   1      38.742  32.721  30.934  1.00  0.00     0.049 A 
ATOM     44  N   UNL A   1      39.672  30.081  29.837  1.00  0.00    -0.248 NA
ATOM     45  C   UNL A   1      37.797  30.052  28.443  1.00  0.00     0.031 C 
ATOM     46  C   UNL A   1      38.314  33.979  31.551  1.00  0.00     0.029 A 
ATOM     47  N   UNL A   1      39.929  32.433  31.561  1.00  0.00    -0.354 N 
ATOM     48  C   UNL A   1      39.657  28.901  29.104  1.00  0.00     0.074 A 
ATOM     49  C   UNL A   1      38.445  28.904  28.315  1.00  0.00     0.031 C 
ATOM     50  C   UNL A   1      39.241  34.371  32.441  1.00  0.00     0.029 A 
ATOM     51  C   UNL A   1      40.308  33.377  32.485  1.00  0.00     0.049 A 
ATOM     52  H   UNL A   1      40.458  31.626  31.368  1.00  0.00     0.167 HD
ATOM     53  C   UNL A   1      40.582  27.912  29.069  1.00  0.00     0.031 A 
ATOM     54  C   UNL A   1      41.396  33.435  33.277  1.00  0.00     0.031 A 
ATOM     55  C   UNL A   1      41.800  27.919  29.829  1.00  0.00     0.049 A 
ATOM     56  C   UNL A   1      42.416  32.334  33.209  1.00  0.00     0.074 A 
ATOM     57  C   UNL A   1      42.828  26.992  29.817  1.00  0.00     0.029 A 
ATOM     58  N   UNL A   1      42.159  28.906  30.732  1.00  0.00    -0.354 N 
ATOM     59  N   UNL A   1      42.416  31.255  32.465  1.00  0.00    -0.248 NA
ATOM     60  C   UNL A   1      43.591  32.466  34.082  1.00  0.00     0.031 C 
ATOM     61  C   UNL A   1      43.795  27.403  30.740  1.00  0.00     0.029 A 
ATOM     62  C   UNL A   1      43.388  28.607  31.292  1.00  0.00     0.049 A 
ATOM     63  H   UNL A   1      41.619  29.702  30.943  1.00  0.00     0.167 HD
ATOM     64  C   UNL A   1      43.600  30.593  32.760  1.00  0.00     0.074 A 
ATOM     65  C   UNL A   1      44.300  31.399  33.741  1.00  0.00     0.031 C 
ATOM     66  C   UNL A   1      44.069  29.423  32.263  1.00  0.00     0.031 A 
BRANCH  53  67
ATOM     67  C   UNL A   1      40.301  26.746  28.166  1.00  0.00    -0.014 A 
ATOM     68  C   UNL A   1      39.542  25.652  28.612  1.00  0.00     0.009 A 
ATOM     69  C   UNL A   1      40.789  26.745  26.851  1.00  0.00     0.009 A 
ATOM     70  C   UNL A   1      39.314  24.560  27.772  1.00  0.00     0.001 A 
ATOM     71  C   UNL A   1      40.534  25.664  26.003  1.00  0.00     0.001 A 
ATOM     72  C   UNL A   1      39.807  24.569  26.468  1.00  0.00     0.000 A 
ENDBRANCH  53  67
BRANCH  54  73
ATOM     73  C   UNL A   1      41.598  34.595  34.184  1.00  0.00    -0.014 A 
ATOM     74  C   UNL A   1      42.274  35.738  33.728  1.00  0.00     0.009 A 
ATOM     75  C   UNL A   1      41.131  34.565  35.507  1.00  0.00     0.009 A 
ATOM     76  C   UNL A   1      42.501  36.816  34.587  1.00  0.00     0.001 A 
ATOM     77  C   UNL A   1      41.339  35.655  36.356  1.00  0.00     0.001 A 
ATOM     78  C   UNL A   1      42.031  36.775  35.898  1.00  0.00     0.000 A 
ENDBRANCH  54  73
BRANCH  66  79
ATOM     79  C   UNL A   1      45.415  28.963  32.743  1.00  0.00    -0.014 A 
ATOM     80  C   UNL A   1      45.539  28.119  33.857  1.00  0.00     0.009 A 
ATOM     81  C   UNL A   1      46.568  29.344  32.041  1.00  0.00     0.009 A 
ATOM     82  C   UNL A   1      46.799  27.689  34.276  1.00  0.00     0.001 A 
ATOM     83  C   UNL A   1      47.824  28.893  32.448  1.00  0.00     0.001 A 
ATOM     84  C   UNL A   1      47.939  28.072  33.568  1.00  0.00     0.000 A 
ENDBRANCH  66  79
ENDBRANCH  40  41
ENDBRANCH  32  35
ENDBRANCH  30  31
ENDBRANCH  29  30
ENDBRANCH  28  29
ENDBRANCH   1  28
TORSDOF 15
ENDMDL
MODEL 3
REMARK VINA RESULT:     -12.5      4.084      9.766
REMARK SMILES CCC(=O)N1CCc2cc(C(=O)NC3(C(=O)NCCCCNC(=O)c4ccc(-c5c6nc(c(-c7ccccc7)c7ccc([nH]7)c(-c7ccccc7)c7nc(c(-c8ccccc8)c8ccc5[nH]8)C=C7)C=C6)cc4)CCCC3)ccc21
REMARK SMILES IDX 18 1 17 2 15 3 16 4 14 6 73 7 76 8 74 9 75 10 13 11 11 12
REMARK SMILES IDX 12 13 10 15 5 16 6 17 79 18 7 19 8 20 78 21 9 22 77 23 3 24
REMARK SMILES IDX 4 25 2 26 1 27 19 28 20 29 21 30 22 31 23 32 24 34 25 35
REMARK SMILES IDX 26 36 72 37 27 38 71 39 28 40 29 41 30 42 65 43 31 44 70 45
REMARK SMILES IDX 64 46 66 47 32 48 69 49 63 50 62 51 33 53 55 54 40 55 54 56
REMARK SMILES IDX 41 57 44 58 53 59 67 60 42 61 43 62 52 64 68 65 45 66 34 67
REMARK SMILES IDX 35 68 39 69 36 70 38 71 37 72 56 73 57 74 61 75 58 76 60 77
REMARK SMILES IDX 59 78 46 79 47 80 51 81 48 82 50 83 49 84
REMARK H PARENT 17 5 13 14 22 33 66 52 44 63
REMARK Flexibility Score: inf
ROOT
ATOM      1  C   UNL A   1      35.830  22.003  26.085  1.00  0.00     0.116 C 
ENDROOT
BRANCH   1   2
ATOM      2  N   UNL A   1      34.893  21.097  25.437  1.00  0.00    -0.354 N 
ATOM      3  C   UNL A   1      33.772  21.274  24.677  1.00  0.00     0.245 C 
ATOM      4  O   UNL A   1      33.313  20.250  24.154  1.00  0.00    -0.272 OA
ATOM      5  H   UNL A   1      35.117  20.148  25.577  1.00  0.00     0.163 HD
BRANCH   3   6
ATOM      6  C   UNL A   1      33.059  22.659  24.447  1.00  0.00     0.119 C 
ATOM      7  C   UNL A   1      32.209  22.590  23.163  1.00  0.00     0.038 C 
ATOM      8  C   UNL A   1      34.123  23.748  24.257  1.00  0.00     0.038 C 
ATOM      9  C   UNL A   1      32.807  23.586  22.157  1.00  0.00     0.003 C 
ATOM     10  C   UNL A   1      33.985  24.288  22.833  1.00  0.00     0.003 C 
BRANCH   6  11
ATOM     11  N   UNL A   1      32.205  22.876  25.696  1.00  0.00    -0.338 N 
ATOM     12  C   UNL A   1      31.370  23.811  26.297  1.00  0.00     0.252 C 
ATOM     13  O   UNL A   1      30.874  23.519  27.387  1.00  0.00    -0.269 OA
ATOM     14  H   UNL A   1      32.270  22.081  26.274  1.00  0.00     0.164 HD
BRANCH  12  15
ATOM     15  C   UNL A   1      31.046  25.163  25.746  1.00  0.00     0.040 A 
ATOM     16  N   UNL A   1      30.292  28.837  23.866  1.00  0.00    -0.312 N 
ATOM     17  C   UNL A   1      31.165  29.751  24.613  1.00  0.00     0.130 C 
ATOM     18  C   UNL A   1      30.421  27.572  24.436  1.00  0.00     0.047 A 
ATOM     19  C   UNL A   1      31.751  28.963  25.809  1.00  0.00     0.059 C 
ATOM     20  C   UNL A   1      31.281  27.565  25.535  1.00  0.00    -0.022 A 
ATOM     21  C   UNL A   1      29.876  26.406  24.004  1.00  0.00     0.027 A 
ATOM     22  C   UNL A   1      31.611  26.367  26.199  1.00  0.00     0.019 A 
ATOM     23  C   UNL A   1      30.140  25.257  24.716  1.00  0.00     0.016 A 
BRANCH  16  24
ATOM     24  C   UNL A   1      29.580  29.242  22.752  1.00  0.00     0.226 C 
ATOM     25  O   UNL A   1      30.150  29.462  21.677  1.00  0.00    -0.275 OA
BRANCH  24  26
ATOM     26  C   UNL A   1      28.089  29.576  22.884  1.00  0.00     0.097 C 
ATOM     27  C   UNL A   1      27.715  30.917  23.505  1.00  0.00     0.014 C 
ENDBRANCH  24  26
ENDBRANCH  16  24
ENDBRANCH  12  15
ENDBRANCH   6  11
ENDBRANCH   3   6
ENDBRANCH   1   2
BRANCH   1  28
ATOM     28  C   UNL A   1      37.105  22.258  25.276  1.00  0.00     0.023 C 
BRANCH  28  29
ATOM     29  C   UNL A   1      37.992  21.040  25.057  1.00  0.00     0.023 C 
BRANCH  29  30
ATOM     30  C   UNL A   1      39.156  20.914  26.033  1.00  0.00     0.116 C 
BRANCH  30  31
ATOM     31  N   UNL A   1      40.036  19.775  25.806  1.00  0.00    -0.352 N 
ATOM     32  C   UNL A   1      41.399  19.716  26.040  1.00  0.00     0.251 C 
ATOM     33  H   UNL A   1      39.617  18.959  25.448  1.00  0.00     0.163 HD
ATOM     34  O   UNL A   1      42.050  18.720  25.784  1.00  0.00    -0.269 OA
BRANCH  32  35
ATOM     35  C   UNL A   1      42.056  20.938  26.558  1.00  0.00     0.039 A 
ATOM     36  C   UNL A   1      42.478  21.912  25.650  1.00  0.00     0.014 A 
ATOM     37  C   UNL A   1      42.090  21.178  27.932  1.00  0.00     0.014 A 
ATOM     38  C   UNL A   1      42.834  23.176  26.123  1.00  0.00     0.010 A 
ATOM     39  C   UNL A   1      42.357  22.462  28.391  1.00  0.00     0.010 A 
ATOM     40  C   UNL A   1      42.718  23.478  27.490  1.00  0.00    -0.014 A 
BRANCH  40  41
ATOM     41  C   UNL A   1      42.952  24.849  28.007  1.00  0.00     0.031 A 
ATOM     42  C   UNL A   1      44.335  25.267  28.418  1.00  0.00     0.074 A 
ATOM     43  C   UNL A   1      41.912  25.687  28.189  1.00  0.00     0.049 A 
ATOM     44  N   UNL A   1      44.730  26.384  28.973  1.00  0.00    -0.248 NA
ATOM     45  C   UNL A   1      45.413  24.285  28.207  1.00  0.00     0.031 C 
ATOM     46  C   UNL A   1      40.510  25.387  27.885  1.00  0.00     0.029 A 
ATOM     47  N   UNL A   1      41.875  26.968  28.684  1.00  0.00    -0.354 N 
ATOM     48  C   UNL A   1      46.091  26.228  29.201  1.00  0.00     0.074 A 
ATOM     49  C   UNL A   1      46.444  24.892  28.775  1.00  0.00     0.031 C 
ATOM     50  C   UNL A   1      39.758  26.465  28.166  1.00  0.00     0.029 A 
ATOM     51  C   UNL A   1      40.615  27.516  28.704  1.00  0.00     0.049 A 
ATOM     52  H   UNL A   1      42.676  27.447  28.996  1.00  0.00     0.167 HD
ATOM     53  C   UNL A   1      46.977  27.124  29.696  1.00  0.00     0.031 A 
ATOM     54  C   UNL A   1      40.198  28.731  29.109  1.00  0.00     0.031 A 
ATOM     55  C   UNL A   1      46.636  28.462  30.093  1.00  0.00     0.049 A 
ATOM     56  C   UNL A   1      41.203  29.714  29.640  1.00  0.00     0.074 A 
ATOM     57  C   UNL A   1      47.473  29.464  30.550  1.00  0.00     0.029 A 
ATOM     58  N   UNL A   1      45.354  28.986  30.072  1.00  0.00    -0.354 N 
ATOM     59  N   UNL A   1      42.496  29.571  29.792  1.00  0.00    -0.248 NA
ATOM     60  C   UNL A   1      40.689  31.031  30.045  1.00  0.00     0.031 C 
ATOM     61  C   UNL A   1      46.690  30.587  30.838  1.00  0.00     0.029 A 
ATOM     62  C   UNL A   1      45.374  30.295  30.518  1.00  0.00     0.049 A 
ATOM     63  H   UNL A   1      44.549  28.499  29.781  1.00  0.00     0.167 HD
ATOM     64  C   UNL A   1      42.956  30.786  30.284  1.00  0.00     0.074 A 
ATOM     65  C   UNL A   1      41.804  31.658  30.394  1.00  0.00     0.031 C 
ATOM     66  C   UNL A   1      44.219  31.148  30.615  1.00  0.00     0.031 A 
BRANCH  53  67
ATOM     67  C   UNL A   1      48.404  26.675  29.823  1.00  0.00    -0.014 A 
ATOM     68  C   UNL A   1      48.848  25.990  30.966  1.00  0.00     0.009 A 
ATOM     69  C   UNL A   1      49.314  26.928  28.786  1.00  0.00     0.009 A 
ATOM     70  C   UNL A   1      50.184  25.605  31.086  1.00  0.00     0.001 A 
ATOM     71  C   UNL A   1      50.644  26.516  28.896  1.00  0.00     0.001 A 
ATOM     72  C   UNL A   1      51.079  25.865  30.049  1.00  0.00     0.000 A 
ENDBRANCH  53  67
BRANCH  54  73
ATOM     73  C   UNL A   1      38.764  29.104  28.999  1.00  0.00    -0.014 A 
ATOM     74  C   UNL A   1      38.254  29.597  27.788  1.00  0.00     0.009 A 
ATOM     75  C   UNL A   1      37.902  28.981  30.099  1.00  0.00     0.009 A 
ATOM     76  C   UNL A   1      36.915  29.984  27.688  1.00  0.00     0.001 A 
ATOM     77  C   UNL A   1      36.558  29.347  29.990  1.00  0.00     0.001 A 
ATOM     78  C   UNL A   1      36.069  29.856  28.788  1.00  0.00     0.000 A 
ENDBRANCH  54  73
BRANCH  66  79
ATOM     79  C   UNL A   1      44.426  32.556  31.091  1.00  0.00    -0.014 A 
ATOM     80  C   UNL A   1      44.432  32.867  32.460  1.00  0.00     0.009 A 
ATOM     81  C   UNL A   1      44.664  33.575  30.157  1.00  0.00     0.009 A 
ATOM     82  C   UNL A   1      44.644  34.180  32.882  1.00  0.00     0.001 A 
ATOM     83  C   UNL A   1      44.901  34.883  30.583  1.00  0.00     0.001 A 
ATOM     84  C   UNL A   1      44.884  35.185  31.944  1.00  0.00     0.000 A 
ENDBRANCH  66  79
ENDBRANCH  40  41
ENDBRANCH  32  35
ENDBRANCH  30  31
ENDBRANCH  29  30
ENDBRANCH  28  29
ENDBRANCH   1  28
TORSDOF 15
ENDMDL
