MODEL 1
REMARK VINA RESULT:     -10.1      0.000      0.000
REMARK SMILES CCCC1(CCC)C[NH+]([C@H]2C=C[C@@H](C(=O)NCCCCNC(=O)c3ccc(-c4c5nc(c(-c6ccccc6)c6ccc([nH]6)c(-c6ccccc6)c6nc(c(-c7ccccc7)c7ccc4[nH]7)C=C6)C=C5)cc3)C2)C1
REMARK SMILES IDX 18 1 17 2 16 3 14 4 15 5 13 7 10 8 11 9 72 10 12 11 9 12
REMARK SMILES IDX 4 13 8 14 73 15 3 17 2 18 1 19 5 20 6 21 7 22 19 23 20 24
REMARK SMILES IDX 21 25 22 26 23 28 24 29 25 30 71 31 26 32 70 33 27 34 28 35
REMARK SMILES IDX 29 36 64 37 30 38 69 39 63 40 65 41 31 42 68 43 62 44 61 45
REMARK SMILES IDX 32 47 54 48 39 49 53 50 40 51 43 52 52 53 66 54 41 55 42 56
REMARK SMILES IDX 51 58 67 59 44 60 33 61 34 62 38 63 35 64 37 65 36 66 55 67
REMARK SMILES IDX 56 68 60 69 57 70 59 71 58 72 45 73 46 74 50 75 47 76 49 77
REMARK SMILES IDX 48 78
REMARK H PARENT 16 6 9 16 21 27 65 46 43 57
REMARK Flexibility Score: inf
ROOT
ATOM      1  C   UNL A   1      33.170  29.265  24.907  1.00  0.00     0.023 C 
ENDROOT
BRANCH   1   2
ATOM      2  C   UNL A   1      33.268  28.979  23.413  1.00  0.00     0.116 C 
BRANCH   2   3
ATOM      3  N   UNL A   1      32.028  29.261  22.713  1.00  0.00    -0.356 N 
ATOM      4  C   UNL A   1      30.894  28.541  22.501  1.00  0.00     0.227 C 
ATOM      5  O   UNL A   1      29.987  29.137  21.904  1.00  0.00    -0.274 OA
ATOM      6  H   UNL A   1      32.002  30.158  22.309  1.00  0.00     0.163 HD
BRANCH   4   7
ATOM      7  C   UNL A   1      30.698  27.049  22.843  1.00  0.00     0.107 C 
ATOM      8  C   UNL A   1      32.200  25.051  22.814  1.00  0.00     0.208 C 
ATOM      9  C   UNL A   1      31.792  25.474  24.203  1.00  0.00     0.033 C 
ATOM     10  C   UNL A   1      31.575  26.163  21.941  1.00  0.00     0.087 C 
ATOM     11  C   UNL A   1      30.986  26.544  24.215  1.00  0.00    -0.012 C 
BRANCH   8  12
ATOM     12  N   UNL A   1      33.645  24.769  22.726  1.00  0.00    -0.328 N 
ATOM     13  C   UNL A   1      34.721  23.617  24.246  1.00  0.00     0.068 C 
ATOM     14  C   UNL A   1      34.415  25.140  23.911  1.00  0.00     0.275 C 
ATOM     15  C   UNL A   1      33.957  23.362  22.897  1.00  0.00     0.275 C 
ATOM     16  H   UNL A   1      33.857  25.238  21.845  1.00  0.00     0.348 HD
BRANCH  13  17
ATOM     17  C   UNL A   1      36.247  23.341  24.082  1.00  0.00     0.018 C 
BRANCH  17  18
ATOM     18  C   UNL A   1      36.881  22.416  25.123  1.00  0.00    -0.002 C 
ATOM     19  C   UNL A   1      37.988  23.032  25.964  1.00  0.00     0.004 C 
ENDBRANCH  17  18
ENDBRANCH  13  17
BRANCH  13  20
ATOM     20  C   UNL A   1      34.233  23.378  25.714  1.00  0.00     0.018 C 
BRANCH  20  21
ATOM     21  C   UNL A   1      33.074  22.422  26.027  1.00  0.00    -0.002 C 
ATOM     22  C   UNL A   1      31.971  22.932  26.939  1.00  0.00     0.004 C 
ENDBRANCH  20  21
ENDBRANCH  13  20
ENDBRANCH   8  12
ENDBRANCH   4   7
ENDBRANCH   2   3
ENDBRANCH   1   2
BRANCH   1  23
ATOM     23  C   UNL A   1      33.887  28.304  25.827  1.00  0.00     0.023 C 
BRANCH  23  24
ATOM     24  C   UNL A   1      33.574  28.582  27.278  1.00  0.00     0.116 C 
BRANCH  24  25
ATOM     25  N   UNL A   1      33.601  30.014  27.579  1.00  0.00    -0.352 N 
ATOM     26  C   UNL A   1      34.541  30.803  28.195  1.00  0.00     0.251 C 
ATOM     27  H   UNL A   1      32.796  30.502  27.285  1.00  0.00     0.163 HD
ATOM     28  O   UNL A   1      34.240  31.940  28.543  1.00  0.00    -0.269 OA
BRANCH  26  29
ATOM     29  C   UNL A   1      35.905  30.294  28.452  1.00  0.00     0.039 A 
ATOM     30  C   UNL A   1      36.210  29.717  29.689  1.00  0.00     0.014 A 
ATOM     31  C   UNL A   1      36.904  30.417  27.490  1.00  0.00     0.014 A 
ATOM     32  C   UNL A   1      37.499  29.226  29.924  1.00  0.00     0.010 A 
ATOM     33  C   UNL A   1      38.112  29.767  27.653  1.00  0.00     0.010 A 
ATOM     34  C   UNL A   1      38.451  29.218  28.892  1.00  0.00    -0.014 A 
BRANCH  34  35
ATOM     35  C   UNL A   1      39.838  28.735  29.084  1.00  0.00     0.031 A 
ATOM     36  C   UNL A   1      40.874  29.668  29.668  1.00  0.00     0.074 A 
ATOM     37  C   UNL A   1      40.190  27.508  28.656  1.00  0.00     0.049 A 
ATOM     38  N   UNL A   1      42.166  29.498  29.789  1.00  0.00    -0.248 NA
ATOM     39  C   UNL A   1      40.405  30.990  30.117  1.00  0.00     0.031 C 
ATOM     40  C   UNL A   1      39.297  26.538  28.019  1.00  0.00     0.029 A 
ATOM     41  N   UNL A   1      41.402  26.871  28.692  1.00  0.00    -0.354 N 
ATOM     42  C   UNL A   1      42.657  30.707  30.270  1.00  0.00     0.074 A 
ATOM     43  C   UNL A   1      41.544  31.622  30.348  1.00  0.00     0.031 C 
ATOM     44  C   UNL A   1      39.979  25.409  27.773  1.00  0.00     0.029 A 
ATOM     45  C   UNL A   1      41.364  25.593  28.191  1.00  0.00     0.049 A 
ATOM     46  H   UNL A   1      42.221  27.287  29.045  1.00  0.00     0.167 HD
ATOM     47  C   UNL A   1      43.919  31.021  30.650  1.00  0.00     0.031 A 
ATOM     48  C   UNL A   1      42.340  24.674  28.085  1.00  0.00     0.031 A 
ATOM     49  C   UNL A   1      45.008  30.085  30.636  1.00  0.00     0.049 A 
ATOM     50  C   UNL A   1      43.718  25.019  28.572  1.00  0.00     0.074 A 
ATOM     51  C   UNL A   1      46.306  30.262  31.078  1.00  0.00     0.029 A 
ATOM     52  N   UNL A   1      44.914  28.783  30.167  1.00  0.00    -0.354 N 
ATOM     53  N   UNL A   1      44.157  26.146  29.080  1.00  0.00    -0.248 NA
ATOM     54  C   UNL A   1      44.731  23.959  28.487  1.00  0.00     0.031 C 
ATOM     55  C   UNL A   1      47.009  29.076  30.844  1.00  0.00     0.029 A 
ATOM     56  C   UNL A   1      46.135  28.147  30.302  1.00  0.00     0.049 A 
ATOM     57  H   UNL A   1      44.101  28.375  29.795  1.00  0.00     0.167 HD
ATOM     58  C   UNL A   1      45.489  25.923  29.400  1.00  0.00     0.074 A 
ATOM     59  C   UNL A   1      45.780  24.548  29.045  1.00  0.00     0.031 C 
ATOM     60  C   UNL A   1      46.393  26.777  29.941  1.00  0.00     0.031 A 
BRANCH  47  61
ATOM     61  C   UNL A   1      44.171  32.428  31.122  1.00  0.00    -0.014 A 
ATOM     62  C   UNL A   1      44.016  32.789  32.471  1.00  0.00     0.009 A 
ATOM     63  C   UNL A   1      44.574  33.411  30.203  1.00  0.00     0.009 A 
ATOM     64  C   UNL A   1      44.208  34.111  32.880  1.00  0.00     0.001 A 
ATOM     65  C   UNL A   1      44.800  34.724  30.621  1.00  0.00     0.001 A 
ATOM     66  C   UNL A   1      44.603  35.076  31.955  1.00  0.00     0.000 A 
ENDBRANCH  47  61
BRANCH  48  67
ATOM     67  C   UNL A   1      42.029  23.324  27.549  1.00  0.00    -0.014 A 
ATOM     68  C   UNL A   1      42.308  23.015  26.209  1.00  0.00     0.009 A 
ATOM     69  C   UNL A   1      41.479  22.331  28.374  1.00  0.00     0.009 A 
ATOM     70  C   UNL A   1      42.023  21.746  25.700  1.00  0.00     0.001 A 
ATOM     71  C   UNL A   1      41.219  21.054  27.869  1.00  0.00     0.001 A 
ATOM     72  C   UNL A   1      41.484  20.766  26.531  1.00  0.00     0.000 A 
ENDBRANCH  48  67
BRANCH  60  73
ATOM     73  C   UNL A   1      47.765  26.233  30.212  1.00  0.00    -0.014 A 
ATOM     74  C   UNL A   1      48.731  26.155  29.199  1.00  0.00     0.009 A 
ATOM     75  C   UNL A   1      48.102  25.828  31.514  1.00  0.00     0.009 A 
ATOM     76  C   UNL A   1      50.001  25.644  29.476  1.00  0.00     0.001 A 
ATOM     77  C   UNL A   1      49.381  25.345  31.793  1.00  0.00     0.001 A 
ATOM     78  C   UNL A   1      50.325  25.245  30.772  1.00  0.00     0.000 A 
ENDBRANCH  60  73
ENDBRANCH  34  35
ENDBRANCH  26  29
ENDBRANCH  24  25
ENDBRANCH  23  24
ENDBRANCH   1  23
TORSDOF 16
ENDMDL
MODEL 2
REMARK VINA RESULT:     -10.0      3.101      8.017
REMARK SMILES CCCC1(CCC)C[NH+]([C@H]2C=C[C@@H](C(=O)NCCCCNC(=O)c3ccc(-c4c5nc(c(-c6ccccc6)c6ccc([nH]6)c(-c6ccccc6)c6nc(c(-c7ccccc7)c7ccc4[nH]7)C=C6)C=C5)cc3)C2)C1
REMARK SMILES IDX 18 1 17 2 16 3 14 4 15 5 13 7 10 8 11 9 72 10 12 11 9 12
REMARK SMILES IDX 4 13 8 14 73 15 3 17 2 18 1 19 5 20 6 21 7 22 19 23 20 24
REMARK SMILES IDX 21 25 22 26 23 28 24 29 25 30 71 31 26 32 70 33 27 34 28 35
REMARK SMILES IDX 29 36 64 37 30 38 69 39 63 40 65 41 31 42 68 43 62 44 61 45
REMARK SMILES IDX 32 47 54 48 39 49 53 50 40 51 43 52 52 53 66 54 41 55 42 56
REMARK SMILES IDX 51 58 67 59 44 60 33 61 34 62 38 63 35 64 37 65 36 66 55 67
REMARK SMILES IDX 56 68 60 69 57 70 59 71 58 72 45 73 46 74 50 75 47 76 49 77
REMARK SMILES IDX 48 78
REMARK H PARENT 16 6 9 16 21 27 65 46 43 57
REMARK Flexibility Score: inf
ROOT
ATOM      1  C   UNL A   1      35.479  21.922  26.106  1.00  0.00     0.023 C 
ENDROOT
BRANCH   1   2
ATOM      2  C   UNL A   1      34.237  21.606  26.932  1.00  0.00     0.116 C 
BRANCH   2   3
ATOM      3  N   UNL A   1      33.480  20.492  26.389  1.00  0.00    -0.356 N 
ATOM      4  C   UNL A   1      32.579  20.384  25.377  1.00  0.00     0.227 C 
ATOM      5  O   UNL A   1      32.175  19.236  25.142  1.00  0.00    -0.274 OA
ATOM      6  H   UNL A   1      33.656  19.639  26.848  1.00  0.00     0.163 HD
BRANCH   4   7
ATOM      7  C   UNL A   1      31.958  21.560  24.593  1.00  0.00     0.107 C 
ATOM      8  C   UNL A   1      31.279  23.886  25.208  1.00  0.00     0.208 C 
ATOM      9  C   UNL A   1      32.470  23.834  24.285  1.00  0.00     0.033 C 
ATOM     10  C   UNL A   1      31.030  22.388  25.498  1.00  0.00     0.087 C 
ATOM     11  C   UNL A   1      32.831  22.587  23.956  1.00  0.00    -0.012 C 
BRANCH   8  12
ATOM     12  N   UNL A   1      31.486  24.828  26.323  1.00  0.00    -0.328 N 
ATOM     13  C   UNL A   1      31.566  26.999  26.039  1.00  0.00     0.068 C 
ATOM     14  C   UNL A   1      32.580  25.778  26.128  1.00  0.00     0.275 C 
ATOM     15  C   UNL A   1      30.498  25.891  26.356  1.00  0.00     0.275 C 
ATOM     16  H   UNL A   1      31.552  24.166  27.097  1.00  0.00     0.348 HD
BRANCH  13  17
ATOM     17  C   UNL A   1      31.771  27.939  27.266  1.00  0.00     0.018 C 
BRANCH  17  18
ATOM     18  C   UNL A   1      32.496  29.259  26.990  1.00  0.00    -0.002 C 
ATOM     19  C   UNL A   1      33.988  29.266  27.288  1.00  0.00     0.004 C 
ENDBRANCH  17  18
ENDBRANCH  13  17
BRANCH  13  20
ATOM     20  C   UNL A   1      31.861  27.724  24.684  1.00  0.00     0.018 C 
BRANCH  20  21
ATOM     21  C   UNL A   1      30.761  28.476  23.923  1.00  0.00    -0.002 C 
ATOM     22  C   UNL A   1      29.584  27.665  23.407  1.00  0.00     0.004 C 
ENDBRANCH  20  21
ENDBRANCH  13  20
ENDBRANCH   8  12
ENDBRANCH   4   7
ENDBRANCH   2   3
ENDBRANCH   1   2
BRANCH   1  23
ATOM     23  C   UNL A   1      35.940  23.361  26.104  1.00  0.00     0.023 C 
BRANCH  23  24
ATOM     24  C   UNL A   1      37.117  23.567  25.181  1.00  0.00     0.116 C 
BRANCH  24  25
ATOM     25  N   UNL A   1      38.225  22.663  25.496  1.00  0.00    -0.352 N 
ATOM     26  C   UNL A   1      39.431  22.875  26.117  1.00  0.00     0.251 C 
ATOM     27  H   UNL A   1      38.077  21.732  25.210  1.00  0.00     0.163 HD
ATOM     28  O   UNL A   1      40.298  22.010  26.060  1.00  0.00    -0.269 OA
BRANCH  26  29
ATOM     29  C   UNL A   1      39.699  24.136  26.841  1.00  0.00     0.039 A 
ATOM     30  C   UNL A   1      40.412  25.162  26.211  1.00  0.00     0.014 A 
ATOM     31  C   UNL A   1      39.284  24.302  28.159  1.00  0.00     0.014 A 
ATOM     32  C   UNL A   1      40.654  26.357  26.895  1.00  0.00     0.010 A 
ATOM     33  C   UNL A   1      39.356  25.544  28.762  1.00  0.00     0.010 A 
ATOM     34  C   UNL A   1      40.096  26.568  28.167  1.00  0.00    -0.014 A 
BRANCH  34  35
ATOM     35  C   UNL A   1      40.334  27.802  28.953  1.00  0.00     0.031 A 
ATOM     36  C   UNL A   1      41.600  27.929  29.767  1.00  0.00     0.074 A 
ATOM     37  C   UNL A   1      39.388  28.757  29.011  1.00  0.00     0.049 A 
ATOM     38  N   UNL A   1      41.941  28.852  30.630  1.00  0.00    -0.248 NA
ATOM     39  C   UNL A   1      42.588  26.842  29.641  1.00  0.00     0.031 C 
ATOM     40  C   UNL A   1      38.096  28.722  28.321  1.00  0.00     0.029 A 
ATOM     41  N   UNL A   1      39.369  29.946  29.691  1.00  0.00    -0.354 N 
ATOM     42  C   UNL A   1      43.143  28.423  31.182  1.00  0.00     0.074 A 
ATOM     43  C   UNL A   1      43.436  27.128  30.615  1.00  0.00     0.031 C 
ATOM     44  C   UNL A   1      37.435  29.862  28.571  1.00  0.00     0.029 A 
ATOM     45  C   UNL A   1      38.233  30.685  29.473  1.00  0.00     0.049 A 
ATOM     46  H   UNL A   1      40.101  30.244  30.278  1.00  0.00     0.167 HD
ATOM     47  C   UNL A   1      43.954  29.064  32.056  1.00  0.00     0.031 A 
ATOM     48  C   UNL A   1      37.878  31.893  29.946  1.00  0.00     0.031 A 
ATOM     49  C   UNL A   1      43.691  30.383  32.562  1.00  0.00     0.049 A 
ATOM     50  C   UNL A   1      38.821  32.617  30.863  1.00  0.00     0.074 A 
ATOM     51  C   UNL A   1      44.481  31.167  33.382  1.00  0.00     0.029 A 
ATOM     52  N   UNL A   1      42.551  31.118  32.275  1.00  0.00    -0.354 N 
ATOM     53  N   UNL A   1      39.983  32.226  31.331  1.00  0.00    -0.248 NA
ATOM     54  C   UNL A   1      38.412  33.956  31.304  1.00  0.00     0.031 C 
ATOM     55  C   UNL A   1      43.800  32.366  33.620  1.00  0.00     0.029 A 
ATOM     56  C   UNL A   1      42.611  32.346  32.908  1.00  0.00     0.049 A 
ATOM     57  H   UNL A   1      41.810  30.810  31.705  1.00  0.00     0.167 HD
ATOM     58  C   UNL A   1      40.456  33.280  32.100  1.00  0.00     0.074 A 
ATOM     59  C   UNL A   1      39.463  34.334  32.019  1.00  0.00     0.031 C 
ATOM     60  C   UNL A   1      41.609  33.374  32.808  1.00  0.00     0.031 A 
BRANCH  47  61
ATOM     61  C   UNL A   1      45.200  28.346  32.501  1.00  0.00    -0.014 A 
ATOM     62  C   UNL A   1      45.205  27.520  33.638  1.00  0.00     0.009 A 
ATOM     63  C   UNL A   1      46.390  28.493  31.769  1.00  0.00     0.009 A 
ATOM     64  C   UNL A   1      46.383  26.901  34.061  1.00  0.00     0.001 A 
ATOM     65  C   UNL A   1      47.558  27.844  32.174  1.00  0.00     0.001 A 
ATOM     66  C   UNL A   1      47.557  27.060  33.327  1.00  0.00     0.000 A 
ENDBRANCH  47  61
BRANCH  48  67
ATOM     67  C   UNL A   1      36.600  32.512  29.511  1.00  0.00    -0.014 A 
ATOM     68  C   UNL A   1      36.569  33.352  28.387  1.00  0.00     0.009 A 
ATOM     69  C   UNL A   1      35.404  32.248  30.195  1.00  0.00     0.009 A 
ATOM     70  C   UNL A   1      35.371  33.933  27.969  1.00  0.00     0.001 A 
ATOM     71  C   UNL A   1      34.201  32.811  29.759  1.00  0.00     0.001 A 
ATOM     72  C   UNL A   1      34.187  33.658  28.652  1.00  0.00     0.000 A 
ENDBRANCH  48  67
BRANCH  60  73
ATOM     73  C   UNL A   1      41.868  34.671  33.518  1.00  0.00    -0.014 A 
ATOM     74  C   UNL A   1      41.296  34.943  34.769  1.00  0.00     0.009 A 
ATOM     75  C   UNL A   1      42.729  35.615  32.937  1.00  0.00     0.009 A 
ATOM     76  C   UNL A   1      41.553  36.158  35.409  1.00  0.00     0.001 A 
ATOM     77  C   UNL A   1      43.006  36.815  33.593  1.00  0.00     0.001 A 
ATOM     78  C   UNL A   1      42.410  37.088  34.823  1.00  0.00     0.000 A 
ENDBRANCH  60  73
ENDBRANCH  34  35
ENDBRANCH  26  29
ENDBRANCH  24  25
ENDBRANCH  23  24
ENDBRANCH   1  23
TORSDOF 16
ENDMDL
MODEL 3
REMARK VINA RESULT:      -9.6      2.962      4.330
REMARK SMILES CCCC1(CCC)C[NH+]([C@H]2C=C[C@@H](C(=O)NCCCCNC(=O)c3ccc(-c4c5nc(c(-c6ccccc6)c6ccc([nH]6)c(-c6ccccc6)c6nc(c(-c7ccccc7)c7ccc4[nH]7)C=C6)C=C5)cc3)C2)C1
REMARK SMILES IDX 18 1 17 2 16 3 14 4 15 5 13 7 10 8 11 9 72 10 12 11 9 12
REMARK SMILES IDX 4 13 8 14 73 15 3 17 2 18 1 19 5 20 6 21 7 22 19 23 20 24
REMARK SMILES IDX 21 25 22 26 23 28 24 29 25 30 71 31 26 32 70 33 27 34 28 35
REMARK SMILES IDX 29 36 64 37 30 38 69 39 63 40 65 41 31 42 68 43 62 44 61 45
REMARK SMILES IDX 32 47 54 48 39 49 53 50 40 51 43 52 52 53 66 54 41 55 42 56
REMARK SMILES IDX 51 58 67 59 44 60 33 61 34 62 38 63 35 64 37 65 36 66 55 67
REMARK SMILES IDX 56 68 60 69 57 70 59 71 58 72 45 73 46 74 50 75 47 76 49 77
REMARK SMILES IDX 48 78
REMARK H PARENT 16 6 9 16 21 27 65 46 43 57
REMARK Flexibility Score: inf
ROOT
ATOM      1  C   UNL A   1      34.347  31.594  28.216  1.00  0.00     0.023 C 
ENDROOT
BRANCH   1   2
ATOM      2  C   UNL A   1      34.417  30.402  27.268  1.00  0.00     0.116 C 
BRANCH   2   3
ATOM      3  N   UNL A   1      33.266  29.526  27.393  1.00  0.00    -0.356 N 
ATOM      4  C   UNL A   1      32.301  29.127  26.524  1.00  0.00     0.227 C 
ATOM      5  O   UNL A   1      31.493  28.298  26.966  1.00  0.00    -0.274 OA
ATOM      6  H   UNL A   1      33.164  29.141  28.293  1.00  0.00     0.163 HD
BRANCH   4   7
ATOM      7  C   UNL A   1      32.077  29.692  25.104  1.00  0.00     0.107 C 
ATOM      8  C   UNL A   1      32.161  28.701  22.810  1.00  0.00     0.208 C 
ATOM      9  C   UNL A   1      30.771  29.097  23.242  1.00  0.00     0.033 C 
ATOM     10  C   UNL A   1      32.987  28.984  24.086  1.00  0.00     0.087 C 
ATOM     11  C   UNL A   1      30.729  29.629  24.470  1.00  0.00    -0.012 C 
BRANCH   8  12
ATOM     12  N   UNL A   1      32.187  27.361  22.198  1.00  0.00    -0.328 N 
ATOM     13  C   UNL A   1      33.042  25.615  23.208  1.00  0.00     0.068 C 
ATOM     14  C   UNL A   1      33.504  26.725  22.169  1.00  0.00     0.275 C 
ATOM     15  C   UNL A   1      31.651  26.331  23.070  1.00  0.00     0.275 C 
ATOM     16  H   UNL A   1      31.731  27.568  21.309  1.00  0.00     0.348 HD
BRANCH  13  17
ATOM     17  C   UNL A   1      33.021  24.221  22.510  1.00  0.00     0.018 C 
BRANCH  17  18
ATOM     18  C   UNL A   1      33.972  23.167  23.081  1.00  0.00    -0.002 C 
ATOM     19  C   UNL A   1      33.308  21.997  23.792  1.00  0.00     0.004 C 
ENDBRANCH  17  18
ENDBRANCH  13  17
BRANCH  13  20
ATOM     20  C   UNL A   1      34.062  25.666  24.395  1.00  0.00     0.018 C 
BRANCH  20  21
ATOM     21  C   UNL A   1      33.591  25.682  25.855  1.00  0.00    -0.002 C 
ATOM     22  C   UNL A   1      32.436  24.769  26.230  1.00  0.00     0.004 C 
ENDBRANCH  20  21
ENDBRANCH  13  20
ENDBRANCH   8  12
ENDBRANCH   4   7
ENDBRANCH   2   3
ENDBRANCH   1   2
BRANCH   1  23
ATOM     23  C   UNL A   1      33.234  32.587  27.973  1.00  0.00     0.023 C 
BRANCH  23  24
ATOM     24  C   UNL A   1      33.729  34.011  28.058  1.00  0.00     0.116 C 
BRANCH  24  25
ATOM     25  N   UNL A   1      33.343  34.651  29.317  1.00  0.00    -0.352 N 
ATOM     26  C   UNL A   1      33.761  34.454  30.610  1.00  0.00     0.251 C 
ATOM     27  H   UNL A   1      32.657  35.351  29.218  1.00  0.00     0.163 HD
ATOM     28  O   UNL A   1      33.123  34.951  31.532  1.00  0.00    -0.269 OA
BRANCH  26  29
ATOM     29  C   UNL A   1      34.962  33.643  30.902  1.00  0.00     0.039 A 
ATOM     30  C   UNL A   1      34.846  32.480  31.671  1.00  0.00     0.014 A 
ATOM     31  C   UNL A   1      36.217  34.043  30.453  1.00  0.00     0.014 A 
ATOM     32  C   UNL A   1      35.983  31.709  31.936  1.00  0.00     0.010 A 
ATOM     33  C   UNL A   1      37.299  33.188  30.553  1.00  0.00     0.010 A 
ATOM     34  C   UNL A   1      37.214  32.042  31.349  1.00  0.00    -0.014 A 
BRANCH  34  35
ATOM     35  C   UNL A   1      38.458  31.281  31.608  1.00  0.00     0.031 A 
ATOM     36  C   UNL A   1      39.329  31.662  32.783  1.00  0.00     0.074 A 
ATOM     37  C   UNL A   1      38.853  30.322  30.750  1.00  0.00     0.049 A 
ATOM     38  N   UNL A   1      40.519  31.226  33.108  1.00  0.00    -0.248 NA
ATOM     39  C   UNL A   1      38.820  32.717  33.677  1.00  0.00     0.031 C 
ATOM     40  C   UNL A   1      38.133  29.907  29.544  1.00  0.00     0.029 A 
ATOM     41  N   UNL A   1      39.967  29.525  30.763  1.00  0.00    -0.354 N 
ATOM     42  C   UNL A   1      40.914  31.993  34.198  1.00  0.00     0.074 A 
ATOM     43  C   UNL A   1      39.875  32.967  34.435  1.00  0.00     0.031 C 
ATOM     44  C   UNL A   1      38.797  28.895  28.964  1.00  0.00     0.029 A 
ATOM     45  C   UNL A   1      40.009  28.624  29.728  1.00  0.00     0.049 A 
ATOM     46  H   UNL A   1      40.670  29.590  31.450  1.00  0.00     0.167 HD
ATOM     47  C   UNL A   1      42.025  31.876  34.963  1.00  0.00     0.031 A 
ATOM     48  C   UNL A   1      40.923  27.683  29.434  1.00  0.00     0.031 A 
ATOM     49  C   UNL A   1      43.021  30.859  34.764  1.00  0.00     0.049 A 
ATOM     50  C   UNL A   1      42.117  27.525  30.331  1.00  0.00     0.074 A 
ATOM     51  C   UNL A   1      44.142  30.588  35.526  1.00  0.00     0.029 A 
ATOM     52  N   UNL A   1      42.998  29.933  33.733  1.00  0.00    -0.354 N 
ATOM     53  N   UNL A   1      42.449  28.218  31.394  1.00  0.00    -0.248 NA
ATOM     54  C   UNL A   1      43.053  26.445  29.997  1.00  0.00     0.031 C 
ATOM     55  C   UNL A   1      44.819  29.517  34.933  1.00  0.00     0.029 A 
ATOM     56  C   UNL A   1      44.091  29.091  33.833  1.00  0.00     0.049 A 
ATOM     57  H   UNL A   1      42.307  29.882  33.035  1.00  0.00     0.167 HD
ATOM     58  C   UNL A   1      43.617  27.641  31.872  1.00  0.00     0.074 A 
ATOM     59  C   UNL A   1      43.925  26.531  30.992  1.00  0.00     0.031 C 
ATOM     60  C   UNL A   1      44.370  27.995  32.943  1.00  0.00     0.031 A 
BRANCH  47  61
ATOM     61  C   UNL A   1      42.204  32.865  36.083  1.00  0.00    -0.014 A 
ATOM     62  C   UNL A   1      42.893  34.075  35.890  1.00  0.00     0.009 A 
ATOM     63  C   UNL A   1      41.672  32.587  37.352  1.00  0.00     0.009 A 
ATOM     64  C   UNL A   1      43.090  34.958  36.954  1.00  0.00     0.001 A 
ATOM     65  C   UNL A   1      41.840  33.488  38.405  1.00  0.00     0.001 A 
ATOM     66  C   UNL A   1      42.559  34.665  38.210  1.00  0.00     0.000 A 
ENDBRANCH  47  61
BRANCH  48  67
ATOM     67  C   UNL A   1      40.709  26.782  28.272  1.00  0.00    -0.014 A 
ATOM     68  C   UNL A   1      39.903  25.641  28.402  1.00  0.00     0.009 A 
ATOM     69  C   UNL A   1      41.283  27.069  27.024  1.00  0.00     0.009 A 
ATOM     70  C   UNL A   1      39.693  24.793  27.313  1.00  0.00     0.001 A 
ATOM     71  C   UNL A   1      41.050  26.233  25.929  1.00  0.00     0.001 A 
ATOM     72  C   UNL A   1      40.263  25.092  26.076  1.00  0.00     0.000 A 
ENDBRANCH  48  67
BRANCH  60  73
ATOM     73  C   UNL A   1      45.574  27.148  33.238  1.00  0.00    -0.014 A 
ATOM     74  C   UNL A   1      45.482  26.009  34.051  1.00  0.00     0.009 A 
ATOM     75  C   UNL A   1      46.809  27.478  32.659  1.00  0.00     0.009 A 
ATOM     76  C   UNL A   1      46.616  25.237  34.310  1.00  0.00     0.001 A 
ATOM     77  C   UNL A   1      47.934  26.689  32.898  1.00  0.00     0.001 A 
ATOM     78  C   UNL A   1      47.838  25.575  33.730  1.00  0.00     0.000 A 
ENDBRANCH  60  73
ENDBRANCH  34  35
ENDBRANCH  26  29
ENDBRANCH  24  25
ENDBRANCH  23  24
ENDBRANCH   1  23
TORSDOF 16
ENDMDL
