MODEL 1
REMARK VINA RESULT:     -12.2      0.000      0.000
REMARK SMILES O=C(NCCCCNC(=O)c1cccc(Nc2ccnc3ccc(F)cc23)c1)c1ccc(-c2c3nc(c(-c4ccccc4)c4ccc([nH]4)c(-c4ccccc4)c4nc(c(-c5ccccc5)c5ccc2[nH]5)C=C4)C=C3)cc1
REMARK SMILES IDX 5 1 4 2 3 3 1 4 2 5 29 7 30 8 76 9 31 10 75 11 32 12 33 13
REMARK SMILES IDX 34 14 69 15 35 16 74 17 68 18 70 19 36 20 73 21 67 22 66 23
REMARK SMILES IDX 37 25 59 26 44 27 58 28 45 29 48 30 57 31 71 32 46 33 47 34
REMARK SMILES IDX 56 36 72 37 49 38 38 39 39 40 43 41 40 42 42 43 41 44 60 45
REMARK SMILES IDX 61 46 65 47 62 48 64 49 63 50 50 51 51 52 55 53 52 54 54 55
REMARK SMILES IDX 53 56 6 57 7 58 8 59 9 60 10 62 11 63 12 64 28 65 13 66
REMARK SMILES IDX 15 67 14 68 16 69 17 71 18 72 27 73 19 74 21 75 26 76 20 77
REMARK SMILES IDX 22 78 24 79 23 80 25 81
REMARK H PARENT 3 6 70 24 48 35 8 61 16 70
REMARK Flexibility Score: inf
ROOT
ATOM      1  C   UNL A   1      33.433  28.066  25.618  1.00  0.00     0.023 C 
ENDROOT
BRANCH   1   2
ATOM      2  C   UNL A   1      33.709  28.359  27.089  1.00  0.00     0.116 C 
BRANCH   2   3
ATOM      3  N   UNL A   1      33.583  29.768  27.428  1.00  0.00    -0.352 N 
ATOM      4  O   UNL A   1      34.165  31.749  28.335  1.00  0.00    -0.269 OA
ATOM      5  C   UNL A   1      34.494  30.608  28.019  1.00  0.00     0.251 C 
ATOM      6  H   UNL A   1      32.718  30.180  27.202  1.00  0.00     0.163 HD
BRANCH   5   7
ATOM      7  C   UNL A   1      35.868  30.136  28.298  1.00  0.00     0.039 A 
ATOM      8  C   UNL A   1      36.866  30.220  27.324  1.00  0.00     0.014 A 
ATOM      9  C   UNL A   1      36.165  29.624  29.565  1.00  0.00     0.014 A 
ATOM     10  C   UNL A   1      38.124  29.684  27.573  1.00  0.00     0.010 A 
ATOM     11  C   UNL A   1      37.454  29.161  29.841  1.00  0.00     0.010 A 
ATOM     12  C   UNL A   1      38.439  29.173  28.843  1.00  0.00    -0.014 A 
BRANCH  12  13
ATOM     13  C   UNL A   1      39.835  28.768  29.141  1.00  0.00     0.031 A 
ATOM     14  C   UNL A   1      40.802  29.708  29.801  1.00  0.00     0.074 A 
ATOM     15  C   UNL A   1      40.227  27.527  28.789  1.00  0.00     0.049 A 
ATOM     16  N   UNL A   1      42.062  29.512  30.099  1.00  0.00    -0.248 NA
ATOM     17  C   UNL A   1      40.299  31.041  30.170  1.00  0.00     0.031 C 
ATOM     18  C   UNL A   1      39.375  26.529  28.131  1.00  0.00     0.029 A 
ATOM     19  N   UNL A   1      41.432  26.891  28.931  1.00  0.00    -0.354 N 
ATOM     20  C   UNL A   1      42.510  30.698  30.666  1.00  0.00     0.074 A 
ATOM     21  C   UNL A   1      41.390  31.615  30.663  1.00  0.00     0.031 C 
ATOM     22  C   UNL A   1      40.078  25.403  27.950  1.00  0.00     0.029 A 
ATOM     23  C   UNL A   1      41.443  25.618  28.410  1.00  0.00     0.049 A 
ATOM     24  H   UNL A   1      42.214  27.304  29.362  1.00  0.00     0.167 HD
ATOM     25  C   UNL A   1      43.744  30.989  31.143  1.00  0.00     0.031 A 
ATOM     26  C   UNL A   1      42.448  24.733  28.281  1.00  0.00     0.031 A 
ATOM     27  C   UNL A   1      44.851  30.067  31.147  1.00  0.00     0.049 A 
ATOM     28  C   UNL A   1      43.815  25.109  28.773  1.00  0.00     0.074 A 
ATOM     29  C   UNL A   1      46.119  30.250  31.672  1.00  0.00     0.029 A 
ATOM     30  N   UNL A   1      44.829  28.800  30.586  1.00  0.00    -0.354 N 
ATOM     31  N   UNL A   1      44.200  26.206  29.376  1.00  0.00    -0.248 NA
ATOM     32  C   UNL A   1      44.886  24.126  28.560  1.00  0.00     0.031 C 
ATOM     33  C   UNL A   1      46.885  29.122  31.364  1.00  0.00     0.029 A 
ATOM     34  C   UNL A   1      46.076  28.211  30.706  1.00  0.00     0.049 A 
ATOM     35  H   UNL A   1      44.043  28.381  30.165  1.00  0.00     0.167 HD
ATOM     36  C   UNL A   1      45.555  26.042  29.627  1.00  0.00     0.074 A 
ATOM     37  C   UNL A   1      45.918  24.729  29.136  1.00  0.00     0.031 C 
ATOM     38  C   UNL A   1      46.423  26.906  30.206  1.00  0.00     0.031 A 
BRANCH  25  39
ATOM     39  C   UNL A   1      43.991  32.375  31.674  1.00  0.00    -0.014 A 
ATOM     40  C   UNL A   1      44.386  33.425  30.833  1.00  0.00     0.009 A 
ATOM     41  C   UNL A   1      43.729  32.651  33.027  1.00  0.00     0.009 A 
ATOM     42  C   UNL A   1      44.532  34.719  31.340  1.00  0.00     0.001 A 
ATOM     43  C   UNL A   1      43.852  33.948  33.525  1.00  0.00     0.001 A 
ATOM     44  C   UNL A   1      44.259  34.981  32.682  1.00  0.00     0.000 A 
ENDBRANCH  25  39
BRANCH  26  45
ATOM     45  C   UNL A   1      42.208  23.432  27.605  1.00  0.00    -0.014 A 
ATOM     46  C   UNL A   1      41.711  22.331  28.317  1.00  0.00     0.009 A 
ATOM     47  C   UNL A   1      42.490  23.284  26.236  1.00  0.00     0.009 A 
ATOM     48  C   UNL A   1      41.528  21.102  27.679  1.00  0.00     0.001 A 
ATOM     49  C   UNL A   1      42.273  22.064  25.594  1.00  0.00     0.001 A 
ATOM     50  C   UNL A   1      41.804  20.971  26.319  1.00  0.00     0.000 A 
ENDBRANCH  26  45
BRANCH  38  51
ATOM     51  C   UNL A   1      47.846  26.451  30.351  1.00  0.00    -0.014 A 
ATOM     52  C   UNL A   1      48.284  25.803  31.517  1.00  0.00     0.009 A 
ATOM     53  C   UNL A   1      48.749  26.633  29.292  1.00  0.00     0.009 A 
ATOM     54  C   UNL A   1      49.606  25.370  31.628  1.00  0.00     0.001 A 
ATOM     55  C   UNL A   1      50.061  26.172  29.396  1.00  0.00     0.001 A 
ATOM     56  C   UNL A   1      50.491  25.548  30.566  1.00  0.00     0.000 A 
ENDBRANCH  38  51
ENDBRANCH  12  13
ENDBRANCH   5   7
ENDBRANCH   2   3
ENDBRANCH   1   2
BRANCH   1  57
ATOM     57  C   UNL A   1      33.207  29.287  24.726  1.00  0.00     0.023 C 
BRANCH  57  58
ATOM     58  C   UNL A   1      33.233  29.020  23.225  1.00  0.00     0.116 C 
BRANCH  58  59
ATOM     59  N   UNL A   1      31.976  29.321  22.568  1.00  0.00    -0.352 N 
ATOM     60  C   UNL A   1      30.851  28.564  22.378  1.00  0.00     0.251 C 
ATOM     61  H   UNL A   1      31.922  30.229  22.192  1.00  0.00     0.163 HD
ATOM     62  O   UNL A   1      29.936  29.026  21.699  1.00  0.00    -0.269 OA
BRANCH  60  63
ATOM     63  C   UNL A   1      30.710  27.204  22.943  1.00  0.00     0.041 A 
ATOM     64  C   UNL A   1      30.111  27.091  24.205  1.00  0.00     0.014 A 
ATOM     65  C   UNL A   1      31.296  26.081  22.349  1.00  0.00     0.039 A 
ATOM     66  C   UNL A   1      30.050  25.856  24.847  1.00  0.00     0.003 A 
ATOM     67  C   UNL A   1      31.254  24.839  22.999  1.00  0.00     0.039 A 
ATOM     68  C   UNL A   1      30.621  24.738  24.244  1.00  0.00     0.026 A 
BRANCH  67  69
ATOM     69  N   UNL A   1      32.065  23.765  22.558  1.00  0.00    -0.355 N 
ATOM     70  H   UNL A   1      31.829  23.272  21.740  1.00  0.00     0.167 HD
BRANCH  69  71
ATOM     71  C   UNL A   1      33.224  23.402  23.302  1.00  0.00     0.050 A 
ATOM     72  C   UNL A   1      34.191  24.378  23.551  1.00  0.00     0.047 A 
ATOM     73  C   UNL A   1      33.433  22.085  23.766  1.00  0.00     0.027 A 
ATOM     74  C   UNL A   1      35.299  24.037  24.294  1.00  0.00     0.114 A 
ATOM     75  C   UNL A   1      34.622  21.842  24.496  1.00  0.00     0.072 A 
ATOM     76  C   UNL A   1      32.519  21.025  23.569  1.00  0.00     0.051 A 
ATOM     77  N   UNL A   1      35.530  22.795  24.758  1.00  0.00    -0.256 NA
ATOM     78  C   UNL A   1      34.870  20.563  24.972  1.00  0.00     0.032 A 
ATOM     79  C   UNL A   1      32.800  19.759  24.069  1.00  0.00     0.124 A 
ATOM     80  C   UNL A   1      33.974  19.515  24.762  1.00  0.00     0.041 A 
ATOM     81  F   UNL A   1      31.925  18.763  23.881  1.00  0.00    -0.207 F 
ENDBRANCH  69  71
ENDBRANCH  67  69
ENDBRANCH  60  63
ENDBRANCH  58  59
ENDBRANCH  57  58
ENDBRANCH   1  57
TORSDOF 13
ENDMDL
MODEL 2
REMARK VINA RESULT:     -12.1      1.483      2.017
REMARK SMILES O=C(NCCCCNC(=O)c1cccc(Nc2ccnc3ccc(F)cc23)c1)c1ccc(-c2c3nc(c(-c4ccccc4)c4ccc([nH]4)c(-c4ccccc4)c4nc(c(-c5ccccc5)c5ccc2[nH]5)C=C4)C=C3)cc1
REMARK SMILES IDX 5 1 4 2 3 3 1 4 2 5 29 7 30 8 76 9 31 10 75 11 32 12 33 13
REMARK SMILES IDX 34 14 69 15 35 16 74 17 68 18 70 19 36 20 73 21 67 22 66 23
REMARK SMILES IDX 37 25 59 26 44 27 58 28 45 29 48 30 57 31 71 32 46 33 47 34
REMARK SMILES IDX 56 36 72 37 49 38 38 39 39 40 43 41 40 42 42 43 41 44 60 45
REMARK SMILES IDX 61 46 65 47 62 48 64 49 63 50 50 51 51 52 55 53 52 54 54 55
REMARK SMILES IDX 53 56 6 57 7 58 8 59 9 60 10 62 11 63 12 64 28 65 13 66
REMARK SMILES IDX 15 67 14 68 16 69 17 71 18 72 27 73 19 74 21 75 26 76 20 77
REMARK SMILES IDX 22 78 24 79 23 80 25 81
REMARK H PARENT 3 6 70 24 48 35 8 61 16 70
REMARK Flexibility Score: inf
ROOT
ATOM      1  C   UNL A   1      33.004  28.347  25.822  1.00  0.00     0.023 C 
ENDROOT
BRANCH   1   2
ATOM      2  C   UNL A   1      33.730  28.606  27.138  1.00  0.00     0.116 C 
BRANCH   2   3
ATOM      3  N   UNL A   1      33.618  29.981  27.596  1.00  0.00    -0.352 N 
ATOM      4  O   UNL A   1      34.223  31.874  28.661  1.00  0.00    -0.269 OA
ATOM      5  C   UNL A   1      34.541  30.761  28.248  1.00  0.00     0.251 C 
ATOM      6  H   UNL A   1      32.755  30.418  27.412  1.00  0.00     0.163 HD
BRANCH   5   7
ATOM      7  C   UNL A   1      35.913  30.257  28.475  1.00  0.00     0.039 A 
ATOM      8  C   UNL A   1      36.881  30.337  27.472  1.00  0.00     0.014 A 
ATOM      9  C   UNL A   1      36.238  29.718  29.724  1.00  0.00     0.014 A 
ATOM     10  C   UNL A   1      38.135  29.771  27.672  1.00  0.00     0.010 A 
ATOM     11  C   UNL A   1      37.525  29.224  29.951  1.00  0.00     0.010 A 
ATOM     12  C   UNL A   1      38.479  29.233  28.922  1.00  0.00    -0.014 A 
BRANCH  12  13
ATOM     13  C   UNL A   1      39.874  28.794  29.170  1.00  0.00     0.031 A 
ATOM     14  C   UNL A   1      40.893  29.717  29.774  1.00  0.00     0.074 A 
ATOM     15  C   UNL A   1      40.218  27.537  28.821  1.00  0.00     0.049 A 
ATOM     16  N   UNL A   1      42.158  29.491  30.024  1.00  0.00    -0.248 NA
ATOM     17  C   UNL A   1      40.441  31.068  30.143  1.00  0.00     0.031 C 
ATOM     18  C   UNL A   1      39.314  26.554  28.215  1.00  0.00     0.029 A 
ATOM     19  N   UNL A   1      41.411  26.871  28.924  1.00  0.00    -0.354 N 
ATOM     20  C   UNL A   1      42.660  30.672  30.553  1.00  0.00     0.074 A 
ATOM     21  C   UNL A   1      41.567  31.620  30.581  1.00  0.00     0.031 C 
ATOM     22  C   UNL A   1      39.978  25.406  28.023  1.00  0.00     0.029 A 
ATOM     23  C   UNL A   1      41.366  25.591  28.423  1.00  0.00     0.049 A 
ATOM     24  H   UNL A   1      42.221  27.269  29.316  1.00  0.00     0.167 HD
ATOM     25  C   UNL A   1      43.921  30.937  30.974  1.00  0.00     0.031 A 
ATOM     26  C   UNL A   1      42.341  24.677  28.267  1.00  0.00     0.031 A 
ATOM     27  C   UNL A   1      45.001  29.985  30.947  1.00  0.00     0.049 A 
ATOM     28  C   UNL A   1      43.736  25.023  28.696  1.00  0.00     0.074 A 
ATOM     29  C   UNL A   1      46.295  30.141  31.416  1.00  0.00     0.029 A 
ATOM     30  N   UNL A   1      44.923  28.711  30.408  1.00  0.00    -0.354 N 
ATOM     31  N   UNL A   1      44.175  26.118  29.266  1.00  0.00    -0.248 NA
ATOM     32  C   UNL A   1      44.771  24.008  28.455  1.00  0.00     0.031 C 
ATOM     33  C   UNL A   1      47.018  28.988  31.096  1.00  0.00     0.029 A 
ATOM     34  C   UNL A   1      46.158  28.090  30.485  1.00  0.00     0.049 A 
ATOM     35  H   UNL A   1      44.109  28.308  30.026  1.00  0.00     0.167 HD
ATOM     36  C   UNL A   1      45.535  25.920  29.463  1.00  0.00     0.074 A 
ATOM     37  C   UNL A   1      45.842  24.591  28.979  1.00  0.00     0.031 C 
ATOM     38  C   UNL A   1      46.449  26.769  29.992  1.00  0.00     0.031 A 
BRANCH  25  39
ATOM     39  C   UNL A   1      44.226  32.323  31.472  1.00  0.00    -0.014 A 
ATOM     40  C   UNL A   1      44.628  33.346  30.601  1.00  0.00     0.009 A 
ATOM     41  C   UNL A   1      44.014  32.630  32.827  1.00  0.00     0.009 A 
ATOM     42  C   UNL A   1      44.829  34.643  31.080  1.00  0.00     0.001 A 
ATOM     43  C   UNL A   1      44.193  33.931  33.298  1.00  0.00     0.001 A 
ATOM     44  C   UNL A   1      44.605  34.936  32.425  1.00  0.00     0.000 A 
ENDBRANCH  25  39
BRANCH  26  45
ATOM     45  C   UNL A   1      42.039  23.373  27.622  1.00  0.00    -0.014 A 
ATOM     46  C   UNL A   1      42.250  23.182  26.249  1.00  0.00     0.009 A 
ATOM     47  C   UNL A   1      41.524  22.310  28.384  1.00  0.00     0.009 A 
ATOM     48  C   UNL A   1      41.925  21.964  25.647  1.00  0.00     0.001 A 
ATOM     49  C   UNL A   1      41.234  21.083  27.786  1.00  0.00     0.001 A 
ATOM     50  C   UNL A   1      41.423  20.915  26.416  1.00  0.00     0.000 A 
ENDBRANCH  26  45
BRANCH  38  51
ATOM     51  C   UNL A   1      47.864  26.278  30.086  1.00  0.00    -0.014 A 
ATOM     52  C   UNL A   1      48.363  25.733  31.279  1.00  0.00     0.009 A 
ATOM     53  C   UNL A   1      48.694  26.319  28.956  1.00  0.00     0.009 A 
ATOM     54  C   UNL A   1      49.676  25.263  31.344  1.00  0.00     0.001 A 
ATOM     55  C   UNL A   1      49.996  25.822  29.016  1.00  0.00     0.001 A 
ATOM     56  C   UNL A   1      50.488  25.301  30.212  1.00  0.00     0.000 A 
ENDBRANCH  38  51
ENDBRANCH  12  13
ENDBRANCH   5   7
ENDBRANCH   2   3
ENDBRANCH   1   2
BRANCH   1  57
ATOM     57  C   UNL A   1      33.816  28.604  24.552  1.00  0.00     0.023 C 
BRANCH  57  58
ATOM     58  C   UNL A   1      32.999  28.902  23.298  1.00  0.00     0.116 C 
BRANCH  58  59
ATOM     59  N   UNL A   1      33.277  27.991  22.205  1.00  0.00    -0.352 N 
ATOM     60  C   UNL A   1      33.060  26.646  22.071  1.00  0.00     0.251 C 
ATOM     61  H   UNL A   1      33.696  28.414  21.421  1.00  0.00     0.163 HD
ATOM     62  O   UNL A   1      33.473  26.078  21.062  1.00  0.00    -0.269 OA
BRANCH  60  63
ATOM     63  C   UNL A   1      32.364  25.852  23.107  1.00  0.00     0.041 A 
ATOM     64  C   UNL A   1      31.032  26.185  23.387  1.00  0.00     0.014 A 
ATOM     65  C   UNL A   1      33.031  24.922  23.913  1.00  0.00     0.039 A 
ATOM     66  C   UNL A   1      30.353  25.557  24.428  1.00  0.00     0.003 A 
ATOM     67  C   UNL A   1      32.358  24.300  24.974  1.00  0.00     0.039 A 
ATOM     68  C   UNL A   1      31.016  24.620  25.216  1.00  0.00     0.026 A 
BRANCH  67  69
ATOM     69  N   UNL A   1      33.074  23.576  25.958  1.00  0.00    -0.355 N 
ATOM     70  H   UNL A   1      33.120  23.911  26.882  1.00  0.00     0.167 HD
BRANCH  69  71
ATOM     71  C   UNL A   1      33.728  22.361  25.605  1.00  0.00     0.050 A 
ATOM     72  C   UNL A   1      32.949  21.220  25.394  1.00  0.00     0.047 A 
ATOM     73  C   UNL A   1      35.133  22.271  25.493  1.00  0.00     0.027 A 
ATOM     74  C   UNL A   1      33.575  20.050  25.027  1.00  0.00     0.114 A 
ATOM     75  C   UNL A   1      35.669  21.010  25.137  1.00  0.00     0.072 A 
ATOM     76  C   UNL A   1      36.009  23.363  25.685  1.00  0.00     0.051 A 
ATOM     77  N   UNL A   1      34.910  19.929  24.904  1.00  0.00    -0.256 NA
ATOM     78  C   UNL A   1      37.044  20.875  25.014  1.00  0.00     0.032 A 
ATOM     79  C   UNL A   1      37.381  23.188  25.545  1.00  0.00     0.124 A 
ATOM     80  C   UNL A   1      37.909  21.950  25.220  1.00  0.00     0.041 A 
ATOM     81  F   UNL A   1      38.204  24.229  25.725  1.00  0.00    -0.207 F 
ENDBRANCH  69  71
ENDBRANCH  67  69
ENDBRANCH  60  63
ENDBRANCH  58  59
ENDBRANCH  57  58
ENDBRANCH   1  57
TORSDOF 13
ENDMDL
MODEL 3
REMARK VINA RESULT:     -12.0      3.029      7.993
REMARK SMILES O=C(NCCCCNC(=O)c1cccc(Nc2ccnc3ccc(F)cc23)c1)c1ccc(-c2c3nc(c(-c4ccccc4)c4ccc([nH]4)c(-c4ccccc4)c4nc(c(-c5ccccc5)c5ccc2[nH]5)C=C4)C=C3)cc1
REMARK SMILES IDX 5 1 4 2 3 3 1 4 2 5 29 7 30 8 76 9 31 10 75 11 32 12 33 13
REMARK SMILES IDX 34 14 69 15 35 16 74 17 68 18 70 19 36 20 73 21 67 22 66 23
REMARK SMILES IDX 37 25 59 26 44 27 58 28 45 29 48 30 57 31 71 32 46 33 47 34
REMARK SMILES IDX 56 36 72 37 49 38 38 39 39 40 43 41 40 42 42 43 41 44 60 45
REMARK SMILES IDX 61 46 65 47 62 48 64 49 63 50 50 51 51 52 55 53 52 54 54 55
REMARK SMILES IDX 53 56 6 57 7 58 8 59 9 60 10 62 11 63 12 64 28 65 13 66
REMARK SMILES IDX 15 67 14 68 16 69 17 71 18 72 27 73 19 74 21 75 26 76 20 77
REMARK SMILES IDX 22 78 24 79 23 80 25 81
REMARK H PARENT 3 6 70 24 48 35 8 61 16 70
REMARK Flexibility Score: inf
ROOT
ATOM      1  C   UNL A   1      35.641  23.236  25.572  1.00  0.00     0.023 C 
ENDROOT
BRANCH   1   2
ATOM      2  C   UNL A   1      37.038  23.753  25.248  1.00  0.00     0.116 C 
BRANCH   2   3
ATOM      3  N   UNL A   1      38.086  22.779  25.507  1.00  0.00    -0.352 N 
ATOM      4  O   UNL A   1      40.094  22.018  26.196  1.00  0.00    -0.269 OA
ATOM      5  C   UNL A   1      39.275  22.934  26.176  1.00  0.00     0.251 C 
ATOM      6  H   UNL A   1      37.920  21.876  25.151  1.00  0.00     0.163 HD
BRANCH   5   7
ATOM      7  C   UNL A   1      39.584  24.210  26.857  1.00  0.00     0.039 A 
ATOM      8  C   UNL A   1      39.239  24.411  28.195  1.00  0.00     0.014 A 
ATOM      9  C   UNL A   1      40.253  25.211  26.147  1.00  0.00     0.014 A 
ATOM     10  C   UNL A   1      39.451  25.650  28.787  1.00  0.00     0.010 A 
ATOM     11  C   UNL A   1      40.541  26.429  26.770  1.00  0.00     0.010 A 
ATOM     12  C   UNL A   1      40.129  26.663  28.090  1.00  0.00    -0.014 A 
BRANCH  12  13
ATOM     13  C   UNL A   1      40.500  27.914  28.796  1.00  0.00     0.031 A 
ATOM     14  C   UNL A   1      41.835  28.072  29.465  1.00  0.00     0.074 A 
ATOM     15  C   UNL A   1      39.596  28.913  28.840  1.00  0.00     0.049 A 
ATOM     16  N   UNL A   1      42.295  29.090  30.147  1.00  0.00    -0.248 NA
ATOM     17  C   UNL A   1      42.775  26.944  29.363  1.00  0.00     0.031 C 
ATOM     18  C   UNL A   1      38.261  28.868  28.234  1.00  0.00     0.029 A 
ATOM     19  N   UNL A   1      39.657  30.156  29.414  1.00  0.00    -0.354 N 
ATOM     20  C   UNL A   1      43.563  28.721  30.577  1.00  0.00     0.074 A 
ATOM     21  C   UNL A   1      43.800  27.379  30.088  1.00  0.00     0.031 C 
ATOM     22  C   UNL A   1      37.642  30.037  28.448  1.00  0.00     0.029 A 
ATOM     23  C   UNL A   1      38.502  30.885  29.263  1.00  0.00     0.049 A 
ATOM     24  H   UNL A   1      40.451  30.494  29.888  1.00  0.00     0.167 HD
ATOM     25  C   UNL A   1      44.444  29.440  31.314  1.00  0.00     0.031 A 
ATOM     26  C   UNL A   1      38.153  32.087  29.756  1.00  0.00     0.031 A 
ATOM     27  C   UNL A   1      44.201  30.777  31.791  1.00  0.00     0.049 A 
ATOM     28  C   UNL A   1      39.135  32.834  30.611  1.00  0.00     0.074 A 
ATOM     29  C   UNL A   1      45.062  31.610  32.486  1.00  0.00     0.029 A 
ATOM     30  N   UNL A   1      43.009  31.468  31.642  1.00  0.00    -0.354 N 
ATOM     31  N   UNL A   1      40.358  32.501  30.942  1.00  0.00    -0.248 NA
ATOM     32  C   UNL A   1      38.684  34.117  31.166  1.00  0.00     0.031 C 
ATOM     33  C   UNL A   1      44.366  32.776  32.819  1.00  0.00     0.029 A 
ATOM     34  C   UNL A   1      43.095  32.696  32.276  1.00  0.00     0.049 A 
ATOM     35  H   UNL A   1      42.220  31.135  31.157  1.00  0.00     0.167 HD
ATOM     36  C   UNL A   1      40.829  33.540  31.733  1.00  0.00     0.074 A 
ATOM     37  C   UNL A   1      39.770  34.525  31.809  1.00  0.00     0.031 C 
ATOM     38  C   UNL A   1      42.030  33.662  32.348  1.00  0.00     0.031 A 
BRANCH  25  39
ATOM     39  C   UNL A   1      45.749  28.793  31.688  1.00  0.00    -0.014 A 
ATOM     40  C   UNL A   1      46.894  28.930  30.889  1.00  0.00     0.009 A 
ATOM     41  C   UNL A   1      45.855  28.112  32.913  1.00  0.00     0.009 A 
ATOM     42  C   UNL A   1      48.113  28.384  31.301  1.00  0.00     0.001 A 
ATOM     43  C   UNL A   1      47.078  27.589  33.333  1.00  0.00     0.001 A 
ATOM     44  C   UNL A   1      48.205  27.720  32.525  1.00  0.00     0.000 A 
ENDBRANCH  25  39
BRANCH  26  45
ATOM     45  C   UNL A   1      36.794  32.629  29.500  1.00  0.00    -0.014 A 
ATOM     46  C   UNL A   1      36.542  33.450  28.393  1.00  0.00     0.009 A 
ATOM     47  C   UNL A   1      35.738  32.332  30.379  1.00  0.00     0.009 A 
ATOM     48  C   UNL A   1      35.269  33.986  28.185  1.00  0.00     0.001 A 
ATOM     49  C   UNL A   1      34.458  32.840  30.149  1.00  0.00     0.001 A 
ATOM     50  C   UNL A   1      34.228  33.677  29.060  1.00  0.00     0.000 A 
ENDBRANCH  26  45
BRANCH  38  51
ATOM     51  C   UNL A   1      42.266  34.912  33.146  1.00  0.00    -0.014 A 
ATOM     52  C   UNL A   1      41.792  35.031  34.461  1.00  0.00     0.009 A 
ATOM     53  C   UNL A   1      43.009  35.965  32.591  1.00  0.00     0.009 A 
ATOM     54  C   UNL A   1      42.036  36.193  35.196  1.00  0.00     0.001 A 
ATOM     55  C   UNL A   1      43.276  37.112  33.337  1.00  0.00     0.001 A 
ATOM     56  C   UNL A   1      42.783  37.228  34.636  1.00  0.00     0.000 A 
ENDBRANCH  38  51
ENDBRANCH  12  13
ENDBRANCH   5   7
ENDBRANCH   2   3
ENDBRANCH   1   2
BRANCH   1  57
ATOM     57  C   UNL A   1      35.566  21.804  26.103  1.00  0.00     0.023 C 
BRANCH  57  58
ATOM     58  C   UNL A   1      34.320  21.466  26.915  1.00  0.00     0.116 C 
BRANCH  58  59
ATOM     59  N   UNL A   1      33.587  20.329  26.393  1.00  0.00    -0.352 N 
ATOM     60  C   UNL A   1      32.614  20.245  25.432  1.00  0.00     0.251 C 
ATOM     61  H   UNL A   1      33.831  19.468  26.800  1.00  0.00     0.163 HD
ATOM     62  O   UNL A   1      32.077  19.157  25.230  1.00  0.00    -0.269 OA
BRANCH  60  63
ATOM     63  C   UNL A   1      32.174  21.420  24.648  1.00  0.00     0.041 A 
ATOM     64  C   UNL A   1      32.816  21.653  23.424  1.00  0.00     0.014 A 
ATOM     65  C   UNL A   1      31.286  22.372  25.159  1.00  0.00     0.039 A 
ATOM     66  C   UNL A   1      32.534  22.802  22.690  1.00  0.00     0.003 A 
ATOM     67  C   UNL A   1      31.012  23.540  24.433  1.00  0.00     0.039 A 
ATOM     68  C   UNL A   1      31.636  23.740  23.195  1.00  0.00     0.026 A 
BRANCH  67  69
ATOM     69  N   UNL A   1      30.343  24.629  25.043  1.00  0.00    -0.355 N 
ATOM     70  H   UNL A   1      29.391  24.552  25.282  1.00  0.00     0.167 HD
BRANCH  69  71
ATOM     71  C   UNL A   1      31.051  25.836  25.307  1.00  0.00     0.050 A 
ATOM     72  C   UNL A   1      32.117  25.800  26.209  1.00  0.00     0.047 A 
ATOM     73  C   UNL A   1      30.689  27.063  24.710  1.00  0.00     0.027 A 
ATOM     74  C   UNL A   1      32.821  26.959  26.446  1.00  0.00     0.114 A 
ATOM     75  C   UNL A   1      31.467  28.197  25.050  1.00  0.00     0.072 A 
ATOM     76  C   UNL A   1      29.629  27.208  23.786  1.00  0.00     0.051 A 
ATOM     77  N   UNL A   1      32.510  28.145  25.891  1.00  0.00    -0.256 NA
ATOM     78  C   UNL A   1      31.148  29.424  24.487  1.00  0.00     0.032 A 
ATOM     79  C   UNL A   1      29.346  28.453  23.239  1.00  0.00     0.124 A 
ATOM     80  C   UNL A   1      30.091  29.567  23.588  1.00  0.00     0.041 A 
ATOM     81  F   UNL A   1      28.343  28.579  22.361  1.00  0.00    -0.207 F 
ENDBRANCH  69  71
ENDBRANCH  67  69
ENDBRANCH  60  63
ENDBRANCH  58  59
ENDBRANCH  57  58
ENDBRANCH   1  57
TORSDOF 13
ENDMDL
