MODEL 1
REMARK VINA RESULT:     -12.6      0.000      0.000
REMARK SMILES Cc1c(Cl)cccc1NC(=O)C[C@](C)(C(=O)NCCCCNC(=O)c1ccc(-c2c3nc(c(-c4ccccc4)c4ccc([nH]4)c(-c4ccccc4)c4nc(c(-c5ccccc5)c5ccc2[nH]5)C=C4)C=C3)cc1)c1ccccc1
REMARK SMILES IDX 19 1 18 2 17 3 15 4 16 5 13 7 14 8 12 9 10 10 9 11 11 13
REMARK SMILES IDX 8 14 1 15 2 16 3 17 4 18 5 19 7 20 6 21 73 22 74 23 78 24
REMARK SMILES IDX 75 25 77 26 76 27 20 28 21 29 22 30 23 31 24 33 25 34 26 35
REMARK SMILES IDX 72 36 27 37 71 38 28 39 29 40 30 41 65 42 31 43 70 44 64 45
REMARK SMILES IDX 66 46 32 47 69 48 63 49 62 50 33 52 55 53 40 54 54 55 41 56
REMARK SMILES IDX 44 57 53 58 67 59 42 60 43 61 52 63 68 64 45 65 34 66 35 67
REMARK SMILES IDX 39 68 36 69 38 70 37 71 56 72 57 73 61 74 58 75 60 76 59 77
REMARK SMILES IDX 46 78 47 79 51 80 48 81 50 82 49 83
REMARK H PARENT 17 6 9 12 22 32 66 51 44 62
REMARK Flexibility Score: inf
ROOT
ATOM      1  C   UNL A   1      38.596  22.581  25.795  1.00  0.00     0.023 C 
ENDROOT
BRANCH   1   2
ATOM      2  C   UNL A   1      37.107  23.178  25.159  1.00  0.00     0.116 C 
BRANCH   2   3
ATOM      3  N   UNL A   1      35.252  22.262  24.851  1.00  0.00    -0.355 N 
ATOM      4  C   UNL A   1      33.830  22.270  24.646  1.00  0.00     0.230 C 
ATOM      5  O   UNL A   1      33.447  21.101  24.451  1.00  0.00    -0.274 OA
ATOM      6  H   UNL A   1      35.475  21.303  24.844  1.00  0.00     0.163 HD
BRANCH   4   7
ATOM      7  C   UNL A   1      32.741  23.473  24.703  1.00  0.00     0.080 C 
ATOM      8  C   UNL A   1      31.427  22.925  24.026  1.00  0.00     0.027 C 
BRANCH   7   9
ATOM      9  C   UNL A   1      32.482  24.115  26.115  1.00  0.00     0.121 C 
BRANCH   9  10
ATOM     10  C   UNL A   1      31.062  24.225  26.639  1.00  0.00     0.225 C 
ATOM     11  N   UNL A   1      30.356  25.384  26.512  1.00  0.00    -0.326 N 
ATOM     12  H   UNL A   1      29.607  25.541  27.133  1.00  0.00     0.169 HD
ATOM     13  O   UNL A   1      30.529  23.284  27.231  1.00  0.00    -0.275 OA
BRANCH  11  14
ATOM     14  C   UNL A   1      30.633  26.357  25.556  1.00  0.00     0.045 A 
ATOM     15  C   UNL A   1      32.443  27.721  27.332  1.00  0.00     0.048 C 
ATOM     16  C   UNL A   1      31.441  27.835  26.219  1.00  0.00    -0.009 A 
ATOM     17  C   UNL A   1      31.313  29.394  25.322  1.00  0.00     0.046 A 
ATOM     18  Cl  UNL A   1      32.156  30.792  25.865  1.00  0.00    -0.084 Cl
ATOM     19  C   UNL A   1      30.294  29.518  23.844  1.00  0.00     0.021 A 
ATOM     20  C   UNL A   1      29.703  26.432  23.978  1.00  0.00     0.026 A 
ATOM     21  C   UNL A   1      29.507  28.037  23.149  1.00  0.00     0.004 A 
ENDBRANCH  11  14
ENDBRANCH   9  10
ENDBRANCH   7   9
BRANCH   7  22
ATOM     22  C   UNL A   1      33.033  24.733  23.787  1.00  0.00    -0.032 A 
ATOM     23  C   UNL A   1      33.785  25.807  24.350  1.00  0.00     0.005 A 
ATOM     24  C   UNL A   1      32.608  24.895  22.468  1.00  0.00     0.005 A 
ATOM     25  C   UNL A   1      33.969  27.021  23.697  1.00  0.00     0.000 A 
ATOM     26  C   UNL A   1      32.811  26.114  21.799  1.00  0.00     0.000 A 
ATOM     27  C   UNL A   1      33.462  27.180  22.419  1.00  0.00     0.000 A 
ENDBRANCH   7  22
ENDBRANCH   4   7
ENDBRANCH   2   3
ENDBRANCH   1   2
BRANCH   1  28
ATOM     28  C   UNL A   1      38.929  21.137  25.420  1.00  0.00     0.023 C 
BRANCH  28  29
ATOM     29  C   UNL A   1      39.632  20.353  26.504  1.00  0.00     0.116 C 
BRANCH  29  30
ATOM     30  N   UNL A   1      40.628  19.438  25.962  1.00  0.00    -0.352 N 
ATOM     31  C   UNL A   1      41.955  19.740  25.781  1.00  0.00     0.251 C 
ATOM     32  H   UNL A   1      40.326  18.536  25.707  1.00  0.00     0.163 HD
ATOM     33  O   UNL A   1      42.719  19.027  25.150  1.00  0.00    -0.269 OA
BRANCH  31  34
ATOM     34  C   UNL A   1      42.392  21.003  26.392  1.00  0.00     0.039 A 
ATOM     35  C   UNL A   1      42.664  22.091  25.565  1.00  0.00     0.014 A 
ATOM     36  C   UNL A   1      42.214  21.150  27.773  1.00  0.00     0.014 A 
ATOM     37  C   UNL A   1      42.768  23.354  26.141  1.00  0.00     0.010 A 
ATOM     38  C   UNL A   1      42.203  22.424  28.317  1.00  0.00     0.010 A 
ATOM     39  C   UNL A   1      42.530  23.529  27.517  1.00  0.00    -0.014 A 
BRANCH  39  40
ATOM     40  C   UNL A   1      42.730  24.854  28.148  1.00  0.00     0.031 A 
ATOM     41  C   UNL A   1      44.120  25.254  28.564  1.00  0.00     0.074 A 
ATOM     42  C   UNL A   1      41.693  25.694  28.319  1.00  0.00     0.049 A 
ATOM     43  N   UNL A   1      44.536  26.384  29.074  1.00  0.00    -0.248 NA
ATOM     44  C   UNL A   1      45.184  24.245  28.408  1.00  0.00     0.031 C 
ATOM     45  C   UNL A   1      40.297  25.406  27.983  1.00  0.00     0.029 A 
ATOM     46  N   UNL A   1      41.660  26.979  28.798  1.00  0.00    -0.354 N 
ATOM     47  C   UNL A   1      45.896  26.214  29.299  1.00  0.00     0.074 A 
ATOM     48  C   UNL A   1      46.223  24.853  28.953  1.00  0.00     0.031 C 
ATOM     49  C   UNL A   1      39.555  26.503  28.211  1.00  0.00     0.029 A 
ATOM     50  C   UNL A   1      40.412  27.553  28.751  1.00  0.00     0.049 A 
ATOM     51  H   UNL A   1      42.455  27.446  29.143  1.00  0.00     0.167 HD
ATOM     52  C   UNL A   1      46.805  27.122  29.719  1.00  0.00     0.031 A 
ATOM     53  C   UNL A   1      40.011  28.790  29.103  1.00  0.00     0.031 A 
ATOM     54  C   UNL A   1      46.479  28.477  30.058  1.00  0.00     0.049 A 
ATOM     55  C   UNL A   1      41.035  29.765  29.619  1.00  0.00     0.074 A 
ATOM     56  C   UNL A   1      47.327  29.490  30.464  1.00  0.00     0.029 A 
ATOM     57  N   UNL A   1      45.198  29.005  30.037  1.00  0.00    -0.354 N 
ATOM     58  N   UNL A   1      42.331  29.612  29.757  1.00  0.00    -0.248 NA
ATOM     59  C   UNL A   1      40.541  31.091  30.018  1.00  0.00     0.031 C 
ATOM     60  C   UNL A   1      46.549  30.612  30.760  1.00  0.00     0.029 A 
ATOM     61  C   UNL A   1      45.227  30.322  30.457  1.00  0.00     0.049 A 
ATOM     62  H   UNL A   1      44.388  28.516  29.764  1.00  0.00     0.167 HD
ATOM     63  C   UNL A   1      42.809  30.829  30.227  1.00  0.00     0.074 A 
ATOM     64  C   UNL A   1      41.667  31.716  30.327  1.00  0.00     0.031 C 
ATOM     65  C   UNL A   1      44.078  31.185  30.549  1.00  0.00     0.031 A 
BRANCH  52  66
ATOM     66  C   UNL A   1      48.232  26.663  29.844  1.00  0.00    -0.014 A 
ATOM     67  C   UNL A   1      48.719  26.099  31.036  1.00  0.00     0.009 A 
ATOM     68  C   UNL A   1      49.099  26.780  28.748  1.00  0.00     0.009 A 
ATOM     69  C   UNL A   1      50.053  25.700  31.138  1.00  0.00     0.001 A 
ATOM     70  C   UNL A   1      50.422  26.346  28.840  1.00  0.00     0.001 A 
ATOM     71  C   UNL A   1      50.900  25.816  30.038  1.00  0.00     0.000 A 
ENDBRANCH  52  66
BRANCH  53  72
ATOM     72  C   UNL A   1      38.581  29.184  28.977  1.00  0.00    -0.014 A 
ATOM     73  C   UNL A   1      38.083  29.716  27.777  1.00  0.00     0.009 A 
ATOM     74  C   UNL A   1      37.710  29.058  30.071  1.00  0.00     0.009 A 
ATOM     75  C   UNL A   1      36.757  30.149  27.689  1.00  0.00     0.001 A 
ATOM     76  C   UNL A   1      36.375  29.456  29.969  1.00  0.00     0.001 A 
ATOM     77  C   UNL A   1      35.904  30.014  28.783  1.00  0.00     0.000 A 
ENDBRANCH  53  72
BRANCH  65  78
ATOM     78  C   UNL A   1      44.305  32.602  30.999  1.00  0.00    -0.014 A 
ATOM     79  C   UNL A   1      44.538  33.636  30.080  1.00  0.00     0.009 A 
ATOM     80  C   UNL A   1      44.234  32.911  32.368  1.00  0.00     0.009 A 
ATOM     81  C   UNL A   1      44.739  34.944  30.527  1.00  0.00     0.001 A 
ATOM     82  C   UNL A   1      44.395  34.224  32.808  1.00  0.00     0.001 A 
ATOM     83  C   UNL A   1      44.660  35.237  31.888  1.00  0.00     0.000 A 
ENDBRANCH  65  78
ENDBRANCH  39  40
ENDBRANCH  31  34
ENDBRANCH  29  30
ENDBRANCH  28  29
ENDBRANCH   1  28
TORSDOF 15
ENDMDL
MODEL 2
REMARK VINA RESULT:     -12.5      1.091      2.065
REMARK SMILES Cc1c(Cl)cccc1NC(=O)C[C@](C)(C(=O)NCCCCNC(=O)c1ccc(-c2c3nc(c(-c4ccccc4)c4ccc([nH]4)c(-c4ccccc4)c4nc(c(-c5ccccc5)c5ccc2[nH]5)C=C4)C=C3)cc1)c1ccccc1
REMARK SMILES IDX 19 1 18 2 17 3 15 4 16 5 13 7 14 8 12 9 10 10 9 11 11 13
REMARK SMILES IDX 8 14 1 15 2 16 3 17 4 18 5 19 7 20 6 21 73 22 74 23 78 24
REMARK SMILES IDX 75 25 77 26 76 27 20 28 21 29 22 30 23 31 24 33 25 34 26 35
REMARK SMILES IDX 72 36 27 37 71 38 28 39 29 40 30 41 65 42 31 43 70 44 64 45
REMARK SMILES IDX 66 46 32 47 69 48 63 49 62 50 33 52 55 53 40 54 54 55 41 56
REMARK SMILES IDX 44 57 53 58 67 59 42 60 43 61 52 63 68 64 45 65 34 66 35 67
REMARK SMILES IDX 39 68 36 69 38 70 37 71 56 72 57 73 61 74 58 75 60 76 59 77
REMARK SMILES IDX 46 78 47 79 51 80 48 81 50 82 49 83
REMARK H PARENT 17 6 9 12 22 32 66 51 44 62
REMARK Flexibility Score: inf
ROOT
ATOM      1  C   UNL A   1      39.052  22.599  26.268  1.00  0.00     0.023 C 
ENDROOT
BRANCH   1   2
ATOM      2  C   UNL A   1      37.573  23.380  25.839  1.00  0.00     0.116 C 
BRANCH   2   3
ATOM      3  N   UNL A   1      35.630  23.201  26.592  1.00  0.00    -0.355 N 
ATOM      4  C   UNL A   1      34.212  23.427  26.562  1.00  0.00     0.230 C 
ATOM      5  O   UNL A   1      33.688  22.815  27.512  1.00  0.00    -0.274 OA
ATOM      6  H   UNL A   1      35.756  22.677  27.416  1.00  0.00     0.163 HD
BRANCH   4   7
ATOM      7  C   UNL A   1      33.289  24.349  25.593  1.00  0.00     0.080 C 
ATOM      8  C   UNL A   1      34.121  24.593  24.276  1.00  0.00     0.027 C 
BRANCH   7   9
ATOM      9  C   UNL A   1      31.833  23.827  25.311  1.00  0.00     0.121 C 
BRANCH   9  10
ATOM     10  C   UNL A   1      31.535  23.105  24.010  1.00  0.00     0.225 C 
ATOM     11  N   UNL A   1      30.832  23.716  23.014  1.00  0.00    -0.326 N 
ATOM     12  H   UNL A   1      30.372  23.148  22.355  1.00  0.00     0.169 HD
ATOM     13  O   UNL A   1      31.883  21.935  23.837  1.00  0.00    -0.275 OA
BRANCH  11  14
ATOM     14  C   UNL A   1      30.728  25.098  22.878  1.00  0.00     0.045 A 
ATOM     15  C   UNL A   1      33.025  25.196  21.145  1.00  0.00     0.048 C 
ATOM     16  C   UNL A   1      32.209  25.887  22.199  1.00  0.00    -0.009 A 
ATOM     17  C   UNL A   1      32.511  27.635  22.524  1.00  0.00     0.046 A 
ATOM     18  Cl  UNL A   1      33.850  28.443  21.806  1.00  0.00    -0.084 Cl
ATOM     19  C   UNL A   1      31.420  28.566  23.611  1.00  0.00     0.021 A 
ATOM     20  C   UNL A   1      29.532  26.065  23.877  1.00  0.00     0.026 A 
ATOM     21  C   UNL A   1      29.913  27.797  24.271  1.00  0.00     0.004 A 
ENDBRANCH  11  14
ENDBRANCH   9  10
ENDBRANCH   7   9
BRANCH   7  22
ATOM     22  C   UNL A   1      33.047  25.843  26.063  1.00  0.00    -0.032 A 
ATOM     23  C   UNL A   1      34.056  26.807  25.766  1.00  0.00     0.005 A 
ATOM     24  C   UNL A   1      31.928  26.307  26.757  1.00  0.00     0.005 A 
ATOM     25  C   UNL A   1      34.025  28.107  26.260  1.00  0.00     0.000 A 
ATOM     26  C   UNL A   1      31.885  27.625  27.239  1.00  0.00     0.000 A 
ATOM     27  C   UNL A   1      32.940  28.512  27.017  1.00  0.00     0.000 A 
ENDBRANCH   7  22
ENDBRANCH   4   7
ENDBRANCH   2   3
ENDBRANCH   1   2
BRANCH   1  28
ATOM     28  C   UNL A   1      39.185  21.155  25.785  1.00  0.00     0.023 C 
BRANCH  28  29
ATOM     29  C   UNL A   1      39.910  20.237  26.743  1.00  0.00     0.116 C 
BRANCH  29  30
ATOM     30  N   UNL A   1      40.896  19.405  26.067  1.00  0.00    -0.352 N 
ATOM     31  C   UNL A   1      42.174  19.798  25.754  1.00  0.00     0.251 C 
ATOM     32  H   UNL A   1      40.626  18.492  25.817  1.00  0.00     0.163 HD
ATOM     33  O   UNL A   1      42.907  19.154  25.021  1.00  0.00    -0.269 OA
BRANCH  31  34
ATOM     34  C   UNL A   1      42.595  21.071  26.355  1.00  0.00     0.039 A 
ATOM     35  C   UNL A   1      42.745  22.186  25.534  1.00  0.00     0.014 A 
ATOM     36  C   UNL A   1      42.520  21.185  27.749  1.00  0.00     0.014 A 
ATOM     37  C   UNL A   1      42.832  23.442  26.126  1.00  0.00     0.010 A 
ATOM     38  C   UNL A   1      42.489  22.447  28.319  1.00  0.00     0.010 A 
ATOM     39  C   UNL A   1      42.696  23.582  27.520  1.00  0.00    -0.014 A 
BRANCH  39  40
ATOM     40  C   UNL A   1      42.879  24.904  28.161  1.00  0.00     0.031 A 
ATOM     41  C   UNL A   1      44.265  25.321  28.576  1.00  0.00     0.074 A 
ATOM     42  C   UNL A   1      41.831  25.727  28.343  1.00  0.00     0.049 A 
ATOM     43  N   UNL A   1      44.666  26.452  29.094  1.00  0.00    -0.248 NA
ATOM     44  C   UNL A   1      45.343  24.328  28.406  1.00  0.00     0.031 C 
ATOM     45  C   UNL A   1      40.438  25.422  28.010  1.00  0.00     0.029 A 
ATOM     46  N   UNL A   1      41.782  27.008  28.834  1.00  0.00    -0.354 N 
ATOM     47  C   UNL A   1      46.030  26.299  29.311  1.00  0.00     0.074 A 
ATOM     48  C   UNL A   1      46.375  24.946  28.953  1.00  0.00     0.031 C 
ATOM     49  C   UNL A   1      39.682  26.506  28.251  1.00  0.00     0.029 A 
ATOM     50  C   UNL A   1      40.525  27.563  28.796  1.00  0.00     0.049 A 
ATOM     51  H   UNL A   1      42.571  27.483  29.179  1.00  0.00     0.167 HD
ATOM     52  C   UNL A   1      46.928  27.217  29.736  1.00  0.00     0.031 A 
ATOM     53  C   UNL A   1      40.108  28.792  29.160  1.00  0.00     0.031 A 
ATOM     54  C   UNL A   1      46.583  28.563  30.088  1.00  0.00     0.049 A 
ATOM     55  C   UNL A   1      41.120  29.778  29.680  1.00  0.00     0.074 A 
ATOM     56  C   UNL A   1      47.418  29.585  30.499  1.00  0.00     0.029 A 
ATOM     57  N   UNL A   1      45.295  29.074  30.076  1.00  0.00    -0.354 N 
ATOM     58  N   UNL A   1      42.419  29.642  29.812  1.00  0.00    -0.248 NA
ATOM     59  C   UNL A   1      40.609  31.092  30.093  1.00  0.00     0.031 C 
ATOM     60  C   UNL A   1      46.625  30.694  30.808  1.00  0.00     0.029 A 
ATOM     61  C   UNL A   1      45.307  30.387  30.508  1.00  0.00     0.049 A 
ATOM     62  H   UNL A   1      44.491  28.575  29.802  1.00  0.00     0.167 HD
ATOM     63  C   UNL A   1      42.881  30.862  30.290  1.00  0.00     0.074 A 
ATOM     64  C   UNL A   1      41.727  31.731  30.403  1.00  0.00     0.031 C 
ATOM     65  C   UNL A   1      44.146  31.233  30.611  1.00  0.00     0.031 A 
BRANCH  52  66
ATOM     66  C   UNL A   1      48.362  26.777  29.852  1.00  0.00    -0.014 A 
ATOM     67  C   UNL A   1      49.269  26.951  28.792  1.00  0.00     0.009 A 
ATOM     68  C   UNL A   1      48.816  26.196  31.044  1.00  0.00     0.009 A 
ATOM     69  C   UNL A   1      50.590  26.515  28.912  1.00  0.00     0.001 A 
ATOM     70  C   UNL A   1      50.147  25.795  31.174  1.00  0.00     0.001 A 
ATOM     71  C   UNL A   1      51.029  25.946  30.106  1.00  0.00     0.000 A 
ENDBRANCH  52  66
BRANCH  53  72
ATOM     72  C   UNL A   1      38.671  29.166  29.043  1.00  0.00    -0.014 A 
ATOM     73  C   UNL A   1      38.152  29.663  27.837  1.00  0.00     0.009 A 
ATOM     74  C   UNL A   1      37.816  29.058  30.151  1.00  0.00     0.009 A 
ATOM     75  C   UNL A   1      36.820  30.078  27.756  1.00  0.00     0.001 A 
ATOM     76  C   UNL A   1      36.476  29.438  30.056  1.00  0.00     0.001 A 
ATOM     77  C   UNL A   1      35.983  29.961  28.863  1.00  0.00     0.000 A 
ENDBRANCH  53  72
BRANCH  65  78
ATOM     78  C   UNL A   1      44.354  32.650  31.073  1.00  0.00    -0.014 A 
ATOM     79  C   UNL A   1      44.322  32.991  32.432  1.00  0.00     0.009 A 
ATOM     80  C   UNL A   1      44.636  33.648  30.126  1.00  0.00     0.009 A 
ATOM     81  C   UNL A   1      44.526  34.314  32.831  1.00  0.00     0.001 A 
ATOM     82  C   UNL A   1      44.878  34.960  30.530  1.00  0.00     0.001 A 
ATOM     83  C   UNL A   1      44.810  35.295  31.881  1.00  0.00     0.000 A 
ENDBRANCH  65  78
ENDBRANCH  39  40
ENDBRANCH  31  34
ENDBRANCH  29  30
ENDBRANCH  28  29
ENDBRANCH   1  28
TORSDOF 15
ENDMDL
MODEL 3
REMARK VINA RESULT:     -12.3      4.090      9.188
REMARK SMILES Cc1c(Cl)cccc1NC(=O)C[C@](C)(C(=O)NCCCCNC(=O)c1ccc(-c2c3nc(c(-c4ccccc4)c4ccc([nH]4)c(-c4ccccc4)c4nc(c(-c5ccccc5)c5ccc2[nH]5)C=C4)C=C3)cc1)c1ccccc1
REMARK SMILES IDX 19 1 18 2 17 3 15 4 16 5 13 7 14 8 12 9 10 10 9 11 11 13
REMARK SMILES IDX 8 14 1 15 2 16 3 17 4 18 5 19 7 20 6 21 73 22 74 23 78 24
REMARK SMILES IDX 75 25 77 26 76 27 20 28 21 29 22 30 23 31 24 33 25 34 26 35
REMARK SMILES IDX 72 36 27 37 71 38 28 39 29 40 30 41 65 42 31 43 70 44 64 45
REMARK SMILES IDX 66 46 32 47 69 48 63 49 62 50 33 52 55 53 40 54 54 55 41 56
REMARK SMILES IDX 44 57 53 58 67 59 42 60 43 61 52 63 68 64 45 65 34 66 35 67
REMARK SMILES IDX 39 68 36 69 38 70 37 71 56 72 57 73 61 74 58 75 60 76 59 77
REMARK SMILES IDX 46 78 47 79 51 80 48 81 50 82 49 83
REMARK H PARENT 17 6 9 12 22 32 66 51 44 62
REMARK Flexibility Score: inf
ROOT
ATOM      1  C   UNL A   1      32.031  30.510  27.226  1.00  0.00     0.023 C 
ENDROOT
BRANCH   1   2
ATOM      2  C   UNL A   1      33.309  29.701  26.394  1.00  0.00     0.116 C 
BRANCH   2   3
ATOM      3  N   UNL A   1      33.322  28.501  24.681  1.00  0.00    -0.355 N 
ATOM      4  C   UNL A   1      32.699  27.688  23.675  1.00  0.00     0.230 C 
ATOM      5  O   UNL A   1      33.560  27.355  22.838  1.00  0.00    -0.274 OA
ATOM      6  H   UNL A   1      34.273  28.483  24.428  1.00  0.00     0.163 HD
BRANCH   4   7
ATOM      7  C   UNL A   1      31.180  27.128  23.530  1.00  0.00     0.080 C 
ATOM      8  C   UNL A   1      31.067  26.500  22.088  1.00  0.00     0.027 C 
BRANCH   7   9
ATOM      9  C   UNL A   1      30.682  26.159  24.663  1.00  0.00     0.121 C 
BRANCH   9  10
ATOM     10  C   UNL A   1      31.325  26.220  26.036  1.00  0.00     0.225 C 
ATOM     11  N   UNL A   1      32.190  25.250  26.450  1.00  0.00    -0.326 N 
ATOM     12  H   UNL A   1      32.319  25.125  27.418  1.00  0.00     0.169 HD
ATOM     13  O   UNL A   1      31.047  27.122  26.829  1.00  0.00    -0.275 OA
BRANCH  11  14
ATOM     14  C   UNL A   1      32.900  24.427  25.580  1.00  0.00     0.045 A 
ATOM     15  C   UNL A   1      30.865  22.393  25.689  1.00  0.00     0.048 C 
ATOM     16  C   UNL A   1      32.326  22.710  25.552  1.00  0.00    -0.009 A 
ATOM     17  C   UNL A   1      33.451  21.407  25.013  1.00  0.00     0.046 A 
ATOM     18  Cl  UNL A   1      32.907  19.781  24.871  1.00  0.00    -0.084 Cl
ATOM     19  C   UNL A   1      35.165  21.785  24.618  1.00  0.00     0.021 A 
ATOM     20  C   UNL A   1      34.604  24.848  25.051  1.00  0.00     0.026 A 
ATOM     21  C   UNL A   1      35.745  23.505  24.608  1.00  0.00     0.004 A 
ENDBRANCH  11  14
ENDBRANCH   9  10
ENDBRANCH   7   9
BRANCH   7  22
ATOM     22  C   UNL A   1      30.031  28.217  23.462  1.00  0.00    -0.032 A 
ATOM     23  C   UNL A   1      28.694  27.763  23.254  1.00  0.00     0.005 A 
ATOM     24  C   UNL A   1      30.209  29.597  23.578  1.00  0.00     0.005 A 
ATOM     25  C   UNL A   1      27.632  28.631  23.024  1.00  0.00     0.000 A 
ATOM     26  C   UNL A   1      29.133  30.474  23.365  1.00  0.00     0.000 A 
ATOM     27  C   UNL A   1      27.858  29.996  23.062  1.00  0.00     0.000 A 
ENDBRANCH   7  22
ENDBRANCH   4   7
ENDBRANCH   2   3
ENDBRANCH   1   2
BRANCH   1  28
ATOM     28  C   UNL A   1      31.871  31.992  26.884  1.00  0.00     0.023 C 
BRANCH  28  29
ATOM     29  C   UNL A   1      32.961  32.884  27.432  1.00  0.00     0.116 C 
BRANCH  29  30
ATOM     30  N   UNL A   1      32.480  34.229  27.716  1.00  0.00    -0.352 N 
ATOM     31  C   UNL A   1      32.972  35.048  28.702  1.00  0.00     0.251 C 
ATOM     32  H   UNL A   1      31.747  34.577  27.158  1.00  0.00     0.163 HD
ATOM     33  O   UNL A   1      32.424  36.085  29.040  1.00  0.00    -0.269 OA
BRANCH  31  34
ATOM     34  C   UNL A   1      34.208  34.575  29.341  1.00  0.00     0.039 A 
ATOM     35  C   UNL A   1      34.115  33.713  30.431  1.00  0.00     0.014 A 
ATOM     36  C   UNL A   1      35.408  34.753  28.640  1.00  0.00     0.014 A 
ATOM     37  C   UNL A   1      35.254  33.024  30.834  1.00  0.00     0.010 A 
ATOM     38  C   UNL A   1      36.503  33.974  28.975  1.00  0.00     0.010 A 
ATOM     39  C   UNL A   1      36.452  33.142  30.104  1.00  0.00    -0.014 A 
BRANCH  39  40
ATOM     40  C   UNL A   1      37.688  32.483  30.582  1.00  0.00     0.031 A 
ATOM     41  C   UNL A   1      38.346  33.000  31.834  1.00  0.00     0.074 A 
ATOM     42  C   UNL A   1      38.196  31.423  29.926  1.00  0.00     0.049 A 
ATOM     43  N   UNL A   1      39.394  32.539  32.466  1.00  0.00    -0.248 NA
ATOM     44  C   UNL A   1      37.765  34.208  32.447  1.00  0.00     0.031 C 
ATOM     45  C   UNL A   1      37.664  30.851  28.688  1.00  0.00     0.029 A 
ATOM     46  N   UNL A   1      39.266  30.620  30.230  1.00  0.00    -0.354 N 
ATOM     47  C   UNL A   1      39.591  33.401  33.537  1.00  0.00     0.074 A 
ATOM     48  C   UNL A   1      38.616  34.457  33.426  1.00  0.00     0.031 C 
ATOM     49  C   UNL A   1      38.374  29.756  28.370  1.00  0.00     0.029 A 
ATOM     50  C   UNL A   1      39.436  29.575  29.353  1.00  0.00     0.049 A 
ATOM     51  H   UNL A   1      39.857  30.778  31.001  1.00  0.00     0.167 HD
ATOM     52  C   UNL A   1      40.482  33.303  34.550  1.00  0.00     0.031 A 
ATOM     53  C   UNL A   1      40.348  28.582  29.352  1.00  0.00     0.031 A 
ATOM     54  C   UNL A   1      41.448  32.249  34.660  1.00  0.00     0.049 A 
ATOM     55  C   UNL A   1      41.362  28.527  30.462  1.00  0.00     0.074 A 
ATOM     56  C   UNL A   1      42.376  32.035  35.662  1.00  0.00     0.029 A 
ATOM     57  N   UNL A   1      41.614  31.235  33.731  1.00  0.00    -0.354 N 
ATOM     58  N   UNL A   1      41.491  29.309  31.508  1.00  0.00    -0.248 NA
ATOM     59  C   UNL A   1      42.353  27.444  30.397  1.00  0.00     0.031 C 
ATOM     60  C   UNL A   1      43.154  30.932  35.302  1.00  0.00     0.029 A 
ATOM     61  C   UNL A   1      42.655  30.411  34.118  1.00  0.00     0.049 A 
ATOM     62  H   UNL A   1      41.073  31.119  32.917  1.00  0.00     0.167 HD
ATOM     63  C   UNL A   1      42.553  28.793  32.239  1.00  0.00     0.074 A 
ATOM     64  C   UNL A   1      43.018  27.618  31.529  1.00  0.00     0.031 C 
ATOM     65  C   UNL A   1      43.100  29.248  33.395  1.00  0.00     0.031 A 
BRANCH  52  66
ATOM     66  C   UNL A   1      40.450  34.377  35.603  1.00  0.00    -0.014 A 
ATOM     67  C   UNL A   1      41.202  35.557  35.469  1.00  0.00     0.009 A 
ATOM     68  C   UNL A   1      39.643  34.213  36.738  1.00  0.00     0.009 A 
ATOM     69  C   UNL A   1      41.176  36.531  36.470  1.00  0.00     0.001 A 
ATOM     70  C   UNL A   1      39.589  35.205  37.719  1.00  0.00     0.001 A 
ATOM     71  C   UNL A   1      40.363  36.358  37.588  1.00  0.00     0.000 A 
ENDBRANCH  52  66
BRANCH  53  72
ATOM     72  C   UNL A   1      40.345  27.558  28.271  1.00  0.00    -0.014 A 
ATOM     73  C   UNL A   1      39.650  26.348  28.428  1.00  0.00     0.009 A 
ATOM     74  C   UNL A   1      41.065  27.772  27.086  1.00  0.00     0.009 A 
ATOM     75  C   UNL A   1      39.711  25.362  27.440  1.00  0.00     0.001 A 
ATOM     76  C   UNL A   1      41.093  26.801  26.083  1.00  0.00     0.001 A 
ATOM     77  C   UNL A   1      40.428  25.591  26.267  1.00  0.00     0.000 A 
ENDBRANCH  53  72
BRANCH  65  78
ATOM     78  C   UNL A   1      44.232  28.451  33.984  1.00  0.00    -0.014 A 
ATOM     79  C   UNL A   1      44.000  27.275  34.713  1.00  0.00     0.009 A 
ATOM     80  C   UNL A   1      45.555  28.864  33.761  1.00  0.00     0.009 A 
ATOM     81  C   UNL A   1      45.071  26.552  35.243  1.00  0.00     0.001 A 
ATOM     82  C   UNL A   1      46.624  28.119  34.257  1.00  0.00     0.001 A 
ATOM     83  C   UNL A   1      46.381  26.971  35.009  1.00  0.00     0.000 A 
ENDBRANCH  65  78
ENDBRANCH  39  40
ENDBRANCH  31  34
ENDBRANCH  29  30
ENDBRANCH  28  29
ENDBRANCH   1  28
TORSDOF 15
ENDMDL
