MODEL 1
REMARK VINA RESULT:     -12.1      0.000      0.000
REMARK SMILES CCc1cc(N2CCC(O)(C(=O)NCCCCNC(=O)c3ccc(-c4c5nc(c(-c6ccccc6)c6ccc([nH]6)c(-c6ccccc6)c6nc(c(-c7ccccc7)c7ccc4[nH]7)C=C6)C=C5)cc3)CC2)nc(N2CCOCC2)n1
REMARK SMILES IDX 15 1 14 2 13 3 11 4 12 5 9 7 6 8 7 9 70 10 8 11 69 12 5 13
REMARK SMILES IDX 3 14 4 15 79 16 72 17 71 18 2 19 1 20 73 21 74 22 78 23
REMARK SMILES IDX 75 24 77 25 76 26 10 27 16 29 17 30 18 31 19 32 20 34 21 35
REMARK SMILES IDX 22 36 68 37 23 38 67 39 24 40 25 41 26 42 61 43 27 44 66 45
REMARK SMILES IDX 60 46 62 47 28 48 65 49 59 50 58 51 29 53 51 54 36 55 50 56
REMARK SMILES IDX 37 57 40 58 49 59 63 60 38 61 39 62 48 64 64 65 41 66 30 67
REMARK SMILES IDX 31 68 35 69 32 70 34 71 33 72 52 73 53 74 57 75 54 76 56 77
REMARK SMILES IDX 55 78 42 79 43 80 47 81 44 82 46 83 45 84
REMARK H PARENT 13 6 10 28 18 33 62 52 40 63
REMARK Flexibility Score: inf
ROOT
ATOM      1  C   UNL A   1      31.801  29.243  27.187  1.00  0.00     0.023 C 
ENDROOT
BRANCH   1   2
ATOM      2  C   UNL A   1      32.495  28.221  26.286  1.00  0.00     0.116 C 
BRANCH   2   3
ATOM      3  N   UNL A   1      31.738  27.974  25.077  1.00  0.00    -0.354 N 
ATOM      4  C   UNL A   1      31.169  26.826  24.611  1.00  0.00     0.252 C 
ATOM      5  O   UNL A   1      30.550  26.918  23.547  1.00  0.00    -0.272 OA
ATOM      6  H   UNL A   1      31.614  28.761  24.499  1.00  0.00     0.163 HD
BRANCH   4   7
ATOM      7  C   UNL A   1      31.283  25.478  25.388  1.00  0.00     0.146 C 
ATOM      8  N   UNL A   1      32.422  22.877  25.602  1.00  0.00    -0.356 N 
ATOM      9  C   UNL A   1      32.850  23.877  26.552  1.00  0.00     0.121 C 
ATOM     10  C   UNL A   1      31.099  22.962  25.020  1.00  0.00     0.121 C 
ATOM     11  C   UNL A   1      32.713  25.250  25.902  1.00  0.00     0.067 C 
ATOM     12  C   UNL A   1      30.893  24.341  24.417  1.00  0.00     0.067 C 
BRANCH   8  13
ATOM     13  C   UNL A   1      33.221  21.807  25.289  1.00  0.00     0.134 A 
ATOM     14  C   UNL A   1      35.327  20.840  24.926  1.00  0.00     0.048 A 
ATOM     15  C   UNL A   1      34.581  21.972  25.154  1.00  0.00     0.071 A 
ATOM     16  N   UNL A   1      34.754  19.627  24.827  1.00  0.00    -0.218 NA
ATOM     17  C   UNL A   1      33.415  19.557  24.884  1.00  0.00     0.227 A 
ATOM     18  N   UNL A   1      32.631  20.611  25.137  1.00  0.00    -0.196 NA
BRANCH  14  19
ATOM     19  C   UNL A   1      36.826  20.955  24.802  1.00  0.00     0.053 C 
ATOM     20  C   UNL A   1      37.397  22.284  25.275  1.00  0.00     0.011 C 
ENDBRANCH  14  19
BRANCH  17  21
ATOM     21  N   UNL A   1      32.842  18.344  24.618  1.00  0.00    -0.336 N 
ATOM     22  C   UNL A   1      32.629  17.383  25.691  1.00  0.00     0.148 C 
ATOM     23  C   UNL A   1      32.974  17.814  23.269  1.00  0.00     0.148 C 
ATOM     24  C   UNL A   1      33.583  16.189  25.565  1.00  0.00     0.181 C 
ATOM     25  C   UNL A   1      33.941  16.615  23.273  1.00  0.00     0.181 C 
ATOM     26  O   UNL A   1      33.552  15.625  24.241  1.00  0.00    -0.378 OA
ENDBRANCH  17  21
ENDBRANCH   8  13
BRANCH   7  27
ATOM     27  O   UNL A   1      30.400  25.457  26.518  1.00  0.00    -0.380 OA
ATOM     28  H   UNL A   1      30.112  24.546  26.688  1.00  0.00     0.212 HD
ENDBRANCH   7  27
ENDBRANCH   4   7
ENDBRANCH   2   3
ENDBRANCH   1   2
BRANCH   1  29
ATOM     29  C   UNL A   1      31.801  30.677  26.656  1.00  0.00     0.023 C 
BRANCH  29  30
ATOM     30  C   UNL A   1      32.919  31.562  27.186  1.00  0.00     0.116 C 
BRANCH  30  31
ATOM     31  N   UNL A   1      32.486  32.919  27.484  1.00  0.00    -0.352 N 
ATOM     32  C   UNL A   1      33.122  33.861  28.258  1.00  0.00     0.251 C 
ATOM     33  H   UNL A   1      31.630  33.197  27.084  1.00  0.00     0.163 HD
ATOM     34  O   UNL A   1      32.587  34.934  28.513  1.00  0.00    -0.269 OA
BRANCH  32  35
ATOM     35  C   UNL A   1      34.452  33.543  28.810  1.00  0.00     0.039 A 
ATOM     36  C   UNL A   1      34.540  32.784  29.980  1.00  0.00     0.014 A 
ATOM     37  C   UNL A   1      35.606  33.942  28.130  1.00  0.00     0.014 A 
ATOM     38  C   UNL A   1      35.791  32.359  30.431  1.00  0.00     0.010 A 
ATOM     39  C   UNL A   1      36.843  33.464  28.544  1.00  0.00     0.010 A 
ATOM     40  C   UNL A   1      36.946  32.666  29.695  1.00  0.00    -0.014 A 
BRANCH  40  41
ATOM     41  C   UNL A   1      38.288  32.179  30.098  1.00  0.00     0.031 A 
ATOM     42  C   UNL A   1      38.791  30.872  29.553  1.00  0.00     0.074 A 
ATOM     43  C   UNL A   1      38.999  32.846  31.026  1.00  0.00     0.049 A 
ATOM     44  N   UNL A   1      39.841  30.179  29.908  1.00  0.00    -0.248 NA
ATOM     45  C   UNL A   1      37.985  30.248  28.491  1.00  0.00     0.031 C 
ATOM     46  C   UNL A   1      38.611  34.114  31.647  1.00  0.00     0.029 A 
ATOM     47  N   UNL A   1      40.193  32.533  31.626  1.00  0.00    -0.354 N 
ATOM     48  C   UNL A   1      39.801  29.022  29.141  1.00  0.00     0.074 A 
ATOM     49  C   UNL A   1      38.609  29.091  28.325  1.00  0.00     0.031 C 
ATOM     50  C   UNL A   1      39.554  34.474  32.534  1.00  0.00     0.029 A 
ATOM     51  C   UNL A   1      40.585  33.442  32.578  1.00  0.00     0.049 A 
ATOM     52  H   UNL A   1      40.717  31.732  31.397  1.00  0.00     0.167 HD
ATOM     53  C   UNL A   1      40.685  27.997  29.111  1.00  0.00     0.031 A 
ATOM     54  C   UNL A   1      41.645  33.434  33.408  1.00  0.00     0.031 A 
ATOM     55  C   UNL A   1      41.883  27.941  29.902  1.00  0.00     0.049 A 
ATOM     56  C   UNL A   1      42.611  32.283  33.360  1.00  0.00     0.074 A 
ATOM     57  C   UNL A   1      42.871  26.971  29.902  1.00  0.00     0.029 A 
ATOM     58  N   UNL A   1      42.260  28.900  30.829  1.00  0.00    -0.354 N 
ATOM     59  N   UNL A   1      42.583  31.215  32.600  1.00  0.00    -0.248 NA
ATOM     60  C   UNL A   1      43.757  32.337  34.279  1.00  0.00     0.031 C 
ATOM     61  C   UNL A   1      43.829  27.327  30.857  1.00  0.00     0.029 A 
ATOM     62  C   UNL A   1      43.459  28.539  31.417  1.00  0.00     0.049 A 
ATOM     63  H   UNL A   1      41.749  29.716  31.038  1.00  0.00     0.167 HD
ATOM     64  C   UNL A   1      43.720  30.488  32.926  1.00  0.00     0.074 A 
ATOM     65  C   UNL A   1      44.420  31.237  33.949  1.00  0.00     0.031 C 
ATOM     66  C   UNL A   1      44.149  29.308  32.420  1.00  0.00     0.031 A 
BRANCH  53  67
ATOM     67  C   UNL A   1      40.376  26.847  28.196  1.00  0.00    -0.014 A 
ATOM     68  C   UNL A   1      40.904  26.791  26.897  1.00  0.00     0.009 A 
ATOM     69  C   UNL A   1      39.566  25.794  28.649  1.00  0.00     0.009 A 
ATOM     70  C   UNL A   1      40.596  25.718  26.056  1.00  0.00     0.001 A 
ATOM     71  C   UNL A   1      39.283  24.711  27.816  1.00  0.00     0.001 A 
ATOM     72  C   UNL A   1      39.790  24.680  26.518  1.00  0.00     0.000 A 
ENDBRANCH  53  67
BRANCH  54  73
ATOM     73  C   UNL A   1      41.857  34.558  34.356  1.00  0.00    -0.014 A 
ATOM     74  C   UNL A   1      42.567  35.699  33.953  1.00  0.00     0.009 A 
ATOM     75  C   UNL A   1      41.355  34.498  35.665  1.00  0.00     0.009 A 
ATOM     76  C   UNL A   1      42.791  36.747  34.850  1.00  0.00     0.001 A 
ATOM     77  C   UNL A   1      41.559  35.558  36.551  1.00  0.00     0.001 A 
ATOM     78  C   UNL A   1      42.284  36.677  36.146  1.00  0.00     0.000 A 
ENDBRANCH  54  73
BRANCH  66  79
ATOM     79  C   UNL A   1      45.459  28.773  32.919  1.00  0.00    -0.014 A 
ATOM     80  C   UNL A   1      45.518  27.888  34.005  1.00  0.00     0.009 A 
ATOM     81  C   UNL A   1      46.642  29.105  32.240  1.00  0.00     0.009 A 
ATOM     82  C   UNL A   1      46.742  27.356  34.412  1.00  0.00     0.001 A 
ATOM     83  C   UNL A   1      47.861  28.554  32.635  1.00  0.00     0.001 A 
ATOM     84  C   UNL A   1      47.911  27.684  33.723  1.00  0.00     0.000 A 
ENDBRANCH  66  79
ENDBRANCH  40  41
ENDBRANCH  32  35
ENDBRANCH  30  31
ENDBRANCH  29  30
ENDBRANCH   1  29
TORSDOF 15
ENDMDL
MODEL 2
REMARK VINA RESULT:     -12.1      2.528      6.746
REMARK SMILES CCc1cc(N2CCC(O)(C(=O)NCCCCNC(=O)c3ccc(-c4c5nc(c(-c6ccccc6)c6ccc([nH]6)c(-c6ccccc6)c6nc(c(-c7ccccc7)c7ccc4[nH]7)C=C6)C=C5)cc3)CC2)nc(N2CCOCC2)n1
REMARK SMILES IDX 15 1 14 2 13 3 11 4 12 5 9 7 6 8 7 9 70 10 8 11 69 12 5 13
REMARK SMILES IDX 3 14 4 15 79 16 72 17 71 18 2 19 1 20 73 21 74 22 78 23
REMARK SMILES IDX 75 24 77 25 76 26 10 27 16 29 17 30 18 31 19 32 20 34 21 35
REMARK SMILES IDX 22 36 68 37 23 38 67 39 24 40 25 41 26 42 61 43 27 44 66 45
REMARK SMILES IDX 60 46 62 47 28 48 65 49 59 50 58 51 29 53 51 54 36 55 50 56
REMARK SMILES IDX 37 57 40 58 49 59 63 60 38 61 39 62 48 64 64 65 41 66 30 67
REMARK SMILES IDX 31 68 35 69 32 70 34 71 33 72 52 73 53 74 57 75 54 76 56 77
REMARK SMILES IDX 55 78 42 79 43 80 47 81 44 82 46 83 45 84
REMARK H PARENT 13 6 10 28 18 33 62 52 40 63
REMARK Flexibility Score: inf
ROOT
ATOM      1  C   UNL A   1      32.144  29.491  24.906  1.00  0.00     0.023 C 
ENDROOT
BRANCH   1   2
ATOM      2  C   UNL A   1      31.335  28.628  23.937  1.00  0.00     0.116 C 
BRANCH   2   3
ATOM      3  N   UNL A   1      30.510  27.668  24.638  1.00  0.00    -0.354 N 
ATOM      4  C   UNL A   1      30.561  26.306  24.652  1.00  0.00     0.252 C 
ATOM      5  O   UNL A   1      29.736  25.738  25.376  1.00  0.00    -0.272 OA
ATOM      6  H   UNL A   1      29.800  28.062  25.195  1.00  0.00     0.163 HD
BRANCH   4   7
ATOM      7  C   UNL A   1      31.610  25.513  23.814  1.00  0.00     0.146 C 
ATOM      8  N   UNL A   1      33.528  23.413  23.666  1.00  0.00    -0.356 N 
ATOM      9  C   UNL A   1      32.288  23.240  22.947  1.00  0.00     0.121 C 
ATOM     10  C   UNL A   1      34.040  24.746  23.900  1.00  0.00     0.121 C 
ATOM     11  C   UNL A   1      31.201  24.040  23.660  1.00  0.00     0.067 C 
ATOM     12  C   UNL A   1      32.965  25.600  24.551  1.00  0.00     0.067 C 
BRANCH   8  13
ATOM     13  C   UNL A   1      34.268  22.333  24.075  1.00  0.00     0.134 A 
ATOM     14  C   UNL A   1      36.257  21.377  24.868  1.00  0.00     0.048 A 
ATOM     15  C   UNL A   1      35.602  22.484  24.384  1.00  0.00     0.071 A 
ATOM     16  N   UNL A   1      35.629  20.197  25.024  1.00  0.00    -0.218 NA
ATOM     17  C   UNL A   1      34.353  20.107  24.621  1.00  0.00     0.227 A 
ATOM     18  N   UNL A   1      33.645  21.149  24.172  1.00  0.00    -0.196 NA
BRANCH  14  19
ATOM     19  C   UNL A   1      37.711  21.489  25.255  1.00  0.00     0.053 C 
ATOM     20  C   UNL A   1      38.085  22.804  25.923  1.00  0.00     0.011 C 
ENDBRANCH  14  19
BRANCH  17  21
ATOM     21  N   UNL A   1      33.782  18.864  24.632  1.00  0.00    -0.336 N 
ATOM     22  C   UNL A   1      34.618  17.673  24.584  1.00  0.00     0.148 C 
ATOM     23  C   UNL A   1      32.421  18.739  24.133  1.00  0.00     0.148 C 
ATOM     24  C   UNL A   1      34.498  16.964  23.230  1.00  0.00     0.181 C 
ATOM     25  C   UNL A   1      32.428  18.000  22.782  1.00  0.00     0.181 C 
ATOM     26  O   UNL A   1      33.122  16.744  22.869  1.00  0.00    -0.378 OA
ENDBRANCH  17  21
ENDBRANCH   8  13
BRANCH   7  27
ATOM     27  O   UNL A   1      31.750  26.071  22.500  1.00  0.00    -0.380 OA
ATOM     28  H   UNL A   1      31.246  25.538  21.865  1.00  0.00     0.212 HD
ENDBRANCH   7  27
ENDBRANCH   4   7
ENDBRANCH   2   3
ENDBRANCH   1   2
BRANCH   1  29
ATOM     29  C   UNL A   1      32.347  28.886  26.295  1.00  0.00     0.023 C 
BRANCH  29  30
ATOM     30  C   UNL A   1      33.676  29.218  26.957  1.00  0.00     0.116 C 
BRANCH  30  31
ATOM     31  N   UNL A   1      33.662  30.488  27.669  1.00  0.00    -0.352 N 
ATOM     32  C   UNL A   1      34.642  31.019  28.472  1.00  0.00     0.251 C 
ATOM     33  H   UNL A   1      32.849  31.033  27.563  1.00  0.00     0.163 HD
ATOM     34  O   UNL A   1      34.451  32.056  29.099  1.00  0.00    -0.269 OA
BRANCH  32  35
ATOM     35  C   UNL A   1      35.923  30.299  28.599  1.00  0.00     0.039 A 
ATOM     36  C   UNL A   1      36.805  30.282  27.516  1.00  0.00     0.014 A 
ATOM     37  C   UNL A   1      36.272  29.700  29.813  1.00  0.00     0.014 A 
ATOM     38  C   UNL A   1      38.076  29.726  27.674  1.00  0.00     0.010 A 
ATOM     39  C   UNL A   1      37.558  29.206  29.987  1.00  0.00     0.010 A 
ATOM     40  C   UNL A   1      38.473  29.218  28.921  1.00  0.00    -0.014 A 
BRANCH  40  41
ATOM     41  C   UNL A   1      39.835  28.680  29.153  1.00  0.00     0.031 A 
ATOM     42  C   UNL A   1      40.910  29.595  29.670  1.00  0.00     0.074 A 
ATOM     43  C   UNL A   1      40.132  27.415  28.801  1.00  0.00     0.049 A 
ATOM     44  N   UNL A   1      42.196  29.384  29.771  1.00  0.00    -0.248 NA
ATOM     45  C   UNL A   1      40.481  30.936  30.098  1.00  0.00     0.031 C 
ATOM     46  C   UNL A   1      39.184  26.434  28.268  1.00  0.00     0.029 A 
ATOM     47  N   UNL A   1      41.330  26.745  28.818  1.00  0.00    -0.354 N 
ATOM     48  C   UNL A   1      42.734  30.576  30.238  1.00  0.00     0.074 A 
ATOM     49  C   UNL A   1      41.641  31.515  30.370  1.00  0.00     0.031 C 
ATOM     50  C   UNL A   1      39.836  25.287  28.018  1.00  0.00     0.029 A 
ATOM     51  C   UNL A   1      41.251  25.465  28.327  1.00  0.00     0.049 A 
ATOM     52  H   UNL A   1      42.166  27.145  29.150  1.00  0.00     0.167 HD
ATOM     53  C   UNL A   1      44.022  30.860  30.539  1.00  0.00     0.031 A 
ATOM     54  C   UNL A   1      42.215  24.547  28.127  1.00  0.00     0.031 A 
ATOM     55  C   UNL A   1      45.103  29.918  30.433  1.00  0.00     0.049 A 
ATOM     56  C   UNL A   1      43.640  24.887  28.465  1.00  0.00     0.074 A 
ATOM     57  C   UNL A   1      46.435  30.094  30.768  1.00  0.00     0.029 A 
ATOM     58  N   UNL A   1      44.973  28.622  29.963  1.00  0.00    -0.354 N 
ATOM     59  N   UNL A   1      44.129  26.005  28.944  1.00  0.00    -0.248 NA
ATOM     60  C   UNL A   1      44.645  23.838  28.240  1.00  0.00     0.031 C 
ATOM     61  C   UNL A   1      47.119  28.912  30.465  1.00  0.00     0.029 A 
ATOM     62  C   UNL A   1      46.203  27.989  29.986  1.00  0.00     0.049 A 
ATOM     63  H   UNL A   1      44.131  28.213  29.658  1.00  0.00     0.167 HD
ATOM     64  C   UNL A   1      45.489  25.783  29.108  1.00  0.00     0.074 A 
ATOM     65  C   UNL A   1      45.750  24.425  28.680  1.00  0.00     0.031 C 
ATOM     66  C   UNL A   1      46.438  26.630  29.574  1.00  0.00     0.031 A 
BRANCH  53  67
ATOM     67  C   UNL A   1      44.330  32.254  31.003  1.00  0.00    -0.014 A 
ATOM     68  C   UNL A   1      44.310  32.587  32.367  1.00  0.00     0.009 A 
ATOM     69  C   UNL A   1      44.669  33.242  30.066  1.00  0.00     0.009 A 
ATOM     70  C   UNL A   1      44.588  33.893  32.778  1.00  0.00     0.001 A 
ATOM     71  C   UNL A   1      44.973  34.539  30.483  1.00  0.00     0.001 A 
ATOM     72  C   UNL A   1      44.921  34.865  31.837  1.00  0.00     0.000 A 
ENDBRANCH  53  67
BRANCH  54  73
ATOM     73  C   UNL A   1      41.867  23.208  27.584  1.00  0.00    -0.014 A 
ATOM     74  C   UNL A   1      41.935  22.966  26.203  1.00  0.00     0.009 A 
ATOM     75  C   UNL A   1      41.465  22.169  28.437  1.00  0.00     0.009 A 
ATOM     76  C   UNL A   1      41.584  21.717  25.686  1.00  0.00     0.001 A 
ATOM     77  C   UNL A   1      41.140  20.914  27.919  1.00  0.00     0.001 A 
ATOM     78  C   UNL A   1      41.190  20.691  26.544  1.00  0.00     0.000 A 
ENDBRANCH  54  73
BRANCH  66  79
ATOM     79  C   UNL A   1      47.837  26.102  29.702  1.00  0.00    -0.014 A 
ATOM     80  C   UNL A   1      48.670  25.969  28.582  1.00  0.00     0.009 A 
ATOM     81  C   UNL A   1      48.349  25.806  30.975  1.00  0.00     0.009 A 
ATOM     82  C   UNL A   1      49.987  25.534  28.734  1.00  0.00     0.001 A 
ATOM     83  C   UNL A   1      49.673  25.394  31.126  1.00  0.00     0.001 A 
ATOM     84  C   UNL A   1      50.489  25.253  30.005  1.00  0.00     0.000 A 
ENDBRANCH  66  79
ENDBRANCH  40  41
ENDBRANCH  32  35
ENDBRANCH  30  31
ENDBRANCH  29  30
ENDBRANCH   1  29
TORSDOF 15
ENDMDL
MODEL 3
REMARK VINA RESULT:     -11.8      0.540      5.798
REMARK SMILES CCc1cc(N2CCC(O)(C(=O)NCCCCNC(=O)c3ccc(-c4c5nc(c(-c6ccccc6)c6ccc([nH]6)c(-c6ccccc6)c6nc(c(-c7ccccc7)c7ccc4[nH]7)C=C6)C=C5)cc3)CC2)nc(N2CCOCC2)n1
REMARK SMILES IDX 15 1 14 2 13 3 11 4 12 5 9 7 6 8 7 9 70 10 8 11 69 12 5 13
REMARK SMILES IDX 3 14 4 15 79 16 72 17 71 18 2 19 1 20 73 21 74 22 78 23
REMARK SMILES IDX 75 24 77 25 76 26 10 27 16 29 17 30 18 31 19 32 20 34 21 35
REMARK SMILES IDX 22 36 68 37 23 38 67 39 24 40 25 41 26 42 61 43 27 44 66 45
REMARK SMILES IDX 60 46 62 47 28 48 65 49 59 50 58 51 29 53 51 54 36 55 50 56
REMARK SMILES IDX 37 57 40 58 49 59 63 60 38 61 39 62 48 64 64 65 41 66 30 67
REMARK SMILES IDX 31 68 35 69 32 70 34 71 33 72 52 73 53 74 57 75 54 76 56 77
REMARK SMILES IDX 55 78 42 79 43 80 47 81 44 82 46 83 45 84
REMARK H PARENT 13 6 10 28 18 33 62 52 40 63
REMARK Flexibility Score: inf
ROOT
ATOM      1  C   UNL A   1      31.585  30.366  25.631  1.00  0.00     0.023 C 
ENDROOT
BRANCH   1   2
ATOM      2  C   UNL A   1      31.675  28.844  25.753  1.00  0.00     0.116 C 
BRANCH   2   3
ATOM      3  N   UNL A   1      31.079  28.182  24.612  1.00  0.00    -0.354 N 
ATOM      4  C   UNL A   1      30.932  26.854  24.342  1.00  0.00     0.252 C 
ATOM      5  O   UNL A   1      30.350  26.574  23.289  1.00  0.00    -0.272 OA
ATOM      6  H   UNL A   1      30.723  28.787  23.922  1.00  0.00     0.163 HD
BRANCH   4   7
ATOM      7  C   UNL A   1      31.455  25.753  25.315  1.00  0.00     0.146 C 
ATOM      8  N   UNL A   1      32.798  23.270  25.690  1.00  0.00    -0.356 N 
ATOM      9  C   UNL A   1      33.482  24.472  26.106  1.00  0.00     0.121 C 
ATOM     10  C   UNL A   1      31.351  23.233  25.691  1.00  0.00     0.121 C 
ATOM     11  C   UNL A   1      32.985  25.631  25.247  1.00  0.00     0.067 C 
ATOM     12  C   UNL A   1      30.809  24.412  24.899  1.00  0.00     0.067 C 
BRANCH   8  13
ATOM     13  C   UNL A   1      33.494  22.135  25.359  1.00  0.00     0.134 A 
ATOM     14  C   UNL A   1      35.499  20.995  24.931  1.00  0.00     0.048 A 
ATOM     15  C   UNL A   1      34.858  22.187  25.176  1.00  0.00     0.071 A 
ATOM     16  N   UNL A   1      34.824  19.833  24.861  1.00  0.00    -0.218 NA
ATOM     17  C   UNL A   1      33.487  19.875  24.964  1.00  0.00     0.227 A 
ATOM     18  N   UNL A   1      32.802  20.992  25.235  1.00  0.00    -0.196 NA
BRANCH  14  19
ATOM     19  C   UNL A   1      36.997  20.984  24.756  1.00  0.00     0.053 C 
ATOM     20  C   UNL A   1      37.729  22.069  25.531  1.00  0.00     0.011 C 
ENDBRANCH  14  19
BRANCH  17  21
ATOM     21  N   UNL A   1      32.807  18.713  24.727  1.00  0.00    -0.336 N 
ATOM     22  C   UNL A   1      32.685  17.708  25.773  1.00  0.00     0.148 C 
ATOM     23  C   UNL A   1      32.714  18.251  23.350  1.00  0.00     0.148 C 
ATOM     24  C   UNL A   1      33.534  16.472  25.457  1.00  0.00     0.181 C 
ATOM     25  C   UNL A   1      33.594  17.001  23.160  1.00  0.00     0.181 C 
ATOM     26  O   UNL A   1      33.282  15.983  24.126  1.00  0.00    -0.378 OA
ENDBRANCH  17  21
ENDBRANCH   8  13
BRANCH   7  27
ATOM     27  O   UNL A   1      31.096  26.049  26.672  1.00  0.00    -0.380 OA
ATOM     28  H   UNL A   1      31.090  25.230  27.192  1.00  0.00     0.212 HD
ENDBRANCH   7  27
ENDBRANCH   4   7
ENDBRANCH   2   3
ENDBRANCH   1   2
BRANCH   1  29
ATOM     29  C   UNL A   1      31.729  31.129  26.948  1.00  0.00     0.023 C 
BRANCH  29  30
ATOM     30  C   UNL A   1      32.905  32.092  27.012  1.00  0.00     0.116 C 
BRANCH  30  31
ATOM     31  N   UNL A   1      32.535  33.422  27.474  1.00  0.00    -0.352 N 
ATOM     32  C   UNL A   1      33.180  34.206  28.400  1.00  0.00     0.251 C 
ATOM     33  H   UNL A   1      31.721  33.807  27.075  1.00  0.00     0.163 HD
ATOM     34  O   UNL A   1      32.694  35.268  28.776  1.00  0.00    -0.269 OA
BRANCH  32  35
ATOM     35  C   UNL A   1      34.456  33.731  28.967  1.00  0.00     0.039 A 
ATOM     36  C   UNL A   1      34.446  33.042  30.182  1.00  0.00     0.014 A 
ATOM     37  C   UNL A   1      35.647  33.912  28.259  1.00  0.00     0.014 A 
ATOM     38  C   UNL A   1      35.627  32.466  30.655  1.00  0.00     0.010 A 
ATOM     39  C   UNL A   1      36.805  33.284  28.698  1.00  0.00     0.010 A 
ATOM     40  C   UNL A   1      36.805  32.552  29.896  1.00  0.00    -0.014 A 
BRANCH  40  41
ATOM     41  C   UNL A   1      38.065  31.899  30.325  1.00  0.00     0.031 A 
ATOM     42  C   UNL A   1      38.985  32.620  31.270  1.00  0.00     0.074 A 
ATOM     43  C   UNL A   1      38.433  30.721  29.787  1.00  0.00     0.049 A 
ATOM     44  N   UNL A   1      40.206  32.317  31.626  1.00  0.00    -0.248 NA
ATOM     45  C   UNL A   1      38.472  33.864  31.865  1.00  0.00     0.031 C 
ATOM     46  C   UNL A   1      37.640  29.931  28.842  1.00  0.00     0.029 A 
ATOM     47  N   UNL A   1      39.586  29.993  29.943  1.00  0.00    -0.354 N 
ATOM     48  C   UNL A   1      40.619  33.351  32.457  1.00  0.00     0.074 A 
ATOM     49  C   UNL A   1      39.533  34.303  32.525  1.00  0.00     0.031 C 
ATOM     50  C   UNL A   1      38.327  28.825  28.511  1.00  0.00     0.029 A 
ATOM     51  C   UNL A   1      39.624  28.851  29.180  1.00  0.00     0.049 A 
ATOM     52  H   UNL A   1      40.317  30.264  30.544  1.00  0.00     0.167 HD
ATOM     53  C   UNL A   1      41.796  33.489  33.111  1.00  0.00     0.031 A 
ATOM     54  C   UNL A   1      40.602  27.940  29.021  1.00  0.00     0.031 A 
ATOM     55  C   UNL A   1      42.864  32.529  33.064  1.00  0.00     0.049 A 
ATOM     56  C   UNL A   1      41.902  28.117  29.756  1.00  0.00     0.074 A 
ATOM     57  C   UNL A   1      44.073  32.552  33.737  1.00  0.00     0.029 A 
ATOM     58  N   UNL A   1      42.846  31.370  32.305  1.00  0.00    -0.354 N 
ATOM     59  N   UNL A   1      42.264  29.079  30.570  1.00  0.00    -0.248 NA
ATOM     60  C   UNL A   1      42.926  27.082  29.554  1.00  0.00     0.031 C 
ATOM     61  C   UNL A   1      44.804  31.422  33.356  1.00  0.00     0.029 A 
ATOM     62  C   UNL A   1      44.030  30.675  32.483  1.00  0.00     0.049 A 
ATOM     63  H   UNL A   1      42.103  31.084  31.726  1.00  0.00     0.167 HD
ATOM     64  C   UNL A   1      43.541  28.749  31.001  1.00  0.00     0.074 A 
ATOM     65  C   UNL A   1      43.892  27.497  30.362  1.00  0.00     0.031 C 
ATOM     66  C   UNL A   1      44.351  29.421  31.853  1.00  0.00     0.031 A 
BRANCH  53  67
ATOM     67  C   UNL A   1      41.987  34.735  33.928  1.00  0.00    -0.014 A 
ATOM     68  C   UNL A   1      41.612  34.782  35.279  1.00  0.00     0.009 A 
ATOM     69  C   UNL A   1      42.575  35.867  33.343  1.00  0.00     0.009 A 
ATOM     70  C   UNL A   1      41.788  35.954  36.019  1.00  0.00     0.001 A 
ATOM     71  C   UNL A   1      42.774  37.027  34.093  1.00  0.00     0.001 A 
ATOM     72  C   UNL A   1      42.371  37.072  35.427  1.00  0.00     0.000 A 
ENDBRANCH  53  67
BRANCH  54  73
ATOM     73  C   UNL A   1      40.391  26.768  28.132  1.00  0.00    -0.014 A 
ATOM     74  C   UNL A   1      40.887  26.778  26.820  1.00  0.00     0.009 A 
ATOM     75  C   UNL A   1      39.694  25.638  28.587  1.00  0.00     0.009 A 
ATOM     76  C   UNL A   1      40.668  25.689  25.973  1.00  0.00     0.001 A 
ATOM     77  C   UNL A   1      39.500  24.541  27.746  1.00  0.00     0.001 A 
ATOM     78  C   UNL A   1      39.978  24.570  26.437  1.00  0.00     0.000 A 
ENDBRANCH  54  73
BRANCH  66  79
ATOM     79  C   UNL A   1      45.672  28.797  32.193  1.00  0.00    -0.014 A 
ATOM     80  C   UNL A   1      46.831  29.103  31.465  1.00  0.00     0.009 A 
ATOM     81  C   UNL A   1      45.768  27.948  33.308  1.00  0.00     0.009 A 
ATOM     82  C   UNL A   1      48.060  28.557  31.838  1.00  0.00     0.001 A 
ATOM     83  C   UNL A   1      47.002  27.423  33.692  1.00  0.00     0.001 A 
ATOM     84  C   UNL A   1      48.146  27.724  32.954  1.00  0.00     0.000 A 
ENDBRANCH  66  79
ENDBRANCH  40  41
ENDBRANCH  32  35
ENDBRANCH  30  31
ENDBRANCH  29  30
ENDBRANCH   1  29
TORSDOF 15
ENDMDL
