MODEL 1
REMARK VINA RESULT:     -11.6      0.000      0.000
REMARK SMILES Cn1nc(N2CCC(CC(=O)NCCCCNC(=O)c3ccc(-c4c5nc(c(-c6ccccc6)c6ccc([nH]6)c(-c6ccccc6)c6nc(c(-c7ccccc7)c7ccc4[nH]7)C=C6)C=C5)cc3)CC2)c(=O)n(C)c1=O
REMARK SMILES IDX 14 1 13 2 12 3 10 4 11 5 9 7 8 8 5 9 6 10 69 11 7 12 68 13
REMARK SMILES IDX 4 14 1 15 2 16 3 17 74 18 72 19 75 20 70 21 73 22 71 23
REMARK SMILES IDX 15 24 16 25 17 26 18 27 19 29 20 30 21 31 67 32 22 33 66 34
REMARK SMILES IDX 23 35 24 36 25 37 60 38 26 39 65 40 59 41 61 42 27 43 64 44
REMARK SMILES IDX 58 45 57 46 28 48 50 49 35 50 49 51 36 52 39 53 48 54 62 55
REMARK SMILES IDX 37 56 38 57 47 59 63 60 40 61 29 62 30 63 34 64 31 65 33 66
REMARK SMILES IDX 32 67 51 68 52 69 56 70 53 71 55 72 54 73 41 74 42 75 46 76
REMARK SMILES IDX 43 77 45 78 44 79
REMARK H PARENT 12 6 17 28 61 47 39 58
REMARK Flexibility Score: inf
ROOT
ATOM      1  C   UNL A   1      37.254  20.908  24.652  1.00  0.00     0.023 C 
ENDROOT
BRANCH   1   2
ATOM      2  C   UNL A   1      36.008  21.089  25.525  1.00  0.00     0.116 C 
BRANCH   2   3
ATOM      3  N   UNL A   1      34.973  20.126  25.187  1.00  0.00    -0.356 N 
ATOM      4  C   UNL A   1      33.614  20.251  25.194  1.00  0.00     0.220 C 
ATOM      5  O   UNL A   1      32.937  19.255  24.933  1.00  0.00    -0.275 OA
ATOM      6  H   UNL A   1      35.307  19.242  24.910  1.00  0.00     0.163 HD
BRANCH   4   7
ATOM      7  C   UNL A   1      32.952  21.580  25.521  1.00  0.00     0.103 C 
BRANCH   7   8
ATOM      8  C   UNL A   1      32.496  22.379  24.281  1.00  0.00     0.002 C 
ATOM      9  N   UNL A   1      31.732  25.006  23.368  1.00  0.00    -0.351 N 
ATOM     10  C   UNL A   1      30.675  24.032  23.501  1.00  0.00     0.118 C 
ATOM     11  C   UNL A   1      33.007  24.482  22.912  1.00  0.00     0.118 C 
ATOM     12  C   UNL A   1      31.103  22.977  24.500  1.00  0.00     0.025 C 
ATOM     13  C   UNL A   1      33.525  23.480  23.949  1.00  0.00     0.025 C 
BRANCH   9  14
ATOM     14  C   UNL A   1      31.583  26.308  23.810  1.00  0.00     0.215 A 
ATOM     15  C   UNL A   1      31.962  28.245  26.812  1.00  0.00     0.180 C 
ATOM     16  N   UNL A   1      31.610  27.942  25.433  1.00  0.00    -0.216 N 
ATOM     17  N   UNL A   1      31.787  26.634  25.054  1.00  0.00    -0.145 NA
ATOM     18  C   UNL A   1      31.160  28.965  24.600  1.00  0.00     0.346 A 
ATOM     19  N   UNL A   1      30.887  28.613  23.294  1.00  0.00    -0.259 N 
ATOM     20  O   UNL A   1      31.028  30.124  25.002  1.00  0.00    -0.246 OA
ATOM     21  C   UNL A   1      31.129  27.354  22.793  1.00  0.00     0.299 A 
ATOM     22  C   UNL A   1      30.360  29.598  22.375  1.00  0.00     0.159 C 
ATOM     23  O   UNL A   1      30.985  27.023  21.620  1.00  0.00    -0.265 OA
ENDBRANCH   9  14
ENDBRANCH   7   8
ENDBRANCH   4   7
ENDBRANCH   2   3
ENDBRANCH   1   2
BRANCH   1  24
ATOM     24  C   UNL A   1      38.112  19.705  24.998  1.00  0.00     0.023 C 
BRANCH  24  25
ATOM     25  C   UNL A   1      39.278  20.036  25.908  1.00  0.00     0.116 C 
BRANCH  25  26
ATOM     26  N   UNL A   1      40.314  19.008  25.901  1.00  0.00    -0.352 N 
ATOM     27  C   UNL A   1      41.674  19.144  26.058  1.00  0.00     0.251 C 
ATOM     28  H   UNL A   1      39.994  18.087  25.764  1.00  0.00     0.163 HD
ATOM     29  O   UNL A   1      42.424  18.194  25.891  1.00  0.00    -0.269 OA
BRANCH  27  30
ATOM     30  C   UNL A   1      42.214  20.473  26.401  1.00  0.00     0.039 A 
ATOM     31  C   UNL A   1      42.577  21.349  25.376  1.00  0.00     0.014 A 
ATOM     32  C   UNL A   1      42.279  20.872  27.737  1.00  0.00     0.014 A 
ATOM     33  C   UNL A   1      42.928  22.660  25.694  1.00  0.00     0.010 A 
ATOM     34  C   UNL A   1      42.513  22.203  28.039  1.00  0.00     0.010 A 
ATOM     35  C   UNL A   1      42.859  23.105  27.024  1.00  0.00    -0.014 A 
BRANCH  35  36
ATOM     36  C   UNL A   1      43.202  24.497  27.394  1.00  0.00     0.031 A 
ATOM     37  C   UNL A   1      44.641  24.934  27.341  1.00  0.00     0.074 A 
ATOM     38  C   UNL A   1      42.246  25.340  27.826  1.00  0.00     0.049 A 
ATOM     39  N   UNL A   1      45.167  26.080  27.687  1.00  0.00    -0.248 NA
ATOM     40  C   UNL A   1      45.622  23.940  26.872  1.00  0.00     0.031 C 
ATOM     41  C   UNL A   1      40.823  25.018  27.965  1.00  0.00     0.029 A 
ATOM     42  N   UNL A   1      42.330  26.650  28.224  1.00  0.00    -0.354 N 
ATOM     43  C   UNL A   1      46.535  25.931  27.502  1.00  0.00     0.074 A 
ATOM     44  C   UNL A   1      46.767  24.570  27.080  1.00  0.00     0.031 C 
ATOM     45  C   UNL A   1      40.162  26.116  28.367  1.00  0.00     0.029 A 
ATOM     46  C   UNL A   1      41.117  27.205  28.549  1.00  0.00     0.049 A 
ATOM     47  H   UNL A   1      43.179  27.145  28.273  1.00  0.00     0.167 HD
ATOM     48  C   UNL A   1      47.512  26.856  27.633  1.00  0.00     0.031 A 
ATOM     49  C   UNL A   1      40.811  28.457  28.939  1.00  0.00     0.031 A 
ATOM     50  C   UNL A   1      47.277  28.222  28.003  1.00  0.00     0.049 A 
ATOM     51  C   UNL A   1      41.913  29.470  29.075  1.00  0.00     0.074 A 
ATOM     52  C   UNL A   1      48.187  29.258  28.095  1.00  0.00     0.029 A 
ATOM     53  N   UNL A   1      46.035  28.740  28.330  1.00  0.00    -0.354 N 
ATOM     54  N   UNL A   1      43.196  29.329  28.844  1.00  0.00    -0.248 NA
ATOM     55  C   UNL A   1      41.525  30.814  29.526  1.00  0.00     0.031 C 
ATOM     56  C   UNL A   1      47.498  30.401  28.511  1.00  0.00     0.029 A 
ATOM     57  C   UNL A   1      46.156  30.082  28.643  1.00  0.00     0.049 A 
ATOM     58  H   UNL A   1      45.193  28.231  28.339  1.00  0.00     0.167 HD
ATOM     59  C   UNL A   1      43.767  30.566  29.108  1.00  0.00     0.074 A 
ATOM     60  C   UNL A   1      42.688  31.452  29.500  1.00  0.00     0.031 C 
ATOM     61  C   UNL A   1      45.067  30.937  29.035  1.00  0.00     0.031 A 
BRANCH  48  62
ATOM     62  C   UNL A   1      48.917  26.415  27.345  1.00  0.00    -0.014 A 
ATOM     63  C   UNL A   1      49.756  25.960  28.376  1.00  0.00     0.009 A 
ATOM     64  C   UNL A   1      49.406  26.442  26.030  1.00  0.00     0.009 A 
ATOM     65  C   UNL A   1      51.069  25.578  28.100  1.00  0.00     0.001 A 
ATOM     66  C   UNL A   1      50.712  26.034  25.754  1.00  0.00     0.001 A 
ATOM     67  C   UNL A   1      51.545  25.612  26.791  1.00  0.00     0.000 A 
ENDBRANCH  48  62
BRANCH  49  68
ATOM     68  C   UNL A   1      39.396  28.834  29.186  1.00  0.00    -0.014 A 
ATOM     69  C   UNL A   1      38.614  29.354  28.144  1.00  0.00     0.009 A 
ATOM     70  C   UNL A   1      38.817  28.669  30.454  1.00  0.00     0.009 A 
ATOM     71  C   UNL A   1      37.284  29.717  28.369  1.00  0.00     0.001 A 
ATOM     72  C   UNL A   1      37.480  29.014  30.671  1.00  0.00     0.001 A 
ATOM     73  C   UNL A   1      36.717  29.542  29.630  1.00  0.00     0.000 A 
ENDBRANCH  49  68
BRANCH  61  74
ATOM     74  C   UNL A   1      45.401  32.356  29.384  1.00  0.00    -0.014 A 
ATOM     75  C   UNL A   1      45.798  32.697  30.685  1.00  0.00     0.009 A 
ATOM     76  C   UNL A   1      45.407  33.340  28.384  1.00  0.00     0.009 A 
ATOM     77  C   UNL A   1      46.183  34.005  30.981  1.00  0.00     0.001 A 
ATOM     78  C   UNL A   1      45.814  34.641  28.679  1.00  0.00     0.001 A 
ATOM     79  C   UNL A   1      46.199  34.973  29.977  1.00  0.00     0.000 A 
ENDBRANCH  61  74
ENDBRANCH  35  36
ENDBRANCH  27  30
ENDBRANCH  25  26
ENDBRANCH  24  25
ENDBRANCH   1  24
TORSDOF 13
ENDMDL
MODEL 2
REMARK VINA RESULT:     -11.5      3.703      9.189
REMARK SMILES Cn1nc(N2CCC(CC(=O)NCCCCNC(=O)c3ccc(-c4c5nc(c(-c6ccccc6)c6ccc([nH]6)c(-c6ccccc6)c6nc(c(-c7ccccc7)c7ccc4[nH]7)C=C6)C=C5)cc3)CC2)c(=O)n(C)c1=O
REMARK SMILES IDX 14 1 13 2 12 3 10 4 11 5 9 7 8 8 5 9 6 10 69 11 7 12 68 13
REMARK SMILES IDX 4 14 1 15 2 16 3 17 74 18 72 19 75 20 70 21 73 22 71 23
REMARK SMILES IDX 15 24 16 25 17 26 18 27 19 29 20 30 21 31 67 32 22 33 66 34
REMARK SMILES IDX 23 35 24 36 25 37 60 38 26 39 65 40 59 41 61 42 27 43 64 44
REMARK SMILES IDX 58 45 57 46 28 48 50 49 35 50 49 51 36 52 39 53 48 54 62 55
REMARK SMILES IDX 37 56 38 57 47 59 63 60 40 61 29 62 30 63 34 64 31 65 33 66
REMARK SMILES IDX 32 67 51 68 52 69 56 70 53 71 55 72 54 73 41 74 42 75 46 76
REMARK SMILES IDX 43 77 45 78 44 79
REMARK H PARENT 12 6 17 28 61 47 39 58
REMARK Flexibility Score: inf
ROOT
ATOM      1  C   UNL A   1      31.122  30.610  25.373  1.00  0.00     0.023 C 
ENDROOT
BRANCH   1   2
ATOM      2  C   UNL A   1      31.206  29.319  24.553  1.00  0.00     0.116 C 
BRANCH   2   3
ATOM      3  N   UNL A   1      32.346  29.331  23.651  1.00  0.00    -0.356 N 
ATOM      4  C   UNL A   1      33.531  28.656  23.716  1.00  0.00     0.220 C 
ATOM      5  O   UNL A   1      34.382  28.891  22.857  1.00  0.00    -0.275 OA
ATOM      6  H   UNL A   1      32.248  29.921  22.870  1.00  0.00     0.163 HD
BRANCH   4   7
ATOM      7  C   UNL A   1      33.796  27.645  24.820  1.00  0.00     0.103 C 
BRANCH   7   8
ATOM      8  C   UNL A   1      32.942  26.363  24.721  1.00  0.00     0.002 C 
ATOM      9  N   UNL A   1      33.078  23.482  24.705  1.00  0.00    -0.351 N 
ATOM     10  C   UNL A   1      32.798  24.125  23.444  1.00  0.00     0.118 C 
ATOM     11  C   UNL A   1      32.495  24.120  25.872  1.00  0.00     0.118 C 
ATOM     12  C   UNL A   1      33.331  25.543  23.487  1.00  0.00     0.025 C 
ATOM     13  C   UNL A   1      33.086  25.527  26.010  1.00  0.00     0.025 C 
BRANCH   9  14
ATOM     14  C   UNL A   1      33.978  22.437  24.807  1.00  0.00     0.215 A 
ATOM     15  C   UNL A   1      37.501  21.886  25.253  1.00  0.00     0.180 C 
ATOM     16  N   UNL A   1      36.101  21.567  25.010  1.00  0.00    -0.216 N 
ATOM     17  N   UNL A   1      35.257  22.648  24.928  1.00  0.00    -0.145 NA
ATOM     18  C   UNL A   1      35.710  20.233  24.912  1.00  0.00     0.346 A 
ATOM     19  N   UNL A   1      34.362  20.006  24.725  1.00  0.00    -0.259 N 
ATOM     20  O   UNL A   1      36.519  19.307  25.001  1.00  0.00    -0.246 OA
ATOM     21  C   UNL A   1      33.425  21.015  24.731  1.00  0.00     0.299 A 
ATOM     22  C   UNL A   1      33.873  18.655  24.554  1.00  0.00     0.159 C 
ATOM     23  O   UNL A   1      32.212  20.849  24.658  1.00  0.00    -0.265 OA
ENDBRANCH   9  14
ENDBRANCH   7   8
ENDBRANCH   4   7
ENDBRANCH   2   3
ENDBRANCH   1   2
BRANCH   1  24
ATOM     24  C   UNL A   1      31.774  30.546  26.741  1.00  0.00     0.023 C 
BRANCH  24  25
ATOM     25  C   UNL A   1      32.935  31.507  26.904  1.00  0.00     0.116 C 
BRANCH  25  26
ATOM     26  N   UNL A   1      32.509  32.862  27.239  1.00  0.00    -0.352 N 
ATOM     27  C   UNL A   1      33.087  33.766  28.100  1.00  0.00     0.251 C 
ATOM     28  H   UNL A   1      31.693  33.172  26.785  1.00  0.00     0.163 HD
ATOM     29  O   UNL A   1      32.528  34.818  28.375  1.00  0.00    -0.269 OA
BRANCH  27  30
ATOM     30  C   UNL A   1      34.384  33.426  28.714  1.00  0.00     0.039 A 
ATOM     31  C   UNL A   1      34.406  32.722  29.919  1.00  0.00     0.014 A 
ATOM     32  C   UNL A   1      35.570  33.734  28.045  1.00  0.00     0.014 A 
ATOM     33  C   UNL A   1      35.623  32.255  30.412  1.00  0.00     0.010 A 
ATOM     34  C   UNL A   1      36.760  33.169  28.474  1.00  0.00     0.010 A 
ATOM     35  C   UNL A   1      36.802  32.442  29.672  1.00  0.00    -0.014 A 
BRANCH  35  36
ATOM     36  C   UNL A   1      38.108  31.939  30.154  1.00  0.00     0.031 A 
ATOM     37  C   UNL A   1      38.629  30.631  29.626  1.00  0.00     0.074 A 
ATOM     38  C   UNL A   1      38.791  32.618  31.095  1.00  0.00     0.049 A 
ATOM     39  N   UNL A   1      39.710  29.977  29.963  1.00  0.00    -0.248 NA
ATOM     40  C   UNL A   1      37.807  29.948  28.609  1.00  0.00     0.031 C 
ATOM     41  C   UNL A   1      38.366  33.874  31.718  1.00  0.00     0.029 A 
ATOM     42  N   UNL A   1      39.996  32.344  31.689  1.00  0.00    -0.354 N 
ATOM     43  C   UNL A   1      39.681  28.803  29.223  1.00  0.00     0.074 A 
ATOM     44  C   UNL A   1      38.447  28.799  28.471  1.00  0.00     0.031 C 
ATOM     45  C   UNL A   1      39.321  34.287  32.569  1.00  0.00     0.029 A 
ATOM     46  C   UNL A   1      40.404  33.309  32.577  1.00  0.00     0.049 A 
ATOM     47  H   UNL A   1      40.519  31.532  31.498  1.00  0.00     0.167 HD
ATOM     48  C   UNL A   1      40.615  27.829  29.143  1.00  0.00     0.031 A 
ATOM     49  C   UNL A   1      41.533  33.396  33.306  1.00  0.00     0.031 A 
ATOM     50  C   UNL A   1      41.863  27.857  29.850  1.00  0.00     0.049 A 
ATOM     51  C   UNL A   1      42.559  32.303  33.200  1.00  0.00     0.074 A 
ATOM     52  C   UNL A   1      42.909  26.958  29.785  1.00  0.00     0.029 A 
ATOM     53  N   UNL A   1      42.232  28.849  30.744  1.00  0.00    -0.354 N 
ATOM     54  N   UNL A   1      42.541  31.226  32.454  1.00  0.00    -0.248 NA
ATOM     55  C   UNL A   1      43.760  32.440  34.036  1.00  0.00     0.031 C 
ATOM     56  C   UNL A   1      43.904  27.389  30.668  1.00  0.00     0.029 A 
ATOM     57  C   UNL A   1      43.488  28.574  31.253  1.00  0.00     0.049 A 
ATOM     58  H   UNL A   1      41.684  29.631  30.981  1.00  0.00     0.167 HD
ATOM     59  C   UNL A   1      43.731  30.562  32.719  1.00  0.00     0.074 A 
ATOM     60  C   UNL A   1      44.456  31.367  33.682  1.00  0.00     0.031 C 
ATOM     61  C   UNL A   1      44.183  29.390  32.214  1.00  0.00     0.031 A 
BRANCH  48  62
ATOM     62  C   UNL A   1      40.322  26.671  28.235  1.00  0.00    -0.014 A 
ATOM     63  C   UNL A   1      39.530  25.595  28.671  1.00  0.00     0.009 A 
ATOM     64  C   UNL A   1      40.832  26.656  26.929  1.00  0.00     0.009 A 
ATOM     65  C   UNL A   1      39.286  24.511  27.828  1.00  0.00     0.001 A 
ATOM     66  C   UNL A   1      40.565  25.582  26.079  1.00  0.00     0.001 A 
ATOM     67  C   UNL A   1      39.800  24.506  26.532  1.00  0.00     0.000 A 
ENDBRANCH  48  62
BRANCH  49  68
ATOM     68  C   UNL A   1      41.770  34.582  34.168  1.00  0.00    -0.014 A 
ATOM     69  C   UNL A   1      42.421  35.711  33.648  1.00  0.00     0.009 A 
ATOM     70  C   UNL A   1      41.343  34.599  35.505  1.00  0.00     0.009 A 
ATOM     71  C   UNL A   1      42.653  36.828  34.453  1.00  0.00     0.001 A 
ATOM     72  C   UNL A   1      41.559  35.727  36.302  1.00  0.00     0.001 A 
ATOM     73  C   UNL A   1      42.219  36.837  35.777  1.00  0.00     0.000 A 
ENDBRANCH  49  68
BRANCH  61  74
ATOM     74  C   UNL A   1      45.520  28.903  32.687  1.00  0.00    -0.014 A 
ATOM     75  C   UNL A   1      46.700  29.358  32.082  1.00  0.00     0.009 A 
ATOM     76  C   UNL A   1      45.601  28.056  33.802  1.00  0.00     0.009 A 
ATOM     77  C   UNL A   1      47.942  28.961  32.580  1.00  0.00     0.001 A 
ATOM     78  C   UNL A   1      46.844  27.679  34.310  1.00  0.00     0.001 A 
ATOM     79  C   UNL A   1      48.012  28.129  33.697  1.00  0.00     0.000 A 
ENDBRANCH  61  74
ENDBRANCH  35  36
ENDBRANCH  27  30
ENDBRANCH  25  26
ENDBRANCH  24  25
ENDBRANCH   1  24
TORSDOF 13
ENDMDL
MODEL 3
REMARK VINA RESULT:     -11.4      2.008      7.928
REMARK SMILES Cn1nc(N2CCC(CC(=O)NCCCCNC(=O)c3ccc(-c4c5nc(c(-c6ccccc6)c6ccc([nH]6)c(-c6ccccc6)c6nc(c(-c7ccccc7)c7ccc4[nH]7)C=C6)C=C5)cc3)CC2)c(=O)n(C)c1=O
REMARK SMILES IDX 14 1 13 2 12 3 10 4 11 5 9 7 8 8 5 9 6 10 69 11 7 12 68 13
REMARK SMILES IDX 4 14 1 15 2 16 3 17 74 18 72 19 75 20 70 21 73 22 71 23
REMARK SMILES IDX 15 24 16 25 17 26 18 27 19 29 20 30 21 31 67 32 22 33 66 34
REMARK SMILES IDX 23 35 24 36 25 37 60 38 26 39 65 40 59 41 61 42 27 43 64 44
REMARK SMILES IDX 58 45 57 46 28 48 50 49 35 50 49 51 36 52 39 53 48 54 62 55
REMARK SMILES IDX 37 56 38 57 47 59 63 60 40 61 29 62 30 63 34 64 31 65 33 66
REMARK SMILES IDX 32 67 51 68 52 69 56 70 53 71 55 72 54 73 41 74 42 75 46 76
REMARK SMILES IDX 43 77 45 78 44 79
REMARK H PARENT 12 6 17 28 61 47 39 58
REMARK Flexibility Score: inf
ROOT
ATOM      1  C   UNL A   1      33.960  28.589  24.618  1.00  0.00     0.023 C 
ENDROOT
BRANCH   1   2
ATOM      2  C   UNL A   1      33.416  27.318  23.960  1.00  0.00     0.116 C 
BRANCH   2   3
ATOM      3  N   UNL A   1      32.415  27.624  22.951  1.00  0.00    -0.356 N 
ATOM      4  C   UNL A   1      31.052  27.607  23.025  1.00  0.00     0.220 C 
ATOM      5  O   UNL A   1      30.410  27.839  21.999  1.00  0.00    -0.275 OA
ATOM      6  H   UNL A   1      32.779  27.884  22.074  1.00  0.00     0.163 HD
BRANCH   4   7
ATOM      7  C   UNL A   1      30.343  27.304  24.336  1.00  0.00     0.103 C 
BRANCH   7   8
ATOM      8  C   UNL A   1      30.111  25.800  24.595  1.00  0.00     0.002 C 
ATOM      9  N   UNL A   1      31.454  23.264  24.887  1.00  0.00    -0.351 N 
ATOM     10  C   UNL A   1      30.720  23.473  23.662  1.00  0.00     0.118 C 
ATOM     11  C   UNL A   1      30.860  23.850  26.076  1.00  0.00     0.118 C 
ATOM     12  C   UNL A   1      30.599  24.962  23.409  1.00  0.00     0.025 C 
ATOM     13  C   UNL A   1      30.811  25.371  25.902  1.00  0.00     0.025 C 
BRANCH   9  14
ATOM     14  C   UNL A   1      32.716  22.698  24.894  1.00  0.00     0.215 A 
ATOM     15  C   UNL A   1      36.168  23.695  24.900  1.00  0.00     0.180 C 
ATOM     16  N   UNL A   1      35.016  22.807  24.843  1.00  0.00    -0.216 N 
ATOM     17  N   UNL A   1      33.792  23.430  24.848  1.00  0.00    -0.145 NA
ATOM     18  C   UNL A   1      35.215  21.428  24.821  1.00  0.00     0.346 A 
ATOM     19  N   UNL A   1      34.077  20.648  24.811  1.00  0.00    -0.259 N 
ATOM     20  O   UNL A   1      36.344  20.931  24.824  1.00  0.00    -0.246 OA
ATOM     21  C   UNL A   1      32.809  21.173  24.916  1.00  0.00     0.299 A 
ATOM     22  C   UNL A   1      34.188  19.208  24.728  1.00  0.00     0.159 C 
ATOM     23  O   UNL A   1      31.778  20.514  25.001  1.00  0.00    -0.265 OA
ENDBRANCH   9  14
ENDBRANCH   7   8
ENDBRANCH   4   7
ENDBRANCH   2   3
ENDBRANCH   1   2
BRANCH   1  24
ATOM     24  C   UNL A   1      33.097  29.158  25.728  1.00  0.00     0.023 C 
BRANCH  24  25
ATOM     25  C   UNL A   1      33.741  29.075  27.098  1.00  0.00     0.116 C 
BRANCH  25  26
ATOM     26  N   UNL A   1      33.760  30.356  27.796  1.00  0.00    -0.352 N 
ATOM     27  C   UNL A   1      34.761  30.918  28.554  1.00  0.00     0.251 C 
ATOM     28  H   UNL A   1      32.940  30.894  27.714  1.00  0.00     0.163 HD
ATOM     29  O   UNL A   1      34.570  31.945  29.188  1.00  0.00    -0.269 OA
BRANCH  27  30
ATOM     30  C   UNL A   1      36.067  30.235  28.613  1.00  0.00     0.039 A 
ATOM     31  C   UNL A   1      36.874  30.203  27.475  1.00  0.00     0.014 A 
ATOM     32  C   UNL A   1      36.519  29.704  29.824  1.00  0.00     0.014 A 
ATOM     33  C   UNL A   1      38.174  29.707  27.575  1.00  0.00     0.010 A 
ATOM     34  C   UNL A   1      37.844  29.324  29.948  1.00  0.00     0.010 A 
ATOM     35  C   UNL A   1      38.679  29.302  28.822  1.00  0.00    -0.014 A 
BRANCH  35  36
ATOM     36  C   UNL A   1      40.062  28.793  28.969  1.00  0.00     0.031 A 
ATOM     37  C   UNL A   1      41.121  29.705  29.525  1.00  0.00     0.074 A 
ATOM     38  C   UNL A   1      40.374  27.551  28.557  1.00  0.00     0.049 A 
ATOM     39  N   UNL A   1      42.402  29.486  29.673  1.00  0.00    -0.248 NA
ATOM     40  C   UNL A   1      40.691  31.054  29.935  1.00  0.00     0.031 C 
ATOM     41  C   UNL A   1      39.444  26.590  27.959  1.00  0.00     0.029 A 
ATOM     42  N   UNL A   1      41.570  26.880  28.587  1.00  0.00    -0.354 N 
ATOM     43  C   UNL A   1      42.927  30.673  30.165  1.00  0.00     0.074 A 
ATOM     44  C   UNL A   1      41.846  31.629  30.228  1.00  0.00     0.031 C 
ATOM     45  C   UNL A   1      40.094  25.437  27.725  1.00  0.00     0.029 A 
ATOM     46  C   UNL A   1      41.489  25.590  28.122  1.00  0.00     0.049 A 
ATOM     47  H   UNL A   1      42.408  27.285  28.908  1.00  0.00     0.167 HD
ATOM     48  C   UNL A   1      44.190  30.936  30.568  1.00  0.00     0.031 A 
ATOM     49  C   UNL A   1      42.436  24.636  28.039  1.00  0.00     0.031 A 
ATOM     50  C   UNL A   1      45.253  29.973  30.554  1.00  0.00     0.049 A 
ATOM     51  C   UNL A   1      43.833  24.950  28.495  1.00  0.00     0.074 A 
ATOM     52  C   UNL A   1      46.550  30.115  31.007  1.00  0.00     0.029 A 
ATOM     53  N   UNL A   1      45.129  28.681  30.070  1.00  0.00    -0.354 N 
ATOM     54  N   UNL A   1      44.302  26.061  29.009  1.00  0.00    -0.248 NA
ATOM     55  C   UNL A   1      44.830  23.879  28.360  1.00  0.00     0.031 C 
ATOM     56  C   UNL A   1      47.225  28.914  30.767  1.00  0.00     0.029 A 
ATOM     57  C   UNL A   1      46.336  28.017  30.197  1.00  0.00     0.049 A 
ATOM     58  H   UNL A   1      44.307  28.293  29.693  1.00  0.00     0.167 HD
ATOM     59  C   UNL A   1      45.644  25.821  29.271  1.00  0.00     0.074 A 
ATOM     60  C   UNL A   1      45.910  24.452  28.875  1.00  0.00     0.031 C 
ATOM     61  C   UNL A   1      46.574  26.657  29.790  1.00  0.00     0.031 A 
BRANCH  48  62
ATOM     62  C   UNL A   1      44.472  32.318  31.082  1.00  0.00    -0.014 A 
ATOM     63  C   UNL A   1      44.316  32.628  32.443  1.00  0.00     0.009 A 
ATOM     64  C   UNL A   1      44.907  33.319  30.201  1.00  0.00     0.009 A 
ATOM     65  C   UNL A   1      44.554  33.923  32.904  1.00  0.00     0.001 A 
ATOM     66  C   UNL A   1      45.170  34.607  30.670  1.00  0.00     0.001 A 
ATOM     67  C   UNL A   1      44.985  34.910  32.019  1.00  0.00     0.000 A 
ENDBRANCH  48  62
BRANCH  49  68
ATOM     68  C   UNL A   1      42.084  23.282  27.542  1.00  0.00    -0.014 A 
ATOM     69  C   UNL A   1      41.482  22.351  28.402  1.00  0.00     0.009 A 
ATOM     70  C   UNL A   1      42.336  22.914  26.211  1.00  0.00     0.009 A 
ATOM     71  C   UNL A   1      41.153  21.073  27.945  1.00  0.00     0.001 A 
ATOM     72  C   UNL A   1      41.987  21.641  25.752  1.00  0.00     0.001 A 
ATOM     73  C   UNL A   1      41.401  20.720  26.620  1.00  0.00     0.000 A 
ENDBRANCH  49  68
BRANCH  61  74
ATOM     74  C   UNL A   1      47.964  26.124  29.962  1.00  0.00    -0.014 A 
ATOM     75  C   UNL A   1      48.889  26.189  28.910  1.00  0.00     0.009 A 
ATOM     76  C   UNL A   1      48.377  25.637  31.211  1.00  0.00     0.009 A 
ATOM     77  C   UNL A   1      50.204  25.763  29.104  1.00  0.00     0.001 A 
ATOM     78  C   UNL A   1      49.697  25.232  31.407  1.00  0.00     0.001 A 
ATOM     79  C   UNL A   1      50.608  25.293  30.354  1.00  0.00     0.000 A 
ENDBRANCH  61  74
ENDBRANCH  35  36
ENDBRANCH  27  30
ENDBRANCH  25  26
ENDBRANCH  24  25
ENDBRANCH   1  24
TORSDOF 13
ENDMDL
